
 Created by Python create_sdf_string function

 23  0  0  0  0  0  0  0  0  0999 V2000
    0.0000    0.0000    0.0000 C   0  0  0  0  0  0  0  0  0  0  0  0
    0.6636   -0.5342    1.8328 C   0  0  0  0  0  0  0  0  0  0  0  0
   -0.9867    0.0473    0.9659 C   0  0  0  0  0  0  0  0  0  0  0  0
    0.7216   -1.4714   -1.5051 C   0  0  0  0  0  0  0  0  0  0  0  0
   -1.7003   -0.9322   -1.1618 C   0  0  0  0  0  0  0  0  0  0  0  0
   -0.3132   -0.7577    2.4014 C   0  0  0  0  0  0  0  0  0  0  0  0
   -0.6216   -1.6913    0.6968 C   0  0  0  0  0  0  0  0  0  0  0  0
   -1.0172   -1.6537    1.1259 C   0  0  0  0  0  0  0  0  0  0  0  0
    1.7283    0.4995    1.3982 C   0  0  0  0  0  0  0  0  0  0  0  0
   -0.9606    0.9766    1.7605 C   0  0  0  0  0  0  0  0  0  0  0  0
   -0.4461    1.6842   -0.2456 C   0  0  0  0  0  0  0  0  0  0  0  0
    1.0141   -0.8991    0.4045 C   0  0  0  0  0  0  0  0  0  0  0  0
   -2.2912   -0.4864   -0.2950 C   0  0  0  0  0  0  0  0  0  0  0  0
    0.9447    1.1337   -2.0015 C   0  0  0  0  0  0  0  0  0  0  0  0
    1.8859   -0.4000    0.2411 C   0  0  0  0  0  0  0  0  0  0  0  0
    0.0091   -1.0844    0.7782 C   0  0  0  0  0  0  0  0  0  0  0  0
    1.9890    2.0316   -0.4913 C   0  0  0  0  0  0  0  0  0  0  0  0
   -1.0620    0.9487    1.4322 C   0  0  0  0  0  0  0  0  0  0  0  0
    1.4648   -0.0368    0.6268 C   0  0  0  0  0  0  0  0  0  0  0  0
    1.8076    0.1729   -0.9815 C   0  0  0  0  0  0  0  0  0  0  0  0
   -1.0297   -0.7237    1.8808 C   0  0  0  0  0  0  0  0  0  0  0  0
   -0.4578    1.6297    1.7945 C   0  0  0  0  0  0  0  0  0  0  0  0
   -1.0084   -0.7262   -0.9420 C   0  0  0  0  0  0  0  0  0  0  0  0
M  END
$$$$

 Created by Python create_sdf_string function

 23 22  0  0  0  0  0  0  0  0999 V2000
    4.0743   -8.2328   21.5834 C   0  0  0  0  0  0  0  0  0  0  0  0
    2.3750   -7.6227   23.5325 Cl  0  0  0  0  0  0  0  0  0  0  0  0
    4.1077   -8.1960   22.2825 O   0  0  0  0  0  0  0  0  0  0  0  0
    3.3935   -9.6385   23.0983 O   0  0  0  0  0  0  0  0  0  0  0  0
    3.1351   -6.6862   21.6248 N   0  0  0  0  0  0  0  0  0  0  0  0
    2.8720   -8.6194   24.1997 C   0  0  0  0  0  0  0  0  0  0  0  0
    2.9186  -10.2507   22.3978 S   0  0  0  0  0  0  0  0  0  0  0  0
    4.7488   -7.9040   22.9912 O   0  0  0  0  0  0  0  0  0  0  0  0
    2.9317   -9.0362   22.5825 O   0  0  0  0  0  0  0  0  0  0  0  0
    2.6947   -9.4003   22.0114 F   0  0  0  0  0  0  0  0  0  0  0  0
    2.3884   -8.8425   21.5317 N   0  0  0  0  0  0  0  0  0  0  0  0
    3.7284   -7.6630   24.0492 N   0  0  0  0  0  0  0  0  0  0  0  0
    1.7764   -7.3772   22.6147 He  0  0  0  0  0  0  0  0  0  0  0  0
    2.9905   -9.7445   23.6810 He  0  0  0  0  0  0  0  0  0  0  0  0
    3.2657   -6.7853   22.2581 He  0  0  0  0  0  0  0  0  0  0  0  0
    1.2338   -9.2831   24.6873 He  0  0  0  0  0  0  0  0  0  0  0  0
    2.8690   -9.2991   21.9996 He  0  0  0  0  0  0  0  0  0  0  0  0
    3.2121   -8.8035   21.2941 He  0  0  0  0  0  0  0  0  0  0  0  0
    3.3427   -8.4530   22.2537 He  0  0  0  0  0  0  0  0  0  0  0  0
    3.7958   -7.5220   20.2271 He  0  0  0  0  0  0  0  0  0  0  0  0
    4.2319   -8.3291   23.1641 He  0  0  0  0  0  0  0  0  0  0  0  0
    3.4272   -9.4128   21.6151 He  0  0  0  0  0  0  0  0  0  0  0  0
    3.2790   -8.2189   23.5283 He  0  0  0  0  0  0  0  0  0  0  0  0
  1  2  1  0
  1 10  3  0
  2  6  2  0
  2  7  3  0
  2  8  4  0
  3  4  2  0
  3  5  4  0
  3  8  2  0
  3  9  3  0
  3 12  2  0
  4  6  1  0
  4 10  3  0
  4 12  2  0
  5  6  1  0
  5 10  4  0
  6 12  3  0
  8  9  4  0
  8 10  4  0
  8 11  2  0
  9 10  3  0
  9 11  2  0
 10 11  2  0
M  END
$$$$

 Created by Python create_sdf_string function

 23  0  0  0  0  0  0  0  0  0999 V2000
    1.9441   -7.2863   23.0843 C   0  0  0  0  0  0  0  0  0  0  0  0
    2.0523   -9.0601   25.1225 C   0  0  0  0  0  0  0  0  0  0  0  0
    3.3535   -6.9785   22.3838 C   0  0  0  0  0  0  0  0  0  0  0  0
    4.1642   -8.0403   20.9924 C   0  0  0  0  0  0  0  0  0  0  0  0
    2.2916   -7.1539   25.5075 C   0  0  0  0  0  0  0  0  0  0  0  0
    1.5402   -8.9475   25.8346 C   0  0  0  0  0  0  0  0  0  0  0  0
    4.2584   -7.7683   22.1977 C   0  0  0  0  0  0  0  0  0  0  0  0
    2.1790   -9.6092   21.1225 C   0  0  0  0  0  0  0  0  0  0  0  0
    2.4198   -9.3090   23.7366 C   0  0  0  0  0  0  0  0  0  0  0  0
    3.0366   -8.9866   20.1433 C   0  0  0  0  0  0  0  0  0  0  0  0
    3.0930   -7.0136   21.7654 C   0  0  0  0  0  0  0  0  0  0  0  0
    2.3868   -8.1487   25.9598 C   0  0  0  0  0  0  0  0  0  0  0  0
    2.1307  -10.0534   21.8057 C   0  0  0  0  0  0  0  0  0  0  0  0
    3.5167   -7.9330   22.0975 C   0  0  0  0  0  0  0  0  0  0  0  0
    4.5629   -7.5712   24.1016 C   0  0  0  0  0  0  0  0  0  0  0  0
    2.3158   -9.0107   22.9221 C   0  0  0  0  0  0  0  0  0  0  0  0
    4.0506   -7.9760   19.7079 C   0  0  0  0  0  0  0  0  0  0  0  0
    4.2207   -7.6326   24.2907 C   0  0  0  0  0  0  0  0  0  0  0  0
    1.9029   -9.6937   21.1196 C   0  0  0  0  0  0  0  0  0  0  0  0
    2.9946   -9.4351   20.6133 C   0  0  0  0  0  0  0  0  0  0  0  0
    1.6494   -9.4613   20.5034 C   0  0  0  0  0  0  0  0  0  0  0  0
    3.2926   -7.5160   25.2448 C   0  0  0  0  0  0  0  0  0  0  0  0
    3.7978   -7.2650   25.5915 C   0  0  0  0  0  0  0  0  0  0  0  0
M  END
$$$$

 Created by Python create_sdf_string function

 23 26  0  0  0  0  0  0  0  0999 V2000
    2.9428   -9.8974   26.7832 C   0  0  0  0  0  0  0  0  0  0  0  0
    4.0430   -7.9164   22.2073 Se  0  0  0  0  0  0  0  0  0  0  0  0
    4.3498   -7.6027   27.2973 Cl  0  0  0  0  0  0  0  0  0  0  0  0
   -0.4321   -9.5830   26.6649 S   0  0  0  0  0  0  0  0  0  0  0  0
    4.2960   -8.5461   22.3829 C   0  0  0  0  0  0  0  0  0  0  0  0
    2.6339   -8.6010   25.7263 F   0  0  0  0  0  0  0  0  0  0  0  0
    4.6922   -7.8843   21.4672 Se  0  0  0  0  0  0  0  0  0  0  0  0
    2.9827   -8.8646   24.9626 F   0  0  0  0  0  0  0  0  0  0  0  0
    3.3774   -8.5625   18.5401 F   0  0  0  0  0  0  0  0  0  0  0  0
    3.9934   -9.6375   20.0035 S   0  0  0  0  0  0  0  0  0  0  0  0
    1.5883  -11.8110   19.6894 O   0  0  0  0  0  0  0  0  0  0  0  0
    1.5145   -7.7809   24.5848 N   0  0  0  0  0  0  0  0  0  0  0  0
    3.6231   -7.8472   24.7834 F   0  0  0  0  0  0  0  0  0  0  0  0
    2.2936   -7.3249   24.3673 He  0  0  0  0  0  0  0  0  0  0  0  0
    2.6997   -7.1665   23.2870 He  0  0  0  0  0  0  0  0  0  0  0  0
    2.9265   -9.1249   22.2779 He  0  0  0  0  0  0  0  0  0  0  0  0
    0.9367  -10.0642   22.4353 He  0  0  0  0  0  0  0  0  0  0  0  0
    3.1534  -10.9911   19.5109 He  0  0  0  0  0  0  0  0  0  0  0  0
    4.3205   -6.5879   19.3960 He  0  0  0  0  0  0  0  0  0  0  0  0
    1.2516  -10.0353   21.0499 He  0  0  0  0  0  0  0  0  0  0  0  0
    2.5822   -9.2767   22.4204 He  0  0  0  0  0  0  0  0  0  0  0  0
    4.6869   -7.3916   24.9682 He  0  0  0  0  0  0  0  0  0  0  0  0
    1.7242   -9.6457   23.3847 He  0  0  0  0  0  0  0  0  0  0  0  0
  1  3  2  0
  1  8  3  0
  2  3  2  0
  2  6  1  0
  2  7  4  0
  2  8  2  0
  2 13  4  0
  3  5  3  0
  3  7  4  0
  3  8  3  0
  3 12  4  0
  4  5  4  0
  4  9  2  0
  5  7  1  0
  5  9  3  0
  5 10  3  0
  5 12  3  0
  6  7  4  0
  6 11  4  0
  7  9  4  0
  8 11  4  0
  8 12  2  0
  9 10  1  0
  9 11  3  0
  9 13  3  0
 10 13  2  0
M  END
$$$$

 Created by Python create_sdf_string function

 23  1  0  0  0  0  0  0  0  0999 V2000
    2.5355   -7.2541   25.4872 C   0  0  0  0  0  0  0  0  0  0  0  0
    2.3991   -9.0953   27.2469 C   0  0  0  0  0  0  0  0  0  0  0  0
    3.2779   -7.6483   23.8927 C   0  0  0  0  0  0  0  0  0  0  0  0
    4.2929   -8.2647   21.8587 C   0  0  0  0  0  0  0  0  0  0  0  0
    4.1081   -7.5198   26.9954 C   0  0  0  0  0  0  0  0  0  0  0  0
    1.1235   -9.7124   26.6099 O   0  0  0  0  0  0  0  0  0  0  0  0
    4.2571   -8.3190   21.9306 C   0  0  0  0  0  0  0  0  0  0  0  0
    2.7243   -9.4032   21.5490 C   0  0  0  0  0  0  0  0  0  0  0  0
    1.4181  -10.0526   21.7258 C   0  0  0  0  0  0  0  0  0  0  0  0
    2.5682  -10.4576   18.8772 C   0  0  0  0  0  0  0  0  0  0  0  0
    4.9196   -8.4574   19.5802 C   0  0  0  0  0  0  0  0  0  0  0  0
    2.3518   -8.3997   26.4765 C   0  0  0  0  0  0  0  0  0  0  0  0
    1.4087  -10.3519   20.5901 C   0  0  0  0  0  0  0  0  0  0  0  0
    4.5131   -8.4216   21.0122 C   0  0  0  0  0  0  0  0  0  0  0  0
    2.5867   -8.3755   25.9093 C   0  0  0  0  0  0  0  0  0  0  0  0
    2.5703   -9.4173   21.7863 C   0  0  0  0  0  0  0  0  0  0  0  0
    3.7299   -9.6404   18.5599 C   0  0  0  0  0  0  0  0  0  0  0  0
    4.5490   -7.3253   25.7668 C   0  0  0  0  0  0  0  0  0  0  0  0
    1.6503   -9.6049   23.3482 C   0  0  0  0  0  0  0  0  0  0  0  0
    3.6559   -9.5731   19.3257 C   0  0  0  0  0  0  0  0  0  0  0  0
    1.3690  -10.8952   19.1599 C   0  0  0  0  0  0  0  0  0  0  0  0
    1.6197   -7.7572   25.8474 C   0  0  0  0  0  0  0  0  0  0  0  0
    3.8812   -7.5030   25.5063 C   0  0  0  0  0  0  0  0  0  0  0  0
 18 23  1  0
M  END
$$$$

 Created by Python create_sdf_string function

 23 23  0  0  0  0  0  0  0  0999 V2000
    2.3376   -8.8941   27.6618 N   0  0  0  0  0  0  0  0  0  0  0  0
    4.2614   -7.6596   20.9005 F   0  0  0  0  0  0  0  0  0  0  0  0
    3.6641   -8.9958   27.5507 N   0  0  0  0  0  0  0  0  0  0  0  0
    4.9960   -8.3455   22.4722 C   0  0  0  0  0  0  0  0  0  0  0  0
    6.0299   -7.5004   20.5577 N   0  0  0  0  0  0  0  0  0  0  0  0
    2.9603   -8.1055   26.7459 N   0  0  0  0  0  0  0  0  0  0  0  0
    1.1697  -10.6332   19.7640 O   0  0  0  0  0  0  0  0  0  0  0  0
    1.8167   -7.6661   25.7542 Cl  0  0  0  0  0  0  0  0  0  0  0  0
    3.3992   -9.2405   19.3209 C   0  0  0  0  0  0  0  0  0  0  0  0
    4.1260   -8.2418   26.4032 F   0  0  0  0  0  0  0  0  0  0  0  0
    2.7064  -10.0294   20.7060 N   0  0  0  0  0  0  0  0  0  0  0  0
    1.8432   -6.9640   25.5753 He  0  0  0  0  0  0  0  0  0  0  0  0
    2.1554   -7.6593   23.8442 He  0  0  0  0  0  0  0  0  0  0  0  0
    0.5075   -8.4987   27.2313 He  0  0  0  0  0  0  0  0  0  0  0  0
    3.7839  -12.2066   20.6376 He  0  0  0  0  0  0  0  0  0  0  0  0
    1.6175  -10.6546   20.1938 He  0  0  0  0  0  0  0  0  0  0  0  0
    4.5469   -8.2731   19.7102 He  0  0  0  0  0  0  0  0  0  0  0  0
    2.8818   -7.8348   20.5936 He  0  0  0  0  0  0  0  0  0  0  0  0
    0.9203   -8.7126   21.6146 He  0  0  0  0  0  0  0  0  0  0  0  0
    0.9291  -10.7826   21.6547 He  0  0  0  0  0  0  0  0  0  0  0  0
    2.4668   -9.8130   20.2829 He  0  0  0  0  0  0  0  0  0  0  0  0
    1.8838   -8.5579   25.5004 He  0  0  0  0  0  0  0  0  0  0  0  0
    1.2532   -6.4359   25.2132 He  0  0  0  0  0  0  0  0  0  0  0  0
  1  3  3  0
  1  4  1  0
  1  8  1  0
  1 10  4  0
  1 11  3  0
  2  7  4  0
  2  9  4  0
  3  5  4  0
  3  6  2  0
  3  9  1  0
  3 11  2  0
  4  9  3  0
  4 10  2  0
  5  6  1  0
  5  8  2  0
  5 10  3  0
  6 10  2  0
  6 11  3  0
  7  8  2  0
  7  9  3  0
  7 11  2  0
  8  9  4  0
  9 10  3  0
M  END
$$$$

 Created by Python create_sdf_string function

 23  0  0  0  0  0  0  0  0  0999 V2000
    2.2593   -6.6809   26.0561 C   0  0  0  0  0  0  0  0  0  0  0  0
    2.4363   -8.7431   27.7745 C   0  0  0  0  0  0  0  0  0  0  0  0
    2.7887   -7.7472   24.1750 C   0  0  0  0  0  0  0  0  0  0  0  0
    4.2580   -8.4042   21.1087 C   0  0  0  0  0  0  0  0  0  0  0  0
    3.5809   -8.5826   27.5135 C   0  0  0  0  0  0  0  0  0  0  0  0
    1.3427   -8.4179   27.5120 C   0  0  0  0  0  0  0  0  0  0  0  0
    4.3084   -7.8249   22.9741 C   0  0  0  0  0  0  0  0  0  0  0  0
    2.8506  -10.7203   19.4254 C   0  0  0  0  0  0  0  0  0  0  0  0
    1.2248  -10.4958   19.7075 C   0  0  0  0  0  0  0  0  0  0  0  0
    4.7171   -8.8309   19.5683 C   0  0  0  0  0  0  0  0  0  0  0  0
    5.0499   -8.3764   20.4990 C   0  0  0  0  0  0  0  0  0  0  0  0
    3.2406   -7.8352   26.6971 C   0  0  0  0  0  0  0  0  0  0  0  0
    0.8051  -10.6072   19.5328 C   0  0  0  0  0  0  0  0  0  0  0  0
    3.6802   -8.6413   21.0041 C   0  0  0  0  0  0  0  0  0  0  0  0
    2.0625   -7.4504   26.1477 C   0  0  0  0  0  0  0  0  0  0  0  0
    1.7023   -9.1848   21.9737 C   0  0  0  0  0  0  0  0  0  0  0  0
    3.7846   -9.6700   19.0033 C   0  0  0  0  0  0  0  0  0  0  0  0
    4.1949   -7.6892   26.2925 C   0  0  0  0  0  0  0  0  0  0  0  0
    1.2761   -9.9100   21.2202 C   0  0  0  0  0  0  0  0  0  0  0  0
    2.5277  -10.0148   19.8148 C   0  0  0  0  0  0  0  0  0  0  0  0
    2.6931   -9.8474   20.1951 C   0  0  0  0  0  0  0  0  0  0  0  0
    2.1740   -8.1624   26.0746 C   0  0  0  0  0  0  0  0  0  0  0  0
    1.6464   -6.5151   26.1126 C   0  0  0  0  0  0  0  0  0  0  0  0
M  END
$$$$

 Created by Python create_sdf_string function

 23 32  0  0  0  0  0  0  0  0999 V2000
    2.9554   -7.7755   27.3233 O   0  0  0  0  0  0  0  0  0  0  0  0
    2.2622   -6.6139   23.6965 Cl  0  0  0  0  0  0  0  0  0  0  0  0
    3.5249  -10.7946   21.2546 F   0  0  0  0  0  0  0  0  0  0  0  0
    1.4032   -8.8337   27.8820 N   0  0  0  0  0  0  0  0  0  0  0  0
    5.1814   -7.2938   23.3072 S   0  0  0  0  0  0  0  0  0  0  0  0
    3.1026  -13.0597   18.8918 N   0  0  0  0  0  0  0  0  0  0  0  0
    4.8404   -9.8884   20.5321 C   0  0  0  0  0  0  0  0  0  0  0  0
    3.9769   -8.1318   27.1588 N   0  0  0  0  0  0  0  0  0  0  0  0
    3.5375   -8.8888   20.3815 Br  0  0  0  0  0  0  0  0  0  0  0  0
    2.0416   -7.5083   25.5929 C   0  0  0  0  0  0  0  0  0  0  0  0
    4.7666   -8.2013   26.8945 F   0  0  0  0  0  0  0  0  0  0  0  0
    2.9449  -10.5858   21.9559 O   0  0  0  0  0  0  0  0  0  0  0  0
    0.8096   -6.2810   25.1067 Br  0  0  0  0  0  0  0  0  0  0  0  0
    1.0902   -7.0463   28.1410 He  0  0  0  0  0  0  0  0  0  0  0  0
    3.2426   -8.2375   27.6716 He  0  0  0  0  0  0  0  0  0  0  0  0
    1.9623  -11.1773   20.8919 He  0  0  0  0  0  0  0  0  0  0  0  0
    6.1178   -6.6879   20.2725 He  0  0  0  0  0  0  0  0  0  0  0  0
    2.9502  -11.2261   19.0853 He  0  0  0  0  0  0  0  0  0  0  0  0
    2.2852   -7.4383   21.2053 He  0  0  0  0  0  0  0  0  0  0  0  0
    4.1470   -7.8043   19.4290 He  0  0  0  0  0  0  0  0  0  0  0  0
    1.9525  -10.7699   18.9078 He  0  0  0  0  0  0  0  0  0  0  0  0
    1.3181  -10.9293   20.7066 He  0  0  0  0  0  0  0  0  0  0  0  0
    1.1567   -7.3315   26.4999 He  0  0  0  0  0  0  0  0  0  0  0  0
  1  2  1  0
  1  6  3  0
  1  7  3  0
  1 11  2  0
  1 13  3  0
  2  4  2  0
  2  5  2  0
  2  8  2  0
  2  9  1  0
  2 11  3  0
  2 12  4  0
  3  5  4  0
  3  8  1  0
  3 10  3  0
  3 11  1  0
  4  5  3  0
  4  6  4  0
  5  7  1  0
  5  9  1  0
  5 10  2  0
  5 11  2  0
  6 11  2  0
  7  8  2  0
  7 13  4  0
  8 10  3  0
  8 12  2  0
  9 10  2  0
  9 12  2  0
  9 13  1  0
 10 13  3  0
 11 12  2  0
 12 13  1  0
M  END
$$$$

 Created by Python create_sdf_string function

 23  0  0  0  0  0  0  0  0  0999 V2000
    3.2122   -7.7424   27.4468 C   0  0  0  0  0  0  0  0  0  0  0  0
    1.0366   -7.2415   28.1724 C   0  0  0  0  0  0  0  0  0  0  0  0
    3.1844   -7.1259   24.9244 C   0  0  0  0  0  0  0  0  0  0  0  0
    3.0164   -9.7180   20.6156 C   0  0  0  0  0  0  0  0  0  0  0  0
    3.3126   -8.0868   27.6629 C   0  0  0  0  0  0  0  0  0  0  0  0
    1.5966   -8.3177   28.0937 C   0  0  0  0  0  0  0  0  0  0  0  0
    4.6536   -7.6205   24.3385 O   0  0  0  0  0  0  0  0  0  0  0  0
    2.6102  -11.7832   18.2312 N   0  0  0  0  0  0  0  0  0  0  0  0
    1.7536  -10.3732   20.1364 C   0  0  0  0  0  0  0  0  0  0  0  0
    4.3064   -9.2986   19.9477 C   0  0  0  0  0  0  0  0  0  0  0  0
    5.1172   -8.4445   20.3254 C   0  0  0  0  0  0  0  0  0  0  0  0
    4.0022   -7.8450   26.9783 C   0  0  0  0  0  0  0  0  0  0  0  0
    2.9728  -10.8437   18.3934 C   0  0  0  0  0  0  0  0  0  0  0  0
    3.8867   -9.1796   20.3105 C   0  0  0  0  0  0  0  0  0  0  0  0
    2.6383   -7.2121   26.1262 C   0  0  0  0  0  0  0  0  0  0  0  0
    3.3796   -8.6940   21.5591 C   0  0  0  0  0  0  0  0  0  0  0  0
    4.6930   -8.9237   19.2251 C   0  0  0  0  0  0  0  0  0  0  0  0
    4.8897   -7.6973   26.4775 C   0  0  0  0  0  0  0  0  0  0  0  0
    2.4545   -9.6125   21.4038 C   0  0  0  0  0  0  0  0  0  0  0  0
    1.6902  -10.8248   18.7129 C   0  0  0  0  0  0  0  0  0  0  0  0
    1.2982  -10.4880   19.8862 C   0  0  0  0  0  0  0  0  0  0  0  0
    1.3875   -6.9601   26.9428 C   0  0  0  0  0  0  0  0  0  0  0  0
    1.2013   -6.3552   26.3346 C   0  0  0  0  0  0  0  0  0  0  0  0
M  END
$$$$

 Created by Python create_sdf_string function

 23 17  0  0  0  0  0  0  0  0999 V2000
    1.1131   -6.9498   24.5508 B   0  0  0  0  0  0  0  0  0  0  0  0
    3.6314   -7.8708   28.0688 O   0  0  0  0  0  0  0  0  0  0  0  0
    1.4531  -12.3852   19.9322 N   0  0  0  0  0  0  0  0  0  0  0  0
    3.8640  -10.9950   18.4408 N   0  0  0  0  0  0  0  0  0  0  0  0
    2.1737   -5.5052   25.9870 F   0  0  0  0  0  0  0  0  0  0  0  0
    3.1419   -9.2118   23.1301 Cl  0  0  0  0  0  0  0  0  0  0  0  0
    2.9455   -9.1556   19.1241 S   0  0  0  0  0  0  0  0  0  0  0  0
    0.4796   -7.1922   27.5776 P   0  0  0  0  0  0  0  0  0  0  0  0
    3.0407   -7.1227   28.3508 He  0  0  0  0  0  0  0  0  0  0  0  0
    0.7363   -6.3750   27.7971 He  0  0  0  0  0  0  0  0  0  0  0  0
    2.1178  -10.7812   22.1258 He  0  0  0  0  0  0  0  0  0  0  0  0
    1.6998   -8.5498   26.1960 He  0  0  0  0  0  0  0  0  0  0  0  0
    4.2401   -5.8936   25.7839 He  0  0  0  0  0  0  0  0  0  0  0  0
    1.9201   -9.1206   19.9610 He  0  0  0  0  0  0  0  0  0  0  0  0
    3.6977  -10.8042   21.0900 He  0  0  0  0  0  0  0  0  0  0  0  0
    6.8691   -8.2749   19.7151 He  0  0  0  0  0  0  0  0  0  0  0  0
    3.3276   -8.3294   28.4978 He  0  0  0  0  0  0  0  0  0  0  0  0
    5.2171   -9.1970   21.5199 He  0  0  0  0  0  0  0  0  0  0  0  0
    5.3776   -7.4209   25.6803 He  0  0  0  0  0  0  0  0  0  0  0  0
    2.4662  -10.9395   21.7718 He  0  0  0  0  0  0  0  0  0  0  0  0
    0.6185   -9.7267   18.4020 He  0  0  0  0  0  0  0  0  0  0  0  0
    1.4603  -11.5810   20.5443 He  0  0  0  0  0  0  0  0  0  0  0  0
    2.8751   -7.0568   25.1282 He  0  0  0  0  0  0  0  0  0  0  0  0
  1  2  3  0
  1  7  4  0
  1  8  1  0
  2  3  1  0
  2  4  1  0
  2  5  3  0
  2  6  3  0
  2  7  1  0
  2  8  4  0
  3  5  3  0
  3  7  1  0
  4  6  1  0
  4  7  4  0
  5  6  4  0
  5  8  4  0
  6  7  4  0
  7  8  1  0
M  END
$$$$

 Created by Python create_sdf_string function

 23  3  0  0  0  0  0  0  0  0999 V2000
    2.7994   -7.2180   28.2751 C   0  0  0  0  0  0  0  0  0  0  0  0
    0.9913   -6.3243   27.8635 C   0  0  0  0  0  0  0  0  0  0  0  0
    1.5332   -6.7722   26.0374 C   0  0  0  0  0  0  0  0  0  0  0  0
    2.2719   -9.8870   21.4363 C   0  0  0  0  0  0  0  0  0  0  0  0
    3.5463   -7.7500   27.9165 C   0  0  0  0  0  0  0  0  0  0  0  0
    2.1710   -8.2269   26.5071 C   0  0  0  0  0  0  0  0  0  0  0  0
    4.0751   -6.7055   26.4426 C   0  0  0  0  0  0  0  0  0  0  0  0
    1.0403  -11.0944   19.1390 C   0  0  0  0  0  0  0  0  0  0  0  0
    2.3401  -10.2166   19.3629 C   0  0  0  0  0  0  0  0  0  0  0  0
    3.2979   -9.8404   20.4694 C   0  0  0  0  0  0  0  0  0  0  0  0
    4.9560   -9.6812   19.1826 C   0  0  0  0  0  0  0  0  0  0  0  0
    3.1075   -8.0670   28.1336 C   0  0  0  0  0  0  0  0  0  0  0  0
    3.8163  -10.3697   18.0798 C   0  0  0  0  0  0  0  0  0  0  0  0
    4.2341   -9.2457   21.0910 C   0  0  0  0  0  0  0  0  0  0  0  0
    2.2908   -5.8882   26.6037 C   0  0  0  0  0  0  0  0  0  0  0  0
    3.2589   -8.6358   23.2940 C   0  0  0  0  0  0  0  0  0  0  0  0
    3.2344  -10.2743   18.3457 C   0  0  0  0  0  0  0  0  0  0  0  0
    4.6233   -7.4941   25.9034 C   0  0  0  0  0  0  0  0  0  0  0  0
    2.3725   -9.9228   21.2047 C   0  0  0  0  0  0  0  0  0  0  0  0
    1.2111  -10.5395   18.1915 C   0  0  0  0  0  0  0  0  0  0  0  0
    1.1752  -10.6567   19.6731 C   0  0  0  0  0  0  0  0  0  0  0  0
    1.0781   -6.9402   27.8056 C   0  0  0  0  0  0  0  0  0  0  0  0
    3.2969   -7.2140   25.8046 C   0  0  0  0  0  0  0  0  0  0  0  0
  2 22  1  0
  7 18  1  0
 13 17  4  0
M  END
$$$$

 Created by Python create_sdf_string function

 23 19  0  0  0  0  0  0  0  0999 V2000
    1.6075   -6.0643   27.7460 O   0  0  0  0  0  0  0  0  0  0  0  0
    1.2643   -7.3640   28.5168 C   0  0  0  0  0  0  0  0  0  0  0  0
    2.5573   -7.1913   25.6377 O   0  0  0  0  0  0  0  0  0  0  0  0
    1.4806   -9.0307   20.8316 S   0  0  0  0  0  0  0  0  0  0  0  0
    1.8615   -8.8033   20.0247 B   0  0  0  0  0  0  0  0  0  0  0  0
    4.8538  -10.0792   19.8041 Cl  0  0  0  0  0  0  0  0  0  0  0  0
    2.8716   -7.3940   27.9794 Cl  0  0  0  0  0  0  0  0  0  0  0  0
    3.0751   -9.6334   18.3042 O   0  0  0  0  0  0  0  0  0  0  0  0
    3.2884  -10.4901   21.5878 F   0  0  0  0  0  0  0  0  0  0  0  0
    0.9729   -9.8451   17.8491 C   0  0  0  0  0  0  0  0  0  0  0  0
    3.9255   -7.5740   25.3404 F   0  0  0  0  0  0  0  0  0  0  0  0
    3.1643   -7.1272   26.7701 He  0  0  0  0  0  0  0  0  0  0  0  0
    2.3631   -7.7884   28.6942 He  0  0  0  0  0  0  0  0  0  0  0  0
    2.2993   -5.6228   25.7873 He  0  0  0  0  0  0  0  0  0  0  0  0
    0.1104  -12.2610   17.8452 He  0  0  0  0  0  0  0  0  0  0  0  0
    2.0245  -10.4220   19.9193 He  0  0  0  0  0  0  0  0  0  0  0  0
    4.8543   -9.9987   17.6103 He  0  0  0  0  0  0  0  0  0  0  0  0
    6.0218  -10.2800   21.0064 He  0  0  0  0  0  0  0  0  0  0  0  0
    1.4396   -5.8844   26.0696 He  0  0  0  0  0  0  0  0  0  0  0  0
    1.8382   -6.9154   24.8541 He  0  0  0  0  0  0  0  0  0  0  0  0
    4.7293   -6.0847   27.0379 He  0  0  0  0  0  0  0  0  0  0  0  0
    1.9935   -9.4169   20.4742 He  0  0  0  0  0  0  0  0  0  0  0  0
    0.7673   -6.8232   26.8188 He  0  0  0  0  0  0  0  0  0  0  0  0
  1  3  4  0
  1  6  3  0
  2  5  1  0
  2  7  3  0
  2  9  2  0
  2 10  2  0
  3 10  2  0
  4 11  4  0
  5  9  4  0
  5 10  4  0
  5 11  4  0
  6  7  4  0
  6 10  3  0
  6 11  2  0
  7  9  3  0
  7 10  3  0
  8  9  3  0
  8 11  4  0
 10 11  2  0
M  END
$$$$

 Created by Python create_sdf_string function

 23  0  0  0  0  0  0  0  0  0999 V2000
    1.4076   -6.1582   28.0279 C   0  0  0  0  0  0  0  0  0  0  0  0
    1.2997   -7.2788   28.6252 C   0  0  0  0  0  0  0  0  0  0  0  0
    3.0437   -7.2195   26.0550 C   0  0  0  0  0  0  0  0  0  0  0  0
    1.7490   -9.8704   20.3852 C   0  0  0  0  0  0  0  0  0  0  0  0
    3.3270   -7.0236   26.9888 C   0  0  0  0  0  0  0  0  0  0  0  0
    2.2331   -7.5830   28.6571 C   0  0  0  0  0  0  0  0  0  0  0  0
    2.2816   -5.8367   26.5391 C   0  0  0  0  0  0  0  0  0  0  0  0
    0.4193  -11.0145   18.4258 C   0  0  0  0  0  0  0  0  0  0  0  0
    1.7237  -10.3234   19.2370 C   0  0  0  0  0  0  0  0  0  0  0  0
    2.0651   -9.9803   19.2342 C   0  0  0  0  0  0  0  0  0  0  0  0
    4.2899   -9.6527   19.0663 C   0  0  0  0  0  0  0  0  0  0  0  0
    2.8136   -7.3103   28.1599 C   0  0  0  0  0  0  0  0  0  0  0  0
    4.3146   -9.9285   17.8222 C   0  0  0  0  0  0  0  0  0  0  0  0
    4.5183   -9.3988   19.7913 C   0  0  0  0  0  0  0  0  0  0  0  0
    1.3147   -5.7545   26.6876 C   0  0  0  0  0  0  0  0  0  0  0  0
    2.3900   -7.0174   25.7500 C   0  0  0  0  0  0  0  0  0  0  0  0
    2.9009  -10.0400   17.7653 C   0  0  0  0  0  0  0  0  0  0  0  0
    4.4738   -6.5061   27.1771 C   0  0  0  0  0  0  0  0  0  0  0  0
    2.9043   -9.5310   20.5743 C   0  0  0  0  0  0  0  0  0  0  0  0
    1.2475  -10.2730   17.7913 C   0  0  0  0  0  0  0  0  0  0  0  0
    2.0018   -9.9580   19.9265 C   0  0  0  0  0  0  0  0  0  0  0  0
    0.8855   -6.4243   27.4016 C   0  0  0  0  0  0  0  0  0  0  0  0
    3.8632   -7.4023   25.6882 C   0  0  0  0  0  0  0  0  0  0  0  0
M  END
$$$$

 Created by Python create_sdf_string function

 23 36  0  0  0  0  0  0  0  0999 V2000
    0.5351   -4.5723   27.1626 O   0  0  0  0  0  0  0  0  0  0  0  0
    3.8129   -7.6834   26.7376 C   0  0  0  0  0  0  0  0  0  0  0  0
    1.4214   -8.4661   22.0180 N   0  0  0  0  0  0  0  0  0  0  0  0
    4.1168   -7.5368   26.7636 C   0  0  0  0  0  0  0  0  0  0  0  0
    1.7399   -7.9212   27.5979 F   0  0  0  0  0  0  0  0  0  0  0  0
    0.4835   -8.9128   17.2036 F   0  0  0  0  0  0  0  0  0  0  0  0
    1.9581  -10.7088   18.8467 O   0  0  0  0  0  0  0  0  0  0  0  0
    2.9100   -9.1824   19.8535 Cl  0  0  0  0  0  0  0  0  0  0  0  0
    3.0941   -7.0494   27.1210 C   0  0  0  0  0  0  0  0  0  0  0  0
    0.8001   -7.7470   26.3952 Se  0  0  0  0  0  0  0  0  0  0  0  0
    3.1176  -10.1317   18.4749 C   0  0  0  0  0  0  0  0  0  0  0  0
   -0.0837  -11.6638   16.9969 N   0  0  0  0  0  0  0  0  0  0  0  0
    1.0655   -7.6451   27.3914 Cl  0  0  0  0  0  0  0  0  0  0  0  0
    4.1703   -6.6780   25.4317 O   0  0  0  0  0  0  0  0  0  0  0  0
    3.0130   -6.5841   26.7856 He  0  0  0  0  0  0  0  0  0  0  0  0
    0.5450   -7.1491   27.6190 He  0  0  0  0  0  0  0  0  0  0  0  0
    0.2884  -11.0181   18.0479 He  0  0  0  0  0  0  0  0  0  0  0  0
    3.0886   -8.4076   18.1833 He  0  0  0  0  0  0  0  0  0  0  0  0
    3.2547   -8.7126   20.4329 He  0  0  0  0  0  0  0  0  0  0  0  0
    0.8945   -6.8511   24.2689 He  0  0  0  0  0  0  0  0  0  0  0  0
    6.0193   -6.0187   27.5737 He  0  0  0  0  0  0  0  0  0  0  0  0
    1.8726  -11.8695   20.4644 He  0  0  0  0  0  0  0  0  0  0  0  0
    2.2343   -9.0538   17.9910 He  0  0  0  0  0  0  0  0  0  0  0  0
  1  2  1  0
  1  6  1  0
  1 11  2  0
  1 12  3  0
  2  3  2  0
  2  4  4  0
  2  5  2  0
  3  5  1  0
  3  7  2  0
  3  9  3  0
  3 10  1  0
  3 13  4  0
  4  6  3  0
  4  8  4  0
  4  9  3  0
  4 11  3  0
  5 10  4  0
  5 12  4  0
  5 14  1  0
  6  8  3  0
  6 10  1  0
  6 11  1  0
  6 13  3  0
  7  8  2  0
  7  9  4  0
  7 11  2  0
  7 12  3  0
  7 13  4  0
  7 14  2  0
  8  9  4  0
  8 12  4  0
  8 13  1  0
  9 13  2  0
 10 13  1  0
 10 14  2  0
 12 13  4  0
M  END
$$$$

 Created by Python create_sdf_string function

 23  0  0  0  0  0  0  0  0  0999 V2000
    0.7372   -5.2008   27.1672 O   0  0  0  0  0  0  0  0  0  0  0  0
    3.0482   -6.4480   26.9847 C   0  0  0  0  0  0  0  0  0  0  0  0
    3.8945   -7.4420   26.7386 C   0  0  0  0  0  0  0  0  0  0  0  0
    2.3130   -9.2490   21.8384 C   0  0  0  0  0  0  0  0  0  0  0  0
    4.4217   -7.2532   26.7887 C   0  0  0  0  0  0  0  0  0  0  0  0
    1.8253   -7.8089   27.5842 C   0  0  0  0  0  0  0  0  0  0  0  0
    0.7184   -6.7449   27.7067 C   0  0  0  0  0  0  0  0  0  0  0  0
    0.2950  -10.6801   18.2724 C   0  0  0  0  0  0  0  0  0  0  0  0
    0.8478   -9.5754   17.0917 C   0  0  0  0  0  0  0  0  0  0  0  0
    1.5973  -10.4084   18.8389 C   0  0  0  0  0  0  0  0  0  0  0  0
    2.7200   -9.7419   19.3011 C   0  0  0  0  0  0  0  0  0  0  0  0
    3.1212   -6.7913   27.1258 C   0  0  0  0  0  0  0  0  0  0  0  0
    2.9450   -9.2967   17.6277 C   0  0  0  0  0  0  0  0  0  0  0  0
    2.7640   -9.5148   20.0009 C   0  0  0  0  0  0  0  0  0  0  0  0
    1.2923   -7.5236   26.5783 C   0  0  0  0  0  0  0  0  0  0  0  0
    1.2127   -6.8566   25.6378 C   0  0  0  0  0  0  0  0  0  0  0  0
    2.9359   -9.8178   18.1842 C   0  0  0  0  0  0  0  0  0  0  0  0
    5.3488   -6.4082   27.2641 C   0  0  0  0  0  0  0  0  0  0  0  0
    1.3120  -10.5421   19.5897 C   0  0  0  0  0  0  0  0  0  0  0  0
    0.0121  -10.9032   17.7546 C   0  0  0  0  0  0  0  0  0  0  0  0
    2.0240   -9.3822   17.3056 C   0  0  0  0  0  0  0  0  0  0  0  0
    1.2497   -7.3539   27.5067 C   0  0  0  0  0  0  0  0  0  0  0  0
    4.1479   -7.3189   25.9486 C   0  0  0  0  0  0  0  0  0  0  0  0
M  END
$$$$

 Created by Python create_sdf_string function

 23 30  0  0  0  0  0  0  0  0999 V2000
   -0.3657   -3.7884   27.2658 C   0  0  0  0  0  0  0  0  0  0  0  0
    3.7735   -6.2105   26.7677 C   0  0  0  0  0  0  0  0  0  0  0  0
    1.5128   -9.2483   28.3847 Cl  0  0  0  0  0  0  0  0  0  0  0  0
   -0.0818   -7.5878   28.3645 F   0  0  0  0  0  0  0  0  0  0  0  0
   -0.0813   -8.8041   19.9070 O   0  0  0  0  0  0  0  0  0  0  0  0
    2.7499  -10.9210   20.7403 S   0  0  0  0  0  0  0  0  0  0  0  0
    2.8748   -6.8656   26.4391 O   0  0  0  0  0  0  0  0  0  0  0  0
    2.2971  -10.9630   18.8424 Cl  0  0  0  0  0  0  0  0  0  0  0  0
    2.8466   -9.2798   17.8446 O   0  0  0  0  0  0  0  0  0  0  0  0
    1.4797   -5.7198   27.8621 F   0  0  0  0  0  0  0  0  0  0  0  0
    4.4696   -7.3401   26.8977 C   0  0  0  0  0  0  0  0  0  0  0  0
    5.0483   -6.7992   29.2535 He  0  0  0  0  0  0  0  0  0  0  0  0
    2.2205   -9.9493   21.2811 He  0  0  0  0  0  0  0  0  0  0  0  0
    4.6023   -6.6459   27.2419 He  0  0  0  0  0  0  0  0  0  0  0  0
    0.8561  -11.5720   18.2103 He  0  0  0  0  0  0  0  0  0  0  0  0
    0.4890   -9.2011   18.7454 He  0  0  0  0  0  0  0  0  0  0  0  0
    4.1252  -11.7180   19.0077 He  0  0  0  0  0  0  0  0  0  0  0  0
    1.3687   -6.6311   29.4546 He  0  0  0  0  0  0  0  0  0  0  0  0
    2.6696  -10.8743   17.3152 He  0  0  0  0  0  0  0  0  0  0  0  0
    3.1740   -7.7368   27.7133 He  0  0  0  0  0  0  0  0  0  0  0  0
    3.7190   -4.9154   26.0710 He  0  0  0  0  0  0  0  0  0  0  0  0
    2.2642  -11.9187   20.1046 He  0  0  0  0  0  0  0  0  0  0  0  0
   -1.9514  -12.7595   19.0536 He  0  0  0  0  0  0  0  0  0  0  0  0
  1  2  3  0
  1  3  4  0
  1  4  2  0
  1  5  3  0
  1  6  1  0
  1  7  2  0
  1  8  2  0
  1  9  3  0
  1 11  4  0
  2  4  2  0
  2  8  3  0
  2 10  1  0
  3  4  4  0
  3  8  4  0
  3 11  1  0
  4  5  3  0
  4  9  4  0
  5  6  2  0
  5  7  1  0
  5  8  2  0
  5 11  4  0
  6  7  1  0
  6  9  1  0
  6 11  1  0
  7  9  2  0
  7 10  1  0
  8 10  3  0
  8 11  4  0
  9 10  4  0
  9 11  4  0
M  END
$$$$

 Created by Python create_sdf_string function

 23  1  0  0  0  0  0  0  0  0999 V2000
    0.4919   -4.8917   27.2715 C   0  0  0  0  0  0  0  0  0  0  0  0
    4.5575   -6.9449   28.5486 C   0  0  0  0  0  0  0  0  0  0  0  0
    3.4335   -6.1519   27.1294 C   0  0  0  0  0  0  0  0  0  0  0  0
    1.0298  -10.5611   19.6898 C   0  0  0  0  0  0  0  0  0  0  0  0
    4.5065   -6.6201   27.2876 C   0  0  0  0  0  0  0  0  0  0  0  0
    1.7669   -8.3074   28.2014 O   0  0  0  0  0  0  0  0  0  0  0  0
    0.5408   -6.8841   28.3791 C   0  0  0  0  0  0  0  0  0  0  0  0
   -0.6701  -10.0135   18.7337 C   0  0  0  0  0  0  0  0  0  0  0  0
    0.1272  -11.4089   18.3801 C   0  0  0  0  0  0  0  0  0  0  0  0
   -0.1523  -10.0888   18.1481 C   0  0  0  0  0  0  0  0  0  0  0  0
    3.5817  -11.0895   18.0427 C   0  0  0  0  0  0  0  0  0  0  0  0
    1.2669   -6.6646   28.6260 C   0  0  0  0  0  0  0  0  0  0  0  0
    2.4920  -10.6118   17.1593 C   0  0  0  0  0  0  0  0  0  0  0  0
    1.9244  -10.8086   19.3055 C   0  0  0  0  0  0  0  0  0  0  0  0
    2.9406   -7.4782   27.8311 C   0  0  0  0  0  0  0  0  0  0  0  0
    2.6921   -6.5847   26.9215 C   0  0  0  0  0  0  0  0  0  0  0  0
    1.8825  -10.8270   18.0899 C   0  0  0  0  0  0  0  0  0  0  0  0
    3.0901   -5.1897   26.8283 C   0  0  0  0  0  0  0  0  0  0  0  0
    1.5073  -11.4129   18.6876 C   0  0  0  0  0  0  0  0  0  0  0  0
   -1.1761  -11.9805   18.6951 C   0  0  0  0  0  0  0  0  0  0  0  0
    2.3550  -10.0418   17.1683 C   0  0  0  0  0  0  0  0  0  0  0  0
    1.3851   -5.7517   27.5052 C   0  0  0  0  0  0  0  0  0  0  0  0
    4.3138   -7.1229   27.0080 C   0  0  0  0  0  0  0  0  0  0  0  0
  8 10  1  0
M  END
$$$$

 Created by Python create_sdf_string function

 23 24  0  0  0  0  0  0  0  0999 V2000
    1.4915   -3.5761   28.2945 N   0  0  0  0  0  0  0  0  0  0  0  0
    4.1621   -5.4155   28.1422 F   0  0  0  0  0  0  0  0  0  0  0  0
    3.9263   -3.9178   27.0190 N   0  0  0  0  0  0  0  0  0  0  0  0
   -0.0806  -11.0447   19.0267 F   0  0  0  0  0  0  0  0  0  0  0  0
    5.5399   -6.2564   28.3706 N   0  0  0  0  0  0  0  0  0  0  0  0
    1.2003   -6.5618   27.7942 C   0  0  0  0  0  0  0  0  0  0  0  0
    0.4743   -6.0631   29.3035 O   0  0  0  0  0  0  0  0  0  0  0  0
    3.0346  -11.4240   18.0658 C   0  0  0  0  0  0  0  0  0  0  0  0
    3.4620   -5.8965   28.4674 F   0  0  0  0  0  0  0  0  0  0  0  0
    3.5924   -5.0027   26.1877 C   0  0  0  0  0  0  0  0  0  0  0  0
    1.1075   -6.2031   26.9163 C   0  0  0  0  0  0  0  0  0  0  0  0
    2.3923   -8.8023   27.5693 He  0  0  0  0  0  0  0  0  0  0  0  0
   -0.2251  -10.1354   18.9752 He  0  0  0  0  0  0  0  0  0  0  0  0
   -0.0974  -10.6270   18.1714 He  0  0  0  0  0  0  0  0  0  0  0  0
    0.0218   -9.2483   19.7478 He  0  0  0  0  0  0  0  0  0  0  0  0
    5.1977  -10.4652   16.9024 He  0  0  0  0  0  0  0  0  0  0  0  0
    2.5398   -9.9935   19.5139 He  0  0  0  0  0  0  0  0  0  0  0  0
    1.1117  -12.7788   17.9952 He  0  0  0  0  0  0  0  0  0  0  0  0
    1.5043  -11.8140   18.2141 He  0  0  0  0  0  0  0  0  0  0  0  0
   -1.5149  -11.3767   19.1966 He  0  0  0  0  0  0  0  0  0  0  0  0
    1.9309  -10.4770   17.0508 He  0  0  0  0  0  0  0  0  0  0  0  0
    1.9793   -6.6808   27.9153 He  0  0  0  0  0  0  0  0  0  0  0  0
    5.8846   -6.4730   27.3900 He  0  0  0  0  0  0  0  0  0  0  0  0
  1  2  3  0
  1  4  2  0
  1  6  2  0
  1  8  2  0
  2  4  1  0
  2  7  3  0
  2  8  3  0
  3  6  3  0
  3  9  3  0
  3 10  1  0
  4  5  3  0
  4  6  1  0
  4 10  1  0
  5  9  4  0
  5 10  2  0
  6  8  3  0
  6 10  3  0
  6 11  4  0
  7  9  4  0
  7 11  3  0
  8 10  2  0
  8 11  2  0
  9 10  2  0
  9 11  4  0
M  END
$$$$

 Created by Python create_sdf_string function

 23  0  0  0  0  0  0  0  0  0999 V2000
    1.6547   -4.2524   27.8056 C   0  0  0  0  0  0  0  0  0  0  0  0
    4.1999   -5.4977   28.0269 C   0  0  0  0  0  0  0  0  0  0  0  0
    3.7627   -4.3748   27.5070 C   0  0  0  0  0  0  0  0  0  0  0  0
   -0.3792  -11.1727   18.5667 C   0  0  0  0  0  0  0  0  0  0  0  0
    5.1556   -6.1982   28.0113 C   0  0  0  0  0  0  0  0  0  0  0  0
    2.3128   -7.7711   27.4616 O   0  0  0  0  0  0  0  0  0  0  0  0
    1.1948   -6.4329   27.8001 C   0  0  0  0  0  0  0  0  0  0  0  0
   -0.6675  -10.2602   18.4738 C   0  0  0  0  0  0  0  0  0  0  0  0
   -0.0968  -10.6419   18.1302 C   0  0  0  0  0  0  0  0  0  0  0  0
   -0.7336   -9.9054   18.7380 C   0  0  0  0  0  0  0  0  0  0  0  0
    3.8710  -10.6274   17.4322 C   0  0  0  0  0  0  0  0  0  0  0  0
    0.6547   -6.0782   28.5693 O   0  0  0  0  0  0  0  0  0  0  0  0
    2.9096  -11.2290   17.6431 C   0  0  0  0  0  0  0  0  0  0  0  0
    2.6390  -10.7714   18.1849 C   0  0  0  0  0  0  0  0  0  0  0  0
    3.4989   -6.0669   28.1788 C   0  0  0  0  0  0  0  0  0  0  0  0
    3.3892   -5.2985   27.1737 C   0  0  0  0  0  0  0  0  0  0  0  0
    1.0128  -12.0535   18.0313 C   0  0  0  0  0  0  0  0  0  0  0  0
    1.2349   -6.1139   27.3066 C   0  0  0  0  0  0  0  0  0  0  0  0
    1.4912  -11.4456   17.9362 C   0  0  0  0  0  0  0  0  0  0  0  0
   -1.3842  -11.4864   18.7325 C   0  0  0  0  0  0  0  0  0  0  0  0
    2.1058  -10.3741   17.2593 C   0  0  0  0  0  0  0  0  0  0  0  0
    2.0078   -6.6395   27.8545 C   0  0  0  0  0  0  0  0  0  0  0  0
    5.4168   -6.1936   27.5346 C   0  0  0  0  0  0  0  0  0  0  0  0
M  END
$$$$

 Created by Python create_sdf_string function

 23 12  0  0  0  0  0  0  0  0999 V2000
    2.3980   -4.3430   27.0512 C   0  0  0  0  0  0  0  0  0  0  0  0
    4.6497   -6.4122   27.1851 S   0  0  0  0  0  0  0  0  0  0  0  0
   -0.8320  -10.1042   19.6216 C   0  0  0  0  0  0  0  0  0  0  0  0
    1.5516   -7.0452   27.8695 F   0  0  0  0  0  0  0  0  0  0  0  0
    0.3767  -12.1943   17.6918 N   0  0  0  0  0  0  0  0  0  0  0  0
   -2.0214  -10.3628   17.8471 N   0  0  0  0  0  0  0  0  0  0  0  0
    1.6875   -6.5728   28.4149 C   0  0  0  0  0  0  0  0  0  0  0  0
    2.5707  -10.9059   17.4973 C   0  0  0  0  0  0  0  0  0  0  0  0
    3.0429   -5.3056   27.1913 N   0  0  0  0  0  0  0  0  0  0  0  0
    1.7370  -10.4517   18.9270 C   0  0  0  0  0  0  0  0  0  0  0  0
    4.9936   -4.7040   27.3485 C   0  0  0  0  0  0  0  0  0  0  0  0
    3.7961   -5.7007   28.3046 He  0  0  0  0  0  0  0  0  0  0  0  0
    4.3791   -5.6201   28.4825 He  0  0  0  0  0  0  0  0  0  0  0  0
    2.9359   -8.2270   26.4545 He  0  0  0  0  0  0  0  0  0  0  0  0
   -0.6987  -10.9505   17.3342 He  0  0  0  0  0  0  0  0  0  0  0  0
    4.0563   -9.1570   14.8750 He  0  0  0  0  0  0  0  0  0  0  0  0
    2.1277  -12.0052   17.7365 He  0  0  0  0  0  0  0  0  0  0  0  0
    3.3131   -4.9802   28.9993 He  0  0  0  0  0  0  0  0  0  0  0  0
    0.4296   -6.1131   26.1664 He  0  0  0  0  0  0  0  0  0  0  0  0
    3.1157   -8.5921   17.5637 He  0  0  0  0  0  0  0  0  0  0  0  0
   -0.8582  -11.1021   20.3134 He  0  0  0  0  0  0  0  0  0  0  0  0
    1.9464   -9.6944   16.3737 He  0  0  0  0  0  0  0  0  0  0  0  0
    1.5087   -6.4376   27.5929 He  0  0  0  0  0  0  0  0  0  0  0  0
  1  9  1  0
  1 10  1  0
  1 11  2  0
  2  3  3  0
  2  9  1  0
  2 11  4  0
  3  7  3  0
  4  7  1  0
  5  7  1  0
  5 10  2  0
  6  8  3  0
 10 11  4  0
M  END
$$$$

 Created by Python create_sdf_string function

 23  4  0  0  0  0  0  0  0  0999 V2000
    2.3844   -4.5860   27.3006 C   0  0  0  0  0  0  0  0  0  0  0  0
    4.5237   -6.2641   27.3295 C   0  0  0  0  0  0  0  0  0  0  0  0
    3.7291   -5.6878   28.4620 C   0  0  0  0  0  0  0  0  0  0  0  0
   -0.7904  -10.2457   18.8761 C   0  0  0  0  0  0  0  0  0  0  0  0
    4.3681   -5.6705   28.4613 C   0  0  0  0  0  0  0  0  0  0  0  0
    2.9155   -7.4022   26.7344 C   0  0  0  0  0  0  0  0  0  0  0  0
    1.7113   -6.9675   27.8270 C   0  0  0  0  0  0  0  0  0  0  0  0
   -0.5518  -10.7948   17.7543 C   0  0  0  0  0  0  0  0  0  0  0  0
    0.2672  -11.6927   17.9504 C   0  0  0  0  0  0  0  0  0  0  0  0
   -1.5885  -10.4029   18.0696 C   0  0  0  0  0  0  0  0  0  0  0  0
    3.1002   -9.4115   16.0836 C   0  0  0  0  0  0  0  0  0  0  0  0
    1.7522   -6.6149   28.1785 C   0  0  0  0  0  0  0  0  0  0  0  0
    1.9414  -11.1733   17.5635 C   0  0  0  0  0  0  0  0  0  0  0  0
    2.3667  -10.6733   17.3234 C   0  0  0  0  0  0  0  0  0  0  0  0
    2.9648   -5.2885   27.3360 C   0  0  0  0  0  0  0  0  0  0  0  0
    3.4355   -4.9455   28.6714 C   0  0  0  0  0  0  0  0  0  0  0  0
    1.3435  -10.6022   17.9667 C   0  0  0  0  0  0  0  0  0  0  0  0
    0.8349   -5.9589   26.7714 C   0  0  0  0  0  0  0  0  0  0  0  0
    2.9021   -9.3416   16.8343 C   0  0  0  0  0  0  0  0  0  0  0  0
   -0.5671  -10.7676   19.0168 C   0  0  0  0  0  0  0  0  0  0  0  0
    1.8392   -9.5092   16.5006 C   0  0  0  0  0  0  0  0  0  0  0  0
    1.4715   -6.2925   27.4964 C   0  0  0  0  0  0  0  0  0  0  0  0
    4.8435   -4.9398   27.7694 C   0  0  0  0  0  0  0  0  0  0  0  0
  1 15  1  0
  7 12  1  0
 11 19  4  0
 13 14  4  0
M  END
$$$$

 Created by Python create_sdf_string function

 23 13  0  0  0  0  0  0  0  0999 V2000
    5.7071   -5.5381   29.0597 C   0  0  0  0  0  0  0  0  0  0  0  0
    3.3242   -5.7761   29.7159 O   0  0  0  0  0  0  0  0  0  0  0  0
   -0.7961  -11.5890   18.1842 F   0  0  0  0  0  0  0  0  0  0  0  0
    0.6598  -12.2796   18.1860 C   0  0  0  0  0  0  0  0  0  0  0  0
    2.4155   -9.3240   17.7577 O   0  0  0  0  0  0  0  0  0  0  0  0
    1.5584   -7.2225   29.5797 P   0  0  0  0  0  0  0  0  0  0  0  0
    3.1789   -7.2125   27.9474 C   0  0  0  0  0  0  0  0  0  0  0  0
    2.1662   -6.5154   28.2771 N   0  0  0  0  0  0  0  0  0  0  0  0
    4.8236   -3.2806   28.2250 S   0  0  0  0  0  0  0  0  0  0  0  0
    2.2558   -4.1168   25.3983 He  0  0  0  0  0  0  0  0  0  0  0  0
    6.7836   -6.0943   27.9469 He  0  0  0  0  0  0  0  0  0  0  0  0
   -0.0303   -9.8324   16.7553 He  0  0  0  0  0  0  0  0  0  0  0  0
    1.5272   -7.9359   27.7957 He  0  0  0  0  0  0  0  0  0  0  0  0
    1.4326   -5.8310   27.4561 He  0  0  0  0  0  0  0  0  0  0  0  0
   -1.3962  -10.6283   18.9292 He  0  0  0  0  0  0  0  0  0  0  0  0
    1.6470  -11.2571   17.5701 He  0  0  0  0  0  0  0  0  0  0  0  0
    1.9890  -11.2028   17.3890 He  0  0  0  0  0  0  0  0  0  0  0  0
    4.6232   -5.5575   27.0026 He  0  0  0  0  0  0  0  0  0  0  0  0
    1.3382   -9.4341   17.6354 He  0  0  0  0  0  0  0  0  0  0  0  0
    0.8187   -3.8647   28.4113 He  0  0  0  0  0  0  0  0  0  0  0  0
    0.9849   -9.5772   16.6547 He  0  0  0  0  0  0  0  0  0  0  0  0
   -0.8787  -11.2885   19.8894 He  0  0  0  0  0  0  0  0  0  0  0  0
    2.2853   -8.8034   15.3401 He  0  0  0  0  0  0  0  0  0  0  0  0
  1  8  4  0
  1  9  2  0
  2  8  1  0
  3  4  4  0
  3  5  2  0
  3  6  2  0
  3  9  3  0
  4  6  1  0
  4  7  4  0
  5  7  1  0
  5  8  3  0
  6  9  2  0
  7  8  2  0
M  END
$$$$

 Created by Python create_sdf_string function

 23  1  0  0  0  0  0  0  0  0999 V2000
    2.3070   -4.5378   26.8317 C   0  0  0  0  0  0  0  0  0  0  0  0
    5.9203   -5.6322   27.9729 O   0  0  0  0  0  0  0  0  0  0  0  0
    5.3237   -5.3905   28.5287 C   0  0  0  0  0  0  0  0  0  0  0  0
    0.0557   -9.7206   17.0930 C   0  0  0  0  0  0  0  0  0  0  0  0
    3.4319   -5.7755   29.0153 C   0  0  0  0  0  0  0  0  0  0  0  0
    1.8281   -7.3511   27.9420 C   0  0  0  0  0  0  0  0  0  0  0  0
    1.4388   -5.6432   27.5351 C   0  0  0  0  0  0  0  0  0  0  0  0
   -0.9016  -11.4606   18.4500 C   0  0  0  0  0  0  0  0  0  0  0  0
    0.4110  -11.8764   18.1911 C   0  0  0  0  0  0  0  0  0  0  0  0
   -1.3192  -10.7043   18.5698 C   0  0  0  0  0  0  0  0  0  0  0  0
    2.3683   -9.7938   17.0182 C   0  0  0  0  0  0  0  0  0  0  0  0
    1.5886   -7.0253   29.0199 O   0  0  0  0  0  0  0  0  0  0  0  0
    1.4155  -11.0645   17.6903 C   0  0  0  0  0  0  0  0  0  0  0  0
    1.8564  -11.0206   17.5008 C   0  0  0  0  0  0  0  0  0  0  0  0
    4.5081   -5.5085   27.5381 C   0  0  0  0  0  0  0  0  0  0  0  0
    3.1885   -6.6963   27.9693 C   0  0  0  0  0  0  0  0  0  0  0  0
    1.1770   -9.8369   17.1403 C   0  0  0  0  0  0  0  0  0  0  0  0
    1.3387   -4.6264   27.9434 C   0  0  0  0  0  0  0  0  0  0  0  0
    0.8472   -9.4368   16.6355 C   0  0  0  0  0  0  0  0  0  0  0  0
   -0.8702  -11.2948   18.9490 C   0  0  0  0  0  0  0  0  0  0  0  0
    1.8810   -9.0441   15.9552 C   0  0  0  0  0  0  0  0  0  0  0  0
    2.3172   -6.2699   28.1535 C   0  0  0  0  0  0  0  0  0  0  0  0
    4.7687   -4.2131   28.1189 O   0  0  0  0  0  0  0  0  0  0  0  0
  7 18  1  0
M  END
$$$$

 Created by Python create_sdf_string function

 23 66  0  0  0  0  0  0  0  0999 V2000
    2.3879   -5.2064   26.7551 N   0  0  0  0  0  0  0  0  0  0  0  0
    5.5141   -6.6087   29.2152 O   0  0  0  0  0  0  0  0  0  0  0  0
   -0.5371   -9.9569   17.2502 S   0  0  0  0  0  0  0  0  0  0  0  0
    2.2045   -7.2026   28.3373 Cl  0  0  0  0  0  0  0  0  0  0  0  0
    0.8483   -5.4271   27.4604 C   0  0  0  0  0  0  0  0  0  0  0  0
   -0.9358  -10.1112   17.8015 S   0  0  0  0  0  0  0  0  0  0  0  0
    0.4452  -12.1732   18.5550 C   0  0  0  0  0  0  0  0  0  0  0  0
   -0.4678  -11.2019   17.0443 C   0  0  0  0  0  0  0  0  0  0  0  0
    2.9026  -11.4288   17.0854 N   0  0  0  0  0  0  0  0  0  0  0  0
    0.4555  -11.2014   18.5660 O   0  0  0  0  0  0  0  0  0  0  0  0
    4.2111   -6.7911   28.6237 C   0  0  0  0  0  0  0  0  0  0  0  0
    2.4727   -7.1875   28.3083 C   0  0  0  0  0  0  0  0  0  0  0  0
    1.7175  -10.5981   15.9227 F   0  0  0  0  0  0  0  0  0  0  0  0
    2.3718   -4.7057   27.9320 N   0  0  0  0  0  0  0  0  0  0  0  0
   -0.1405   -9.2491   17.2718 N   0  0  0  0  0  0  0  0  0  0  0  0
    0.0701   -9.4749   18.4415 C   0  0  0  0  0  0  0  0  0  0  0  0
    1.3273   -6.8903   15.8773 Se  0  0  0  0  0  0  0  0  0  0  0  0
    5.6814   -1.8656   27.3786 C   0  0  0  0  0  0  0  0  0  0  0  0
    5.5909   -6.7634   28.7515 He  0  0  0  0  0  0  0  0  0  0  0  0
    4.2490   -7.1204   28.9871 He  0  0  0  0  0  0  0  0  0  0  0  0
    2.6808   -7.8799   28.4445 He  0  0  0  0  0  0  0  0  0  0  0  0
    1.8510  -10.1650   17.5996 He  0  0  0  0  0  0  0  0  0  0  0  0
    2.9866   -8.1234   27.3067 He  0  0  0  0  0  0  0  0  0  0  0  0
  1  3  2  0
  1  5  3  0
  1  7  1  0
  1  8  1  0
  1 14  2  0
  1 17  1  0
  2  6  2  0
  2  7  2  0
  2  8  4  0
  2  9  4  0
  2 10  1  0
  2 16  2  0
  2 17  2  0
  2 18  1  0
  3  6  1  0
  3 11  3  0
  3 15  4  0
  3 16  1  0
  4  7  4  0
  4  8  2  0
  4 10  4  0
  4 11  2  0
  4 13  1  0
  4 14  4  0
  4 16  3  0
  4 17  1  0
  4 18  4  0
  5  6  2  0
  5  7  2  0
  5 10  4  0
  5 11  1  0
  5 16  4  0
  5 17  2  0
  6  8  1  0
  6 14  3  0
  6 16  3  0
  6 18  1  0
  7 10  3  0
  7 12  1  0
  7 16  3  0
  7 17  3  0
  7 18  4  0
  8  9  1  0
  8 11  2  0
  8 13  2  0
  8 14  2  0
  8 16  2  0
  8 18  1  0
  9 12  3  0
  9 16  4  0
  9 18  2  0
 10 11  4  0
 10 12  3  0
 10 13  3  0
 10 15  2  0
 10 16  3  0
 10 17  1  0
 11 14  2  0
 11 17  3  0
 12 13  2  0
 12 14  3  0
 12 16  4  0
 13 14  4  0
 13 17  3  0
 14 15  4  0
 16 18  3  0
M  END
$$$$

 Created by Python create_sdf_string function

 23  1  0  0  0  0  0  0  0  0999 V2000
    2.4643   -4.9853   27.1648 C   0  0  0  0  0  0  0  0  0  0  0  0
    5.3473   -6.2059   28.6190 C   0  0  0  0  0  0  0  0  0  0  0  0
    5.4784   -5.9717   28.7233 O   0  0  0  0  0  0  0  0  0  0  0  0
   -0.4418   -9.3918   17.3201 C   0  0  0  0  0  0  0  0  0  0  0  0
    4.3825   -7.0160   28.7445 C   0  0  0  0  0  0  0  0  0  0  0  0
    2.0708   -6.9315   27.8819 C   0  0  0  0  0  0  0  0  0  0  0  0
    1.3223   -5.5967   27.2650 C   0  0  0  0  0  0  0  0  0  0  0  0
   -1.0401  -10.0706   17.8106 C   0  0  0  0  0  0  0  0  0  0  0  0
    0.4412  -11.7719   18.2810 C   0  0  0  0  0  0  0  0  0  0  0  0
   -0.0134  -10.9740   17.3774 C   0  0  0  0  0  0  0  0  0  0  0  0
    2.3956  -11.0590   17.2842 C   0  0  0  0  0  0  0  0  0  0  0  0
    2.5802   -7.7581   28.1474 C   0  0  0  0  0  0  0  0  0  0  0  0
    0.2182  -11.2138   18.4989 C   0  0  0  0  0  0  0  0  0  0  0  0
    1.6846   -9.9190   16.9752 C   0  0  0  0  0  0  0  0  0  0  0  0
    4.3299   -6.2022   28.4069 C   0  0  0  0  0  0  0  0  0  0  0  0
    2.5699   -6.8645   27.9400 C   0  0  0  0  0  0  0  0  0  0  0  0
    1.7219  -10.0779   16.4838 C   0  0  0  0  0  0  0  0  0  0  0  0
    2.9221   -4.6658   27.5942 C   0  0  0  0  0  0  0  0  0  0  0  0
    0.0344   -8.8810   16.8989 C   0  0  0  0  0  0  0  0  0  0  0  0
   -0.2203   -9.7552   17.7784 C   0  0  0  0  0  0  0  0  0  0  0  0
    1.0484   -8.0733   16.2456 C   0  0  0  0  0  0  0  0  0  0  0  0
    2.6932   -7.6583   27.5588 C   0  0  0  0  0  0  0  0  0  0  0  0
    5.0071   -3.9019   27.8707 O   0  0  0  0  0  0  0  0  0  0  0  0
  9 13  1  0
M  END
$$$$

 Created by Python create_sdf_string function

 23 31  0  0  0  0  0  0  0  0999 V2000
    1.8898   -3.8142   28.0717 I   0  0  0  0  0  0  0  0  0  0  0  0
    3.4048   -6.8404   27.9598 O   0  0  0  0  0  0  0  0  0  0  0  0
    4.6456   -4.9787   27.9488 P   0  0  0  0  0  0  0  0  0  0  0  0
   -0.7390  -10.7961   18.0517 C   0  0  0  0  0  0  0  0  0  0  0  0
    0.8125  -11.5320   18.1183 Br  0  0  0  0  0  0  0  0  0  0  0  0
    3.5453   -9.9508   17.6564 C   0  0  0  0  0  0  0  0  0  0  0  0
    4.2923   -5.3259   28.6456 N   0  0  0  0  0  0  0  0  0  0  0  0
    0.5354   -8.6966   26.4225 N   0  0  0  0  0  0  0  0  0  0  0  0
    2.9198   -5.7991   28.0653 O   0  0  0  0  0  0  0  0  0  0  0  0
    2.8725   -7.5515   17.4683 F   0  0  0  0  0  0  0  0  0  0  0  0
   -0.0699  -10.3029   18.0667 C   0  0  0  0  0  0  0  0  0  0  0  0
    0.6662   -8.8841   15.7657 B   0  0  0  0  0  0  0  0  0  0  0  0
    5.5958   -4.3855   28.5603 Se  0  0  0  0  0  0  0  0  0  0  0  0
   -0.6190   -8.9638   18.4242 He  0  0  0  0  0  0  0  0  0  0  0  0
    4.7993   -6.9012   28.3950 He  0  0  0  0  0  0  0  0  0  0  0  0
    2.0959   -6.6232   28.5673 He  0  0  0  0  0  0  0  0  0  0  0  0
    1.6457   -5.8138   26.5793 He  0  0  0  0  0  0  0  0  0  0  0  0
    1.1019  -12.1296   17.3157 He  0  0  0  0  0  0  0  0  0  0  0  0
    1.1213  -12.2969   16.7496 He  0  0  0  0  0  0  0  0  0  0  0  0
    3.6780   -8.0418   28.2450 He  0  0  0  0  0  0  0  0  0  0  0  0
   -0.0372  -10.4821   18.4273 He  0  0  0  0  0  0  0  0  0  0  0  0
    2.9634   -9.8915   17.4090 He  0  0  0  0  0  0  0  0  0  0  0  0
    1.5990   -7.6594   28.6038 He  0  0  0  0  0  0  0  0  0  0  0  0
  1  3  2  0
  1  4  4  0
  1  5  1  0
  1 11  1  0
  2  3  2  0
  2  4  3  0
  2  6  3  0
  2 12  3  0
  3  5  2  0
  3  6  3  0
  3 11  1  0
  3 12  4  0
  3 13  2  0
  4  6  2  0
  4  7  3  0
  4 13  1  0
  5  6  1  0
  5  7  2  0
  5 10  1  0
  5 11  4  0
  5 12  3  0
  6  7  2  0
  6  8  2  0
  6 12  4  0
  7 12  2  0
  8 10  1  0
  9 11  3  0
  9 12  2  0
  9 13  2  0
 11 12  3  0
 11 13  4  0
M  END
$$$$

 Created by Python create_sdf_string function

 23  1  0  0  0  0  0  0  0  0999 V2000
    2.3741   -4.3081   27.6399 C   0  0  0  0  0  0  0  0  0  0  0  0
    3.2530   -6.7351   27.8221 C   0  0  0  0  0  0  0  0  0  0  0  0
    4.7413   -4.9508   28.1551 C   0  0  0  0  0  0  0  0  0  0  0  0
   -0.7605   -9.2018   17.9454 C   0  0  0  0  0  0  0  0  0  0  0  0
    4.9863   -6.4453   28.2167 C   0  0  0  0  0  0  0  0  0  0  0  0
    1.9371   -6.5032   28.0744 C   0  0  0  0  0  0  0  0  0  0  0  0
    1.5850   -5.9255   27.0645 C   0  0  0  0  0  0  0  0  0  0  0  0
   -0.7840  -10.6566   18.1330 C   0  0  0  0  0  0  0  0  0  0  0  0
    0.9171  -11.8755   17.5616 C   0  0  0  0  0  0  0  0  0  0  0  0
    1.1897  -12.0337   17.3368 C   0  0  0  0  0  0  0  0  0  0  0  0
    0.8056  -11.3733   17.7137 C   0  0  0  0  0  0  0  0  0  0  0  0
    3.4852   -7.7932   27.9593 C   0  0  0  0  0  0  0  0  0  0  0  0
   -0.3609  -10.4337   18.2164 C   0  0  0  0  0  0  0  0  0  0  0  0
    2.8346  -10.1949   17.1530 C   0  0  0  0  0  0  0  0  0  0  0  0
    4.2364   -5.4086   28.4176 C   0  0  0  0  0  0  0  0  0  0  0  0
    1.5160   -8.1554   26.9463 O   0  0  0  0  0  0  0  0  0  0  0  0
    2.6377   -9.9038   17.0583 C   0  0  0  0  0  0  0  0  0  0  0  0
    2.9605   -5.6951   27.9219 C   0  0  0  0  0  0  0  0  0  0  0  0
    2.4211   -8.6745   16.7060 C   0  0  0  0  0  0  0  0  0  0  0  0
   -0.0498  -10.1767   17.8744 C   0  0  0  0  0  0  0  0  0  0  0  0
    1.2017   -8.9867   16.7140 C   0  0  0  0  0  0  0  0  0  0  0  0
    1.7441   -7.5998   28.1250 C   0  0  0  0  0  0  0  0  0  0  0  0
    5.3796   -4.6852   28.3597 O   0  0  0  0  0  0  0  0  0  0  0  0
 14 17  4  0
M  END
$$$$

 Created by Python create_sdf_string function

 23 30  0  0  0  0  0  0  0  0999 V2000
    3.8830   -7.4139   26.4933 C   0  0  0  0  0  0  0  0  0  0  0  0
    0.1241   -7.1121   27.8471 C   0  0  0  0  0  0  0  0  0  0  0  0
   -1.7275  -11.6138   19.1388 F   0  0  0  0  0  0  0  0  0  0  0  0
    0.7802  -11.7673   18.3283 O   0  0  0  0  0  0  0  0  0  0  0  0
    1.1330  -11.1489   18.0688 Cl  0  0  0  0  0  0  0  0  0  0  0  0
    0.7596  -11.4996   17.8674 O   0  0  0  0  0  0  0  0  0  0  0  0
    3.5804   -9.1054   28.8743 Cl  0  0  0  0  0  0  0  0  0  0  0  0
   -1.7123   -9.6412   17.9370 N   0  0  0  0  0  0  0  0  0  0  0  0
    2.4888   -9.7327   17.3859 Cl  0  0  0  0  0  0  0  0  0  0  0  0
    4.7144   -4.8759   27.6987 N   0  0  0  0  0  0  0  0  0  0  0  0
    2.1567   -6.8562   26.0893 O   0  0  0  0  0  0  0  0  0  0  0  0
    3.5411   -9.2808   16.6887 O   0  0  0  0  0  0  0  0  0  0  0  0
    2.5185   -5.8531   29.0081 S   0  0  0  0  0  0  0  0  0  0  0  0
    0.6640   -8.9801   15.8108 Se  0  0  0  0  0  0  0  0  0  0  0  0
    4.2201   -3.5583   28.3325 He  0  0  0  0  0  0  0  0  0  0  0  0
    4.3248   -3.6971   27.7964 He  0  0  0  0  0  0  0  0  0  0  0  0
   -0.5505   -9.2577   18.4981 He  0  0  0  0  0  0  0  0  0  0  0  0
    4.9018   -6.6604   29.5318 He  0  0  0  0  0  0  0  0  0  0  0  0
    0.7110   -4.9222   27.8810 He  0  0  0  0  0  0  0  0  0  0  0  0
    2.2187   -9.6326   15.8043 He  0  0  0  0  0  0  0  0  0  0  0  0
   -0.3329  -10.8455   17.7495 He  0  0  0  0  0  0  0  0  0  0  0  0
    1.9219   -7.0449   28.6623 He  0  0  0  0  0  0  0  0  0  0  0  0
    4.9675   -3.1261   28.0771 He  0  0  0  0  0  0  0  0  0  0  0  0
  1  2  1  0
  1  4  1  0
  1  6  1  0
  1  7  1  0
  1  8  4  0
  1 11  2  0
  2  3  3  0
  2  4  3  0
  2  6  2  0
  2 11  3  0
  3  4  3  0
  3  7  3  0
  3 14  3  0
  4  9  2  0
  4 11  3  0
  5  6  3  0
  5  8  3  0
  5 14  3  0
  6 10  3  0
  6 11  1  0
  7  8  1  0
  7  9  2  0
  7 10  2  0
  7 11  3  0
  8 10  3  0
  8 14  4  0
 10 13  1  0
 11 14  3  0
 12 14  3  0
 13 14  2  0
M  END
$$$$

 Created by Python create_sdf_string function

 23  5  0  0  0  0  0  0  0  0999 V2000
    4.2375   -3.8315   28.2608 C   0  0  0  0  0  0  0  0  0  0  0  0
    3.5005   -6.9813   27.1183 C   0  0  0  0  0  0  0  0  0  0  0  0
    4.1107   -3.9652   28.0256 C   0  0  0  0  0  0  0  0  0  0  0  0
   -1.0644   -9.6243   18.1248 C   0  0  0  0  0  0  0  0  0  0  0  0
    4.4623   -6.2431   28.7002 C   0  0  0  0  0  0  0  0  0  0  0  0
    1.0197   -6.6674   27.8023 C   0  0  0  0  0  0  0  0  0  0  0  0
    1.3083   -5.3064   27.6999 C   0  0  0  0  0  0  0  0  0  0  0  0
   -1.4933  -11.5058   18.6798 C   0  0  0  0  0  0  0  0  0  0  0  0
    0.2926  -11.4782   18.2980 C   0  0  0  0  0  0  0  0  0  0  0  0
    1.1852  -10.7338   17.8586 C   0  0  0  0  0  0  0  0  0  0  0  0
    0.5602  -11.0696   18.0316 C   0  0  0  0  0  0  0  0  0  0  0  0
    3.2381   -8.0497   28.2557 O   0  0  0  0  0  0  0  0  0  0  0  0
   -1.5338   -9.6991   18.0803 C   0  0  0  0  0  0  0  0  0  0  0  0
    2.4151   -9.8653   17.0391 C   0  0  0  0  0  0  0  0  0  0  0  0
    4.4095   -4.9873   27.9186 C   0  0  0  0  0  0  0  0  0  0  0  0
    2.3785   -6.8147   26.7567 O   0  0  0  0  0  0  0  0  0  0  0  0
    2.8759   -9.4867   16.7119 C   0  0  0  0  0  0  0  0  0  0  0  0
    2.7424   -5.6110   28.5327 C   0  0  0  0  0  0  0  0  0  0  0  0
    2.0680   -9.3181   16.2528 C   0  0  0  0  0  0  0  0  0  0  0  0
   -0.4248  -10.5909   18.0131 C   0  0  0  0  0  0  0  0  0  0  0  0
    0.7771   -9.0792   16.5527 C   0  0  0  0  0  0  0  0  0  0  0  0
    2.0782   -6.7910   28.2792 C   0  0  0  0  0  0  0  0  0  0  0  0
    4.7682   -3.6103   28.1522 O   0  0  0  0  0  0  0  0  0  0  0  0
  3 23  1  0
  4 13  1  0
 14 17  4  0
 17 19  4  0
 19 21  4  0
M  END
$$$$

 Created by Python create_sdf_string function

 23 33  0  0  0  0  0  0  0  0999 V2000
    5.1785   -3.2879   27.7703 S   0  0  0  0  0  0  0  0  0  0  0  0
    3.1104   -7.5931   28.3728 C   0  0  0  0  0  0  0  0  0  0  0  0
    4.4080   -4.0379   27.9428 N   0  0  0  0  0  0  0  0  0  0  0  0
    1.1936   -5.6964   25.8790 C   0  0  0  0  0  0  0  0  0  0  0  0
   -1.8502  -12.0114   19.2220 O   0  0  0  0  0  0  0  0  0  0  0  0
    1.5827  -10.4176   17.9411 O   0  0  0  0  0  0  0  0  0  0  0  0
   -1.8961   -8.6619   18.0261 B   0  0  0  0  0  0  0  0  0  0  0  0
    3.1899   -5.9107   29.2117 C   0  0  0  0  0  0  0  0  0  0  0  0
    2.7541   -8.0664   27.1829 Cl  0  0  0  0  0  0  0  0  0  0  0  0
    3.9600   -5.6830   27.4186 F   0  0  0  0  0  0  0  0  0  0  0  0
    2.8686   -6.7748   29.2902 C   0  0  0  0  0  0  0  0  0  0  0  0
    5.5444   -5.4321   28.1947 N   0  0  0  0  0  0  0  0  0  0  0  0
   -0.7965   -8.8673   18.5031 He  0  0  0  0  0  0  0  0  0  0  0  0
    4.3441   -7.1173   27.7727 He  0  0  0  0  0  0  0  0  0  0  0  0
    2.6930   -4.6637   26.2602 He  0  0  0  0  0  0  0  0  0  0  0  0
    1.6384  -11.4140   18.4804 He  0  0  0  0  0  0  0  0  0  0  0  0
    0.4265  -11.8519   17.6783 He  0  0  0  0  0  0  0  0  0  0  0  0
    2.9225   -7.1750   26.9815 He  0  0  0  0  0  0  0  0  0  0  0  0
    3.6618  -10.9696   17.7101 He  0  0  0  0  0  0  0  0  0  0  0  0
    4.0992   -9.3562   16.5499 He  0  0  0  0  0  0  0  0  0  0  0  0
    2.4300  -12.3558   16.4487 He  0  0  0  0  0  0  0  0  0  0  0  0
    1.2011   -9.7237   18.5219 He  0  0  0  0  0  0  0  0  0  0  0  0
    0.5917   -8.5537   14.7183 He  0  0  0  0  0  0  0  0  0  0  0  0
  1  3  4  0
  1  7  1  0
  1 10  4  0
  2  3  2  0
  2  4  1  0
  2  5  3  0
  2  7  2  0
  2  8  1  0
  2 10  2  0
  2 11  3  0
  3  4  1  0
  3  5  4  0
  3  7  1  0
  3  8  3  0
  3 11  4  0
  3 12  1  0
  4 10  2  0
  4 11  4  0
  4 12  1  0
  5  6  4  0
  5  7  4  0
  6  7  2  0
  6  8  2  0
  6 10  3  0
  6 12  2  0
  7  9  1  0
  7 11  2  0
  8 12  2  0
  9 10  4  0
  9 11  3  0
  9 12  1  0
 10 12  1  0
 11 12  4  0
M  END
$$$$

 Created by Python create_sdf_string function

 23  4  0  0  0  0  0  0  0  0999 V2000
    4.9356   -3.7593   27.8352 O   0  0  0  0  0  0  0  0  0  0  0  0
    3.0469   -7.2897   28.4158 C   0  0  0  0  0  0  0  0  0  0  0  0
    4.4908   -4.2175   27.9555 C   0  0  0  0  0  0  0  0  0  0  0  0
   -1.0669   -9.4141   18.0046 C   0  0  0  0  0  0  0  0  0  0  0  0
    4.2666   -6.8099   27.8617 C   0  0  0  0  0  0  0  0  0  0  0  0
    1.8260   -5.8594   26.6529 C   0  0  0  0  0  0  0  0  0  0  0  0
    2.6968   -4.7537   26.9239 C   0  0  0  0  0  0  0  0  0  0  0  0
   -1.1191  -11.3799   18.6539 C   0  0  0  0  0  0  0  0  0  0  0  0
    1.3483  -11.1956   17.9652 C   0  0  0  0  0  0  0  0  0  0  0  0
    1.3129  -10.2380   17.4336 C   0  0  0  0  0  0  0  0  0  0  0  0
    0.1870  -11.1589   18.1156 C   0  0  0  0  0  0  0  0  0  0  0  0
    2.7062   -6.9705   27.0128 C   0  0  0  0  0  0  0  0  0  0  0  0
   -1.4170   -9.1510   17.9461 C   0  0  0  0  0  0  0  0  0  0  0  0
    3.2996  -10.7122   17.3376 C   0  0  0  0  0  0  0  0  0  0  0  0
    3.5394   -5.9684   28.9087 C   0  0  0  0  0  0  0  0  0  0  0  0
    2.5756   -7.6157   27.1883 C   0  0  0  0  0  0  0  0  0  0  0  0
    3.1209   -9.8161   16.7183 C   0  0  0  0  0  0  0  0  0  0  0  0
    3.9436   -5.4177   27.7108 C   0  0  0  0  0  0  0  0  0  0  0  0
    2.6071  -11.6052   17.1303 C   0  0  0  0  0  0  0  0  0  0  0  0
    0.6920  -10.0113   17.5541 C   0  0  0  0  0  0  0  0  0  0  0  0
    0.8797   -9.0094   16.5133 C   0  0  0  0  0  0  0  0  0  0  0  0
    3.0836   -6.8603   28.9762 C   0  0  0  0  0  0  0  0  0  0  0  0
    5.2256   -5.3612   28.1449 C   0  0  0  0  0  0  0  0  0  0  0  0
  1  3  1  0
  4 13  1  0
  6  7  1  0
 14 17  4  0
M  END
$$$$

 Created by Python create_sdf_string function

 23 17  0  0  0  0  0  0  0  0999 V2000
    2.5273   -8.7229   29.1376 C   0  0  0  0  0  0  0  0  0  0  0  0
    4.9812   -6.6211   28.5261 O   0  0  0  0  0  0  0  0  0  0  0  0
    0.1526   -4.2274   26.0415 S   0  0  0  0  0  0  0  0  0  0  0  0
    2.6155   -5.2367   26.3475 C   0  0  0  0  0  0  0  0  0  0  0  0
    1.1194  -11.4036   17.6464 C   0  0  0  0  0  0  0  0  0  0  0  0
   -0.1407  -11.8050   17.5698 F   0  0  0  0  0  0  0  0  0  0  0  0
   -1.6312   -8.0615   19.9109 C   0  0  0  0  0  0  0  0  0  0  0  0
    3.3584   -9.9688   15.5661 F   0  0  0  0  0  0  0  0  0  0  0  0
    1.4573  -11.4057   18.6234 F   0  0  0  0  0  0  0  0  0  0  0  0
    0.3701   -8.8169   16.6881 N   0  0  0  0  0  0  0  0  0  0  0  0
    3.8441   -7.8320   28.2697 P   0  0  0  0  0  0  0  0  0  0  0  0
    6.7082   -3.6348   27.9022 He  0  0  0  0  0  0  0  0  0  0  0  0
    5.1936   -2.9676   27.3637 He  0  0  0  0  0  0  0  0  0  0  0  0
   -2.0356   -9.5707   17.5577 He  0  0  0  0  0  0  0  0  0  0  0  0
    0.5820  -11.9571   18.2268 He  0  0  0  0  0  0  0  0  0  0  0  0
    2.3043   -8.9996   17.7625 He  0  0  0  0  0  0  0  0  0  0  0  0
    1.9044   -6.7042   28.5131 He  0  0  0  0  0  0  0  0  0  0  0  0
    2.4883  -11.1621   15.9211 He  0  0  0  0  0  0  0  0  0  0  0  0
    3.5497   -4.9784   30.1680 He  0  0  0  0  0  0  0  0  0  0  0  0
    2.6069   -6.8424   27.3890 He  0  0  0  0  0  0  0  0  0  0  0  0
    4.2038   -4.8596   28.4764 He  0  0  0  0  0  0  0  0  0  0  0  0
    3.8689  -10.6698   16.6617 He  0  0  0  0  0  0  0  0  0  0  0  0
    4.5656   -6.1446   27.6889 He  0  0  0  0  0  0  0  0  0  0  0  0
  1 11  3  0
  2  6  2  0
  2  9  4  0
  3  4  2  0
  3  6  1  0
  4  8  3  0
  4 11  1  0
  5  8  4  0
  5 10  2  0
  6 10  4  0
  7  8  3  0
  7 11  2  0
  8  9  4  0
  8 10  3  0
  9 10  4  0
  9 11  4  0
 10 11  3  0
M  END
$$$$

 Created by Python create_sdf_string function

 23  5  0  0  0  0  0  0  0  0999 V2000
    5.9558   -4.0727   27.8993 C   0  0  0  0  0  0  0  0  0  0  0  0
    2.7828   -8.0809   28.6380 C   0  0  0  0  0  0  0  0  0  0  0  0
    5.2009   -3.6666   27.5913 C   0  0  0  0  0  0  0  0  0  0  0  0
   -1.4929   -9.7073   17.8235 C   0  0  0  0  0  0  0  0  0  0  0  0
    5.2949   -6.4105   28.2974 O   0  0  0  0  0  0  0  0  0  0  0  0
    1.2240   -4.9170   26.6051 O   0  0  0  0  0  0  0  0  0  0  0  0
    2.5084   -5.1084   26.9842 C   0  0  0  0  0  0  0  0  0  0  0  0
    0.1680  -11.2285   18.0291 C   0  0  0  0  0  0  0  0  0  0  0  0
    1.4088  -10.7327   17.2690 C   0  0  0  0  0  0  0  0  0  0  0  0
    1.8195   -9.5333   17.0245 C   0  0  0  0  0  0  0  0  0  0  0  0
   -0.4637  -11.1494   18.1244 C   0  0  0  0  0  0  0  0  0  0  0  0
    1.9358   -6.5556   27.9215 C   0  0  0  0  0  0  0  0  0  0  0  0
   -1.4499   -8.9121   18.5963 C   0  0  0  0  0  0  0  0  0  0  0  0
    2.2999  -11.2173   16.5940 C   0  0  0  0  0  0  0  0  0  0  0  0
    3.8184   -5.2052   29.1026 O   0  0  0  0  0  0  0  0  0  0  0  0
    2.2045   -6.5804   27.4168 C   0  0  0  0  0  0  0  0  0  0  0  0
    3.2667  -10.3045   16.3230 C   0  0  0  0  0  0  0  0  0  0  0  0
    3.9365   -4.9552   28.0794 C   0  0  0  0  0  0  0  0  0  0  0  0
    3.5267  -10.3776   16.9612 C   0  0  0  0  0  0  0  0  0  0  0  0
    1.2658  -10.9152   17.9766 C   0  0  0  0  0  0  0  0  0  0  0  0
   -0.0960   -9.1961   17.3530 C   0  0  0  0  0  0  0  0  0  0  0  0
    3.4550   -7.5078   28.3609 C   0  0  0  0  0  0  0  0  0  0  0  0
    4.6437   -5.7080   28.0746 C   0  0  0  0  0  0  0  0  0  0  0  0
  1  3  1  0
  2 22  1  0
  6  7  1  0
  8 11  1  0
 17 19  4  0
M  END
$$$$

 Created by Python create_sdf_string function

 23 13  0  0  0  0  0  0  0  0999 V2000
    0.7477   -7.9305   15.2109 Br  0  0  0  0  0  0  0  0  0  0  0  0
    4.9936   -6.3860   27.7986 F   0  0  0  0  0  0  0  0  0  0  0  0
    1.6494   -5.0017   25.4783 C   0  0  0  0  0  0  0  0  0  0  0  0
    1.4046   -9.3788   18.4357 F   0  0  0  0  0  0  0  0  0  0  0  0
   -0.7022   -9.9091   17.8534 C   0  0  0  0  0  0  0  0  0  0  0  0
    0.4743   -5.6531   27.3258 N   0  0  0  0  0  0  0  0  0  0  0  0
    4.7622   -8.4474   27.3137 Cl  0  0  0  0  0  0  0  0  0  0  0  0
    4.8174   -7.5321   28.7279 F   0  0  0  0  0  0  0  0  0  0  0  0
    5.5923   -3.6418   29.2533 He  0  0  0  0  0  0  0  0  0  0  0  0
    1.4567   -8.1781   29.5133 He  0  0  0  0  0  0  0  0  0  0  0  0
    5.6943   -2.7243   27.1895 He  0  0  0  0  0  0  0  0  0  0  0  0
    1.7071   -5.2790   27.1127 He  0  0  0  0  0  0  0  0  0  0  0  0
   -0.5172   -9.2581   19.2046 He  0  0  0  0  0  0  0  0  0  0  0  0
    1.9662  -10.6904   18.1412 He  0  0  0  0  0  0  0  0  0  0  0  0
   -0.0560  -11.1890   18.3545 He  0  0  0  0  0  0  0  0  0  0  0  0
    1.8696   -6.9056   27.5750 He  0  0  0  0  0  0  0  0  0  0  0  0
    2.2276  -10.9885   17.9439 He  0  0  0  0  0  0  0  0  0  0  0  0
    3.1259   -6.0629   29.5213 He  0  0  0  0  0  0  0  0  0  0  0  0
    3.4092  -10.4248   16.6662 He  0  0  0  0  0  0  0  0  0  0  0  0
    5.1152   -3.8078   27.3562 He  0  0  0  0  0  0  0  0  0  0  0  0
    3.9451  -10.9168   15.6844 He  0  0  0  0  0  0  0  0  0  0  0  0
    1.5505  -10.5188   17.7449 He  0  0  0  0  0  0  0  0  0  0  0  0
   -0.4457   -8.9074   17.4356 He  0  0  0  0  0  0  0  0  0  0  0  0
  1  2  2  0
  1  4  1  0
  1  5  1  0
  1  7  4  0
  1  8  3  0
  2  3  3  0
  2  4  2  0
  2  7  3  0
  3  7  2  0
  4  8  2  0
  5  6  2  0
  6  8  1  0
  7  8  3  0
M  END
$$$$

 Created by Python create_sdf_string function

 23  3  0  0  0  0  0  0  0  0999 V2000
    5.3772   -4.3160   28.5674 O   0  0  0  0  0  0  0  0  0  0  0  0
    1.8987   -7.5628   28.4994 O   0  0  0  0  0  0  0  0  0  0  0  0
    5.1991   -3.7467   27.5778 O   0  0  0  0  0  0  0  0  0  0  0  0
    1.1343   -8.8211   16.1981 C   0  0  0  0  0  0  0  0  0  0  0  0
    4.8344   -5.7796   27.7922 C   0  0  0  0  0  0  0  0  0  0  0  0
    2.1171   -5.2240   26.6879 C   0  0  0  0  0  0  0  0  0  0  0  0
    2.1070   -5.4354   27.1330 C   0  0  0  0  0  0  0  0  0  0  0  0
   -1.1171   -9.6326   18.3992 C   0  0  0  0  0  0  0  0  0  0  0  0
    1.8140  -10.6989   17.6791 C   0  0  0  0  0  0  0  0  0  0  0  0
    0.9282   -9.7545   17.3027 C   0  0  0  0  0  0  0  0  0  0  0  0
   -0.1076  -10.8989   18.4767 C   0  0  0  0  0  0  0  0  0  0  0  0
    2.0026   -6.7629   27.6398 C   0  0  0  0  0  0  0  0  0  0  0  0
   -0.7681   -9.7951   17.8883 C   0  0  0  0  0  0  0  0  0  0  0  0
    2.4361  -10.9120   17.5327 C   0  0  0  0  0  0  0  0  0  0  0  0
    3.3525   -6.2786   28.5133 C   0  0  0  0  0  0  0  0  0  0  0  0
    0.9973   -6.0081   27.2049 C   0  0  0  0  0  0  0  0  0  0  0  0
    3.2406  -10.2818   16.5708 C   0  0  0  0  0  0  0  0  0  0  0  0
    4.8915   -4.3080   27.7586 C   0  0  0  0  0  0  0  0  0  0  0  0
    3.5504  -10.5267   16.2986 C   0  0  0  0  0  0  0  0  0  0  0  0
    1.5301  -10.4201   17.4807 C   0  0  0  0  0  0  0  0  0  0  0  0
   -0.5071   -8.9418   17.2125 C   0  0  0  0  0  0  0  0  0  0  0  0
    4.0973   -7.2994   27.5477 O   0  0  0  0  0  0  0  0  0  0  0  0
    4.3603   -6.8947   28.3589 C   0  0  0  0  0  0  0  0  0  0  0  0
  3 18  1  0
  6  7  1  0
 17 19  4  0
M  END
$$$$

 Created by Python create_sdf_string function

 23 48  0  0  0  0  0  0  0  0999 V2000
    6.4839   -2.8191   28.7029 O   0  0  0  0  0  0  0  0  0  0  0  0
    1.4921   -6.8903   28.0527 O   0  0  0  0  0  0  0  0  0  0  0  0
    5.3891   -3.5559   27.7236 N   0  0  0  0  0  0  0  0  0  0  0  0
    4.1044   -5.8252   26.3723 C   0  0  0  0  0  0  0  0  0  0  0  0
    2.7022   -7.1055   26.4068 C   0  0  0  0  0  0  0  0  0  0  0  0
   -1.2240   -9.3633   18.6338 S   0  0  0  0  0  0  0  0  0  0  0  0
    0.6463   -9.4586   17.4092 P   0  0  0  0  0  0  0  0  0  0  0  0
    0.0852   -7.6888   16.0490 C   0  0  0  0  0  0  0  0  0  0  0  0
    0.0687   -9.5599   17.8223 Cl  0  0  0  0  0  0  0  0  0  0  0  0
    1.3933   -6.5225   26.1852 S   0  0  0  0  0  0  0  0  0  0  0  0
   -2.2939   -9.8990   19.4376 O   0  0  0  0  0  0  0  0  0  0  0  0
    2.0869  -12.5516   18.4480 C   0  0  0  0  0  0  0  0  0  0  0  0
    5.8715   -5.4057   28.4573 S   0  0  0  0  0  0  0  0  0  0  0  0
    3.6724   -9.6231   17.2702 Se  0  0  0  0  0  0  0  0  0  0  0  0
    0.0413   -9.9939   17.6088 I   0  0  0  0  0  0  0  0  0  0  0  0
    2.1101   -8.1431   29.0261 C   0  0  0  0  0  0  0  0  0  0  0  0
    2.5031  -10.0101   17.8616 He  0  0  0  0  0  0  0  0  0  0  0  0
    5.9046   -6.7290   27.7631 He  0  0  0  0  0  0  0  0  0  0  0  0
    3.4319   -5.6642   28.6289 He  0  0  0  0  0  0  0  0  0  0  0  0
    1.4844   -7.9606   27.9501 He  0  0  0  0  0  0  0  0  0  0  0  0
    3.0687  -10.8885   17.9905 He  0  0  0  0  0  0  0  0  0  0  0  0
    0.4068  -11.6343   17.2247 He  0  0  0  0  0  0  0  0  0  0  0  0
    4.0175   -7.5786   28.6025 He  0  0  0  0  0  0  0  0  0  0  0  0
  1  7  2  0
  1  9  1  0
  1 10  1  0
  1 12  2  0
  1 14  2  0
  1 15  2  0
  2 11  1  0
  2 13  1  0
  2 16  1  0
  3  5  4  0
  3  8  2  0
  3 10  3  0
  3 12  2  0
  3 13  4  0
  3 15  4  0
  4  5  1  0
  4  7  3  0
  4  8  4  0
  4 12  2  0
  4 14  2  0
  5  7  4  0
  5  8  4  0
  5 10  4  0
  5 11  3  0
  5 12  4  0
  5 13  2  0
  5 14  1  0
  6  8  1  0
  6  9  1  0
  6 11  3  0
  6 13  3  0
  7 11  3  0
  7 13  1  0
  7 14  3  0
  7 15  3  0
  8 10  1  0
  8 14  2  0
  8 16  2  0
  9 11  3  0
  9 15  1  0
 10 15  3  0
 10 16  1  0
 11 12  1  0
 11 14  4  0
 12 13  4  0
 12 14  1  0
 12 16  2  0
 13 14  1  0
M  END
$$$$

 Created by Python create_sdf_string function

 23  8  0  0  0  0  0  0  0  0999 V2000
    6.2255   -4.0559   28.4452 O   0  0  0  0  0  0  0  0  0  0  0  0
    1.4974   -7.1480   28.0924 C   0  0  0  0  0  0  0  0  0  0  0  0
    5.3252   -4.2898   27.7270 C   0  0  0  0  0  0  0  0  0  0  0  0
    2.5253   -9.9733   17.2796 C   0  0  0  0  0  0  0  0  0  0  0  0
    5.7147   -5.9534   27.8940 C   0  0  0  0  0  0  0  0  0  0  0  0
    4.1001   -5.9806   27.0787 C   0  0  0  0  0  0  0  0  0  0  0  0
    2.9607   -6.7108   26.6487 C   0  0  0  0  0  0  0  0  0  0  0  0
   -1.4853   -9.1707   18.0086 C   0  0  0  0  0  0  0  0  0  0  0  0
    0.9792   -9.6518   17.2167 C   0  0  0  0  0  0  0  0  0  0  0  0
   -0.2862   -8.2763   16.7308 C   0  0  0  0  0  0  0  0  0  0  0  0
   -0.7676   -9.2897   17.5640 C   0  0  0  0  0  0  0  0  0  0  0  0
    1.7934   -6.6491   26.6652 C   0  0  0  0  0  0  0  0  0  0  0  0
   -2.0137   -9.5916   18.4990 O   0  0  0  0  0  0  0  0  0  0  0  0
    1.8338  -11.6688   18.1100 C   0  0  0  0  0  0  0  0  0  0  0  0
    3.9008   -5.9406   28.3149 C   0  0  0  0  0  0  0  0  0  0  0  0
    1.6036   -7.7761   28.0310 C   0  0  0  0  0  0  0  0  0  0  0  0
    2.9151  -10.9099   17.7520 C   0  0  0  0  0  0  0  0  0  0  0  0
    5.7560   -4.9045   28.2249 C   0  0  0  0  0  0  0  0  0  0  0  0
    2.9043   -9.5637   16.9904 C   0  0  0  0  0  0  0  0  0  0  0  0
    0.4292  -11.1160   18.1095 C   0  0  0  0  0  0  0  0  0  0  0  0
    0.0713  -10.1108   17.6728 C   0  0  0  0  0  0  0  0  0  0  0  0
    3.8869   -7.0571   28.4896 C   0  0  0  0  0  0  0  0  0  0  0  0
    2.1155   -7.7122   28.6587 C   0  0  0  0  0  0  0  0  0  0  0  0
  3 18  1  0
  4 17  4  0
  4 19  4  0
  6  7  1  0
  7 12  4  0
  8 11  1  0
 14 17  4  0
 14 20  4  0
M  END
$$$$

 Created by Python create_sdf_string function

 23 18  0  0  0  0  0  0  0  0999 V2000
    1.4048   -8.1111   27.4969 F   0  0  0  0  0  0  0  0  0  0  0  0
    3.9334   -2.0130   28.8519 O   0  0  0  0  0  0  0  0  0  0  0  0
    3.0210   -6.0563   28.0853 Cl  0  0  0  0  0  0  0  0  0  0  0  0
    2.5170   -8.6707   16.8448 O   0  0  0  0  0  0  0  0  0  0  0  0
   -0.6084   -8.5330   17.2603 O   0  0  0  0  0  0  0  0  0  0  0  0
   -1.0745   -9.4237   18.4001 N   0  0  0  0  0  0  0  0  0  0  0  0
   -2.1848   -9.3302   17.0397 Cl  0  0  0  0  0  0  0  0  0  0  0  0
    2.5638  -10.6867   17.2812 C   0  0  0  0  0  0  0  0  0  0  0  0
    1.2472   -9.4001   18.4924 O   0  0  0  0  0  0  0  0  0  0  0  0
   -0.5271  -10.9070   17.9670 N   0  0  0  0  0  0  0  0  0  0  0  0
    3.8986   -7.7405   27.8329 N   0  0  0  0  0  0  0  0  0  0  0  0
    6.0401   -5.0283   28.4593 He  0  0  0  0  0  0  0  0  0  0  0  0
    3.7949   -8.8632   19.0524 He  0  0  0  0  0  0  0  0  0  0  0  0
    6.4490   -6.1856   29.0938 He  0  0  0  0  0  0  0  0  0  0  0  0
    3.3944   -5.3213   26.8672 He  0  0  0  0  0  0  0  0  0  0  0  0
   -0.4586   -7.2463   17.8864 He  0  0  0  0  0  0  0  0  0  0  0  0
    1.3807   -6.2783   26.2977 He  0  0  0  0  0  0  0  0  0  0  0  0
    0.5233  -11.1978   17.8029 He  0  0  0  0  0  0  0  0  0  0  0  0
    4.2116   -5.6467   28.5891 He  0  0  0  0  0  0  0  0  0  0  0  0
    1.8268   -8.8009   26.3540 He  0  0  0  0  0  0  0  0  0  0  0  0
    6.5483   -2.5635   27.5191 He  0  0  0  0  0  0  0  0  0  0  0  0
    1.5622   -9.0414   17.0526 He  0  0  0  0  0  0  0  0  0  0  0  0
    2.6757   -8.1866   28.2292 He  0  0  0  0  0  0  0  0  0  0  0  0
  1  7  4  0
  1  8  3  0
  1 10  4  0
  1 11  2  0
  2  9  4  0
  3  5  4  0
  4  8  4  0
  4  9  4  0
  4 10  2  0
  5  8  2  0
  5 11  4  0
  6  7  2  0
  6 10  4  0
  6 11  4  0
  7 11  2  0
  8 10  2  0
  8 11  2  0
  9 10  1  0
M  END
$$$$

 Created by Python create_sdf_string function

 23  7  0  0  0  0  0  0  0  0999 V2000
    5.6082   -4.4818   28.2052 C   0  0  0  0  0  0  0  0  0  0  0  0
    1.8717   -7.8053   27.3527 C   0  0  0  0  0  0  0  0  0  0  0  0
    4.4304   -3.1980   28.2658 O   0  0  0  0  0  0  0  0  0  0  0  0
    3.1344   -9.9438   17.3272 C   0  0  0  0  0  0  0  0  0  0  0  0
    6.0200   -5.5369   28.5453 O   0  0  0  0  0  0  0  0  0  0  0  0
    3.2549   -5.2737   27.3726 C   0  0  0  0  0  0  0  0  0  0  0  0
    3.3017   -5.8246   27.6348 C   0  0  0  0  0  0  0  0  0  0  0  0
   -0.6769   -7.9553   17.1964 C   0  0  0  0  0  0  0  0  0  0  0  0
    2.3694   -8.9283   16.6689 C   0  0  0  0  0  0  0  0  0  0  0  0
   -0.6234   -8.6243   17.1753 C   0  0  0  0  0  0  0  0  0  0  0  0
   -1.5552   -9.4170   18.0248 C   0  0  0  0  0  0  0  0  0  0  0  0
    1.8601   -6.2036   26.7468 C   0  0  0  0  0  0  0  0  0  0  0  0
   -2.1010   -9.2694   17.6169 C   0  0  0  0  0  0  0  0  0  0  0  0
    0.5322  -10.8003   18.0545 C   0  0  0  0  0  0  0  0  0  0  0  0
    4.5563   -5.3598   28.1413 C   0  0  0  0  0  0  0  0  0  0  0  0
    2.1396   -8.3349   26.8222 C   0  0  0  0  0  0  0  0  0  0  0  0
    2.6178  -10.5062   17.4159 C   0  0  0  0  0  0  0  0  0  0  0  0
    6.0403   -3.6294   28.0309 C   0  0  0  0  0  0  0  0  0  0  0  0
    1.4520   -8.9310   16.8503 C   0  0  0  0  0  0  0  0  0  0  0  0
    0.9114  -10.0633   17.6636 C   0  0  0  0  0  0  0  0  0  0  0  0
   -0.6440  -10.5934   18.1573 C   0  0  0  0  0  0  0  0  0  0  0  0
    3.7546   -7.2946   27.7035 C   0  0  0  0  0  0  0  0  0  0  0  0
    2.8101   -7.7702   27.9284 C   0  0  0  0  0  0  0  0  0  0  0  0
  1 18  1  0
  2 16  1  0
  4  9  4  0
  4 17  4  0
  9 19  4  0
 11 13  2  0
 14 20  4  0
M  END
$$$$

 Created by Python create_sdf_string function

 23 28  0  0  0  0  0  0  0  0999 V2000
    2.6587   -8.5522   28.4133 Cl  0  0  0  0  0  0  0  0  0  0  0  0
    4.1377   -2.7146   28.8208 O   0  0  0  0  0  0  0  0  0  0  0  0
    3.1223   -7.0582   28.7193 C   0  0  0  0  0  0  0  0  0  0  0  0
   -0.1265   -9.5798   18.0116 S   0  0  0  0  0  0  0  0  0  0  0  0
    0.4595  -10.4284   15.8906 O   0  0  0  0  0  0  0  0  0  0  0  0
    5.5794   -5.3339   28.5465 S   0  0  0  0  0  0  0  0  0  0  0  0
    3.5759   -8.1699   27.6861 C   0  0  0  0  0  0  0  0  0  0  0  0
    6.4242   -2.9194   26.8159 N   0  0  0  0  0  0  0  0  0  0  0  0
    0.5458   -8.8424   16.2540 C   0  0  0  0  0  0  0  0  0  0  0  0
    2.3262   -9.7730   17.5361 F   0  0  0  0  0  0  0  0  0  0  0  0
   -0.7196   -8.1600   17.4405 N   0  0  0  0  0  0  0  0  0  0  0  0
    3.9100   -7.2999   27.9652 Br  0  0  0  0  0  0  0  0  0  0  0  0
    2.7843   -8.8159   28.0452 P   0  0  0  0  0  0  0  0  0  0  0  0
    6.8312   -4.6977   26.8967 He  0  0  0  0  0  0  0  0  0  0  0  0
    2.4048  -11.3086   16.6229 He  0  0  0  0  0  0  0  0  0  0  0  0
    4.8593   -6.8297   27.5162 He  0  0  0  0  0  0  0  0  0  0  0  0
    2.9825   -3.9389   28.0088 He  0  0  0  0  0  0  0  0  0  0  0  0
    0.5198   -6.8034   15.5119 He  0  0  0  0  0  0  0  0  0  0  0  0
    2.5351   -9.6287   17.0173 He  0  0  0  0  0  0  0  0  0  0  0  0
    0.2909   -7.5268   16.9018 He  0  0  0  0  0  0  0  0  0  0  0  0
    0.0717   -5.3139   27.0991 He  0  0  0  0  0  0  0  0  0  0  0  0
   -2.4457   -7.6984   17.2972 He  0  0  0  0  0  0  0  0  0  0  0  0
    2.1569  -11.1630   16.7988 He  0  0  0  0  0  0  0  0  0  0  0  0
  1  3  2  0
  1  5  4  0
  1  6  1  0
  1  7  3  0
  1  9  2  0
  1 12  1  0
  1 13  2  0
  2  3  4  0
  2  8  1  0
  2 13  1  0
  3  7  2  0
  3  9  4  0
  3 10  4  0
  3 11  4  0
  4  6  1  0
  4  9  2  0
  4 10  3  0
  5  6  4  0
  5 10  4  0
  5 13  4  0
  7  8  2  0
  7 10  1  0
  7 13  2  0
  8  9  2  0
  8 13  2  0
 10 11  3  0
 11 13  2  0
 12 13  3  0
M  END
$$$$

 Created by Python create_sdf_string function

 23  3  0  0  0  0  0  0  0  0999 V2000
    6.2820   -4.7660   27.4667 C   0  0  0  0  0  0  0  0  0  0  0  0
    2.3653   -7.9460   27.9857 C   0  0  0  0  0  0  0  0  0  0  0  0
    4.3648   -3.4626   27.9792 C   0  0  0  0  0  0  0  0  0  0  0  0
    2.2411  -11.0361   16.8187 C   0  0  0  0  0  0  0  0  0  0  0  0
    4.8949   -6.3180   27.5331 C   0  0  0  0  0  0  0  0  0  0  0  0
    2.7312   -6.4577   28.0363 C   0  0  0  0  0  0  0  0  0  0  0  0
    3.4365   -4.4356   27.8326 C   0  0  0  0  0  0  0  0  0  0  0  0
    0.0679   -7.2887   16.1067 C   0  0  0  0  0  0  0  0  0  0  0  0
    2.1892   -9.6887   16.7498 C   0  0  0  0  0  0  0  0  0  0  0  0
   -0.2912   -7.6756   16.7255 C   0  0  0  0  0  0  0  0  0  0  0  0
   -0.2909   -9.4998   17.6677 C   0  0  0  0  0  0  0  0  0  0  0  0
    1.5022   -5.8231   27.4425 C   0  0  0  0  0  0  0  0  0  0  0  0
   -1.6309   -7.7577   17.3702 C   0  0  0  0  0  0  0  0  0  0  0  0
    0.8422  -10.0832   16.7063 C   0  0  0  0  0  0  0  0  0  0  0  0
    5.2741   -5.3629   27.7144 C   0  0  0  0  0  0  0  0  0  0  0  0
    3.2558   -7.7286   27.5479 C   0  0  0  0  0  0  0  0  0  0  0  0
    2.1719  -10.8830   16.9702 C   0  0  0  0  0  0  0  0  0  0  0  0
    5.8463   -3.6293   27.5881 C   0  0  0  0  0  0  0  0  0  0  0  0
    0.4305   -8.6838   16.5434 C   0  0  0  0  0  0  0  0  0  0  0  0
    1.9692   -9.7646   16.9675 C   0  0  0  0  0  0  0  0  0  0  0  0
   -1.1586   -7.9486   17.3240 C   0  0  0  0  0  0  0  0  0  0  0  0
    3.3434   -6.7083   27.7282 C   0  0  0  0  0  0  0  0  0  0  0  0
    2.5384   -8.2506   27.7200 C   0  0  0  0  0  0  0  0  0  0  0  0
  5 15  4  0
  9 17  4  0
 13 21  4  0
M  END
$$$$

 Created by Python create_sdf_string function

 23 18  0  0  0  0  0  0  0  0999 V2000
    5.9708   -4.2998   26.2726 C   0  0  0  0  0  0  0  0  0  0  0  0
    1.5806   -8.4586   28.9992 C   0  0  0  0  0  0  0  0  0  0  0  0
    1.8768  -12.2393   16.9414 O   0  0  0  0  0  0  0  0  0  0  0  0
    5.3173   -5.5884   27.4257 C   0  0  0  0  0  0  0  0  0  0  0  0
   -0.5226   -7.5485   17.1612 N   0  0  0  0  0  0  0  0  0  0  0  0
    2.7068   -8.4214   26.9514 Cl  0  0  0  0  0  0  0  0  0  0  0  0
    1.8008  -12.4083   16.3145 O   0  0  0  0  0  0  0  0  0  0  0  0
    0.3300  -10.5197   18.0862 C   0  0  0  0  0  0  0  0  0  0  0  0
    3.0971   -6.2347   27.8611 P   0  0  0  0  0  0  0  0  0  0  0  0
    3.4270   -8.0236   26.8157 Cl  0  0  0  0  0  0  0  0  0  0  0  0
    4.3443   -4.1941   27.7848 He  0  0  0  0  0  0  0  0  0  0  0  0
    1.0558   -8.0090   26.9746 He  0  0  0  0  0  0  0  0  0  0  0  0
    3.4389   -3.4753   27.8340 He  0  0  0  0  0  0  0  0  0  0  0  0
    3.0247   -8.5433   17.1231 He  0  0  0  0  0  0  0  0  0  0  0  0
    0.5574   -7.7536   15.7582 He  0  0  0  0  0  0  0  0  0  0  0  0
    1.1155   -9.8992   16.8875 He  0  0  0  0  0  0  0  0  0  0  0  0
    2.6542   -6.3516   26.5362 He  0  0  0  0  0  0  0  0  0  0  0  0
   -0.5855   -6.4406   18.3786 He  0  0  0  0  0  0  0  0  0  0  0  0
    1.4431   -9.7930   17.4361 He  0  0  0  0  0  0  0  0  0  0  0  0
    5.2267   -4.2417   27.7576 He  0  0  0  0  0  0  0  0  0  0  0  0
    5.8485   -2.9158   25.5861 He  0  0  0  0  0  0  0  0  0  0  0  0
    3.6277   -9.9810   18.5342 He  0  0  0  0  0  0  0  0  0  0  0  0
   -1.8788   -7.7759   16.8100 He  0  0  0  0  0  0  0  0  0  0  0  0
  1  3  1  0
  1 10  4  0
  2  6  2  0
  2  7  3  0
  2  8  1  0
  2  9  4  0
  2 10  4  0
  4  5  4  0
  4  6  1  0
  4  9  2  0
  5 10  1  0
  6  7  3  0
  6  8  3  0
  6  9  1  0
  7  9  3  0
  8  9  3  0
  8 10  2  0
  9 10  3  0
M  END
$$$$

 Created by Python create_sdf_string function

 23  4  0  0  0  0  0  0  0  0999 V2000
    6.0181   -4.4041   27.3513 C   0  0  0  0  0  0  0  0  0  0  0  0
    2.0193   -8.1141   28.3235 C   0  0  0  0  0  0  0  0  0  0  0  0
    4.2218   -4.3364   27.5965 C   0  0  0  0  0  0  0  0  0  0  0  0
    1.8191  -11.6394   17.2447 C   0  0  0  0  0  0  0  0  0  0  0  0
    4.9035   -5.6682   27.4337 C   0  0  0  0  0  0  0  0  0  0  0  0
    1.5914   -7.7166   27.1366 C   0  0  0  0  0  0  0  0  0  0  0  0
    3.7255   -3.9453   27.5769 C   0  0  0  0  0  0  0  0  0  0  0  0
   -0.6747   -7.8959   16.9603 C   0  0  0  0  0  0  0  0  0  0  0  0
    2.2575   -8.9304   16.7030 C   0  0  0  0  0  0  0  0  0  0  0  0
    0.4692   -7.8989   16.5039 C   0  0  0  0  0  0  0  0  0  0  0  0
    0.5251   -9.5417   17.1146 C   0  0  0  0  0  0  0  0  0  0  0  0
    2.6793   -6.1169   27.0526 C   0  0  0  0  0  0  0  0  0  0  0  0
   -0.9043   -7.1486   17.2508 C   0  0  0  0  0  0  0  0  0  0  0  0
    1.7492   -9.9626   17.0313 C   0  0  0  0  0  0  0  0  0  0  0  0
    5.5782   -4.4088   27.6980 C   0  0  0  0  0  0  0  0  0  0  0  0
    2.4720   -8.0010   27.2888 C   0  0  0  0  0  0  0  0  0  0  0  0
    1.7603  -11.9177   16.9870 C   0  0  0  0  0  0  0  0  0  0  0  0
    5.7090   -3.2141   27.2002 C   0  0  0  0  0  0  0  0  0  0  0  0
    0.1609  -10.0479   17.4844 C   0  0  0  0  0  0  0  0  0  0  0  0
    3.0764  -10.2528   17.3649 C   0  0  0  0  0  0  0  0  0  0  0  0
   -1.5402   -8.1092   17.0403 C   0  0  0  0  0  0  0  0  0  0  0  0
    2.9458   -6.3355   27.6241 C   0  0  0  0  0  0  0  0  0  0  0  0
    3.2991   -7.6169   26.9762 C   0  0  0  0  0  0  0  0  0  0  0  0
  3  7  4  0
  4 17  1  0
  9 14  4  0
 11 19  4  0
M  END
$$$$

 Created by Python create_sdf_string function

 23 16  0  0  0  0  0  0  0  0999 V2000
    5.6295   -3.8876   27.4681 C   0  0  0  0  0  0  0  0  0  0  0  0
    0.9870   -8.0487   27.1953 S   0  0  0  0  0  0  0  0  0  0  0  0
    4.1978   -4.0152   26.9425 F   0  0  0  0  0  0  0  0  0  0  0  0
   -0.0933  -11.6795   15.7012 C   0  0  0  0  0  0  0  0  0  0  0  0
    3.0543   -3.8661   27.0331 C   0  0  0  0  0  0  0  0  0  0  0  0
    3.7911   -9.8906   27.1680 S   0  0  0  0  0  0  0  0  0  0  0  0
    4.7301   -2.3041   26.2309 C   0  0  0  0  0  0  0  0  0  0  0  0
    0.5665  -10.0257   17.7851 C   0  0  0  0  0  0  0  0  0  0  0  0
    1.7306  -10.7638   17.3352 N   0  0  0  0  0  0  0  0  0  0  0  0
    3.9241   -8.8251   26.0707 C   0  0  0  0  0  0  0  0  0  0  0  0
    7.4816   -5.9523   27.9899 He  0  0  0  0  0  0  0  0  0  0  0  0
    1.3783   -8.0456   28.8947 He  0  0  0  0  0  0  0  0  0  0  0  0
   -0.8552   -7.3939   15.6020 He  0  0  0  0  0  0  0  0  0  0  0  0
    2.8548   -9.5785   15.0167 He  0  0  0  0  0  0  0  0  0  0  0  0
   -0.1102   -9.1772   17.5399 He  0  0  0  0  0  0  0  0  0  0  0  0
    0.4474   -8.6998   17.2872 He  0  0  0  0  0  0  0  0  0  0  0  0
    2.3935   -4.4927   28.0452 He  0  0  0  0  0  0  0  0  0  0  0  0
   -0.5133   -6.8916   17.7826 He  0  0  0  0  0  0  0  0  0  0  0  0
    2.0613  -10.0726   16.5387 He  0  0  0  0  0  0  0  0  0  0  0  0
    4.3255   -3.3570   28.5571 He  0  0  0  0  0  0  0  0  0  0  0  0
    1.9924  -12.2332   18.5667 He  0  0  0  0  0  0  0  0  0  0  0  0
   -2.0398   -9.6406   18.1530 He  0  0  0  0  0  0  0  0  0  0  0  0
    1.8359   -5.4958   26.9188 He  0  0  0  0  0  0  0  0  0  0  0  0
  1  4  4  0
  1  5  1  0
  1  6  1  0
  2  8  2  0
  2  9  4  0
  2 10  1  0
  3  4  3  0
  3  5  1  0
  3  8  3  0
  4  6  4  0
  5 10  4  0
  7  8  1  0
  7  9  4  0
  7 10  3  0
  8  9  4  0
  8 10  2  0
M  END
$$$$

 Created by Python create_sdf_string function

 23  9  0  0  0  0  0  0  0  0999 V2000
    5.7300   -4.3408   27.4831 C   0  0  0  0  0  0  0  0  0  0  0  0
    2.0607   -7.9078   27.3113 C   0  0  0  0  0  0  0  0  0  0  0  0
    3.9948   -4.8574   27.3094 C   0  0  0  0  0  0  0  0  0  0  0  0
    0.3364  -10.9381   16.5437 C   0  0  0  0  0  0  0  0  0  0  0  0
    6.2046   -5.3797   27.4932 O   0  0  0  0  0  0  0  0  0  0  0  0
    1.6383   -7.5107   27.8771 C   0  0  0  0  0  0  0  0  0  0  0  0
    3.5342   -4.3239   27.3749 C   0  0  0  0  0  0  0  0  0  0  0  0
   -0.5235   -7.7773   16.2982 C   0  0  0  0  0  0  0  0  0  0  0  0
    2.0945   -9.5708   15.7441 C   0  0  0  0  0  0  0  0  0  0  0  0
   -0.2727   -8.9728   17.1884 C   0  0  0  0  0  0  0  0  0  0  0  0
    0.1346   -8.7210   16.8190 C   0  0  0  0  0  0  0  0  0  0  0  0
    2.6146   -5.0211   27.5997 C   0  0  0  0  0  0  0  0  0  0  0  0
   -0.9912   -7.4889   17.2697 C   0  0  0  0  0  0  0  0  0  0  0  0
    1.7248   -9.8047   16.4030 C   0  0  0  0  0  0  0  0  0  0  0  0
    4.2073   -3.5949   28.0452 C   0  0  0  0  0  0  0  0  0  0  0  0
    3.4231   -8.3317   26.9672 C   0  0  0  0  0  0  0  0  0  0  0  0
    1.5435  -11.4259   18.0638 C   0  0  0  0  0  0  0  0  0  0  0  0
    5.0080   -2.9798   27.3698 C   0  0  0  0  0  0  0  0  0  0  0  0
    0.1545  -10.0655   17.6752 C   0  0  0  0  0  0  0  0  0  0  0  0
    1.4922  -10.7318   17.3968 C   0  0  0  0  0  0  0  0  0  0  0  0
   -1.4996   -9.4085   17.9833 C   0  0  0  0  0  0  0  0  0  0  0  0
    2.0979   -5.8844   27.1901 C   0  0  0  0  0  0  0  0  0  0  0  0
    3.6613   -7.4189   26.6690 C   0  0  0  0  0  0  0  0  0  0  0  0
  1  5  1  0
  2  6  1  0
  2 23  1  0
  3  7  1  0
  7 12  1  0
  9 14  1  0
 12 22  1  0
 16 23  1  0
 17 20  1  0
M  END
$$$$

 Created by Python create_sdf_string function

 23 29  0  0  0  0  0  0  0  0999 V2000
    1.7662   -6.3296   28.1473 C   0  0  0  0  0  0  0  0  0  0  0  0
   -1.1570  -11.8931   17.3792 Cl  0  0  0  0  0  0  0  0  0  0  0  0
    6.7569   -6.8032   27.3407 O   0  0  0  0  0  0  0  0  0  0  0  0
   -0.1626   -6.0019   16.5741 O   0  0  0  0  0  0  0  0  0  0  0  0
    0.2927   -9.0076   18.4404 C   0  0  0  0  0  0  0  0  0  0  0  0
    1.3479   -5.3523   27.6135 Br  0  0  0  0  0  0  0  0  0  0  0  0
   -1.7281   -6.3974   18.5102 C   0  0  0  0  0  0  0  0  0  0  0  0
    1.5712   -9.2800   16.2942 Se  0  0  0  0  0  0  0  0  0  0  0  0
    1.0239  -12.9866   18.1299 P   0  0  0  0  0  0  0  0  0  0  0  0
    5.0798   -3.4736   27.8287 C   0  0  0  0  0  0  0  0  0  0  0  0
    0.0973   -8.4202   18.7067 C   0  0  0  0  0  0  0  0  0  0  0  0
    2.4150  -10.2320   18.0871 F   0  0  0  0  0  0  0  0  0  0  0  0
   -2.2835   -9.5452   16.7990 B   0  0  0  0  0  0  0  0  0  0  0  0
    4.3760   -6.0960   28.0674 C   0  0  0  0  0  0  0  0  0  0  0  0
    4.3777   -5.5468   28.2371 He  0  0  0  0  0  0  0  0  0  0  0  0
    4.0321   -4.7729   27.9000 He  0  0  0  0  0  0  0  0  0  0  0  0
    0.4431   -6.9804   28.4137 He  0  0  0  0  0  0  0  0  0  0  0  0
    2.4589   -3.7360   29.1386 He  0  0  0  0  0  0  0  0  0  0  0  0
    2.0663  -10.1289   15.4048 He  0  0  0  0  0  0  0  0  0  0  0  0
    1.5020   -9.9758   17.3571 He  0  0  0  0  0  0  0  0  0  0  0  0
    4.9060   -3.6429   28.6499 He  0  0  0  0  0  0  0  0  0  0  0  0
    2.9598   -9.1685   25.6465 He  0  0  0  0  0  0  0  0  0  0  0  0
    3.0396   -7.3108   27.7693 He  0  0  0  0  0  0  0  0  0  0  0  0
  1  7  1  0
  1  9  4  0
  1 11  4  0
  1 14  3  0
  2  3  2  0
  2  7  4  0
  2  9  1  0
  2 10  4  0
  3  7  4  0
  3  8  1  0
  3 10  2  0
  3 11  3  0
  3 12  4  0
  4 10  3  0
  4 11  3  0
  4 13  4  0
  5  7  4  0
  5 10  1  0
  5 11  1  0
  5 14  4  0
  6  7  1  0
  6  9  2  0
  7 13  2  0
  8 10  2  0
  9 10  1  0
  9 11  3  0
  9 12  4  0
 10 13  1  0
 12 14  3  0
M  END
$$$$

 Created by Python create_sdf_string function

 23  6  0  0  0  0  0  0  0  0999 V2000
    4.0938   -5.6214   27.7712 C   0  0  0  0  0  0  0  0  0  0  0  0
    1.7414   -6.5610   27.8208 C   0  0  0  0  0  0  0  0  0  0  0  0
    4.2275   -4.7914   28.0491 C   0  0  0  0  0  0  0  0  0  0  0  0
   -0.4679  -11.2746   17.9342 C   0  0  0  0  0  0  0  0  0  0  0  0
    5.9835   -6.1091   27.3295 O   0  0  0  0  0  0  0  0  0  0  0  0
    0.9336   -6.6881   27.9255 O   0  0  0  0  0  0  0  0  0  0  0  0
    2.7881   -4.0596   28.5336 O   0  0  0  0  0  0  0  0  0  0  0  0
   -0.3593   -7.1552   16.8353 C   0  0  0  0  0  0  0  0  0  0  0  0
    1.5858   -9.6949   16.2761 C   0  0  0  0  0  0  0  0  0  0  0  0
    0.9674  -10.0594   17.4149 C   0  0  0  0  0  0  0  0  0  0  0  0
   -0.4466   -9.0800   17.6161 C   0  0  0  0  0  0  0  0  0  0  0  0
    1.6855   -5.7897   27.8128 C   0  0  0  0  0  0  0  0  0  0  0  0
   -1.6874   -7.3998   17.8923 C   0  0  0  0  0  0  0  0  0  0  0  0
    1.3139   -9.0295   16.4128 C   0  0  0  0  0  0  0  0  0  0  0  0
    4.9069   -3.7315   28.2984 O   0  0  0  0  0  0  0  0  0  0  0  0
    3.0998   -7.9406   26.3994 O   0  0  0  0  0  0  0  0  0  0  0  0
    0.5953  -11.8521   18.0383 C   0  0  0  0  0  0  0  0  0  0  0  0
    5.1812   -4.1363   28.1351 C   0  0  0  0  0  0  0  0  0  0  0  0
   -0.3184   -8.6414   17.4473 C   0  0  0  0  0  0  0  0  0  0  0  0
    1.8956  -10.5976   17.6297 C   0  0  0  0  0  0  0  0  0  0  0  0
   -1.6929   -8.9831   17.6379 C   0  0  0  0  0  0  0  0  0  0  0  0
    3.1491   -6.7548   27.4019 C   0  0  0  0  0  0  0  0  0  0  0  0
    4.2068   -6.3735   27.3334 C   0  0  0  0  0  0  0  0  0  0  0  0
  2  6  1  0
  4 17  1  0
  6 12  1  0
  9 14  4  0
 11 19  1  0
 15 18  1  0
M  END
$$$$

 Created by Python create_sdf_string function

 23 25  0  0  0  0  0  0  0  0999 V2000
    4.9567   -5.3709   27.7220 P   0  0  0  0  0  0  0  0  0  0  0  0
    3.3503   -5.8650   28.5530 F   0  0  0  0  0  0  0  0  0  0  0  0
    2.3569   -4.7935   29.0218 N   0  0  0  0  0  0  0  0  0  0  0  0
    0.2323  -10.7562   18.6002 O   0  0  0  0  0  0  0  0  0  0  0  0
    1.5256   -9.0119   15.9985 O   0  0  0  0  0  0  0  0  0  0  0  0
    2.1727   -6.4580   26.3000 Cl  0  0  0  0  0  0  0  0  0  0  0  0
    4.1241   -4.7455   28.5721 B   0  0  0  0  0  0  0  0  0  0  0  0
    5.5777   -4.6516   27.3300 C   0  0  0  0  0  0  0  0  0  0  0  0
    0.7736   -7.7723   17.5056 C   0  0  0  0  0  0  0  0  0  0  0  0
    1.3515  -10.2135   16.2329 C   0  0  0  0  0  0  0  0  0  0  0  0
   -2.5491  -10.3876   17.5377 N   0  0  0  0  0  0  0  0  0  0  0  0
    3.2570   -7.8737   25.8052 S   0  0  0  0  0  0  0  0  0  0  0  0
    6.2127   -5.7267   27.6761 He  0  0  0  0  0  0  0  0  0  0  0  0
   -0.5062   -6.0689   26.9146 He  0  0  0  0  0  0  0  0  0  0  0  0
    3.9870   -3.5553   29.7904 He  0  0  0  0  0  0  0  0  0  0  0  0
   -0.7334   -8.2253   16.9517 He  0  0  0  0  0  0  0  0  0  0  0  0
    1.0135  -10.6568   17.4128 He  0  0  0  0  0  0  0  0  0  0  0  0
   -0.2909   -9.2076   19.1149 He  0  0  0  0  0  0  0  0  0  0  0  0
   -0.9270   -7.4348   17.2249 He  0  0  0  0  0  0  0  0  0  0  0  0
    0.3110   -9.5764   16.7744 He  0  0  0  0  0  0  0  0  0  0  0  0
    3.2764   -8.9799   27.3572 He  0  0  0  0  0  0  0  0  0  0  0  0
    0.6635  -12.6615   17.7479 He  0  0  0  0  0  0  0  0  0  0  0  0
    1.9061   -6.9087   27.6154 He  0  0  0  0  0  0  0  0  0  0  0  0
  1  3  4  0
  1  4  4  0
  1  5  3  0
  1  6  1  0
  1  9  4  0
  1 10  2  0
  1 11  1  0
  2  3  4  0
  2  7  2  0
  2  9  2  0
  2 10  2  0
  2 12  1  0
  3  5  2  0
  3  6  4  0
  3  7  3  0
  3  8  1  0
  3 12  4  0
  4  5  3  0
  4  8  4  0
  4 10  4  0
  5  9  2  0
  6 11  2  0
  7 10  2  0
  7 11  2  0
  8  9  1  0
M  END
$$$$

 Created by Python create_sdf_string function

 23  3  0  0  0  0  0  0  0  0999 V2000
    4.8746   -5.4004   27.8007 C   0  0  0  0  0  0  0  0  0  0  0  0
    3.3080   -5.6037   27.9981 C   0  0  0  0  0  0  0  0  0  0  0  0
    2.4673   -5.0279   28.5585 C   0  0  0  0  0  0  0  0  0  0  0  0
   -0.1124  -10.8632   18.6271 C   0  0  0  0  0  0  0  0  0  0  0  0
    5.7527   -5.6628   27.4252 O   0  0  0  0  0  0  0  0  0  0  0  0
    0.6496   -6.1894   27.1445 C   0  0  0  0  0  0  0  0  0  0  0  0
    4.1360   -3.9514   29.2541 O   0  0  0  0  0  0  0  0  0  0  0  0
   -0.8921   -8.2756   17.1096 C   0  0  0  0  0  0  0  0  0  0  0  0
    1.2678   -8.8780   16.1960 C   0  0  0  0  0  0  0  0  0  0  0  0
    0.5017  -10.7336   17.6468 C   0  0  0  0  0  0  0  0  0  0  0  0
   -0.9130   -9.6344   18.3837 C   0  0  0  0  0  0  0  0  0  0  0  0
    2.1226   -6.5204   26.8077 C   0  0  0  0  0  0  0  0  0  0  0  0
   -0.9945   -7.7332   17.1690 C   0  0  0  0  0  0  0  0  0  0  0  0
    0.3372   -9.7890   16.9537 C   0  0  0  0  0  0  0  0  0  0  0  0
    4.1611   -4.6640   28.6479 C   0  0  0  0  0  0  0  0  0  0  0  0
    3.0244   -7.9050   26.8348 C   0  0  0  0  0  0  0  0  0  0  0  0
    0.4789  -11.8609   17.8795 C   0  0  0  0  0  0  0  0  0  0  0  0
    5.4836   -4.9510   27.9136 C   0  0  0  0  0  0  0  0  0  0  0  0
    0.2894   -7.9789   16.6732 C   0  0  0  0  0  0  0  0  0  0  0  0
    1.0808  -10.0355   16.5569 C   0  0  0  0  0  0  0  0  0  0  0  0
   -1.8445   -9.9860   18.0102 C   0  0  0  0  0  0  0  0  0  0  0  0
    3.5665   -7.4051   26.2837 C   0  0  0  0  0  0  0  0  0  0  0  0
    1.9801   -6.7406   27.3249 C   0  0  0  0  0  0  0  0  0  0  0  0
  7 15  1  0
  8 13  1  0
 16 22  1  0
M  END
$$$$

 Created by Python create_sdf_string function

 23 32  0  0  0  0  0  0  0  0999 V2000
    5.4843   -6.5259   25.3614 F   0  0  0  0  0  0  0  0  0  0  0  0
    2.4348   -5.6952   27.3287 O   0  0  0  0  0  0  0  0  0  0  0  0
    2.2513   -4.9573   28.8113 C   0  0  0  0  0  0  0  0  0  0  0  0
   -0.8049  -10.8347   18.4464 N   0  0  0  0  0  0  0  0  0  0  0  0
    6.2484   -5.7255   27.9633 N   0  0  0  0  0  0  0  0  0  0  0  0
   -1.1461   -9.2800   16.3487 I   0  0  0  0  0  0  0  0  0  0  0  0
   -1.1856  -10.5467   18.3014 O   0  0  0  0  0  0  0  0  0  0  0  0
   -0.7654   -9.8406   17.3085 S   0  0  0  0  0  0  0  0  0  0  0  0
    5.1194   -4.2232   29.2924 F   0  0  0  0  0  0  0  0  0  0  0  0
    0.6148  -11.9724   18.5203 O   0  0  0  0  0  0  0  0  0  0  0  0
    5.9494   -4.2760   28.2890 C   0  0  0  0  0  0  0  0  0  0  0  0
    0.7478   -9.7515   17.8003 C   0  0  0  0  0  0  0  0  0  0  0  0
    4.6202   -7.7002   25.5735 C   0  0  0  0  0  0  0  0  0  0  0  0
    0.6575   -7.3324   27.4362 C   0  0  0  0  0  0  0  0  0  0  0  0
    0.3674   -5.6943   26.6885 He  0  0  0  0  0  0  0  0  0  0  0  0
    4.1890   -3.6647   29.6134 He  0  0  0  0  0  0  0  0  0  0  0  0
    0.8838   -9.9399   16.3747 He  0  0  0  0  0  0  0  0  0  0  0  0
   -0.2984  -10.3296   15.3583 He  0  0  0  0  0  0  0  0  0  0  0  0
    2.4801   -6.3307   27.3522 He  0  0  0  0  0  0  0  0  0  0  0  0
    1.7163   -9.3689   19.3253 He  0  0  0  0  0  0  0  0  0  0  0  0
    4.7231   -7.2458   27.0859 He  0  0  0  0  0  0  0  0  0  0  0  0
    0.5418   -8.8924   16.0866 He  0  0  0  0  0  0  0  0  0  0  0  0
   -1.2571  -10.7102   17.6649 He  0  0  0  0  0  0  0  0  0  0  0  0
  1  4  3  0
  1  8  1  0
  1  9  2  0
  1 10  3  0
  1 12  4  0
  1 13  4  0
  1 14  4  0
  2  4  2  0
  2 11  3  0
  2 13  4  0
  2 14  4  0
  3  7  3  0
  3 12  2  0
  4 13  4  0
  4 14  4  0
  5 12  2  0
  6  7  4  0
  6  8  2  0
  6  9  4  0
  6 10  4  0
  7  8  2  0
  7 10  4  0
  7 11  2  0
  7 12  4  0
  8 12  3  0
  8 13  1  0
  9 11  3  0
  9 13  1  0
 11 13  1  0
 12 13  4  0
 12 14  1  0
 13 14  4  0
M  END
$$$$

 Created by Python create_sdf_string function

 23  6  0  0  0  0  0  0  0  0999 V2000
    5.0155   -7.0511   26.4545 C   0  0  0  0  0  0  0  0  0  0  0  0
    2.4652   -5.7869   27.6687 C   0  0  0  0  0  0  0  0  0  0  0  0
    2.5415   -4.9837   28.3182 C   0  0  0  0  0  0  0  0  0  0  0  0
   -1.0333  -11.1727   18.5972 C   0  0  0  0  0  0  0  0  0  0  0  0
    5.8775   -5.6063   27.7139 C   0  0  0  0  0  0  0  0  0  0  0  0
    0.8493   -5.8239   27.2134 C   0  0  0  0  0  0  0  0  0  0  0  0
    4.3398   -4.0318   29.2078 C   0  0  0  0  0  0  0  0  0  0  0  0
   -1.1549   -9.3357   16.2453 C   0  0  0  0  0  0  0  0  0  0  0  0
    0.7168   -9.5351   16.3956 C   0  0  0  0  0  0  0  0  0  0  0  0
   -0.5071   -9.8707   15.4258 C   0  0  0  0  0  0  0  0  0  0  0  0
   -1.2456  -10.6965   18.3513 C   0  0  0  0  0  0  0  0  0  0  0  0
    2.2419   -6.2318   27.3117 C   0  0  0  0  0  0  0  0  0  0  0  0
   -0.8736   -9.7983   16.9357 C   0  0  0  0  0  0  0  0  0  0  0  0
    1.4949  -10.5732   18.4513 C   0  0  0  0  0  0  0  0  0  0  0  0
    4.6440   -4.3200   28.9685 C   0  0  0  0  0  0  0  0  0  0  0  0
    4.5853   -6.4210   27.1154 C   0  0  0  0  0  0  0  0  0  0  0  0
    0.1381  -11.4550   18.7264 C   0  0  0  0  0  0  0  0  0  0  0  0
    5.5635   -4.8067   28.3332 C   0  0  0  0  0  0  0  0  0  0  0  0
    0.5912   -8.9762   15.8293 C   0  0  0  0  0  0  0  0  0  0  0  0
    0.6255  -10.1302   17.5754 C   0  0  0  0  0  0  0  0  0  0  0  0
   -1.4174  -10.5762   17.4537 C   0  0  0  0  0  0  0  0  0  0  0  0
    4.0775   -7.2773   26.3721 C   0  0  0  0  0  0  0  0  0  0  0  0
    1.9169   -6.7303   27.0743 C   0  0  0  0  0  0  0  0  0  0  0  0
  1 22  4  0
  4 11  1  0
  7 15  1  0
  9 19  4  0
 12 23  4  0
 14 20  1  0
M  END
$$$$

 Created by Python create_sdf_string function

 23 30  0  0  0  0  0  0  0  0999 V2000
    2.5726   -5.9579   27.7290 C   0  0  0  0  0  0  0  0  0  0  0  0
    2.8995   -4.1133   28.3626 F   0  0  0  0  0  0  0  0  0  0  0  0
    1.5075   -5.8032   25.7398 Cl  0  0  0  0  0  0  0  0  0  0  0  0
    4.0552   -4.3926   28.7888 C   0  0  0  0  0  0  0  0  0  0  0  0
   -1.3656   -8.8059   16.7768 P   0  0  0  0  0  0  0  0  0  0  0  0
    0.7214   -9.2058   15.2799 N   0  0  0  0  0  0  0  0  0  0  0  0
   -1.2101  -10.0888   19.1979 Cl  0  0  0  0  0  0  0  0  0  0  0  0
    2.6048   -6.3079   26.8190 C   0  0  0  0  0  0  0  0  0  0  0  0
    5.4492   -6.0395   26.2041 N   0  0  0  0  0  0  0  0  0  0  0  0
   -0.9656  -13.0748   17.3039 C   0  0  0  0  0  0  0  0  0  0  0  0
    0.1194  -10.7710   15.6704 F   0  0  0  0  0  0  0  0  0  0  0  0
    0.7502   -9.9046   17.8171 C   0  0  0  0  0  0  0  0  0  0  0  0
   -1.5008  -10.6474   16.1722 C   0  0  0  0  0  0  0  0  0  0  0  0
    1.5340   -6.1498   27.8299 F   0  0  0  0  0  0  0  0  0  0  0  0
    5.4364   -7.3142   27.0244 He  0  0  0  0  0  0  0  0  0  0  0  0
   -2.4554  -11.7774   17.2038 He  0  0  0  0  0  0  0  0  0  0  0  0
    7.1075   -5.9868   28.3298 He  0  0  0  0  0  0  0  0  0  0  0  0
   -0.2552  -11.3989   17.3918 He  0  0  0  0  0  0  0  0  0  0  0  0
   -1.1131   -9.8128   16.4691 He  0  0  0  0  0  0  0  0  0  0  0  0
    1.4940  -10.2256   18.4756 He  0  0  0  0  0  0  0  0  0  0  0  0
    4.3999   -5.7036   29.8295 He  0  0  0  0  0  0  0  0  0  0  0  0
    4.1439   -3.8658   28.2128 He  0  0  0  0  0  0  0  0  0  0  0  0
    3.5862   -7.5225   26.7884 He  0  0  0  0  0  0  0  0  0  0  0  0
  1  3  2  0
  1 10  1  0
  1 11  4  0
  2  8  1  0
  2 12  4  0
  2 13  4  0
  3  6  1  0
  3  8  1  0
  3  9  4  0
  3 11  4  0
  3 13  4  0
  4  7  3  0
  4 11  2  0
  5 10  4  0
  5 14  1  0
  6  8  2  0
  6 11  4  0
  6 13  1  0
  6 14  4  0
  7 12  2  0
  7 13  1  0
  7 14  1  0
  8  9  2  0
  8 11  4  0
  9 13  4  0
 10 13  3  0
 11 13  1  0
 11 14  1  0
 12 13  3  0
 12 14  2  0
M  END
$$$$

 Created by Python create_sdf_string function

 23  7  0  0  0  0  0  0  0  0999 V2000
    5.1145   -7.0721   27.1748 C   0  0  0  0  0  0  0  0  0  0  0  0
    2.9738   -5.9235   27.6800 C   0  0  0  0  0  0  0  0  0  0  0  0
    2.8511   -4.3375   28.3436 O   0  0  0  0  0  0  0  0  0  0  0  0
   -2.1045  -11.3109   17.6026 C   0  0  0  0  0  0  0  0  0  0  0  0
    6.2656   -5.7545   28.2383 O   0  0  0  0  0  0  0  0  0  0  0  0
    1.7977   -6.0031   26.6135 C   0  0  0  0  0  0  0  0  0  0  0  0
    4.1381   -4.6621   28.6570 C   0  0  0  0  0  0  0  0  0  0  0  0
   -1.2425   -8.9511   16.9301 C   0  0  0  0  0  0  0  0  0  0  0  0
    0.4468   -9.2951   15.7335 C   0  0  0  0  0  0  0  0  0  0  0  0
   -0.5334  -11.4666   17.5014 C   0  0  0  0  0  0  0  0  0  0  0  0
   -1.0193  -10.1091   18.4406 C   0  0  0  0  0  0  0  0  0  0  0  0
    2.6974   -6.1481   27.0771 C   0  0  0  0  0  0  0  0  0  0  0  0
   -1.1421   -9.8543   16.4104 C   0  0  0  0  0  0  0  0  0  0  0  0
    0.7977  -10.4292   18.0911 C   0  0  0  0  0  0  0  0  0  0  0  0
    4.6670   -5.4795   29.0268 C   0  0  0  0  0  0  0  0  0  0  0  0
    5.1782   -6.3553   26.8956 O   0  0  0  0  0  0  0  0  0  0  0  0
   -0.8483  -12.3407   17.5021 C   0  0  0  0  0  0  0  0  0  0  0  0
    4.2051   -4.2524   28.3690 C   0  0  0  0  0  0  0  0  0  0  0  0
   -0.1615  -10.5232   15.7710 C   0  0  0  0  0  0  0  0  0  0  0  0
    0.3483  -10.0770   17.5911 C   0  0  0  0  0  0  0  0  0  0  0  0
   -1.0996  -10.3951   16.2463 C   0  0  0  0  0  0  0  0  0  0  0  0
    3.6865   -7.1985   26.7591 C   0  0  0  0  0  0  0  0  0  0  0  0
    1.5899   -6.0403   27.6489 O   0  0  0  0  0  0  0  0  0  0  0  0
  1 22  1  0
  6 12  1  0
  7 18  1  0
 10 17  1  0
 13 21  1  0
 14 20  1  0
 19 21  1  0
M  END
$$$$

 Created by Python create_sdf_string function

 23 43  0  0  0  0  0  0  0  0999 V2000
   -1.5091  -12.2446   17.7494 O   0  0  0  0  0  0  0  0  0  0  0  0
    2.2175   -6.3330   27.2869 F   0  0  0  0  0  0  0  0  0  0  0  0
    4.1250   -6.0091   29.4711 C   0  0  0  0  0  0  0  0  0  0  0  0
   -0.1248   -9.1161   18.0323 Cl  0  0  0  0  0  0  0  0  0  0  0  0
   -0.4328  -10.0037   15.2515 P   0  0  0  0  0  0  0  0  0  0  0  0
   -0.8365  -11.7318   18.3900 C   0  0  0  0  0  0  0  0  0  0  0  0
    2.6249   -6.1091   27.8979 C   0  0  0  0  0  0  0  0  0  0  0  0
   -0.0024  -10.6119   14.5362 Cl  0  0  0  0  0  0  0  0  0  0  0  0
    5.7084   -5.0263   29.6520 F   0  0  0  0  0  0  0  0  0  0  0  0
    6.2642   -5.5327   27.1122 B   0  0  0  0  0  0  0  0  0  0  0  0
   -1.0844  -12.6901   16.9640 P   0  0  0  0  0  0  0  0  0  0  0  0
    0.9711  -11.4848   16.1372 C   0  0  0  0  0  0  0  0  0  0  0  0
   -0.9001  -10.3625   17.5885 C   0  0  0  0  0  0  0  0  0  0  0  0
    4.3472   -8.9418   28.2839 F   0  0  0  0  0  0  0  0  0  0  0  0
    1.1752   -6.5253   27.3348 O   0  0  0  0  0  0  0  0  0  0  0  0
    5.0980   -6.2781   28.4212 He  0  0  0  0  0  0  0  0  0  0  0  0
    2.2280   -5.7391   28.7219 He  0  0  0  0  0  0  0  0  0  0  0  0
    3.1508   -4.0367   28.3998 He  0  0  0  0  0  0  0  0  0  0  0  0
    6.5309   -5.3306   28.4128 He  0  0  0  0  0  0  0  0  0  0  0  0
   -0.8917  -10.0613   18.7088 He  0  0  0  0  0  0  0  0  0  0  0  0
    0.8942  -10.1487   16.9778 He  0  0  0  0  0  0  0  0  0  0  0  0
    4.5027   -4.6040   28.9788 He  0  0  0  0  0  0  0  0  0  0  0  0
   -1.4764  -10.6283   16.7594 He  0  0  0  0  0  0  0  0  0  0  0  0
  1  2  4  0
  1  6  2  0
  1  8  3  0
  1  9  3  0
  1 11  1  0
  1 12  2  0
  1 15  3  0
  2  4  4  0
  2  7  4  0
  2 10  4  0
  3  7  1  0
  3 12  3  0
  3 13  4  0
  4  5  4  0
  4 10  4  0
  4 13  1  0
  5  7  3  0
  5  8  4  0
  5  9  3  0
  5 12  4  0
  5 14  2  0
  5 15  4  0
  6  8  3  0
  6 10  3  0
  6 11  1  0
  6 14  3  0
  6 15  1  0
  7  8  1  0
  7 11  3  0
  7 15  4  0
  8  9  2  0
  8 10  1  0
  8 15  3  0
  9 11  3  0
  9 12  1  0
  9 14  2  0
 10 11  2  0
 10 13  4  0
 10 14  1  0
 11 13  3  0
 11 15  1  0
 12 13  1  0
 13 15  2  0
M  END
$$$$

 Created by Python create_sdf_string function

 23 12  0  0  0  0  0  0  0  0999 V2000
    4.7571   -6.4305   27.8476 C   0  0  0  0  0  0  0  0  0  0  0  0
    2.1223   -5.4904   28.5542 C   0  0  0  0  0  0  0  0  0  0  0  0
    3.2837   -4.2834   28.7497 O   0  0  0  0  0  0  0  0  0  0  0  0
   -1.4994  -12.4887   18.1256 O   0  0  0  0  0  0  0  0  0  0  0  0
    6.6023   -5.4515   28.1259 O   0  0  0  0  0  0  0  0  0  0  0  0
    2.9108   -6.7229   27.3326 C   0  0  0  0  0  0  0  0  0  0  0  0
    3.9150   -5.6661   28.8396 C   0  0  0  0  0  0  0  0  0  0  0  0
   -0.4075   -9.1584   17.6501 C   0  0  0  0  0  0  0  0  0  0  0  0
   -0.5166  -10.3161   15.3972 C   0  0  0  0  0  0  0  0  0  0  0  0
   -1.0305  -11.8259   18.1685 C   0  0  0  0  0  0  0  0  0  0  0  0
   -0.8150  -10.1155   18.6084 C   0  0  0  0  0  0  0  0  0  0  0  0
    2.4480   -6.3566   27.7606 C   0  0  0  0  0  0  0  0  0  0  0  0
   -0.0202  -10.4481   14.8394 C   0  0  0  0  0  0  0  0  0  0  0  0
    0.7082   -9.7592   16.7814 C   0  0  0  0  0  0  0  0  0  0  0  0
    5.7058   -4.7649   29.2290 C   0  0  0  0  0  0  0  0  0  0  0  0
    6.1416   -6.0806   27.4553 C   0  0  0  0  0  0  0  0  0  0  0  0
   -0.8010  -12.3683   17.1656 C   0  0  0  0  0  0  0  0  0  0  0  0
    4.6238   -5.0274   28.9675 C   0  0  0  0  0  0  0  0  0  0  0  0
    0.3953  -11.5064   16.3135 C   0  0  0  0  0  0  0  0  0  0  0  0
   -0.4068  -10.0588   17.4187 C   0  0  0  0  0  0  0  0  0  0  0  0
   -1.1995  -10.7424   16.5334 C   0  0  0  0  0  0  0  0  0  0  0  0
    4.4619   -7.8418   27.5869 O   0  0  0  0  0  0  0  0  0  0  0  0
    1.3891   -6.5544   27.3568 O   0  0  0  0  0  0  0  0  0  0  0  0
  1 22  1  0
  4 10  2  0
  5 16  1  0
  6 12  1  0
  7 18  4  0
  8 20  1  0
  9 13  1  0
  9 21  1  0
 10 17  1  0
 11 20  1  0
 12 23  1  0
 15 18  1  0
M  END
$$$$

 Created by Python create_sdf_string function

 23 60  0  0  0  0  0  0  0  0999 V2000
    5.7091   -6.4676   27.2923 O   0  0  0  0  0  0  0  0  0  0  0  0
    3.1619   -3.7837   30.1371 O   0  0  0  0  0  0  0  0  0  0  0  0
   -2.4839  -12.9181   17.2380 O   0  0  0  0  0  0  0  0  0  0  0  0
    2.9722   -7.4367   26.7238 C   0  0  0  0  0  0  0  0  0  0  0  0
    3.2078   -7.2429   28.0740 S   0  0  0  0  0  0  0  0  0  0  0  0
    0.2895   -9.8323   16.2698 C   0  0  0  0  0  0  0  0  0  0  0  0
   -0.4446  -11.9300   18.2161 C   0  0  0  0  0  0  0  0  0  0  0  0
   -0.8348  -10.1645   17.8690 P   0  0  0  0  0  0  0  0  0  0  0  0
    2.9835   -5.3772   29.1581 C   0  0  0  0  0  0  0  0  0  0  0  0
    0.2621   -9.8278   14.6205 O   0  0  0  0  0  0  0  0  0  0  0  0
   -1.3594  -10.6410   17.4802 O   0  0  0  0  0  0  0  0  0  0  0  0
    4.4240   -4.0445   28.7124 Cl  0  0  0  0  0  0  0  0  0  0  0  0
   -1.1590  -13.2292   18.6881 C   0  0  0  0  0  0  0  0  0  0  0  0
    5.7131   -4.8698   28.9673 N   0  0  0  0  0  0  0  0  0  0  0  0
    0.5239  -11.7788   16.8411 C   0  0  0  0  0  0  0  0  0  0  0  0
   -0.2856  -11.6156   18.3586 C   0  0  0  0  0  0  0  0  0  0  0  0
   -1.4047  -11.4261   16.6965 O   0  0  0  0  0  0  0  0  0  0  0  0
    4.1292   -8.4338   28.1875 F   0  0  0  0  0  0  0  0  0  0  0  0
    2.5370   -6.1358   28.2840 O   0  0  0  0  0  0  0  0  0  0  0  0
    2.6215   -6.4037   28.8013 He  0  0  0  0  0  0  0  0  0  0  0  0
    6.0052   -4.4730   28.6055 He  0  0  0  0  0  0  0  0  0  0  0  0
    0.2316   -9.6088   15.4656 He  0  0  0  0  0  0  0  0  0  0  0  0
    6.4680   -5.5311   25.5186 He  0  0  0  0  0  0  0  0  0  0  0  0
  1  2  1  0
  1 10  2  0
  1 13  4  0
  1 18  2  0
  2  9  1  0
  2 18  1  0
  2 19  2  0
  3  6  2  0
  3  7  1  0
  3  8  2  0
  3  9  4  0
  3 10  1  0
  3 11  3  0
  3 13  1  0
  3 15  2  0
  3 16  3  0
  3 18  2  0
  3 19  2  0
  4  9  1  0
  4 10  3  0
  4 11  1  0
  4 13  2  0
  4 16  1  0
  4 17  3  0
  5 10  4  0
  5 11  1  0
  5 12  3  0
  5 13  2  0
  5 16  3  0
  5 17  2  0
  6 11  4  0
  6 13  3  0
  6 16  1  0
  6 18  4  0
  7  9  3  0
  7 13  1  0
  7 17  4  0
  7 19  4  0
  8 11  2  0
  8 13  3  0
  8 18  1  0
  9 16  4  0
  9 19  3  0
 10 14  3  0
 10 18  4  0
 11 12  3  0
 11 18  3  0
 12 17  3  0
 12 19  1  0
 13 16  4  0
 13 17  3  0
 13 19  4  0
 14 16  3  0
 14 17  4  0
 14 19  1  0
 15 18  3  0
 16 17  3  0
 16 19  3  0
 17 18  2  0
 18 19  4  0
M  END
$$$$

 Created by Python create_sdf_string function

 23  8  0  0  0  0  0  0  0  0999 V2000
    5.3954   -6.4038   27.3014 O   0  0  0  0  0  0  0  0  0  0  0  0
    2.7786   -6.3937   28.6202 C   0  0  0  0  0  0  0  0  0  0  0  0
    3.2099   -4.2274   29.7436 O   0  0  0  0  0  0  0  0  0  0  0  0
   -2.1672  -12.9095   17.7028 O   0  0  0  0  0  0  0  0  0  0  0  0
    5.8020   -4.6071   28.3694 C   0  0  0  0  0  0  0  0  0  0  0  0
    3.4176   -7.1570   27.1306 C   0  0  0  0  0  0  0  0  0  0  0  0
    3.3298   -7.0368   27.7289 C   0  0  0  0  0  0  0  0  0  0  0  0
    0.2056   -9.8573   16.2175 C   0  0  0  0  0  0  0  0  0  0  0  0
    0.2265   -9.7038   15.6847 C   0  0  0  0  0  0  0  0  0  0  0  0
   -0.9571  -12.0504   18.3141 C   0  0  0  0  0  0  0  0  0  0  0  0
   -0.8319   -9.9950   18.0025 C   0  0  0  0  0  0  0  0  0  0  0  0
    3.3319   -5.1507   29.0267 C   0  0  0  0  0  0  0  0  0  0  0  0
    0.2812   -9.8475   14.9372 O   0  0  0  0  0  0  0  0  0  0  0  0
   -1.0490  -10.1691   17.5670 C   0  0  0  0  0  0  0  0  0  0  0  0
    4.3967   -4.6029   28.6744 C   0  0  0  0  0  0  0  0  0  0  0  0
    6.1298   -5.9533   26.9717 O   0  0  0  0  0  0  0  0  0  0  0  0
   -1.2213  -13.0935   18.6241 C   0  0  0  0  0  0  0  0  0  0  0  0
    5.3721   -4.8253   28.5294 C   0  0  0  0  0  0  0  0  0  0  0  0
    0.2718  -11.2206   16.8176 C   0  0  0  0  0  0  0  0  0  0  0  0
   -0.4454  -11.5151   18.4529 C   0  0  0  0  0  0  0  0  0  0  0  0
   -1.1616  -11.3259   16.7042 C   0  0  0  0  0  0  0  0  0  0  0  0
    3.8122   -7.9077   27.6238 O   0  0  0  0  0  0  0  0  0  0  0  0
    2.5130   -6.0021   28.3334 O   0  0  0  0  0  0  0  0  0  0  0  0
  1 16  1  0
  3 12  1  0
  5 18  1  0
  6  7  1  0
  8  9  1  0
 10 17  1  0
 10 20  1  0
 11 14  1  0
M  END
$$$$

 Created by Python create_sdf_string function

 23 17  0  0  0  0  0  0  0  0999 V2000
    3.2339   -5.6567   29.8641 O   0  0  0  0  0  0  0  0  0  0  0  0
    3.2312   -5.0537   26.8278 C   0  0  0  0  0  0  0  0  0  0  0  0
    3.3362   -8.5205   28.3441 C   0  0  0  0  0  0  0  0  0  0  0  0
   -0.9972   -9.3101   15.8084 C   0  0  0  0  0  0  0  0  0  0  0  0
   -1.3741  -11.8660   18.5087 Cl  0  0  0  0  0  0  0  0  0  0  0  0
    3.7219   -4.0135   27.3958 C   0  0  0  0  0  0  0  0  0  0  0  0
    5.7083   -5.2948   27.3295 F   0  0  0  0  0  0  0  0  0  0  0  0
   -0.8592  -13.2896   18.8207 C   0  0  0  0  0  0  0  0  0  0  0  0
    5.2225   -4.6584   28.3261 F   0  0  0  0  0  0  0  0  0  0  0  0
   -0.3626  -11.7082   18.8461 P   0  0  0  0  0  0  0  0  0  0  0  0
   -0.5656  -12.2722   17.4967 C   0  0  0  0  0  0  0  0  0  0  0  0
    3.5831   -7.7212   27.7738 F   0  0  0  0  0  0  0  0  0  0  0  0
    5.7185   -6.6883   27.4264 He  0  0  0  0  0  0  0  0  0  0  0  0
    2.6399   -4.6446   27.6185 He  0  0  0  0  0  0  0  0  0  0  0  0
   -1.6100  -12.8141   17.8542 He  0  0  0  0  0  0  0  0  0  0  0  0
    6.0758   -4.9054   28.0381 He  0  0  0  0  0  0  0  0  0  0  0  0
    0.2226   -8.5723   14.4453 He  0  0  0  0  0  0  0  0  0  0  0  0
   -0.0201   -9.9077   16.8879 He  0  0  0  0  0  0  0  0  0  0  0  0
    4.4166   -4.1630   29.8604 He  0  0  0  0  0  0  0  0  0  0  0  0
   -0.7998  -12.1106   15.2057 He  0  0  0  0  0  0  0  0  0  0  0  0
   -0.3717   -9.4627   17.4143 He  0  0  0  0  0  0  0  0  0  0  0  0
    0.1841  -11.1935   16.4541 He  0  0  0  0  0  0  0  0  0  0  0  0
    3.3202   -6.2856   27.2213 He  0  0  0  0  0  0  0  0  0  0  0  0
  1  5  1  0
  1  6  2  0
  1  8  4  0
  1  9  1  0
  1 10  4  0
  2  7  2  0
  2 10  3  0
  2 12  3  0
  3  4  4  0
  3  6  3  0
  3  9  1  0
  3 11  2  0
  4 12  3  0
  5  6  4  0
  5  7  2  0
  7  9  3  0
  7 11  3  0
M  END
$$$$

 Created by Python create_sdf_string function

 23 14  0  0  0  0  0  0  0  0999 V2000
    5.1229   -6.6340   27.3657 C   0  0  0  0  0  0  0  0  0  0  0  0
    2.5714   -5.0134   27.7010 C   0  0  0  0  0  0  0  0  0  0  0  0
    3.3487   -5.7943   29.2252 C   0  0  0  0  0  0  0  0  0  0  0  0
   -1.1730  -13.0675   17.6563 C   0  0  0  0  0  0  0  0  0  0  0  0
    5.8513   -4.8291   28.2278 C   0  0  0  0  0  0  0  0  0  0  0  0
    3.2190   -5.2300   27.1383 C   0  0  0  0  0  0  0  0  0  0  0  0
    3.4451   -7.8316   28.0502 C   0  0  0  0  0  0  0  0  0  0  0  0
   -0.4191   -9.5112   15.4792 C   0  0  0  0  0  0  0  0  0  0  0  0
   -0.0900   -9.0436   14.9718 C   0  0  0  0  0  0  0  0  0  0  0  0
   -0.7301  -11.6892   18.5375 C   0  0  0  0  0  0  0  0  0  0  0  0
   -0.1359   -9.7665   16.9278 C   0  0  0  0  0  0  0  0  0  0  0  0
    4.6233   -4.0776   29.3019 C   0  0  0  0  0  0  0  0  0  0  0  0
   -0.7893  -11.6495   15.5535 C   0  0  0  0  0  0  0  0  0  0  0  0
   -0.1760   -9.7005   17.3316 C   0  0  0  0  0  0  0  0  0  0  0  0
    3.5945   -4.2516   27.7363 C   0  0  0  0  0  0  0  0  0  0  0  0
    5.5737   -5.4452   27.5069 C   0  0  0  0  0  0  0  0  0  0  0  0
   -1.3320  -13.1770   18.7854 C   0  0  0  0  0  0  0  0  0  0  0  0
    5.1182   -4.8828   28.5765 C   0  0  0  0  0  0  0  0  0  0  0  0
   -0.5042  -10.9668   16.3091 C   0  0  0  0  0  0  0  0  0  0  0  0
   -0.5236  -11.3647   18.9615 C   0  0  0  0  0  0  0  0  0  0  0  0
   -0.9111  -12.1569   17.4525 C   0  0  0  0  0  0  0  0  0  0  0  0
    3.6911   -7.4420   27.5955 C   0  0  0  0  0  0  0  0  0  0  0  0
    3.2043   -5.9855   27.4948 C   0  0  0  0  0  0  0  0  0  0  0  0
  1 16  1  0
  1 22  1  0
  2 23  1  0
  4 17  4  0
  4 21  4  0
  5 16  1  0
  5 18  1  0
  6 15  1  0
  6 23  1  0
  7 22  1  0
  8  9  1  0
 10 20  4  0
 11 14  4  0
 13 19  4  0
M  END
$$$$

 Created by Python create_sdf_string function

 23 35  0  0  0  0  0  0  0  0999 V2000
    3.9145   -6.3498   27.4810 Cl  0  0  0  0  0  0  0  0  0  0  0  0
    0.7595   -5.7147   27.8575 C   0  0  0  0  0  0  0  0  0  0  0  0
    2.1289   -7.1205   28.9521 C   0  0  0  0  0  0  0  0  0  0  0  0
   -1.0798  -13.2532   18.1010 O   0  0  0  0  0  0  0  0  0  0  0  0
    1.8091   -9.8198   14.8945 C   0  0  0  0  0  0  0  0  0  0  0  0
    0.2164  -11.1122   18.4171 Cl  0  0  0  0  0  0  0  0  0  0  0  0
    3.4216   -3.8795   27.7367 Cl  0  0  0  0  0  0  0  0  0  0  0  0
   -2.1378  -11.4760   17.1921 N   0  0  0  0  0  0  0  0  0  0  0  0
    1.7346   -3.6570   27.3033 C   0  0  0  0  0  0  0  0  0  0  0  0
    6.1023   -4.4499   26.8239 P   0  0  0  0  0  0  0  0  0  0  0  0
   -2.2457  -12.4651   19.7913 N   0  0  0  0  0  0  0  0  0  0  0  0
    0.4294  -11.7902   16.1716 F   0  0  0  0  0  0  0  0  0  0  0  0
   -0.0963  -13.4885   18.0158 I   0  0  0  0  0  0  0  0  0  0  0  0
    4.5199   -6.0277   27.2735 C   0  0  0  0  0  0  0  0  0  0  0  0
    7.9926   -5.6130   28.3325 He  0  0  0  0  0  0  0  0  0  0  0  0
    2.9452   -6.6336   25.1499 He  0  0  0  0  0  0  0  0  0  0  0  0
    2.6976   -9.5979   27.7782 He  0  0  0  0  0  0  0  0  0  0  0  0
    0.5594   -9.5638   15.2824 He  0  0  0  0  0  0  0  0  0  0  0  0
    0.1885   -9.0748   16.1119 He  0  0  0  0  0  0  0  0  0  0  0  0
   -0.5373   -9.5920   17.7184 He  0  0  0  0  0  0  0  0  0  0  0  0
    4.6972   -3.5717   29.1976 He  0  0  0  0  0  0  0  0  0  0  0  0
    0.0649  -12.1090   17.6269 He  0  0  0  0  0  0  0  0  0  0  0  0
    2.6038   -8.2293   28.0579 He  0  0  0  0  0  0  0  0  0  0  0  0
  1  4  2  0
  1  9  4  0
  1 11  2  0
  2  6  3  0
  2  8  2  0
  2 11  1  0
  2 12  4  0
  2 14  1  0
  3  4  2  0
  3  5  1  0
  3  9  2  0
  3 11  1  0
  3 12  1  0
  4  5  2  0
  4  7  2  0
  4  8  3  0
  4  9  1  0
  4 10  2  0
  4 11  4  0
  4 13  2  0
  5  6  4  0
  5 11  1  0
  6  8  1  0
  6 10  1  0
  6 14  2  0
  7  9  4  0
  7 13  2  0
  7 14  2  0
  8 13  4  0
  8 14  2  0
  9 10  4  0
  9 12  3  0
 10 11  2  0
 10 14  1  0
 12 14  1  0
M  END
$$$$

 Created by Python create_sdf_string function

 23 10  0  0  0  0  0  0  0  0999 V2000
    3.6817   -6.2596   27.2603 C   0  0  0  0  0  0  0  0  0  0  0  0
    1.4519   -6.0987   27.6072 C   0  0  0  0  0  0  0  0  0  0  0  0
    1.8828   -6.7380   27.8975 C   0  0  0  0  0  0  0  0  0  0  0  0
   -1.1791  -13.3228   18.4442 O   0  0  0  0  0  0  0  0  0  0  0  0
    6.6236   -5.1580   27.8285 O   0  0  0  0  0  0  0  0  0  0  0  0
    3.3551   -7.0311   26.5281 C   0  0  0  0  0  0  0  0  0  0  0  0
    2.4512   -8.4712   27.3072 C   0  0  0  0  0  0  0  0  0  0  0  0
    1.0974   -9.7180   15.4437 C   0  0  0  0  0  0  0  0  0  0  0  0
    0.7734   -9.9711   15.4991 C   0  0  0  0  0  0  0  0  0  0  0  0
   -0.3023  -10.7954   18.1869 C   0  0  0  0  0  0  0  0  0  0  0  0
    0.3391   -9.1469   16.6640 C   0  0  0  0  0  0  0  0  0  0  0  0
    3.4999   -4.0437   27.8037 C   0  0  0  0  0  0  0  0  0  0  0  0
   -1.3508  -11.2737   17.8005 C   0  0  0  0  0  0  0  0  0  0  0  0
   -0.4340   -9.6373   17.5781 C   0  0  0  0  0  0  0  0  0  0  0  0
    2.5887   -4.4243   27.6542 C   0  0  0  0  0  0  0  0  0  0  0  0
    5.7933   -4.9359   27.6705 C   0  0  0  0  0  0  0  0  0  0  0  0
   -1.9798  -12.5198   19.0538 N   0  0  0  0  0  0  0  0  0  0  0  0
    5.0421   -3.7775   28.1559 C   0  0  0  0  0  0  0  0  0  0  0  0
    0.3791  -11.4322   16.3209 C   0  0  0  0  0  0  0  0  0  0  0  0
   -0.6751  -13.1642   18.1671 C   0  0  0  0  0  0  0  0  0  0  0  0
   -0.3685  -11.7500   17.4616 C   0  0  0  0  0  0  0  0  0  0  0  0
    2.3705   -8.0117   27.6061 C   0  0  0  0  0  0  0  0  0  0  0  0
    4.7181   -5.6748   27.3611 C   0  0  0  0  0  0  0  0  0  0  0  0
  1  6  4  0
  1 23  4  0
  2  3  4  0
  4 20  2  0
  5 16  1  0
  7 22  4  0
  8  9  1  0
 11 14  1  0
 12 15  4  0
 16 23  1  0
M  END
$$$$

 Created by Python create_sdf_string function

 23 17  0  0  0  0  0  0  0  0999 V2000
    2.2026   -7.1405   28.5252 C   0  0  0  0  0  0  0  0  0  0  0  0
    3.0661   -9.4036   15.9731 C   0  0  0  0  0  0  0  0  0  0  0  0
    2.3577   -4.9417   27.7201 C   0  0  0  0  0  0  0  0  0  0  0  0
   -0.4317  -11.3341   17.8878 N   0  0  0  0  0  0  0  0  0  0  0  0
   -1.5746   -8.4897   17.3788 C   0  0  0  0  0  0  0  0  0  0  0  0
    5.6423   -4.1419   27.8263 O   0  0  0  0  0  0  0  0  0  0  0  0
   -2.6895  -12.9465   19.4637 N   0  0  0  0  0  0  0  0  0  0  0  0
    0.4575  -11.9846   17.4732 C   0  0  0  0  0  0  0  0  0  0  0  0
   -0.4821  -13.4547   18.1841 C   0  0  0  0  0  0  0  0  0  0  0  0
    4.5748   -8.1590   28.1882 C   0  0  0  0  0  0  0  0  0  0  0  0
    4.9738   -5.0918   29.1579 C   0  0  0  0  0  0  0  0  0  0  0  0
    5.0129   -6.4980   25.9382 He  0  0  0  0  0  0  0  0  0  0  0  0
    1.5524   -5.7538   27.6864 He  0  0  0  0  0  0  0  0  0  0  0  0
   -1.5728  -12.5414   19.5223 He  0  0  0  0  0  0  0  0  0  0  0  0
    6.0959   -4.0036   27.2052 He  0  0  0  0  0  0  0  0  0  0  0  0
    4.3751   -6.2500   26.2863 He  0  0  0  0  0  0  0  0  0  0  0  0
    3.4895   -9.1650   27.6546 He  0  0  0  0  0  0  0  0  0  0  0  0
    1.6161  -10.3535   15.9455 He  0  0  0  0  0  0  0  0  0  0  0  0
   -0.1902  -11.1509   17.7188 He  0  0  0  0  0  0  0  0  0  0  0  0
    1.4836   -9.2579   17.3731 He  0  0  0  0  0  0  0  0  0  0  0  0
    2.6760   -4.2142   26.1571 He  0  0  0  0  0  0  0  0  0  0  0  0
    3.8042   -3.2252   28.0472 He  0  0  0  0  0  0  0  0  0  0  0  0
   -0.5109  -12.7284   16.9246 He  0  0  0  0  0  0  0  0  0  0  0  0
  1  4  1  0
  1  5  2  0
  1  8  2  0
  1  9  2  0
  2  7  4  0
  2  8  4  0
  2 10  3  0
  3  4  2  0
  3  6  1  0
  4  5  1  0
  4  7  3  0
  4 10  3  0
  4 11  1  0
  5  6  3  0
  6  8  2  0
  8 10  4  0
 10 11  3  0
M  END
$$$$

 Created by Python create_sdf_string function

 23 14  0  0  0  0  0  0  0  0999 V2000
    4.6755   -6.8145   26.9265 C   0  0  0  0  0  0  0  0  0  0  0  0
    2.3418   -7.0837   27.8291 C   0  0  0  0  0  0  0  0  0  0  0  0
    1.8256   -6.0359   27.4019 C   0  0  0  0  0  0  0  0  0  0  0  0
   -1.7125  -12.3808   18.9324 C   0  0  0  0  0  0  0  0  0  0  0  0
    5.7962   -4.2686   27.6745 O   0  0  0  0  0  0  0  0  0  0  0  0
    3.9591   -6.2126   27.1985 C   0  0  0  0  0  0  0  0  0  0  0  0
    3.4982   -8.5592   27.3669 C   0  0  0  0  0  0  0  0  0  0  0  0
    1.9896   -9.8676   16.4639 C   0  0  0  0  0  0  0  0  0  0  0  0
    1.4456   -9.8966   16.6211 C   0  0  0  0  0  0  0  0  0  0  0  0
   -0.4613  -10.8665   17.8888 C   0  0  0  0  0  0  0  0  0  0  0  0
    1.0517   -9.2896   16.9493 C   0  0  0  0  0  0  0  0  0  0  0  0
    2.8339   -4.9374   27.3156 C   0  0  0  0  0  0  0  0  0  0  0  0
   -0.6745  -10.7298   18.0890 C   0  0  0  0  0  0  0  0  0  0  0  0
   -0.8954   -9.2034   17.8851 C   0  0  0  0  0  0  0  0  0  0  0  0
    2.6211   -4.4826   27.1198 C   0  0  0  0  0  0  0  0  0  0  0  0
    5.4070   -4.2115   27.9195 C   0  0  0  0  0  0  0  0  0  0  0  0
   -2.3334  -12.8595   19.2307 O   0  0  0  0  0  0  0  0  0  0  0  0
    4.1059   -3.3566   27.8425 O   0  0  0  0  0  0  0  0  0  0  0  0
    0.3920  -11.5270   17.3287 C   0  0  0  0  0  0  0  0  0  0  0  0
   -0.8452  -13.1559   18.2459 C   0  0  0  0  0  0  0  0  0  0  0  0
   -0.1187  -12.8111   17.5184 C   0  0  0  0  0  0  0  0  0  0  0  0
    4.4599   -7.8169   27.5710 C   0  0  0  0  0  0  0  0  0  0  0  0
    4.9124   -5.4389   28.1454 C   0  0  0  0  0  0  0  0  0  0  0  0
  1  6  1  0
  1 22  1  0
  2  3  1  0
  4 17  4  0
  4 20  4  0
  5 16  1  0
  7 22  1  0
  8  9  1  0
  9 11  4  0
 10 13  4  0
 12 15  1  0
 13 14  1  0
 19 21  4  0
 20 21  4  0
M  END
$$$$

 Created by Python create_sdf_string function

 23 35  0  0  0  0  0  0  0  0999 V2000
    4.5776   -7.9091   26.4450 C   0  0  0  0  0  0  0  0  0  0  0  0
    1.2810   -7.5164   27.1169 C   0  0  0  0  0  0  0  0  0  0  0  0
    5.1039   -5.3061   26.5044 Cl  0  0  0  0  0  0  0  0  0  0  0  0
    3.7733   -8.2639   26.1796 N   0  0  0  0  0  0  0  0  0  0  0  0
   -0.0709   -9.5983   17.5718 I   0  0  0  0  0  0  0  0  0  0  0  0
    1.0081   -8.3139   16.2597 C   0  0  0  0  0  0  0  0  0  0  0  0
   -0.6394  -11.1696   16.9758 C   0  0  0  0  0  0  0  0  0  0  0  0
    1.0900   -8.3695   17.0659 P   0  0  0  0  0  0  0  0  0  0  0  0
    2.4434   -4.8481   26.6813 C   0  0  0  0  0  0  0  0  0  0  0  0
   -2.7561  -13.4198   19.2579 O   0  0  0  0  0  0  0  0  0  0  0  0
    4.6814   -3.2349   27.8964 Se  0  0  0  0  0  0  0  0  0  0  0  0
    0.3471  -12.3411   17.8637 Cl  0  0  0  0  0  0  0  0  0  0  0  0
   -0.1761  -14.0570   17.5819 B   0  0  0  0  0  0  0  0  0  0  0  0
   -0.8210  -11.1832   16.4640 C   0  0  0  0  0  0  0  0  0  0  0  0
    4.7685   -8.1050   27.2294 C   0  0  0  0  0  0  0  0  0  0  0  0
    2.4679   -4.9675   28.1827 He  0  0  0  0  0  0  0  0  0  0  0  0
   -0.4135  -11.7723   19.0704 He  0  0  0  0  0  0  0  0  0  0  0  0
    4.8082   -5.7412   27.6255 He  0  0  0  0  0  0  0  0  0  0  0  0
   -0.0914  -10.1239   16.7889 He  0  0  0  0  0  0  0  0  0  0  0  0
    3.2661   -4.7557   29.0930 He  0  0  0  0  0  0  0  0  0  0  0  0
   -0.9666  -11.2521   17.2573 He  0  0  0  0  0  0  0  0  0  0  0  0
    4.5266   -4.3120   28.1163 He  0  0  0  0  0  0  0  0  0  0  0  0
    6.0085   -5.5105   28.1586 He  0  0  0  0  0  0  0  0  0  0  0  0
  1  2  1  0
  1  7  1  0
  1 13  1  0
  1 14  1  0
  2  3  4  0
  2  6  4  0
  2 10  3  0
  2 11  4  0
  2 12  4  0
  3  6  4  0
  3 10  3  0
  3 13  2  0
  3 14  3  0
  4  5  1  0
  4  9  1  0
  4 10  3  0
  5  7  2  0
  5 15  4  0
  6  8  1  0
  6  9  3  0
  6 11  3  0
  7 12  3  0
  7 13  1  0
  7 14  4  0
  7 15  4  0
  8 11  3  0
  8 12  4  0
  8 13  3  0
  8 15  3  0
 10 12  2  0
 10 14  2  0
 11 12  1  0
 11 13  2  0
 13 14  4  0
 13 15  2  0
M  END
$$$$

 Created by Python create_sdf_string function

 23 14  0  0  0  0  0  0  0  0999 V2000
    4.2102   -7.5847   26.6247 C   0  0  0  0  0  0  0  0  0  0  0  0
    2.0451   -6.8349   27.1395 C   0  0  0  0  0  0  0  0  0  0  0  0
    2.5939   -5.3116   28.1654 C   0  0  0  0  0  0  0  0  0  0  0  0
   -0.4047  -11.6558   18.8988 C   0  0  0  0  0  0  0  0  0  0  0  0
    5.3065   -5.5164   27.3590 C   0  0  0  0  0  0  0  0  0  0  0  0
    4.6091   -5.9632   27.4689 C   0  0  0  0  0  0  0  0  0  0  0  0
    3.5881   -7.6514   26.2465 N   0  0  0  0  0  0  0  0  0  0  0  0
   -0.1429   -9.7310   17.5264 C   0  0  0  0  0  0  0  0  0  0  0  0
    0.8656   -8.6380   16.4759 C   0  0  0  0  0  0  0  0  0  0  0  0
   -0.7459  -11.3601   16.9792 C   0  0  0  0  0  0  0  0  0  0  0  0
    0.0976   -9.7241   17.1243 C   0  0  0  0  0  0  0  0  0  0  0  0
    3.2595   -4.8127   28.6460 C   0  0  0  0  0  0  0  0  0  0  0  0
   -0.8474  -11.1337   17.2810 C   0  0  0  0  0  0  0  0  0  0  0  0
    1.1748   -8.3448   16.5361 C   0  0  0  0  0  0  0  0  0  0  0  0
    2.6860   -5.6481   26.7854 C   0  0  0  0  0  0  0  0  0  0  0  0
    4.3547   -4.1390   28.1214 C   0  0  0  0  0  0  0  0  0  0  0  0
   -2.0104  -13.3152   19.1093 O   0  0  0  0  0  0  0  0  0  0  0  0
    4.8778   -3.5199   28.0841 C   0  0  0  0  0  0  0  0  0  0  0  0
   -0.8753  -12.5239   18.4632 C   0  0  0  0  0  0  0  0  0  0  0  0
   -0.6749  -13.6468   17.9535 O   0  0  0  0  0  0  0  0  0  0  0  0
   -0.7387  -11.2153   16.5282 C   0  0  0  0  0  0  0  0  0  0  0  0
    5.0064   -7.6059   26.9829 C   0  0  0  0  0  0  0  0  0  0  0  0
    5.8552   -5.3557   27.9024 C   0  0  0  0  0  0  0  0  0  0  0  0
  1  7  1  0
  1 22  1  0
  2  3  1  0
  2 15  1  0
  3 12  1  0
  4 19  4  0
  5  6  1  0
  8 11  4  0
  9 14  1  0
 10 13  4  0
 10 21  4  0
 13 21  4  0
 16 18  1  0
 17 19  2  0
M  END
$$$$

 Created by Python create_sdf_string function

 23 36  0  0  0  0  0  0  0  0999 V2000
    2.3139   -7.7826   26.1933 C   0  0  0  0  0  0  0  0  0  0  0  0
    5.4859   -4.2349   27.7178 F   0  0  0  0  0  0  0  0  0  0  0  0
    3.6954   -6.5335   29.3819 S   0  0  0  0  0  0  0  0  0  0  0  0
    4.5902   -7.9688   25.3986 N   0  0  0  0  0  0  0  0  0  0  0  0
   -0.8150  -10.4548   16.7561 F   0  0  0  0  0  0  0  0  0  0  0  0
   -1.3344  -10.1453   17.6604 C   0  0  0  0  0  0  0  0  0  0  0  0
    2.6968   -7.6771   17.6859 F   0  0  0  0  0  0  0  0  0  0  0  0
    3.2355   -5.1234   26.8449 C   0  0  0  0  0  0  0  0  0  0  0  0
    3.7136   -3.0856   27.1027 Cl  0  0  0  0  0  0  0  0  0  0  0  0
   -2.5732  -13.3433   18.0105 S   0  0  0  0  0  0  0  0  0  0  0  0
    5.0631   -3.4195   28.8840 C   0  0  0  0  0  0  0  0  0  0  0  0
   -1.4144  -11.6496   18.4514 N   0  0  0  0  0  0  0  0  0  0  0  0
   -1.0620  -13.0904   19.0299 Cl  0  0  0  0  0  0  0  0  0  0  0  0
   -0.5380  -11.6369   17.4894 C   0  0  0  0  0  0  0  0  0  0  0  0
    4.5156   -3.9941   28.3598 O   0  0  0  0  0  0  0  0  0  0  0  0
    4.3003   -8.5687   26.3775 He  0  0  0  0  0  0  0  0  0  0  0  0
    3.0322   -6.6129   28.6154 He  0  0  0  0  0  0  0  0  0  0  0  0
   -0.6099  -11.9846   17.4276 He  0  0  0  0  0  0  0  0  0  0  0  0
    0.8227   -9.2871   17.6259 He  0  0  0  0  0  0  0  0  0  0  0  0
    1.6124   -9.4743   16.4552 He  0  0  0  0  0  0  0  0  0  0  0  0
    1.3791  -10.2673   18.2065 He  0  0  0  0  0  0  0  0  0  0  0  0
    3.2194   -5.5549   27.8433 He  0  0  0  0  0  0  0  0  0  0  0  0
    3.3033   -8.2985   26.9552 He  0  0  0  0  0  0  0  0  0  0  0  0
  1  2  4  0
  1  5  1  0
  1  8  1  0
  1 12  2  0
  1 14  2  0
  2  3  3  0
  2  8  1  0
  2 13  4  0
  3  5  2  0
  3 12  4  0
  4  9  4  0
  4 11  2  0
  4 13  1  0
  4 14  3  0
  4 15  4  0
  5  6  4  0
  5  7  3  0
  5  8  2  0
  5 11  4  0
  5 13  2  0
  5 14  3  0
  6  7  4  0
  6  8  4  0
  6  9  1  0
  6 11  2  0
  6 13  4  0
  6 14  4  0
  7  8  3  0
  7 14  3  0
  8 14  3  0
  9 15  2  0
 10 12  1  0
 10 14  1  0
 10 15  2  0
 13 14  3  0
 14 15  2  0
M  END
$$$$

 Created by Python create_sdf_string function

 23 10  0  0  0  0  0  0  0  0999 V2000
    4.1291   -7.8929   26.4267 C   0  0  0  0  0  0  0  0  0  0  0  0
    2.7297   -7.4152   26.7778 C   0  0  0  0  0  0  0  0  0  0  0  0
    3.2692   -6.4930   28.5633 C   0  0  0  0  0  0  0  0  0  0  0  0
   -0.4210  -12.1171   18.0864 C   0  0  0  0  0  0  0  0  0  0  0  0
    5.2137   -4.3365   27.8200 C   0  0  0  0  0  0  0  0  0  0  0  0
    3.8173   -6.1473   29.0509 C   0  0  0  0  0  0  0  0  0  0  0  0
    4.3872   -7.3612   25.7215 N   0  0  0  0  0  0  0  0  0  0  0  0
    0.9606   -9.5233   17.1538 C   0  0  0  0  0  0  0  0  0  0  0  0
    1.5531   -9.0879   16.4849 C   0  0  0  0  0  0  0  0  0  0  0  0
   -0.6290   -9.9938   17.2365 C   0  0  0  0  0  0  0  0  0  0  0  0
    1.1446  -10.5689   17.9729 C   0  0  0  0  0  0  0  0  0  0  0  0
    3.4494   -5.6267   27.6639 C   0  0  0  0  0  0  0  0  0  0  0  0
   -1.0835  -10.3471   17.6991 C   0  0  0  0  0  0  0  0  0  0  0  0
    2.0872   -8.8825   16.8747 C   0  0  0  0  0  0  0  0  0  0  0  0
    3.4694   -5.3475   27.1231 C   0  0  0  0  0  0  0  0  0  0  0  0
    3.8895   -3.3111   27.4975 C   0  0  0  0  0  0  0  0  0  0  0  0
   -2.4617  -13.0703   18.4819 C   0  0  0  0  0  0  0  0  0  0  0  0
    4.9551   -3.4458   28.7040 C   0  0  0  0  0  0  0  0  0  0  0  0
   -1.9584  -12.0840   18.5261 C   0  0  0  0  0  0  0  0  0  0  0  0
   -1.1818  -13.1045   18.6889 O   0  0  0  0  0  0  0  0  0  0  0  0
   -0.1321  -11.1808   17.9870 C   0  0  0  0  0  0  0  0  0  0  0  0
    3.3250   -7.9071   27.1135 C   0  0  0  0  0  0  0  0  0  0  0  0
    4.6016   -3.9079   28.2799 C   0  0  0  0  0  0  0  0  0  0  0  0
  1  7  1  0
  1 22  1  0
  4 20  4  0
  4 21  4  0
  8 11  4  0
 10 13  4  0
 11 21  4  0
 12 15  4  0
 13 21  4  0
 17 19  1  0
M  END
$$$$

 Created by Python create_sdf_string function

 23 30  0  0  0  0  0  0  0  0999 V2000
    2.1575   -7.4808   26.3637 C   0  0  0  0  0  0  0  0  0  0  0  0
   -0.7156  -11.3698   18.2617 C   0  0  0  0  0  0  0  0  0  0  0  0
    5.0086   -7.9452   30.0859 O   0  0  0  0  0  0  0  0  0  0  0  0
    4.9189   -7.3542   26.2931 N   0  0  0  0  0  0  0  0  0  0  0  0
    2.5917   -9.0987   15.9217 F   0  0  0  0  0  0  0  0  0  0  0  0
    1.5315   -9.3702   17.0526 C   0  0  0  0  0  0  0  0  0  0  0  0
    1.0097  -10.4903   18.7046 S   0  0  0  0  0  0  0  0  0  0  0  0
    4.3847   -4.5727   28.1126 P   0  0  0  0  0  0  0  0  0  0  0  0
   -1.2556  -10.8673   19.0981 C   0  0  0  0  0  0  0  0  0  0  0  0
    2.1750   -8.7134   18.6542 C   0  0  0  0  0  0  0  0  0  0  0  0
    2.9498   -4.2953   27.4800 C   0  0  0  0  0  0  0  0  0  0  0  0
   -2.0980  -11.8121   18.3467 O   0  0  0  0  0  0  0  0  0  0  0  0
   -2.3454  -12.3227   18.8529 Cl  0  0  0  0  0  0  0  0  0  0  0  0
    2.6397   -7.0724   26.8173 N   0  0  0  0  0  0  0  0  0  0  0  0
    3.9852   -9.0338   26.3559 He  0  0  0  0  0  0  0  0  0  0  0  0
    3.3824   -5.4079   29.0484 He  0  0  0  0  0  0  0  0  0  0  0  0
    4.5953   -4.5082   28.1590 He  0  0  0  0  0  0  0  0  0  0  0  0
    0.1552  -10.2110   15.8406 He  0  0  0  0  0  0  0  0  0  0  0  0
    4.3569   -5.5984   27.7286 He  0  0  0  0  0  0  0  0  0  0  0  0
    3.1306   -5.2838   29.2148 He  0  0  0  0  0  0  0  0  0  0  0  0
   -2.2268  -11.2267   17.2813 He  0  0  0  0  0  0  0  0  0  0  0  0
   -0.4552  -13.6495   19.1404 He  0  0  0  0  0  0  0  0  0  0  0  0
    4.9556   -3.3219   27.4625 He  0  0  0  0  0  0  0  0  0  0  0  0
  1  2  4  0
  1 11  3  0
  1 13  1  0
  1 14  3  0
  2  6  2  0
  2  7  2  0
  2  9  2  0
  2 11  2  0
  2 12  2  0
  2 13  2  0
  3  7  4  0
  3  8  2  0
  3 10  4  0
  3 13  1  0
  4  6  3  0
  4  7  4  0
  4  8  3  0
  4 13  3  0
  5  7  4  0
  5 10  2  0
  5 13  4  0
  6  8  2  0
  6 12  3  0
  7 14  1  0
  8 10  4  0
  8 11  3  0
  9 11  1  0
  9 14  1  0
 10 12  4  0
 11 14  1  0
M  END
$$$$

 Created by Python create_sdf_string function

 23 14  0  0  0  0  0  0  0  0999 V2000
    3.9695   -8.1202   26.5983 C   0  0  0  0  0  0  0  0  0  0  0  0
    2.3239   -6.8955   26.8673 C   0  0  0  0  0  0  0  0  0  0  0  0
    3.7249   -6.4118   28.7518 C   0  0  0  0  0  0  0  0  0  0  0  0
   -0.7064  -11.3200   18.2180 C   0  0  0  0  0  0  0  0  0  0  0  0
    4.6980   -4.4988   28.4444 C   0  0  0  0  0  0  0  0  0  0  0  0
    4.5136   -7.4212   29.4462 O   0  0  0  0  0  0  0  0  0  0  0  0
    4.7404   -7.3521   26.3954 C   0  0  0  0  0  0  0  0  0  0  0  0
    2.0060   -9.2705   16.6471 C   0  0  0  0  0  0  0  0  0  0  0  0
    0.6175   -9.6334   16.8104 C   0  0  0  0  0  0  0  0  0  0  0  0
    0.2021   -9.9030   16.5858 C   0  0  0  0  0  0  0  0  0  0  0  0
    1.0556  -10.7561   18.4665 C   0  0  0  0  0  0  0  0  0  0  0  0
    4.6185   -4.3311   28.1123 C   0  0  0  0  0  0  0  0  0  0  0  0
   -0.2539  -11.0268   18.3253 C   0  0  0  0  0  0  0  0  0  0  0  0
    2.0562   -9.7350   17.4533 C   0  0  0  0  0  0  0  0  0  0  0  0
    4.3956   -5.9220   27.5696 C   0  0  0  0  0  0  0  0  0  0  0  0
    3.0442   -4.5407   27.4976 C   0  0  0  0  0  0  0  0  0  0  0  0
   -2.4607  -12.0472   18.3520 C   0  0  0  0  0  0  0  0  0  0  0  0
    3.2606   -5.0095   28.9301 C   0  0  0  0  0  0  0  0  0  0  0  0
   -2.2360  -11.3122   17.4719 C   0  0  0  0  0  0  0  0  0  0  0  0
   -2.5717  -12.4949   18.6035 C   0  0  0  0  0  0  0  0  0  0  0  0
   -0.8666  -13.0015   18.7771 O   0  0  0  0  0  0  0  0  0  0  0  0
    3.0280   -6.7733   27.1576 N   0  0  0  0  0  0  0  0  0  0  0  0
    4.8274   -3.4117   27.6193 O   0  0  0  0  0  0  0  0  0  0  0  0
  1  7  1  0
  1 22  1  0
  2 22  1  0
  3  6  2  0
  3 22  1  0
  4 13  4  0
  5 12  1  0
  8 14  4  0
  9 10  4  0
 11 13  4  0
 11 14  4  0
 12 23  1  0
 16 18  1  0
 17 20  1  0
M  END
$$$$

 Created by Python create_sdf_string function

 23 41  0  0  0  0  0  0  0  0999 V2000
    4.4744   -7.5466   25.7982 Cl  0  0  0  0  0  0  0  0  0  0  0  0
    1.6799   -7.5939   26.1843 C   0  0  0  0  0  0  0  0  0  0  0  0
    3.2485   -6.1707   28.8880 C   0  0  0  0  0  0  0  0  0  0  0  0
    4.3971   -5.0389   28.5528 C   0  0  0  0  0  0  0  0  0  0  0  0
    5.0358   -7.4753   29.5605 C   0  0  0  0  0  0  0  0  0  0  0  0
    4.4114   -6.5780   25.7949 F   0  0  0  0  0  0  0  0  0  0  0  0
    1.9187   -8.7688   17.1967 C   0  0  0  0  0  0  0  0  0  0  0  0
    0.4213   -9.7092   16.3678 C   0  0  0  0  0  0  0  0  0  0  0  0
   -0.4936  -11.1708   18.2633 S   0  0  0  0  0  0  0  0  0  0  0  0
    2.2833   -8.0852   18.0364 F   0  0  0  0  0  0  0  0  0  0  0  0
    5.4419   -5.4753   28.3428 C   0  0  0  0  0  0  0  0  0  0  0  0
    2.4094   -5.1829   28.5710 C   0  0  0  0  0  0  0  0  0  0  0  0
   -1.8463  -13.2344   18.6086 C   0  0  0  0  0  0  0  0  0  0  0  0
   -2.6744  -11.6415   18.3424 C   0  0  0  0  0  0  0  0  0  0  0  0
   -0.2720  -12.6233   18.8042 O   0  0  0  0  0  0  0  0  0  0  0  0
    3.7812   -6.4622   26.6922 N   0  0  0  0  0  0  0  0  0  0  0  0
   -0.6382  -11.3984   18.4692 He  0  0  0  0  0  0  0  0  0  0  0  0
    0.7361  -10.4982   17.6765 He  0  0  0  0  0  0  0  0  0  0  0  0
    1.4105   -9.7799   20.5423 He  0  0  0  0  0  0  0  0  0  0  0  0
    4.2387   -4.8555   28.5393 He  0  0  0  0  0  0  0  0  0  0  0  0
    3.2757   -5.1092   29.1816 He  0  0  0  0  0  0  0  0  0  0  0  0
   -3.2287  -12.1252   17.4182 He  0  0  0  0  0  0  0  0  0  0  0  0
    3.7839   -2.6115   28.9389 He  0  0  0  0  0  0  0  0  0  0  0  0
  1  7  1  0
  1  9  4  0
  1 11  2  0
  1 15  4  0
  1 16  2  0
  2  4  3  0
  2  5  1  0
  2  6  3  0
  2 14  2  0
  3  5  1  0
  3  9  4  0
  3 13  2  0
  4  5  1  0
  4 10  4  0
  4 11  1  0
  4 16  2  0
  5  8  4  0
  5 11  1  0
  5 15  1  0
  5 16  4  0
  6  9  2  0
  6 13  3  0
  7  8  3  0
  7  9  3  0
  7 13  2  0
  7 16  1  0
  8  9  4  0
  8 10  1  0
  8 11  2  0
  8 12  3  0
  8 13  1  0
  8 15  3  0
  8 16  4  0
  9 10  1  0
  9 16  3  0
 10 11  2  0
 10 14  4  0
 11 16  2  0
 12 16  1  0
 13 14  4  0
 14 16  1  0
M  END
$$$$

 Created by Python create_sdf_string function

 23 17  0  0  0  0  0  0  0  0999 V2000
    4.3191   -7.3588   26.3516 C   0  0  0  0  0  0  0  0  0  0  0  0
    2.4367   -7.0395   26.9111 C   0  0  0  0  0  0  0  0  0  0  0  0
    3.6049   -6.7041   28.6657 C   0  0  0  0  0  0  0  0  0  0  0  0
   -0.7059  -11.1062   18.2054 C   0  0  0  0  0  0  0  0  0  0  0  0
    4.7473   -5.0154   28.7240 C   0  0  0  0  0  0  0  0  0  0  0  0
    4.7450   -6.8601   28.8972 C   0  0  0  0  0  0  0  0  0  0  0  0
    4.1897   -6.8642   26.5903 C   0  0  0  0  0  0  0  0  0  0  0  0
    1.5646   -9.2148   17.0010 C   0  0  0  0  0  0  0  0  0  0  0  0
    0.5308  -10.4659   18.1009 C   0  0  0  0  0  0  0  0  0  0  0  0
    0.3022   -9.6728   16.8583 C   0  0  0  0  0  0  0  0  0  0  0  0
    1.2068  -10.5915   18.7973 C   0  0  0  0  0  0  0  0  0  0  0  0
    4.2214   -4.3420   28.6579 C   0  0  0  0  0  0  0  0  0  0  0  0
   -0.4593  -10.8308   17.9258 C   0  0  0  0  0  0  0  0  0  0  0  0
    1.9114   -9.4048   17.4097 C   0  0  0  0  0  0  0  0  0  0  0  0
    5.3777   -5.6195   28.1012 C   0  0  0  0  0  0  0  0  0  0  0  0
    2.5060   -5.3301   28.1408 C   0  0  0  0  0  0  0  0  0  0  0  0
   -1.9082  -12.9164   18.5963 C   0  0  0  0  0  0  0  0  0  0  0  0
    3.0454   -4.9829   28.9457 C   0  0  0  0  0  0  0  0  0  0  0  0
   -3.0074  -12.2269   17.8637 O   0  0  0  0  0  0  0  0  0  0  0  0
   -2.2822  -11.6024   18.3771 C   0  0  0  0  0  0  0  0  0  0  0  0
   -1.0231  -13.0293   18.7923 O   0  0  0  0  0  0  0  0  0  0  0  0
    3.4639   -6.5002   27.1901 C   0  0  0  0  0  0  0  0  0  0  0  0
    3.7509   -3.2111   28.9563 C   0  0  0  0  0  0  0  0  0  0  0  0
  1  7  1  0
  3  6  1  0
  4 13  4  0
  5 12  1  0
  5 15  1  0
  5 18  1  0
  6 15  1  0
  7 22  1  0
  8 10  4  0
  8 14  4  0
  9 11  4  0
 10 13  4  0
 11 14  4  0
 12 23  1  0
 16 18  1  0
 16 22  1  0
 17 21  4  0
M  END
$$$$

 Created by Python create_sdf_string function

 23 45  0  0  0  0  0  0  0  0999 V2000
    4.8276   -6.1282   27.3457 I   0  0  0  0  0  0  0  0  0  0  0  0
    2.0436   -6.5916   27.0117 C   0  0  0  0  0  0  0  0  0  0  0  0
    5.7375   -5.4171   29.0289 C   0  0  0  0  0  0  0  0  0  0  0  0
    4.6009   -6.5560   26.2793 C   0  0  0  0  0  0  0  0  0  0  0  0
    0.2415   -9.8053   17.9827 P   0  0  0  0  0  0  0  0  0  0  0  0
    0.2861   -9.3866   17.2127 C   0  0  0  0  0  0  0  0  0  0  0  0
    0.3658  -10.8557   18.3565 C   0  0  0  0  0  0  0  0  0  0  0  0
    3.5289   -3.2950   28.3053 C   0  0  0  0  0  0  0  0  0  0  0  0
   -1.1377  -11.2287   17.3092 S   0  0  0  0  0  0  0  0  0  0  0  0
    1.8943   -9.7099   17.8949 N   0  0  0  0  0  0  0  0  0  0  0  0
    6.2651   -6.2001   28.3933 C   0  0  0  0  0  0  0  0  0  0  0  0
    3.2337   -6.1928   27.8246 O   0  0  0  0  0  0  0  0  0  0  0  0
   -1.6870  -11.8555   18.8537 C   0  0  0  0  0  0  0  0  0  0  0  0
    2.4131   -3.9510   28.6336 Br  0  0  0  0  0  0  0  0  0  0  0  0
   -2.7524  -13.5818   17.8984 P   0  0  0  0  0  0  0  0  0  0  0  0
   -3.0429  -12.0983   16.7805 C   0  0  0  0  0  0  0  0  0  0  0  0
    4.7810   -3.2659   28.5102 Se  0  0  0  0  0  0  0  0  0  0  0  0
    2.6829   -5.7644   29.4086 He  0  0  0  0  0  0  0  0  0  0  0  0
   -1.4242  -10.1285   18.9368 He  0  0  0  0  0  0  0  0  0  0  0  0
    6.1100   -7.2526   29.1132 He  0  0  0  0  0  0  0  0  0  0  0  0
    3.4685   -8.3301   17.6176 He  0  0  0  0  0  0  0  0  0  0  0  0
   -0.7421  -12.4674   18.7422 He  0  0  0  0  0  0  0  0  0  0  0  0
    4.1598   -6.0035   26.9703 He  0  0  0  0  0  0  0  0  0  0  0  0
  1  2  2  0
  1  4  3  0
  1  6  4  0
  1  8  3  0
  1  9  4  0
  1 16  3  0
  2  5  3  0
  2  6  3  0
  2 13  1  0
  2 16  4  0
  3  4  4  0
  3  8  1  0
  3 14  1  0
  4  5  4  0
  4  9  3  0
  4 10  1  0
  4 12  4  0
  4 13  1  0
  4 16  4  0
  4 17  2  0
  5  6  2  0
  5  7  4  0
  6  7  4  0
  6  9  3  0
  6 12  1  0
  6 15  1  0
  6 16  1  0
  7 12  3  0
  7 14  2  0
  7 16  3  0
  8 12  4  0
  8 14  4  0
  8 16  3  0
  9 14  2  0
 10 13  2  0
 10 15  3  0
 11 13  4  0
 11 16  1  0
 11 17  2  0
 12 14  1  0
 12 16  1  0
 13 14  3  0
 13 15  1  0
 13 16  4  0
 15 17  3  0
M  END
$$$$

 Created by Python create_sdf_string function

 23 17  0  0  0  0  0  0  0  0999 V2000
    5.1921   -6.4246   27.4688 C   0  0  0  0  0  0  0  0  0  0  0  0
    2.1242   -6.4655   27.1287 C   0  0  0  0  0  0  0  0  0  0  0  0
    2.6838   -5.7079   28.7475 C   0  0  0  0  0  0  0  0  0  0  0  0
   -0.9146  -10.4430   18.3042 C   0  0  0  0  0  0  0  0  0  0  0  0
    5.4231   -5.1641   28.7401 C   0  0  0  0  0  0  0  0  0  0  0  0
    6.2181   -7.0375   28.5854 C   0  0  0  0  0  0  0  0  0  0  0  0
    4.1793   -6.8604   26.7901 C   0  0  0  0  0  0  0  0  0  0  0  0
    2.4087   -9.1875   17.0439 N   0  0  0  0  0  0  0  0  0  0  0  0
    0.8510  -10.1322   17.8588 C   0  0  0  0  0  0  0  0  0  0  0  0
    0.3089   -9.4904   17.1048 C   0  0  0  0  0  0  0  0  0  0  0  0
    0.1767  -10.2247   18.1433 C   0  0  0  0  0  0  0  0  0  0  0  0
    3.9536   -3.9519   28.5030 C   0  0  0  0  0  0  0  0  0  0  0  0
   -1.0886  -11.0496   17.5363 C   0  0  0  0  0  0  0  0  0  0  0  0
    1.9521   -9.6079   17.4107 N   0  0  0  0  0  0  0  0  0  0  0  0
    6.1089   -6.1210   28.6273 C   0  0  0  0  0  0  0  0  0  0  0  0
    3.0405   -5.8275   27.8251 C   0  0  0  0  0  0  0  0  0  0  0  0
   -1.9134  -12.2497   18.3469 C   0  0  0  0  0  0  0  0  0  0  0  0
    2.6868   -4.0827   28.4520 C   0  0  0  0  0  0  0  0  0  0  0  0
   -2.6104  -13.4248   18.3619 C   0  0  0  0  0  0  0  0  0  0  0  0
   -2.7009  -11.8372   17.4941 C   0  0  0  0  0  0  0  0  0  0  0  0
   -0.9480  -12.2690   18.5104 C   0  0  0  0  0  0  0  0  0  0  0  0
    4.0377   -6.2125   27.3065 C   0  0  0  0  0  0  0  0  0  0  0  0
    4.6324   -3.3850   28.5572 O   0  0  0  0  0  0  0  0  0  0  0  0
  3 16  1  0
  4 11  4  0
  4 13  4  0
  5 12  1  0
  5 15  1  0
  6 15  1  0
  7 22  1  0
  8 14  4  0
  9 11  4  0
 10 11  4  0
 12 18  1  0
 12 23  1  0
 13 21  4  0
 16 22  1  0
 17 19  1  0
 17 20  4  0
 17 21  4  0
M  END
$$$$

 Created by Python create_sdf_string function

 23 40  0  0  0  0  0  0  0  0999 V2000
    5.5964   -6.8809   29.4130 C   0  0  0  0  0  0  0  0  0  0  0  0
    1.5970   -7.3797   28.2361 C   0  0  0  0  0  0  0  0  0  0  0  0
    0.5208   -5.6028   28.8934 C   0  0  0  0  0  0  0  0  0  0  0  0
   -0.7357  -12.3189   17.7254 F   0  0  0  0  0  0  0  0  0  0  0  0
    7.1926   -7.9788   28.4752 F   0  0  0  0  0  0  0  0  0  0  0  0
   -0.8483  -10.0449   18.0172 C   0  0  0  0  0  0  0  0  0  0  0  0
   -0.1432   -9.1008   16.1379 C   0  0  0  0  0  0  0  0  0  0  0  0
   -0.9329   -9.6644   18.3328 N   0  0  0  0  0  0  0  0  0  0  0  0
    3.3637  -10.9158   17.6536 N   0  0  0  0  0  0  0  0  0  0  0  0
    5.0776   -5.5085   27.4396 C   0  0  0  0  0  0  0  0  0  0  0  0
    3.6455   -5.0730   27.4822 F   0  0  0  0  0  0  0  0  0  0  0  0
   -1.7321  -12.2599   17.4299 O   0  0  0  0  0  0  0  0  0  0  0  0
    2.1292   -2.9495   28.5889 C   0  0  0  0  0  0  0  0  0  0  0  0
   -2.0710  -14.0790   18.6576 Cl  0  0  0  0  0  0  0  0  0  0  0  0
   -1.8526  -12.3043   18.1795 C   0  0  0  0  0  0  0  0  0  0  0  0
   -0.8347  -12.3688   18.5866 C   0  0  0  0  0  0  0  0  0  0  0  0
    3.4265   -6.8319   28.6760 C   0  0  0  0  0  0  0  0  0  0  0  0
    4.6361   -3.2093   28.7453 O   0  0  0  0  0  0  0  0  0  0  0  0
    5.6702   -6.2738   28.7827 He  0  0  0  0  0  0  0  0  0  0  0  0
    3.4167   -7.4139   26.2320 He  0  0  0  0  0  0  0  0  0  0  0  0
    2.5662   -9.5564   16.0758 He  0  0  0  0  0  0  0  0  0  0  0  0
   -0.3653  -10.2945   18.4596 He  0  0  0  0  0  0  0  0  0  0  0  0
    4.2035   -3.4167   29.1133 He  0  0  0  0  0  0  0  0  0  0  0  0
  1  3  2  0
  1  6  3  0
  1 12  3  0
  1 17  1  0
  1 18  2  0
  2  4  3  0
  2  9  1  0
  3  6  3  0
  3 11  4  0
  3 16  3  0
  3 17  1  0
  4  7  2  0
  4 13  2  0
  5  6  3  0
  5 12  1  0
  6  7  2  0
  6  9  4  0
  7  8  1  0
  7 10  1  0
  7 11  3  0
  7 13  4  0
  7 16  2  0
  8 11  1  0
  8 17  2  0
  9 12  3  0
  9 13  4  0
  9 16  1  0
  9 18  1  0
 10 14  3  0
 10 16  4  0
 11 12  4  0
 11 16  3  0
 11 17  1  0
 11 18  4  0
 12 15  4  0
 12 16  3  0
 13 18  4  0
 14 16  2  0
 14 18  4  0
 15 18  1  0
M  END
$$$$

 Created by Python create_sdf_string function

 23 11  0  0  0  0  0  0  0  0999 V2000
    5.2964   -7.1348   28.7997 C   0  0  0  0  0  0  0  0  0  0  0  0
    1.7337   -6.5803   28.0607 C   0  0  0  0  0  0  0  0  0  0  0  0
    1.5720   -5.3952   28.2678 C   0  0  0  0  0  0  0  0  0  0  0  0
   -0.1287  -12.0343   18.1545 C   0  0  0  0  0  0  0  0  0  0  0  0
    5.7852   -5.9794   28.2562 C   0  0  0  0  0  0  0  0  0  0  0  0
    6.5882   -7.5325   28.1784 O   0  0  0  0  0  0  0  0  0  0  0  0
    3.4165   -7.2017   27.1035 O   0  0  0  0  0  0  0  0  0  0  0  0
    1.7899   -9.5309   16.8321 C   0  0  0  0  0  0  0  0  0  0  0  0
   -0.0184  -10.5069   17.9805 C   0  0  0  0  0  0  0  0  0  0  0  0
    0.3895   -9.0666   16.9226 C   0  0  0  0  0  0  0  0  0  0  0  0
   -0.1252  -10.7481   17.9994 C   0  0  0  0  0  0  0  0  0  0  0  0
    3.6183   -3.8314   28.5654 C   0  0  0  0  0  0  0  0  0  0  0  0
   -0.9925   -9.2941   17.9679 N   0  0  0  0  0  0  0  0  0  0  0  0
    1.9876  -10.4636   17.6600 N   0  0  0  0  0  0  0  0  0  0  0  0
    5.1414   -5.5034   27.8345 C   0  0  0  0  0  0  0  0  0  0  0  0
    3.3279   -5.5100   28.1357 C   0  0  0  0  0  0  0  0  0  0  0  0
   -1.9280  -12.1995   17.8587 C   0  0  0  0  0  0  0  0  0  0  0  0
    2.3031   -3.5704   28.7108 C   0  0  0  0  0  0  0  0  0  0  0  0
   -2.0419  -13.9772   18.8011 Cl  0  0  0  0  0  0  0  0  0  0  0  0
   -1.7915  -12.2671   18.2635 C   0  0  0  0  0  0  0  0  0  0  0  0
   -0.9194  -12.4368   18.4997 C   0  0  0  0  0  0  0  0  0  0  0  0
    3.8302   -6.7493   28.2208 C   0  0  0  0  0  0  0  0  0  0  0  0
    4.2491   -3.5794   28.5811 O   0  0  0  0  0  0  0  0  0  0  0  0
  1 22  1  0
  2  3  4  0
  4 11  4  0
  5 15  1  0
  8 10  4  0
  8 14  4  0
  9 11  4  0
 12 18  1  0
 12 23  1  0
 16 22  1  0
 17 20  4  0
M  END
$$$$

 Created by Python create_sdf_string function

 23 47  0  0  0  0  0  0  0  0999 V2000
    4.8130   -7.2322   28.8568 O   0  0  0  0  0  0  0  0  0  0  0  0
    2.4585   -6.2372   28.5442 C   0  0  0  0  0  0  0  0  0  0  0  0
    1.2375   -5.5737   28.4878 Br  0  0  0  0  0  0  0  0  0  0  0  0
    0.5630  -11.3689   18.0122 O   0  0  0  0  0  0  0  0  0  0  0  0
    6.2736   -7.1425   28.3725 O   0  0  0  0  0  0  0  0  0  0  0  0
    3.4675   -6.6604   28.7487 F   0  0  0  0  0  0  0  0  0  0  0  0
    0.0367   -9.0841   15.3112 N   0  0  0  0  0  0  0  0  0  0  0  0
    0.3736   -9.0551   16.6366 Br  0  0  0  0  0  0  0  0  0  0  0  0
    0.7830   -9.1696   17.0802 P   0  0  0  0  0  0  0  0  0  0  0  0
    0.2793  -10.3234   18.6614 S   0  0  0  0  0  0  0  0  0  0  0  0
    2.3321   -2.4569   28.1069 C   0  0  0  0  0  0  0  0  0  0  0  0
   -1.0769   -9.9985   18.0048 Cl  0  0  0  0  0  0  0  0  0  0  0  0
    5.4641   -5.0218   29.2393 C   0  0  0  0  0  0  0  0  0  0  0  0
    2.3517   -4.6368   27.1902 C   0  0  0  0  0  0  0  0  0  0  0  0
    1.8627   -2.9928   28.8414 C   0  0  0  0  0  0  0  0  0  0  0  0
   -0.9498  -14.3444   17.4442 C   0  0  0  0  0  0  0  0  0  0  0  0
   -2.3821  -12.4302   19.2856 C   0  0  0  0  0  0  0  0  0  0  0  0
   -0.5867  -11.3422   18.9849 C   0  0  0  0  0  0  0  0  0  0  0  0
    4.1897   -7.1567   28.8649 Se  0  0  0  0  0  0  0  0  0  0  0  0
    5.3665   -3.5379   28.6790 N   0  0  0  0  0  0  0  0  0  0  0  0
    6.5836   -5.0656   28.6841 He  0  0  0  0  0  0  0  0  0  0  0  0
    2.6647   -9.9827   16.7786 He  0  0  0  0  0  0  0  0  0  0  0  0
   -2.0158  -13.2594   17.4076 He  0  0  0  0  0  0  0  0  0  0  0  0
  1  7  3  0
  1 13  2  0
  1 14  2  0
  1 20  3  0
  2  3  4  0
  2  6  4  0
  2  7  1  0
  2  9  4  0
  2 14  4  0
  3  7  4  0
  3 13  1  0
  4  6  1  0
  4 15  1  0
  4 18  3  0
  5  6  4  0
  5  7  3  0
  5 13  2  0
  6  9  2  0
  6 10  4  0
  6 14  3  0
  7  9  4  0
  7 12  3  0
  7 15  1  0
  7 18  3  0
  8 11  4  0
  8 14  4  0
  8 17  3  0
  8 19  4  0
  9 11  2  0
  9 12  3  0
  9 14  2  0
 10 12  4  0
 10 15  3  0
 10 19  2  0
 10 20  4  0
 11 14  1  0
 11 18  4  0
 11 20  1  0
 12 13  4  0
 12 14  2  0
 12 18  2  0
 13 17  1  0
 14 18  2  0
 14 19  1  0
 15 20  2  0
 17 20  2  0
 19 20  1  0
M  END
$$$$

 Created by Python create_sdf_string function

 23 16  0  0  0  0  0  0  0  0999 V2000
    4.6366   -7.1770   28.8223 O   0  0  0  0  0  0  0  0  0  0  0  0
    2.5151   -5.7664   28.3032 C   0  0  0  0  0  0  0  0  0  0  0  0
    1.4199   -5.4339   28.2161 O   0  0  0  0  0  0  0  0  0  0  0  0
    0.2295  -11.7732   18.1155 C   0  0  0  0  0  0  0  0  0  0  0  0
    6.1333   -5.0747   28.6658 C   0  0  0  0  0  0  0  0  0  0  0  0
    6.3921   -6.7779   28.4819 O   0  0  0  0  0  0  0  0  0  0  0  0
    3.3684   -6.2747   28.4744 C   0  0  0  0  0  0  0  0  0  0  0  0
    0.0638   -9.1328   16.0227 N   0  0  0  0  0  0  0  0  0  0  0  0
    0.5361   -9.0198   16.6309 C   0  0  0  0  0  0  0  0  0  0  0  0
    0.6497   -9.1015   16.6142 C   0  0  0  0  0  0  0  0  0  0  0  0
    0.3609  -10.4031   18.0239 C   0  0  0  0  0  0  0  0  0  0  0  0
    2.6864   -3.2924   28.1634 C   0  0  0  0  0  0  0  0  0  0  0  0
   -0.8147  -10.2441   18.1589 C   0  0  0  0  0  0  0  0  0  0  0  0
    1.9381   -9.7769   17.0481 C   0  0  0  0  0  0  0  0  0  0  0  0
    5.6391   -5.4787   28.6462 C   0  0  0  0  0  0  0  0  0  0  0  0
    2.6264   -4.4874   27.9531 C   0  0  0  0  0  0  0  0  0  0  0  0
   -1.3829  -13.1518   18.2684 C   0  0  0  0  0  0  0  0  0  0  0  0
    2.1688   -3.2214   28.3334 C   0  0  0  0  0  0  0  0  0  0  0  0
   -1.0662  -13.7990   18.1129 C   0  0  0  0  0  0  0  0  0  0  0  0
   -2.0453  -12.4896   18.9278 C   0  0  0  0  0  0  0  0  0  0  0  0
   -0.7267  -11.4372   18.6669 C   0  0  0  0  0  0  0  0  0  0  0  0
    4.3670   -6.6657   28.6099 C   0  0  0  0  0  0  0  0  0  0  0  0
    4.7111   -3.6513   28.5154 C   0  0  0  0  0  0  0  0  0  0  0  0
  1 22  4  0
  2  3  4  0
  2  7  4  0
  2 16  4  0
  4 11  4  0
  4 21  4  0
  5 15  1  0
  7 22  4  0
  8 10  4  0
  9 10  1  0
 11 13  4  0
 12 16  1  0
 12 18  4  0
 13 21  4  0
 17 19  1  0
 17 20  4  0
M  END
$$$$

 Created by Python create_sdf_string function

 23 42  0  0  0  0  0  0  0  0999 V2000
    2.3670   -4.9949   27.3125 C   0  0  0  0  0  0  0  0  0  0  0  0
    5.6440   -4.8057   28.3017 P   0  0  0  0  0  0  0  0  0  0  0  0
    4.8010   -5.9403   28.8583 O   0  0  0  0  0  0  0  0  0  0  0  0
    3.2738   -6.1222   28.4810 C   0  0  0  0  0  0  0  0  0  0  0  0
    0.7114   -8.5606   17.5696 C   0  0  0  0  0  0  0  0  0  0  0  0
    1.2685   -9.0372   17.5129 C   0  0  0  0  0  0  0  0  0  0  0  0
    2.5209  -11.5861   17.9243 N   0  0  0  0  0  0  0  0  0  0  0  0
    1.5905   -4.5963   28.4553 C   0  0  0  0  0  0  0  0  0  0  0  0
   -1.6467  -13.4276   19.2064 C   0  0  0  0  0  0  0  0  0  0  0  0
    1.8164   -4.7639   28.0786 N   0  0  0  0  0  0  0  0  0  0  0  0
   -1.5581  -13.6021   17.3008 C   0  0  0  0  0  0  0  0  0  0  0  0
   -1.7564  -14.2431   19.6515 N   0  0  0  0  0  0  0  0  0  0  0  0
    0.2988  -11.2439   20.3333 F   0  0  0  0  0  0  0  0  0  0  0  0
    4.0128   -6.6995   27.0672 C   0  0  0  0  0  0  0  0  0  0  0  0
    4.8290   -2.9293   28.5262 S   0  0  0  0  0  0  0  0  0  0  0  0
    4.5484   -7.5226   29.3635 He  0  0  0  0  0  0  0  0  0  0  0  0
    2.8754   -4.2146   28.9377 He  0  0  0  0  0  0  0  0  0  0  0  0
    0.3495  -12.0533   17.7138 He  0  0  0  0  0  0  0  0  0  0  0  0
    1.5644   -8.7781   16.2616 He  0  0  0  0  0  0  0  0  0  0  0  0
    1.0746  -10.2508   18.8100 He  0  0  0  0  0  0  0  0  0  0  0  0
    2.8094   -4.0113   27.9274 He  0  0  0  0  0  0  0  0  0  0  0  0
   -1.6389  -10.4299   18.6471 He  0  0  0  0  0  0  0  0  0  0  0  0
    6.1999   -6.0838   28.7137 He  0  0  0  0  0  0  0  0  0  0  0  0
  1  5  1  0
  1  6  3  0
  1 11  4  0
  1 15  3  0
  2  5  2  0
  2  6  3  0
  2  9  3  0
  2 10  3  0
  2 12  2  0
  2 13  1  0
  3  4  3  0
  3  5  1  0
  3  7  4  0
  3 10  3  0
  3 11  4  0
  3 12  1  0
  3 14  3  0
  4  6  1  0
  4  7  4  0
  4  8  1  0
  4 11  1  0
  4 12  2  0
  4 13  1  0
  5  6  1  0
  5  7  2  0
  5  9  2  0
  5 11  4  0
  5 12  1  0
  6 15  1  0
  7 10  4  0
  7 11  3  0
  7 13  4  0
  7 14  2  0
  7 15  4  0
  8 11  4  0
  8 12  3  0
  9 11  2  0
  9 13  2  0
  9 14  2  0
 10 15  4  0
 11 15  1  0
 12 14  2  0
M  END
$$$$

 Created by Python create_sdf_string function

 23 17  0  0  0  0  0  0  0  0999 V2000
    5.1135   -7.3572   28.6178 C   0  0  0  0  0  0  0  0  0  0  0  0
    2.5031   -4.5931   28.9977 C   0  0  0  0  0  0  0  0  0  0  0  0
    2.1279   -4.6078   26.9713 C   0  0  0  0  0  0  0  0  0  0  0  0
    0.7272  -12.2489   18.1272 C   0  0  0  0  0  0  0  0  0  0  0  0
    5.9365   -5.0688   28.4657 C   0  0  0  0  0  0  0  0  0  0  0  0
    4.9043   -5.6559   28.5659 C   0  0  0  0  0  0  0  0  0  0  0  0
    3.6181   -5.4796   28.4205 C   0  0  0  0  0  0  0  0  0  0  0  0
    1.7153   -8.9500   16.5773 C   0  0  0  0  0  0  0  0  0  0  0  0
    0.0079   -9.2596   17.5599 C   0  0  0  0  0  0  0  0  0  0  0  0
    1.0774   -9.1378   17.0037 C   0  0  0  0  0  0  0  0  0  0  0  0
    0.5690  -10.3357   18.0871 C   0  0  0  0  0  0  0  0  0  0  0  0
    2.6908   -3.6338   27.3876 C   0  0  0  0  0  0  0  0  0  0  0  0
   -1.1899  -10.8284   18.5634 C   0  0  0  0  0  0  0  0  0  0  0  0
    1.7465  -11.0894   17.8121 C   0  0  0  0  0  0  0  0  0  0  0  0
    6.1499   -6.2264   28.7224 C   0  0  0  0  0  0  0  0  0  0  0  0
    1.7565   -4.3285   28.5893 C   0  0  0  0  0  0  0  0  0  0  0  0
   -1.5819  -13.1788   18.8627 C   0  0  0  0  0  0  0  0  0  0  0  0
    1.7863   -4.5340   27.6516 C   0  0  0  0  0  0  0  0  0  0  0  0
   -1.4500  -13.5948   18.1534 O   0  0  0  0  0  0  0  0  0  0  0  0
   -2.0614  -13.7136   19.2954 N   0  0  0  0  0  0  0  0  0  0  0  0
   -0.2624  -11.5619   18.6092 C   0  0  0  0  0  0  0  0  0  0  0  0
    4.2685   -6.7566   27.8839 C   0  0  0  0  0  0  0  0  0  0  0  0
    4.8613   -3.0106   28.3511 C   0  0  0  0  0  0  0  0  0  0  0  0
  1 15  4  0
  1 22  4  0
  2  7  4  0
  2 16  4  0
  3 12  4  0
  3 18  4  0
  4 14  4  0
  4 21  4  0
  5 15  4  0
  6  7  4  0
  7 22  4  0
  8 10  1  0
  9 10  1  0
  9 13  4  0
 13 21  4  0
 17 19  2  0
 17 20  1  0
M  END
$$$$

 Created by Python create_sdf_string function

 23 43  0  0  0  0  0  0  0  0999 V2000
    5.3343   -8.3131   29.1410 O   0  0  0  0  0  0  0  0  0  0  0  0
    1.7764   -4.5743   30.4763 C   0  0  0  0  0  0  0  0  0  0  0  0
    2.1782   -5.8261   26.0432 Cl  0  0  0  0  0  0  0  0  0  0  0  0
    0.9998  -12.1783   17.5535 C   0  0  0  0  0  0  0  0  0  0  0  0
    5.7900   -4.4602   27.6677 C   0  0  0  0  0  0  0  0  0  0  0  0
    4.9416   -5.5727   28.4857 O   0  0  0  0  0  0  0  0  0  0  0  0
    3.1666   -5.1113   28.7851 Cl  0  0  0  0  0  0  0  0  0  0  0  0
    0.0282   -9.7426   17.0076 C   0  0  0  0  0  0  0  0  0  0  0  0
    1.2864   -9.1144   17.5626 F   0  0  0  0  0  0  0  0  0  0  0  0
    0.0223  -11.5375   16.6589 C   0  0  0  0  0  0  0  0  0  0  0  0
    2.2910   -3.9978   27.3606 C   0  0  0  0  0  0  0  0  0  0  0  0
   -0.7355  -10.4803   19.7087 O   0  0  0  0  0  0  0  0  0  0  0  0
    1.3926  -11.1020   16.9825 C   0  0  0  0  0  0  0  0  0  0  0  0
    6.2463   -4.9646   28.7641 C   0  0  0  0  0  0  0  0  0  0  0  0
    0.2014  -13.2477   18.5328 C   0  0  0  0  0  0  0  0  0  0  0  0
    0.9818   -5.4960   27.4253 C   0  0  0  0  0  0  0  0  0  0  0  0
   -1.4624  -12.9461   20.2437 N   0  0  0  0  0  0  0  0  0  0  0  0
   -0.6905  -11.1907   19.2646 C   0  0  0  0  0  0  0  0  0  0  0  0
    3.5262   -8.0867   28.4705 O   0  0  0  0  0  0  0  0  0  0  0  0
    1.4758   -8.4124   16.5751 He  0  0  0  0  0  0  0  0  0  0  0  0
    1.4072   -5.8096   28.3731 He  0  0  0  0  0  0  0  0  0  0  0  0
   -0.5022  -13.5885   17.5323 He  0  0  0  0  0  0  0  0  0  0  0  0
    4.8233   -3.4621   29.5250 He  0  0  0  0  0  0  0  0  0  0  0  0
  1  5  2  0
  1 14  1  0
  1 16  4  0
  1 17  1  0
  2  7  4  0
  2 16  3  0
  2 18  3  0
  3  5  4  0
  3 10  3  0
  3 15  3  0
  3 17  4  0
  4  6  2  0
  4  8  2  0
  4  9  2  0
  4 11  4  0
  4 14  3  0
  4 19  3  0
  5  8  1  0
  5 14  1  0
  6  7  4  0
  6 10  1  0
  6 13  1  0
  6 14  1  0
  6 19  4  0
  7  8  1  0
  7 12  2  0
  7 14  3  0
  7 17  3  0
  7 19  4  0
  8 10  4  0
  8 16  4  0
  9 12  4  0
  9 14  2  0
  9 18  2  0
 10 15  1  0
 10 17  2  0
 10 19  1  0
 11 13  1  0
 11 14  2  0
 13 19  2  0
 15 16  1  0
 16 17  4  0
 16 19  1  0
M  END
$$$$

 Created by Python create_sdf_string function

 23 14  0  0  0  0  0  0  0  0999 V2000
    5.3711   -7.3589   28.6339 O   0  0  0  0  0  0  0  0  0  0  0  0
    2.3177   -4.6042   29.4198 C   0  0  0  0  0  0  0  0  0  0  0  0
    2.1392   -6.0672   26.4691 O   0  0  0  0  0  0  0  0  0  0  0  0
    0.3999  -11.9285   17.5084 C   0  0  0  0  0  0  0  0  0  0  0  0
    5.9603   -4.9417   28.0305 C   0  0  0  0  0  0  0  0  0  0  0  0
    4.6334   -5.8450   28.6039 C   0  0  0  0  0  0  0  0  0  0  0  0
    3.4493   -5.2873   28.8933 C   0  0  0  0  0  0  0  0  0  0  0  0
    1.5171   -8.7627   16.4505 C   0  0  0  0  0  0  0  0  0  0  0  0
    0.4411   -9.5951   17.2446 C   0  0  0  0  0  0  0  0  0  0  0  0
    0.8640   -9.1665   17.1328 C   0  0  0  0  0  0  0  0  0  0  0  0
    0.5044  -11.6810   17.0595 C   0  0  0  0  0  0  0  0  0  0  0  0
    2.4576   -4.1322   27.7572 C   0  0  0  0  0  0  0  0  0  0  0  0
   -0.4554  -10.2937   19.0226 C   0  0  0  0  0  0  0  0  0  0  0  0
    1.1887  -11.1866   16.8083 C   0  0  0  0  0  0  0  0  0  0  0  0
    5.6501   -5.3936   28.5063 C   0  0  0  0  0  0  0  0  0  0  0  0
    1.6881   -5.6838   27.8623 C   0  0  0  0  0  0  0  0  0  0  0  0
   -0.7720  -13.3875   18.3939 C   0  0  0  0  0  0  0  0  0  0  0  0
    1.2741   -5.7125   27.3677 C   0  0  0  0  0  0  0  0  0  0  0  0
   -0.4299  -13.7725   18.0198 C   0  0  0  0  0  0  0  0  0  0  0  0
   -1.5311  -12.8395   19.3001 N   0  0  0  0  0  0  0  0  0  0  0  0
   -0.5129  -11.1598   18.8369 C   0  0  0  0  0  0  0  0  0  0  0  0
    3.7114   -7.0670   28.2431 O   0  0  0  0  0  0  0  0  0  0  0  0
    4.5208   -3.7444   29.1855 O   0  0  0  0  0  0  0  0  0  0  0  0
  2  7  1  0
  3 18  1  0
  4 11  4  0
  4 14  4  0
  5 15  1  0
  6  7  4  0
  6 15  1  0
  8 10  1  0
  9 10  4  0
 11 14  4  0
 13 21  4  0
 16 18  1  0
 17 19  1  0
 17 20  4  0
M  END
$$$$

 Created by Python create_sdf_string function

 23 42  0  0  0  0  0  0  0  0999 V2000
    5.7620   -7.9493   29.1808 C   0  0  0  0  0  0  0  0  0  0  0  0
    2.4731   -4.3413   30.5937 C   0  0  0  0  0  0  0  0  0  0  0  0
    2.6163   -6.9507   26.7427 O   0  0  0  0  0  0  0  0  0  0  0  0
    0.5784  -12.0327   17.7758 C   0  0  0  0  0  0  0  0  0  0  0  0
    5.6679   -5.3835   28.5830 S   0  0  0  0  0  0  0  0  0  0  0  0
    4.6990   -6.7664   27.8722 C   0  0  0  0  0  0  0  0  0  0  0  0
    3.8027   -5.1313   28.9865 C   0  0  0  0  0  0  0  0  0  0  0  0
    1.1006  -12.0868   16.0460 C   0  0  0  0  0  0  0  0  0  0  0  0
    2.5042   -4.7560   27.6926 C   0  0  0  0  0  0  0  0  0  0  0  0
    0.2682  -10.2705   19.4171 C   0  0  0  0  0  0  0  0  0  0  0  0
    2.5227  -10.7922   16.9508 N   0  0  0  0  0  0  0  0  0  0  0  0
    4.9505   -4.4444   28.0518 Br  0  0  0  0  0  0  0  0  0  0  0  0
   -1.3164  -13.9957   18.1127 P   0  0  0  0  0  0  0  0  0  0  0  0
    0.8441   -4.4732   26.3487 C   0  0  0  0  0  0  0  0  0  0  0  0
    0.3360  -10.9225   18.9334 C   0  0  0  0  0  0  0  0  0  0  0  0
    3.5040   -7.5093   27.7036 C   0  0  0  0  0  0  0  0  0  0  0  0
    3.9545   -3.5442   30.7383 F   0  0  0  0  0  0  0  0  0  0  0  0
    1.2589   -8.2600   17.5295 He  0  0  0  0  0  0  0  0  0  0  0  0
    0.1851   -9.8347   17.7528 He  0  0  0  0  0  0  0  0  0  0  0  0
    1.7534   -9.5483   17.4746 He  0  0  0  0  0  0  0  0  0  0  0  0
    2.4135   -5.5078   28.0416 He  0  0  0  0  0  0  0  0  0  0  0  0
   -1.1086  -14.5426   18.2316 He  0  0  0  0  0  0  0  0  0  0  0  0
   -1.1726  -13.7019   20.0933 He  0  0  0  0  0  0  0  0  0  0  0  0
  1  9  1  0
  1 10  3  0
  1 11  3  0
  1 15  1  0
  2  5  4  0
  3  5  4  0
  3  8  1  0
  3  9  2  0
  3 12  3  0
  4  8  4  0
  4  9  1  0
  4 10  3  0
  4 11  1  0
  4 14  1  0
  5  6  1  0
  5  8  2  0
  5  9  2  0
  5 11  1  0
  5 16  1  0
  6  7  4  0
  6  8  3  0
  6 11  1  0
  6 12  1  0
  6 16  1  0
  7  9  2  0
  7 10  3  0
  7 16  1  0
  7 17  3  0
  8 11  4  0
  9 10  1  0
  9 11  4  0
  9 15  3  0
 10 15  2  0
 10 17  2  0
 11 15  2  0
 12 13  4  0
 12 14  1  0
 13 15  1  0
 13 17  3  0
 14 16  4  0
 14 17  1  0
 16 17  3  0
M  END
$$$$

 Created by Python create_sdf_string function

 23 19  0  0  0  0  0  0  0  0999 V2000
    5.4404   -7.7224   28.6079 C   0  0  0  0  0  0  0  0  0  0  0  0
    2.8487   -4.3699   29.9521 C   0  0  0  0  0  0  0  0  0  0  0  0
    2.6047   -6.8278   26.8202 O   0  0  0  0  0  0  0  0  0  0  0  0
    0.2526  -12.2884   17.6998 C   0  0  0  0  0  0  0  0  0  0  0  0
    5.5833   -5.6529   28.5865 C   0  0  0  0  0  0  0  0  0  0  0  0
    4.6441   -6.3002   28.0990 C   0  0  0  0  0  0  0  0  0  0  0  0
    3.5311   -4.9267   29.2963 C   0  0  0  0  0  0  0  0  0  0  0  0
    1.4954   -8.3915   16.8072 C   0  0  0  0  0  0  0  0  0  0  0  0
    0.6659  -10.0166   17.9282 C   0  0  0  0  0  0  0  0  0  0  0  0
    1.3268   -9.3630   17.1156 C   0  0  0  0  0  0  0  0  0  0  0  0
    0.9074  -12.1929   17.1417 C   0  0  0  0  0  0  0  0  0  0  0  0
    2.7364   -5.1693   27.9553 C   0  0  0  0  0  0  0  0  0  0  0  0
   -0.0744  -10.5731   18.6871 C   0  0  0  0  0  0  0  0  0  0  0  0
    1.7901  -10.6286   16.5447 C   0  0  0  0  0  0  0  0  0  0  0  0
    4.9639   -4.7198   28.2372 O   0  0  0  0  0  0  0  0  0  0  0  0
    2.2021   -5.2407   27.6682 C   0  0  0  0  0  0  0  0  0  0  0  0
   -1.0122  -13.6931   18.4393 C   0  0  0  0  0  0  0  0  0  0  0  0
    1.1588   -4.9675   26.8031 C   0  0  0  0  0  0  0  0  0  0  0  0
   -0.9307  -14.4385   18.1123 C   0  0  0  0  0  0  0  0  0  0  0  0
   -1.6659  -13.3402   19.2882 O   0  0  0  0  0  0  0  0  0  0  0  0
   -0.4799  -11.2837   18.8029 C   0  0  0  0  0  0  0  0  0  0  0  0
    4.0814   -7.0235   27.8590 C   0  0  0  0  0  0  0  0  0  0  0  0
    3.9175   -3.9377   30.3785 O   0  0  0  0  0  0  0  0  0  0  0  0
  1 22  1  0
  2  7  1  0
  2 23  1  0
  4 11  4  0
  5  6  1  0
  5 15  1  0
  6 15  1  0
  6 22  1  0
  7 12  1  0
  8 10  1  0
  9 10  1  0
  9 13  4  0
 10 14  4  0
 11 14  4  0
 12 16  1  0
 13 21  4  0
 16 18  1  0
 17 19  1  0
 17 20  2  0
M  END
$$$$

 Created by Python create_sdf_string function

 23 30  0  0  0  0  0  0  0  0999 V2000
    5.6327   -7.2541   28.5362 C   0  0  0  0  0  0  0  0  0  0  0  0
    3.7595   -4.2821   29.4372 Cl  0  0  0  0  0  0  0  0  0  0  0  0
    2.0986   -7.1845   26.9414 O   0  0  0  0  0  0  0  0  0  0  0  0
   -0.4209  -13.2756   18.0267 N   0  0  0  0  0  0  0  0  0  0  0  0
    5.1215   -4.4770   29.2920 S   0  0  0  0  0  0  0  0  0  0  0  0
    6.0395   -6.4983   27.3003 N   0  0  0  0  0  0  0  0  0  0  0  0
    3.8943   -5.0518   28.7982 C   0  0  0  0  0  0  0  0  0  0  0  0
    1.7937   -9.0054   17.5210 S   0  0  0  0  0  0  0  0  0  0  0  0
    1.0008  -12.8986   16.0984 F   0  0  0  0  0  0  0  0  0  0  0  0
    1.4880  -10.0639   15.8205 C   0  0  0  0  0  0  0  0  0  0  0  0
    1.3254   -4.3470   27.1276 C   0  0  0  0  0  0  0  0  0  0  0  0
   -1.5591  -14.4250   18.2514 C   0  0  0  0  0  0  0  0  0  0  0  0
   -0.9872  -13.1780   18.9280 S   0  0  0  0  0  0  0  0  0  0  0  0
    0.0207  -11.6510   19.2415 C   0  0  0  0  0  0  0  0  0  0  0  0
    4.8025   -6.3036   27.8094 C   0  0  0  0  0  0  0  0  0  0  0  0
    0.1279   -9.4010   17.0498 He  0  0  0  0  0  0  0  0  0  0  0  0
    1.0367   -8.2037   17.1949 He  0  0  0  0  0  0  0  0  0  0  0  0
    2.6645   -5.0920   28.1822 He  0  0  0  0  0  0  0  0  0  0  0  0
    0.2880  -10.2531   19.0156 He  0  0  0  0  0  0  0  0  0  0  0  0
    5.1551   -4.3524   28.7309 He  0  0  0  0  0  0  0  0  0  0  0  0
    2.5096   -5.8691   28.8759 He  0  0  0  0  0  0  0  0  0  0  0  0
   -1.4009  -13.6533   18.3316 He  0  0  0  0  0  0  0  0  0  0  0  0
    5.3126   -3.2186   29.5275 He  0  0  0  0  0  0  0  0  0  0  0  0
  1  2  3  0
  2  4  4  0
  2  6  3  0
  2 11  2  0
  3 13  4  0
  3 14  2  0
  3 15  3  0
  4  8  4  0
  4  9  4  0
  4 14  2  0
  4 15  3  0
  5  6  2  0
  5 11  2  0
  5 12  2  0
  5 13  4  0
  6  9  4  0
  6 12  2  0
  6 13  3  0
  6 15  1  0
  7  8  4  0
  7 10  4  0
  7 12  4  0
  7 14  4  0
  7 15  3  0
  8 14  2  0
  9 12  3  0
  9 15  1  0
 10 12  1  0
 11 13  3  0
 12 14  4  0
M  END
$$$$

 Created by Python create_sdf_string function

 23 20  0  0  0  0  0  0  0  0999 V2000
    5.8398   -6.9860   28.2084 C   0  0  0  0  0  0  0  0  0  0  0  0
    3.9333   -4.0203   29.4402 C   0  0  0  0  0  0  0  0  0  0  0  0
    2.5084   -7.0335   27.0848 O   0  0  0  0  0  0  0  0  0  0  0  0
   -0.3137  -12.7640   17.7484 C   0  0  0  0  0  0  0  0  0  0  0  0
    5.5359   -4.4871   29.1814 C   0  0  0  0  0  0  0  0  0  0  0  0
    5.5144   -6.7151   27.3653 O   0  0  0  0  0  0  0  0  0  0  0  0
    3.5744   -4.8861   28.6358 C   0  0  0  0  0  0  0  0  0  0  0  0
    1.4447   -8.7412   16.9205 C   0  0  0  0  0  0  0  0  0  0  0  0
    0.5600  -10.1000   17.4384 C   0  0  0  0  0  0  0  0  0  0  0  0
    1.1687   -8.8861   16.8962 C   0  0  0  0  0  0  0  0  0  0  0  0
    0.3582  -12.3410   16.6167 C   0  0  0  0  0  0  0  0  0  0  0  0
    2.7432   -5.0882   28.1599 C   0  0  0  0  0  0  0  0  0  0  0  0
    0.1120  -10.5439   18.6793 C   0  0  0  0  0  0  0  0  0  0  0  0
    0.9643  -10.8085   16.2212 C   0  0  0  0  0  0  0  0  0  0  0  0
    5.5883   -5.1234   28.6096 C   0  0  0  0  0  0  0  0  0  0  0  0
    2.3843   -5.8718   27.8643 C   0  0  0  0  0  0  0  0  0  0  0  0
   -1.4454  -13.9192   18.7201 C   0  0  0  0  0  0  0  0  0  0  0  0
    1.4836   -4.8807   27.4103 C   0  0  0  0  0  0  0  0  0  0  0  0
   -1.1932  -14.1872   18.3307 C   0  0  0  0  0  0  0  0  0  0  0  0
   -1.4149  -13.0320   18.9711 C   0  0  0  0  0  0  0  0  0  0  0  0
   -0.2655  -11.5657   18.6204 C   0  0  0  0  0  0  0  0  0  0  0  0
    4.6264   -6.1119   27.7517 C   0  0  0  0  0  0  0  0  0  0  0  0
    4.9603   -3.1942   29.6676 O   0  0  0  0  0  0  0  0  0  0  0  0
  1  6  1  0
  2  7  1  0
  2 23  1  0
  3 16  1  0
  4 11  4  0
  4 21  4  0
  5 15  1  0
  6 22  1  0
  7 12  1  0
  8 10  1  0
  9 13  4  0
  9 14  4  0
 11 14  4  0
 12 16  1  0
 12 18  1  0
 13 21  4  0
 15 22  1  0
 16 18  1  0
 17 19  4  0
 17 20  4  0
M  END
$$$$

 Created by Python create_sdf_string function

 23 47  0  0  0  0  0  0  0  0999 V2000
    4.9643   -6.0448   27.8939 C   0  0  0  0  0  0  0  0  0  0  0  0
    4.1046   -5.1677   28.4722 C   0  0  0  0  0  0  0  0  0  0  0  0
    1.8657   -7.6224   27.5836 O   0  0  0  0  0  0  0  0  0  0  0  0
   -0.2045  -13.1852   17.4907 B   0  0  0  0  0  0  0  0  0  0  0  0
    5.1060   -4.6378   29.1623 C   0  0  0  0  0  0  0  0  0  0  0  0
    3.2799   -5.6221   28.7807 O   0  0  0  0  0  0  0  0  0  0  0  0
    0.6919  -10.7458   17.4784 C   0  0  0  0  0  0  0  0  0  0  0  0
    1.5129   -9.4245   16.5074 C   0  0  0  0  0  0  0  0  0  0  0  0
    0.3792  -11.5778   17.1641 C   0  0  0  0  0  0  0  0  0  0  0  0
    0.3129   -9.1054   19.3317 C   0  0  0  0  0  0  0  0  0  0  0  0
    0.5274  -11.6140   16.3400 C   0  0  0  0  0  0  0  0  0  0  0  0
    5.1309   -5.4447   29.1294 C   0  0  0  0  0  0  0  0  0  0  0  0
    2.6707   -4.4117   28.6659 C   0  0  0  0  0  0  0  0  0  0  0  0
    0.7547   -4.6891   27.8791 C   0  0  0  0  0  0  0  0  0  0  0  0
   -0.6435  -12.3470   18.5559 F   0  0  0  0  0  0  0  0  0  0  0  0
    4.0313   -6.2176   28.1952 C   0  0  0  0  0  0  0  0  0  0  0  0
    5.3728   -3.4894   29.9657 O   0  0  0  0  0  0  0  0  0  0  0  0
    6.0981   -6.3188   26.7812 He  0  0  0  0  0  0  0  0  0  0  0  0
    0.7833   -8.4513   16.7875 He  0  0  0  0  0  0  0  0  0  0  0  0
    2.8993   -5.6169   27.5540 He  0  0  0  0  0  0  0  0  0  0  0  0
   -2.0126  -13.9425   18.3946 He  0  0  0  0  0  0  0  0  0  0  0  0
   -0.9539  -13.3288   18.7245 He  0  0  0  0  0  0  0  0  0  0  0  0
   -0.6442  -12.9747   19.0596 He  0  0  0  0  0  0  0  0  0  0  0  0
  1  3  2  0
  1 14  3  0
  1 15  2  0
  2  9  1  0
  2 10  2  0
  2 12  3  0
  2 15  1  0
  2 16  1  0
  2 17  1  0
  3  4  1  0
  3  7  4  0
  3 13  2  0
  3 17  1  0
  4  7  2  0
  4  9  3  0
  4 13  1  0
  4 15  1  0
  4 17  1  0
  5 10  2  0
  5 12  1  0
  5 15  2  0
  5 17  3  0
  6  9  4  0
  6 11  2  0
  6 13  3  0
  6 14  4  0
  6 15  4  0
  6 17  3  0
  7 10  2  0
  7 11  1  0
  7 13  2  0
  7 14  3  0
  7 17  1  0
  8 10  3  0
  8 12  1  0
  9 11  3  0
  9 12  1  0
 10 11  3  0
 10 12  2  0
 10 15  4  0
 10 16  4  0
 11 13  3  0
 11 15  4  0
 12 14  2  0
 12 16  1  0
 14 17  4  0
 15 16  3  0
M  END
$$$$

 Created by Python create_sdf_string function

 23 15  0  0  0  0  0  0  0  0999 V2000
    4.8654   -6.2712   27.4018 C   0  0  0  0  0  0  0  0  0  0  0  0
    4.0372   -4.8582   28.7048 C   0  0  0  0  0  0  0  0  0  0  0  0
    2.0424   -7.3114   27.2484 O   0  0  0  0  0  0  0  0  0  0  0  0
   -0.3312  -13.1976   17.8193 C   0  0  0  0  0  0  0  0  0  0  0  0
    5.5495   -4.6568   29.3318 C   0  0  0  0  0  0  0  0  0  0  0  0
    5.9901   -6.3584   27.1158 O   0  0  0  0  0  0  0  0  0  0  0  0
    2.8557   -5.5092   28.4908 C   0  0  0  0  0  0  0  0  0  0  0  0
    0.8318   -8.7554   17.0511 C   0  0  0  0  0  0  0  0  0  0  0  0
    0.8679  -10.4002   17.0438 C   0  0  0  0  0  0  0  0  0  0  0  0
    1.2365   -9.2394   16.5241 C   0  0  0  0  0  0  0  0  0  0  0  0
    0.2770  -11.6852   17.2175 C   0  0  0  0  0  0  0  0  0  0  0  0
    2.5400   -6.0072   27.5693 C   0  0  0  0  0  0  0  0  0  0  0  0
   -0.2188   -9.7040   18.3595 C   0  0  0  0  0  0  0  0  0  0  0  0
    0.4758  -11.7246   16.6806 C   0  0  0  0  0  0  0  0  0  0  0  0
    5.3833   -5.2543   28.8719 C   0  0  0  0  0  0  0  0  0  0  0  0
    2.5397   -4.3669   28.6059 C   0  0  0  0  0  0  0  0  0  0  0  0
   -1.9892  -14.0410   18.9000 O   0  0  0  0  0  0  0  0  0  0  0  0
    1.1134   -4.9745   27.7546 C   0  0  0  0  0  0  0  0  0  0  0  0
   -1.4258  -13.4824   18.8105 C   0  0  0  0  0  0  0  0  0  0  0  0
   -0.9610  -13.1073   18.5684 C   0  0  0  0  0  0  0  0  0  0  0  0
   -0.6245  -11.6852   18.5130 C   0  0  0  0  0  0  0  0  0  0  0  0
    4.3358   -6.1138   27.8101 C   0  0  0  0  0  0  0  0  0  0  0  0
    5.1696   -3.5336   29.8426 O   0  0  0  0  0  0  0  0  0  0  0  0
  1  6  1  0
  1 22  1  0
  2 22  1  0
  4 20  1  0
  5 15  1  0
  5 23  1  0
  7 12  1  0
  8 10  4  0
  8 13  4  0
  9 10  4  0
  9 11  4  0
 11 14  4  0
 13 21  4  0
 15 22  1  0
 17 19  4  0
M  END
$$$$

 Created by Python create_sdf_string function

 23 26  0  0  0  0  0  0  0  0999 V2000
    5.2313   -5.2625   26.5403 O   0  0  0  0  0  0  0  0  0  0  0  0
    4.4903   -5.5527   29.6588 C   0  0  0  0  0  0  0  0  0  0  0  0
    1.6714   -7.0614   28.1844 C   0  0  0  0  0  0  0  0  0  0  0  0
   -0.7075  -12.5598   18.2584 Se  0  0  0  0  0  0  0  0  0  0  0  0
    0.8492  -11.6441   16.6980 C   0  0  0  0  0  0  0  0  0  0  0  0
   -0.1473  -10.7525   17.5262 C   0  0  0  0  0  0  0  0  0  0  0  0
    2.4229   -4.9848   27.6431 C   0  0  0  0  0  0  0  0  0  0  0  0
    0.5896   -9.0182   18.8716 C   0  0  0  0  0  0  0  0  0  0  0  0
    2.7715   -5.1065   29.4117 C   0  0  0  0  0  0  0  0  0  0  0  0
   -1.1940  -14.6430   18.6384 O   0  0  0  0  0  0  0  0  0  0  0  0
    1.0674   -5.3163   27.2764 N   0  0  0  0  0  0  0  0  0  0  0  0
   -3.0621  -13.6424   18.6663 C   0  0  0  0  0  0  0  0  0  0  0  0
   -0.5171  -12.6122   18.6187 C   0  0  0  0  0  0  0  0  0  0  0  0
   -0.6445  -10.2790   18.3156 N   0  0  0  0  0  0  0  0  0  0  0  0
    5.5975   -4.6921   29.2068 He  0  0  0  0  0  0  0  0  0  0  0  0
    6.0914   -6.5607   27.5671 He  0  0  0  0  0  0  0  0  0  0  0  0
    1.9130   -5.9450   29.5608 He  0  0  0  0  0  0  0  0  0  0  0  0
    1.8982   -9.1496   15.8149 He  0  0  0  0  0  0  0  0  0  0  0  0
    0.2283   -7.8737   15.4299 He  0  0  0  0  0  0  0  0  0  0  0  0
    0.9565  -11.1576   16.6106 He  0  0  0  0  0  0  0  0  0  0  0  0
    6.4375   -4.9478   27.9692 He  0  0  0  0  0  0  0  0  0  0  0  0
    3.4211   -5.9616   28.1960 He  0  0  0  0  0  0  0  0  0  0  0  0
    5.7771   -3.6034   29.9775 He  0  0  0  0  0  0  0  0  0  0  0  0
  1  7  4  0
  1 11  1  0
  2  4  2  0
  2  6  3  0
  2  7  2  0
  2  9  4  0
  2 10  1  0
  2 11  1  0
  2 13  4  0
  2 14  2  0
  3 10  2  0
  3 11  1  0
  3 12  1  0
  5  7  4  0
  5 10  3  0
  6 12  4  0
  6 13  1  0
  7 11  2  0
  7 12  1  0
  8 10  3  0
  8 13  4  0
  8 14  4  0
  9 13  3  0
 10 11  3  0
 10 13  3  0
 10 14  3  0
M  END
$$$$

 Created by Python create_sdf_string function

 23 20  0  0  0  0  0  0  0  0999 V2000
    4.9093   -5.6934   27.1207 C   0  0  0  0  0  0  0  0  0  0  0  0
    4.1670   -4.9142   29.4278 C   0  0  0  0  0  0  0  0  0  0  0  0
    1.2617   -6.5161   28.2098 C   0  0  0  0  0  0  0  0  0  0  0  0
   -1.2339  -12.7440   18.5172 C   0  0  0  0  0  0  0  0  0  0  0  0
    5.6229   -4.6225   29.1990 C   0  0  0  0  0  0  0  0  0  0  0  0
    6.1118   -6.0744   26.9804 O   0  0  0  0  0  0  0  0  0  0  0  0
    1.9536   -6.0723   29.4170 C   0  0  0  0  0  0  0  0  0  0  0  0
    0.9976   -9.2046   16.4186 C   0  0  0  0  0  0  0  0  0  0  0  0
    0.6153  -11.4778   16.8553 C   0  0  0  0  0  0  0  0  0  0  0  0
    1.0523   -8.0457   15.9684 O   0  0  0  0  0  0  0  0  0  0  0  0
   -0.1481  -11.2521   17.8640 C   0  0  0  0  0  0  0  0  0  0  0  0
    2.3266   -5.3262   26.9234 C   0  0  0  0  0  0  0  0  0  0  0  0
   -0.0306   -9.1251   17.4955 C   0  0  0  0  0  0  0  0  0  0  0  0
    1.0489  -10.7425   16.4021 C   0  0  0  0  0  0  0  0  0  0  0  0
    6.1722   -5.0636   28.1478 C   0  0  0  0  0  0  0  0  0  0  0  0
    3.1754   -5.3712   29.1908 C   0  0  0  0  0  0  0  0  0  0  0  0
   -0.9072  -14.1560   18.5743 O   0  0  0  0  0  0  0  0  0  0  0  0
    1.3747   -5.8482   27.1980 N   0  0  0  0  0  0  0  0  0  0  0  0
   -2.4653  -13.0202   19.0112 C   0  0  0  0  0  0  0  0  0  0  0  0
   -0.9681  -12.6025   18.4527 C   0  0  0  0  0  0  0  0  0  0  0  0
   -0.5224  -10.1742   18.2301 C   0  0  0  0  0  0  0  0  0  0  0  0
    3.4964   -5.6219   27.7720 C   0  0  0  0  0  0  0  0  0  0  0  0
    5.8224   -4.0456   29.9609 O   0  0  0  0  0  0  0  0  0  0  0  0
  1  6  1  0
  1 15  4  0
  1 22  4  0
  2  5  4  0
  2 16  4  0
  3  7  4  0
  3 18  1  0
  4 20  1  0
  5 15  1  0
  5 23  1  0
  7 16  4  0
  8 10  1  0
  8 13  4  0
  8 14  4  0
  9 11  4  0
  9 14  4  0
 11 20  1  0
 11 21  4  0
 12 18  1  0
 13 21  4  0
M  END
$$$$

 Created by Python create_sdf_string function

 23 52  0  0  0  0  0  0  0  0999 V2000
    3.7713   -6.2192   28.0510 C   0  0  0  0  0  0  0  0  0  0  0  0
    2.2065   -6.1062   28.0530 C   0  0  0  0  0  0  0  0  0  0  0  0
   -1.6118  -11.6818   17.7967 C   0  0  0  0  0  0  0  0  0  0  0  0
    5.2105   -4.5395   30.2716 C   0  0  0  0  0  0  0  0  0  0  0  0
    5.7352   -6.1573   27.5953 O   0  0  0  0  0  0  0  0  0  0  0  0
    1.5978   -5.2725   30.3882 F   0  0  0  0  0  0  0  0  0  0  0  0
    1.6014   -8.5444   17.5282 C   0  0  0  0  0  0  0  0  0  0  0  0
   -0.2099  -11.1616   16.4339 C   0  0  0  0  0  0  0  0  0  0  0  0
    0.1454  -11.5717   17.8373 C   0  0  0  0  0  0  0  0  0  0  0  0
    1.5350   -5.8431   27.6036 C   0  0  0  0  0  0  0  0  0  0  0  0
    0.1052   -8.4936   17.2135 C   0  0  0  0  0  0  0  0  0  0  0  0
    0.6857  -10.4248   15.6671 P   0  0  0  0  0  0  0  0  0  0  0  0
    6.2599   -4.1361   27.5555 C   0  0  0  0  0  0  0  0  0  0  0  0
    4.5121   -5.0700   29.0991 C   0  0  0  0  0  0  0  0  0  0  0  0
   -1.1186  -14.2693   18.0992 O   0  0  0  0  0  0  0  0  0  0  0  0
   -2.6418  -12.8602   18.7633 C   0  0  0  0  0  0  0  0  0  0  0  0
   -1.4389  -13.0292   18.8395 C   0  0  0  0  0  0  0  0  0  0  0  0
   -0.6140   -8.8234   18.1609 C   0  0  0  0  0  0  0  0  0  0  0  0
    2.5268   -5.9670   27.4233 P   0  0  0  0  0  0  0  0  0  0  0  0
    5.9388   -4.2208   29.8413 O   0  0  0  0  0  0  0  0  0  0  0  0
    4.7753   -4.5815   29.4191 He  0  0  0  0  0  0  0  0  0  0  0  0
    0.6591   -6.8983   15.2914 He  0  0  0  0  0  0  0  0  0  0  0  0
    1.2980   -6.1963   26.4516 He  0  0  0  0  0  0  0  0  0  0  0  0
  1  2  3  0
  1  5  1  0
  1 19  4  0
  2  6  4  0
  2  9  3  0
  2 11  4  0
  2 12  1  0
  2 13  3  0
  2 14  1  0
  2 16  4  0
  2 17  4  0
  2 19  1  0
  3  4  1  0
  3  5  1  0
  3  7  3  0
  3 11  2  0
  3 14  1  0
  3 17  1  0
  4  6  2  0
  4  7  4  0
  4 11  2  0
  4 13  1  0
  4 14  3  0
  5 15  4  0
  5 17  4  0
  6  7  1  0
  6 14  2  0
  6 16  3  0
  7  9  1  0
  7 11  4  0
  7 12  4  0
  7 15  2  0
  8 11  4  0
  8 12  3  0
  8 14  4  0
  8 15  3  0
  8 20  2  0
  9 10  2  0
  9 11  4  0
  9 15  2  0
  9 16  1  0
  9 17  3  0
 10 11  2  0
 11 18  4  0
 12 18  1  0
 12 19  1  0
 12 20  1  0
 13 19  1  0
 14 16  1  0
 14 17  1  0
 14 18  4  0
 16 18  1  0
M  END
$$$$

 Created by Python create_sdf_string function

 23 22  0  0  0  0  0  0  0  0999 V2000
    3.7033   -5.7482   27.6996 C   0  0  0  0  0  0  0  0  0  0  0  0
    4.4849   -4.7766   29.8078 C   0  0  0  0  0  0  0  0  0  0  0  0
    2.5235   -5.4731   28.9089 C   0  0  0  0  0  0  0  0  0  0  0  0
   -1.3966  -11.8155   18.4777 C   0  0  0  0  0  0  0  0  0  0  0  0
    5.5627   -4.3567   29.5530 C   0  0  0  0  0  0  0  0  0  0  0  0
    5.3695   -5.6650   27.2726 O   0  0  0  0  0  0  0  0  0  0  0  0
    1.4812   -5.4526   29.1250 C   0  0  0  0  0  0  0  0  0  0  0  0
    0.6492   -8.7921   16.4797 C   0  0  0  0  0  0  0  0  0  0  0  0
    0.1473  -11.2139   16.7292 C   0  0  0  0  0  0  0  0  0  0  0  0
    1.1082   -7.4974   15.9241 O   0  0  0  0  0  0  0  0  0  0  0  0
   -0.5678  -10.8501   17.6660 C   0  0  0  0  0  0  0  0  0  0  0  0
    0.8628   -5.9021   27.8166 C   0  0  0  0  0  0  0  0  0  0  0  0
   -0.2263   -8.6161   17.3766 C   0  0  0  0  0  0  0  0  0  0  0  0
    0.8693  -10.0658   16.1009 C   0  0  0  0  0  0  0  0  0  0  0  0
    6.2467   -4.8609   27.7816 C   0  0  0  0  0  0  0  0  0  0  0  0
    4.0536   -5.0856   29.2603 C   0  0  0  0  0  0  0  0  0  0  0  0
   -0.8874  -13.7994   18.3475 O   0  0  0  0  0  0  0  0  0  0  0  0
    1.4613   -6.2124   26.7806 C   0  0  0  0  0  0  0  0  0  0  0  0
   -2.6418  -12.6425   18.8640 C   0  0  0  0  0  0  0  0  0  0  0  0
   -1.3776  -12.8475   18.4868 C   0  0  0  0  0  0  0  0  0  0  0  0
   -0.8297   -9.6019   18.0871 C   0  0  0  0  0  0  0  0  0  0  0  0
    2.8936   -6.1932   26.8198 C   0  0  0  0  0  0  0  0  0  0  0  0
    6.2428   -3.9882   29.8310 O   0  0  0  0  0  0  0  0  0  0  0  0
  1  3  4  0
  1  6  1  0
  1 22  4  0
  2  5  4  0
  2 16  4  0
  3  7  4  0
  4 11  1  0
  4 20  1  0
  5 15  1  0
  5 23  2  0
  6 15  1  0
  7 12  4  0
  8 10  1  0
  8 13  4  0
  8 14  4  0
  9 11  4  0
  9 14  4  0
 11 21  4  0
 12 18  4  0
 13 21  4  0
 17 20  2  0
 18 22  4  0
M  END
$$$$

 Created by Python create_sdf_string function

 23 21  0  0  0  0  0  0  0  0999 V2000
    3.0066   -5.6054   28.7385 C   0  0  0  0  0  0  0  0  0  0  0  0
    3.9820   -4.0257   29.0285 C   0  0  0  0  0  0  0  0  0  0  0  0
   -1.7649  -10.7871   18.7343 C   0  0  0  0  0  0  0  0  0  0  0  0
    5.8285   -5.1129   29.9510 C   0  0  0  0  0  0  0  0  0  0  0  0
    1.5461   -9.4834   16.5569 C   0  0  0  0  0  0  0  0  0  0  0  0
   -0.7203  -10.7930   16.6456 C   0  0  0  0  0  0  0  0  0  0  0  0
    1.5262   -7.8388   16.8882 F   0  0  0  0  0  0  0  0  0  0  0  0
   -0.6785  -11.0710   17.0962 S   0  0  0  0  0  0  0  0  0  0  0  0
    3.9737   -4.2729   28.6935 C   0  0  0  0  0  0  0  0  0  0  0  0
   -0.5507  -13.6595   18.1816 C   0  0  0  0  0  0  0  0  0  0  0  0
   -2.5449  -11.6984   18.4912 N   0  0  0  0  0  0  0  0  0  0  0  0
    5.9075   -4.4644   29.1675 O   0  0  0  0  0  0  0  0  0  0  0  0
    3.3270   -5.6403   28.9943 He  0  0  0  0  0  0  0  0  0  0  0  0
    5.2593   -5.2852   27.8958 He  0  0  0  0  0  0  0  0  0  0  0  0
    1.6698   -5.4797   28.9073 He  0  0  0  0  0  0  0  0  0  0  0  0
    1.4761   -6.4667   28.8107 He  0  0  0  0  0  0  0  0  0  0  0  0
    0.0807   -8.9245   17.4451 He  0  0  0  0  0  0  0  0  0  0  0  0
    0.1307   -9.9979   15.9239 He  0  0  0  0  0  0  0  0  0  0  0  0
    6.0015   -4.9574   27.5683 He  0  0  0  0  0  0  0  0  0  0  0  0
    1.3569   -5.7643   27.7382 He  0  0  0  0  0  0  0  0  0  0  0  0
   -0.8416  -12.3637   16.9300 He  0  0  0  0  0  0  0  0  0  0  0  0
   -1.4662  -10.8689   18.8299 He  0  0  0  0  0  0  0  0  0  0  0  0
    2.5629   -5.9791   26.7302 He  0  0  0  0  0  0  0  0  0  0  0  0
  1  4  4  0
  1  5  2  0
  1 10  1  0
  2  4  4  0
  2  8  1  0
  2 10  4  0
  3  8  1  0
  3 11  4  0
  3 12  4  0
  4 11  4  0
  4 12  1  0
  5 11  4  0
  5 12  2  0
  6  8  1  0
  6  9  3  0
  7  8  3  0
  7 11  2  0
  9 10  2  0
  9 11  1  0
  9 12  1  0
 10 12  3  0
M  END
$$$$

 Created by Python create_sdf_string function

 23 18  0  0  0  0  0  0  0  0999 V2000
    3.1440   -5.4408   28.0494 C   0  0  0  0  0  0  0  0  0  0  0  0
    4.5144   -4.3761   28.5891 C   0  0  0  0  0  0  0  0  0  0  0  0
    2.7566   -5.5426   29.0178 C   0  0  0  0  0  0  0  0  0  0  0  0
   -1.6580  -11.3454   18.6233 C   0  0  0  0  0  0  0  0  0  0  0  0
    5.6617   -4.8114   29.6984 C   0  0  0  0  0  0  0  0  0  0  0  0
    5.2762   -5.0400   27.5972 C   0  0  0  0  0  0  0  0  0  0  0  0
    1.4105   -6.0519   29.1616 C   0  0  0  0  0  0  0  0  0  0  0  0
    0.8084   -8.9333   16.7163 C   0  0  0  0  0  0  0  0  0  0  0  0
   -0.1816  -11.0796   16.4096 C   0  0  0  0  0  0  0  0  0  0  0  0
    1.5858   -8.0435   16.4643 N   0  0  0  0  0  0  0  0  0  0  0  0
   -0.6960  -11.2200   17.2381 C   0  0  0  0  0  0  0  0  0  0  0  0
    0.9927   -6.2464   28.5390 C   0  0  0  0  0  0  0  0  0  0  0  0
    0.0699   -9.0031   17.8182 C   0  0  0  0  0  0  0  0  0  0  0  0
    0.5732   -9.9845   15.8709 C   0  0  0  0  0  0  0  0  0  0  0  0
    6.1373   -4.8877   27.5846 C   0  0  0  0  0  0  0  0  0  0  0  0
    4.3691   -4.2809   28.8489 C   0  0  0  0  0  0  0  0  0  0  0  0
   -1.4262  -13.2942   18.1900 C   0  0  0  0  0  0  0  0  0  0  0  0
    1.3376   -6.1692   27.0669 C   0  0  0  0  0  0  0  0  0  0  0  0
   -2.1385  -12.0798   18.9635 N   0  0  0  0  0  0  0  0  0  0  0  0
   -0.9729  -12.8685   17.1907 N   0  0  0  0  0  0  0  0  0  0  0  0
   -0.8946  -10.2194   18.3385 C   0  0  0  0  0  0  0  0  0  0  0  0
    2.4139   -5.8094   26.7802 C   0  0  0  0  0  0  0  0  0  0  0  0
    6.2069   -4.4741   29.1033 C   0  0  0  0  0  0  0  0  0  0  0  0
  1  3  4  0
  1 22  4  0
  3  7  4  0
  4 19  4  0
  4 21  4  0
  5 23  1  0
  7 12  4  0
  8 10  1  0
  8 13  4  0
  8 14  4  0
  9 11  4  0
  9 14  4  0
 11 21  4  0
 12 18  4  0
 13 21  4  0
 17 19  4  0
 17 20  4  0
 18 22  4  0
M  END
$$$$

 Created by Python create_sdf_string function

 23 35  0  0  0  0  0  0  0  0999 V2000
    2.1160   -4.6922   28.4340 C   0  0  0  0  0  0  0  0  0  0  0  0
    5.0537   -4.5433   28.6164 C   0  0  0  0  0  0  0  0  0  0  0  0
    2.8563   -4.9291   27.9175 O   0  0  0  0  0  0  0  0  0  0  0  0
   -2.1490  -11.9351   19.3849 C   0  0  0  0  0  0  0  0  0  0  0  0
    4.9099   -4.3518   28.8226 C   0  0  0  0  0  0  0  0  0  0  0  0
    4.4801   -4.8299   27.7812 C   0  0  0  0  0  0  0  0  0  0  0  0
    1.7582   -5.4306   29.9704 O   0  0  0  0  0  0  0  0  0  0  0  0
    0.5817   -7.8661   16.2649 C   0  0  0  0  0  0  0  0  0  0  0  0
    0.5236  -11.1136   15.9359 C   0  0  0  0  0  0  0  0  0  0  0  0
    1.4745   -7.5619   16.6747 I   0  0  0  0  0  0  0  0  0  0  0  0
    1.2113   -7.1161   27.6563 C   0  0  0  0  0  0  0  0  0  0  0  0
    0.9257  -10.1796   16.3915 C   0  0  0  0  0  0  0  0  0  0  0  0
    7.0815   -6.3595   26.6393 F   0  0  0  0  0  0  0  0  0  0  0  0
    0.7691   -5.8645   26.4536 C   0  0  0  0  0  0  0  0  0  0  0  0
   -0.5885  -11.5904   16.9858 N   0  0  0  0  0  0  0  0  0  0  0  0
   -0.9089   -9.8736   18.9176 P   0  0  0  0  0  0  0  0  0  0  0  0
    2.1610   -6.5833   26.8678 C   0  0  0  0  0  0  0  0  0  0  0  0
    7.5405   -4.3096   28.4147 C   0  0  0  0  0  0  0  0  0  0  0  0
    0.4179  -11.5901   17.8402 He  0  0  0  0  0  0  0  0  0  0  0  0
    0.4825   -8.3841   17.6846 He  0  0  0  0  0  0  0  0  0  0  0  0
    3.7695   -4.9931   29.8183 He  0  0  0  0  0  0  0  0  0  0  0  0
   -2.2224  -13.7320   18.4693 He  0  0  0  0  0  0  0  0  0  0  0  0
   -1.6219  -12.2696   19.1010 He  0  0  0  0  0  0  0  0  0  0  0  0
  1  7  3  0
  1 11  4  0
  1 15  4  0
  1 16  2  0
  1 17  4  0
  1 18  2  0
  2  3  1  0
  2  6  4  0
  2 11  1  0
  2 15  4  0
  2 16  2  0
  3 10  4  0
  4  6  1  0
  4 13  2  0
  5 10  4  0
  5 12  3  0
  5 13  2  0
  5 15  4  0
  5 18  3  0
  6  8  3  0
  6 17  2  0
  7 15  3  0
  7 17  1  0
  8 13  4  0
  8 16  4  0
  9 12  4  0
  9 14  2  0
  9 16  3  0
 10 11  2  0
 11 13  3  0
 11 18  1  0
 12 13  3  0
 14 17  4  0
 14 18  2  0
 16 17  3  0
M  END
$$$$

 Created by Python create_sdf_string function

 23 24  0  0  0  0  0  0  0  0999 V2000
    2.0837   -5.5268   28.6892 C   0  0  0  0  0  0  0  0  0  0  0  0
    4.3754   -5.0438   28.1600 C   0  0  0  0  0  0  0  0  0  0  0  0
    3.0080   -5.3484   27.7926 C   0  0  0  0  0  0  0  0  0  0  0  0
   -2.0619  -11.9439   19.1722 C   0  0  0  0  0  0  0  0  0  0  0  0
    5.7245   -4.3753   29.3608 C   0  0  0  0  0  0  0  0  0  0  0  0
    5.1002   -5.4418   27.2156 C   0  0  0  0  0  0  0  0  0  0  0  0
    1.5007   -5.7064   29.4218 C   0  0  0  0  0  0  0  0  0  0  0  0
    0.7644   -8.5570   16.7006 C   0  0  0  0  0  0  0  0  0  0  0  0
    0.4848  -10.9618   16.5167 C   0  0  0  0  0  0  0  0  0  0  0  0
    1.4561   -7.3425   16.2057 C   0  0  0  0  0  0  0  0  0  0  0  0
   -0.3276  -10.9491   17.4972 C   0  0  0  0  0  0  0  0  0  0  0  0
    0.8319   -6.2252   28.1410 C   0  0  0  0  0  0  0  0  0  0  0  0
   -0.1178   -8.5744   17.6665 C   0  0  0  0  0  0  0  0  0  0  0  0
    1.0602   -9.8011   16.1162 C   0  0  0  0  0  0  0  0  0  0  0  0
    6.5577   -5.2195   27.1552 C   0  0  0  0  0  0  0  0  0  0  0  0
    4.2811   -4.6112   29.6604 C   0  0  0  0  0  0  0  0  0  0  0  0
   -2.0089  -13.6252   18.7403 O   0  0  0  0  0  0  0  0  0  0  0  0
    1.1272   -6.2498   26.8908 C   0  0  0  0  0  0  0  0  0  0  0  0
   -1.6187  -12.3564   18.6150 C   0  0  0  0  0  0  0  0  0  0  0  0
   -0.8531  -12.3730   17.7054 N   0  0  0  0  0  0  0  0  0  0  0  0
   -0.6022   -9.8665   18.1828 C   0  0  0  0  0  0  0  0  0  0  0  0
    2.4218   -5.6343   26.6342 C   0  0  0  0  0  0  0  0  0  0  0  0
    6.9310   -4.6548   28.3606 C   0  0  0  0  0  0  0  0  0  0  0  0
  1  3  4  0
  1  7  4  0
  2  3  1  0
  2  6  4  0
  2 16  4  0
  3 22  4  0
  4 19  1  0
  5 16  4  0
  5 23  4  0
  6 15  4  0
  7 12  4  0
  8 10  1  0
  8 13  4  0
  8 14  4  0
  9 11  4  0
  9 14  4  0
 11 20  1  0
 11 21  4  0
 12 18  4  0
 13 21  4  0
 15 23  4  0
 17 19  1  0
 18 22  4  0
 19 20  1  0
M  END
$$$$

 Created by Python create_sdf_string function

 23 41  0  0  0  0  0  0  0  0999 V2000
    2.5527   -5.3254   28.4391 C   0  0  0  0  0  0  0  0  0  0  0  0
    4.7824   -4.8295   27.9203 C   0  0  0  0  0  0  0  0  0  0  0  0
    3.3732   -5.0969   27.4963 C   0  0  0  0  0  0  0  0  0  0  0  0
    6.1751   -4.1158   30.4920 C   0  0  0  0  0  0  0  0  0  0  0  0
    5.4786   -4.1438   27.3035 C   0  0  0  0  0  0  0  0  0  0  0  0
    1.6313   -6.4999   28.4876 C   0  0  0  0  0  0  0  0  0  0  0  0
    0.8583   -8.7126   17.1670 B   0  0  0  0  0  0  0  0  0  0  0  0
   -0.4900  -10.9444   16.8739 C   0  0  0  0  0  0  0  0  0  0  0  0
   -0.0229  -11.7150   18.1828 C   0  0  0  0  0  0  0  0  0  0  0  0
    0.5909   -6.9403   28.4554 F   0  0  0  0  0  0  0  0  0  0  0  0
    0.1926   -8.5364   17.9192 C   0  0  0  0  0  0  0  0  0  0  0  0
    0.8702  -10.7340   16.2391 O   0  0  0  0  0  0  0  0  0  0  0  0
    6.1520   -5.0871   26.6783 C   0  0  0  0  0  0  0  0  0  0  0  0
    4.5570   -4.2978   29.8310 C   0  0  0  0  0  0  0  0  0  0  0  0
    1.4434   -6.2981   26.4678 C   0  0  0  0  0  0  0  0  0  0  0  0
   -0.1845  -12.4645   18.2099 N   0  0  0  0  0  0  0  0  0  0  0  0
    3.1262   -5.2572   26.4766 N   0  0  0  0  0  0  0  0  0  0  0  0
    7.2230   -5.2401   28.4745 C   0  0  0  0  0  0  0  0  0  0  0  0
   -1.8391  -11.6989   19.8678 He  0  0  0  0  0  0  0  0  0  0  0  0
    1.6942   -7.8281   16.1598 He  0  0  0  0  0  0  0  0  0  0  0  0
   -1.3461  -14.2867   18.4216 He  0  0  0  0  0  0  0  0  0  0  0  0
   -1.7505  -11.8984   18.8157 He  0  0  0  0  0  0  0  0  0  0  0  0
   -0.1860   -9.7616   18.2168 He  0  0  0  0  0  0  0  0  0  0  0  0
  1  3  4  0
  1  6  4  0
  1 11  4  0
  1 16  4  0
  2  3  1  0
  2  5  2  0
  2  6  2  0
  2  7  2  0
  2  9  4  0
  2 13  1  0
  2 14  4  0
  2 16  4  0
  2 17  4  0
  3  7  3  0
  3  8  2  0
  3 13  1  0
  3 17  4  0
  4 18  4  0
  5 13  4  0
  5 16  1  0
  6  7  1  0
  6 10  4  0
  6 16  2  0
  7  9  1  0
  7 12  4  0
  7 13  2  0
  7 17  1  0
  8  9  4  0
  8 12  4  0
  9 11  2  0
  9 12  2  0
  9 14  2  0
  9 16  1  0
 10 16  4  0
 12 16  4  0
 13 14  2  0
 13 16  1  0
 13 17  3  0
 14 17  1  0
 15 17  4  0
 16 18  1  0
M  END
$$$$

 Created by Python create_sdf_string function

 23 22  0  0  0  0  0  0  0  0999 V2000
    2.3683   -5.6642   28.9230 C   0  0  0  0  0  0  0  0  0  0  0  0
    4.5118   -4.8871   28.1238 C   0  0  0  0  0  0  0  0  0  0  0  0
    3.2489   -5.2993   27.8545 C   0  0  0  0  0  0  0  0  0  0  0  0
   -1.9466  -12.2752   19.2769 N   0  0  0  0  0  0  0  0  0  0  0  0
    6.3944   -4.4832   29.7016 C   0  0  0  0  0  0  0  0  0  0  0  0
    5.5558   -4.8567   27.1769 C   0  0  0  0  0  0  0  0  0  0  0  0
    1.2201   -6.3718   28.7503 C   0  0  0  0  0  0  0  0  0  0  0  0
    0.8119   -8.9379   16.7318 C   0  0  0  0  0  0  0  0  0  0  0  0
    0.3374  -11.2825   16.8661 C   0  0  0  0  0  0  0  0  0  0  0  0
    1.4662   -7.8787   16.1947 C   0  0  0  0  0  0  0  0  0  0  0  0
   -0.3419  -11.0919   17.8875 C   0  0  0  0  0  0  0  0  0  0  0  0
    0.8514   -6.6572   27.5220 C   0  0  0  0  0  0  0  0  0  0  0  0
   -0.0529   -8.8173   17.7573 C   0  0  0  0  0  0  0  0  0  0  0  0
    0.8974  -10.1814   16.2181 C   0  0  0  0  0  0  0  0  0  0  0  0
    6.8842   -4.7655   27.4669 C   0  0  0  0  0  0  0  0  0  0  0  0
    5.0239   -4.4834   29.4391 C   0  0  0  0  0  0  0  0  0  0  0  0
   -1.0391  -13.7869   18.5757 O   0  0  0  0  0  0  0  0  0  0  0  0
    1.5503   -6.2155   26.4859 C   0  0  0  0  0  0  0  0  0  0  0  0
   -1.8361  -12.3725   19.0369 C   0  0  0  0  0  0  0  0  0  0  0  0
   -0.6622  -12.5359   18.5360 N   0  0  0  0  0  0  0  0  0  0  0  0
   -0.6472   -9.8746   18.3728 C   0  0  0  0  0  0  0  0  0  0  0  0
    2.6892   -5.5789   26.5878 C   0  0  0  0  0  0  0  0  0  0  0  0
    7.2768   -4.6092   28.7290 C   0  0  0  0  0  0  0  0  0  0  0  0
  1  3  4  0
  1  7  4  0
  2  3  1  0
  2  6  4  0
  2 16  4  0
  3 22  4  0
  4 19  1  0
  5 16  4  0
  5 23  4  0
  6 15  4  0
  7 12  4  0
  8 10  1  0
  8 13  4  0
  8 14  4  0
  9 11  4  0
  9 14  4  0
 11 20  1  0
 11 21  4  0
 12 18  4  0
 13 21  4  0
 15 23  4  0
 18 22  4  0
M  END
$$$$

 Created by Python create_sdf_string function

 23 34  0  0  0  0  0  0  0  0999 V2000
    2.0777   -5.9408   29.2860 F   0  0  0  0  0  0  0  0  0  0  0  0
    4.7778   -5.1946   27.1348 C   0  0  0  0  0  0  0  0  0  0  0  0
    2.4291   -4.8070   28.1398 C   0  0  0  0  0  0  0  0  0  0  0  0
    1.2249   -6.5632   29.1142 C   0  0  0  0  0  0  0  0  0  0  0  0
   -0.2222   -9.7052   16.7810 P   0  0  0  0  0  0  0  0  0  0  0  0
    0.4625  -10.9928   15.9318 C   0  0  0  0  0  0  0  0  0  0  0  0
    1.1973   -8.2277   16.6489 C   0  0  0  0  0  0  0  0  0  0  0  0
   -0.2085  -10.4213   17.9893 C   0  0  0  0  0  0  0  0  0  0  0  0
   -0.3089   -8.3230   17.7941 C   0  0  0  0  0  0  0  0  0  0  0  0
   -0.2311   -9.2918   15.9852 C   0  0  0  0  0  0  0  0  0  0  0  0
    6.7377   -4.4628   27.2831 C   0  0  0  0  0  0  0  0  0  0  0  0
   -1.3091  -12.8608   18.9656 O   0  0  0  0  0  0  0  0  0  0  0  0
    1.9665   -6.0410   26.1709 C   0  0  0  0  0  0  0  0  0  0  0  0
   -1.5193  -12.3304   20.0068 F   0  0  0  0  0  0  0  0  0  0  0  0
   -0.1980  -13.2658   18.8884 N   0  0  0  0  0  0  0  0  0  0  0  0
   -0.8483   -9.2460   18.7743 F   0  0  0  0  0  0  0  0  0  0  0  0
    2.5643   -4.4410   27.4890 C   0  0  0  0  0  0  0  0  0  0  0  0
   -2.3081  -11.4896   18.7446 He  0  0  0  0  0  0  0  0  0  0  0  0
    7.3217   -4.3949   29.9314 He  0  0  0  0  0  0  0  0  0  0  0  0
    5.6968   -4.5974   27.8835 He  0  0  0  0  0  0  0  0  0  0  0  0
    1.2512   -6.9884   27.9705 He  0  0  0  0  0  0  0  0  0  0  0  0
    4.6617   -5.5736   30.8570 He  0  0  0  0  0  0  0  0  0  0  0  0
    7.3631   -5.2382   27.9976 He  0  0  0  0  0  0  0  0  0  0  0  0
  1  3  3  0
  1  4  4  0
  1  6  4  0
  1 13  3  0
  1 15  2  0
  2  3  1  0
  2 12  3  0
  2 15  1  0
  2 16  3  0
  3  6  3  0
  3  8  4  0
  3  9  3  0
  3 10  3  0
  3 17  4  0
  4  9  3  0
  4 14  3  0
  5  9  4  0
  6 10  4  0
  6 16  3  0
  7 10  1  0
  7 13  1  0
  8  9  3  0
  8 10  4  0
  8 12  2  0
  8 16  4  0
  9 12  1  0
  9 16  4  0
 10 13  3  0
 10 16  4  0
 11 12  4  0
 11 13  4  0
 11 17  2  0
 13 17  4  0
 15 16  2  0
M  END
$$$$

 Created by Python create_sdf_string function

 23 22  0  0  0  0  0  0  0  0999 V2000
    2.6001   -5.9592   29.1599 C   0  0  0  0  0  0  0  0  0  0  0  0
    4.6184   -4.8792   28.2862 C   0  0  0  0  0  0  0  0  0  0  0  0
    3.2992   -5.3443   28.0947 C   0  0  0  0  0  0  0  0  0  0  0  0
   -1.9197  -11.8211   18.8178 C   0  0  0  0  0  0  0  0  0  0  0  0
    6.8344   -4.9548   29.6644 C   0  0  0  0  0  0  0  0  0  0  0  0
    5.4060   -4.8203   27.9028 C   0  0  0  0  0  0  0  0  0  0  0  0
    1.3823   -6.6482   28.8749 C   0  0  0  0  0  0  0  0  0  0  0  0
    0.0732   -8.7402   16.9521 C   0  0  0  0  0  0  0  0  0  0  0  0
    0.1175  -10.8453   16.8109 C   0  0  0  0  0  0  0  0  0  0  0  0
    0.9862   -8.0455   15.9155 C   0  0  0  0  0  0  0  0  0  0  0  0
   -0.7418  -10.7552   17.8482 C   0  0  0  0  0  0  0  0  0  0  0  0
    0.8707   -6.6467   27.5489 C   0  0  0  0  0  0  0  0  0  0  0  0
   -0.6411   -8.4169   17.8289 C   0  0  0  0  0  0  0  0  0  0  0  0
    0.3747   -9.7778   16.5402 C   0  0  0  0  0  0  0  0  0  0  0  0
    6.6393   -4.7286   27.4949 C   0  0  0  0  0  0  0  0  0  0  0  0
    5.4119   -5.0394   29.5692 C   0  0  0  0  0  0  0  0  0  0  0  0
   -1.2864  -13.1898   18.8676 O   0  0  0  0  0  0  0  0  0  0  0  0
    1.4683   -5.9139   26.5949 C   0  0  0  0  0  0  0  0  0  0  0  0
   -1.8295  -12.3299   19.1167 C   0  0  0  0  0  0  0  0  0  0  0  0
   -0.3618  -13.0022   18.4029 N   0  0  0  0  0  0  0  0  0  0  0  0
   -1.1852   -9.6175   18.4590 C   0  0  0  0  0  0  0  0  0  0  0  0
    2.6792   -5.2599   26.8633 C   0  0  0  0  0  0  0  0  0  0  0  0
    7.3978   -4.7295   28.5223 C   0  0  0  0  0  0  0  0  0  0  0  0
  1  3  4  0
  1  7  4  0
  2  3  1  0
  2  6  4  0
  2 16  4  0
  3 22  4  0
  4 19  1  0
  5 16  4  0
  5 23  4  0
  6 15  4  0
  7 12  4  0
  8 10  1  0
  8 13  4  0
  8 14  4  0
  9 11  4  0
  9 14  4  0
 11 21  4  0
 12 18  4  0
 13 21  4  0
 15 23  4  0
 17 19  2  0
 18 22  4  0
M  END
$$$$

 Created by Python create_sdf_string function

 23 28  0  0  0  0  0  0  0  0999 V2000
    3.0860   -6.2194   28.9968 C   0  0  0  0  0  0  0  0  0  0  0  0
    4.3029   -4.7153   27.4791 C   0  0  0  0  0  0  0  0  0  0  0  0
   -1.5920  -12.2377   19.3928 C   0  0  0  0  0  0  0  0  0  0  0  0
    5.9260   -4.7502   27.2089 C   0  0  0  0  0  0  0  0  0  0  0  0
    1.3301   -7.0043   29.5727 N   0  0  0  0  0  0  0  0  0  0  0  0
    0.0706   -9.1812   17.2707 F   0  0  0  0  0  0  0  0  0  0  0  0
   -0.5447  -10.9201   17.5421 C   0  0  0  0  0  0  0  0  0  0  0  0
    1.4848   -8.6056   15.8501 C   0  0  0  0  0  0  0  0  0  0  0  0
   -0.8920  -10.7379   18.1711 C   0  0  0  0  0  0  0  0  0  0  0  0
    6.1108   -4.5146   28.9512 C   0  0  0  0  0  0  0  0  0  0  0  0
   -1.4383  -12.4447   19.2796 N   0  0  0  0  0  0  0  0  0  0  0  0
    1.1884   -6.2045   26.3729 O   0  0  0  0  0  0  0  0  0  0  0  0
   -1.1698  -12.6148   18.9035 C   0  0  0  0  0  0  0  0  0  0  0  0
   -1.6475  -10.6643   18.8052 C   0  0  0  0  0  0  0  0  0  0  0  0
    3.1390   -6.1180   27.6911 C   0  0  0  0  0  0  0  0  0  0  0  0
    7.5824   -4.5959   28.2123 C   0  0  0  0  0  0  0  0  0  0  0  0
    3.1637   -4.7908   28.6864 He  0  0  0  0  0  0  0  0  0  0  0  0
    6.8573   -5.1401   29.3875 He  0  0  0  0  0  0  0  0  0  0  0  0
    0.4962   -6.8915   27.9259 He  0  0  0  0  0  0  0  0  0  0  0  0
   -1.2858   -9.0451   17.1346 He  0  0  0  0  0  0  0  0  0  0  0  0
   -0.2259   -8.6365   16.3486 He  0  0  0  0  0  0  0  0  0  0  0  0
    6.1345   -5.1883   26.6020 He  0  0  0  0  0  0  0  0  0  0  0  0
    0.1865  -13.1991   18.1073 He  0  0  0  0  0  0  0  0  0  0  0  0
  1  5  4  0
  1  7  1  0
  1 16  3  0
  2  3  2  0
  2  4  2  0
  2  8  1  0
  2 13  1  0
  3  9  3  0
  3 10  3  0
  4  6  2  0
  4  9  2  0
  4 13  3  0
  4 16  3  0
  5 12  1  0
  6  8  1  0
  6 14  1  0
  7  8  4  0
  7  9  2  0
  7 12  4  0
  9 10  4  0
  9 12  4  0
  9 13  3  0
  9 14  4  0
 10 12  4  0
 11 14  4  0
 11 16  4  0
 13 14  3  0
 15 16  4  0
M  END
$$$$

 Created by Python create_sdf_string function

 23 22  0  0  0  0  0  0  0  0999 V2000
    2.6776   -6.0859   29.2254 C   0  0  0  0  0  0  0  0  0  0  0  0
    4.6976   -5.2210   28.0756 C   0  0  0  0  0  0  0  0  0  0  0  0
    3.3657   -5.6117   28.0917 C   0  0  0  0  0  0  0  0  0  0  0  0
   -2.0532  -12.3550   19.2071 C   0  0  0  0  0  0  0  0  0  0  0  0
    6.8443   -4.7356   29.1976 C   0  0  0  0  0  0  0  0  0  0  0  0
    5.5133   -5.0229   26.9753 C   0  0  0  0  0  0  0  0  0  0  0  0
    1.4675   -6.6950   29.1680 C   0  0  0  0  0  0  0  0  0  0  0  0
   -0.1970   -8.8924   16.8139 C   0  0  0  0  0  0  0  0  0  0  0  0
    0.4536  -10.9031   17.3634 C   0  0  0  0  0  0  0  0  0  0  0  0
    0.8746   -9.6151   16.6680 C   0  0  0  0  0  0  0  0  0  0  0  0
   -0.8027  -10.9775   18.0465 C   0  0  0  0  0  0  0  0  0  0  0  0
    0.8805   -6.8060   27.9529 C   0  0  0  0  0  0  0  0  0  0  0  0
   -1.1566   -8.8547   17.5954 C   0  0  0  0  0  0  0  0  0  0  0  0
   -0.2499   -8.2244   16.3095 C   0  0  0  0  0  0  0  0  0  0  0  0
    6.7624   -4.8438   26.8387 C   0  0  0  0  0  0  0  0  0  0  0  0
    5.5229   -4.9266   29.2438 C   0  0  0  0  0  0  0  0  0  0  0  0
   -1.7455  -13.0179   19.0671 N   0  0  0  0  0  0  0  0  0  0  0  0
    1.3257   -6.3195   26.8273 C   0  0  0  0  0  0  0  0  0  0  0  0
   -1.5078  -12.6783   18.9043 C   0  0  0  0  0  0  0  0  0  0  0  0
   -0.1107  -13.2026   18.3343 O   0  0  0  0  0  0  0  0  0  0  0  0
   -1.5892  -10.1653   18.2422 C   0  0  0  0  0  0  0  0  0  0  0  0
    2.5586   -5.7056   26.9048 C   0  0  0  0  0  0  0  0  0  0  0  0
    7.4591   -4.7941   27.9875 C   0  0  0  0  0  0  0  0  0  0  0  0
  1  3  4  0
  1  7  4  0
  2  3  1  0
  2  6  4  0
  2 16  4  0
  3 22  4  0
  4 19  2  0
  5 16  4  0
  5 23  4  0
  6 15  4  0
  7 12  4  0
  8 10  4  0
  8 13  4  0
  8 14  1  0
  9 10  4  0
  9 11  4  0
 11 21  4  0
 12 18  4  0
 13 21  4  0
 15 23  4  0
 17 19  1  0
 18 22  4  0
M  END
$$$$

 Created by Python create_sdf_string function

 23 35  0  0  0  0  0  0  0  0999 V2000
    4.8675   -5.5693   27.5901 C   0  0  0  0  0  0  0  0  0  0  0  0
    3.6216   -5.4437   28.2374 C   0  0  0  0  0  0  0  0  0  0  0  0
   -1.9135  -12.7021   18.3473 C   0  0  0  0  0  0  0  0  0  0  0  0
    6.3992   -4.9063   28.6287 C   0  0  0  0  0  0  0  0  0  0  0  0
    5.9520   -5.0838   26.2910 C   0  0  0  0  0  0  0  0  0  0  0  0
    0.3696   -8.7383   17.1623 C   0  0  0  0  0  0  0  0  0  0  0  0
    0.4038  -10.8997   18.4804 C   0  0  0  0  0  0  0  0  0  0  0  0
    0.6654  -10.1156   16.3213 C   0  0  0  0  0  0  0  0  0  0  0  0
   -0.7387  -10.9791   18.4714 C   0  0  0  0  0  0  0  0  0  0  0  0
    0.7024   -7.1187   28.7772 C   0  0  0  0  0  0  0  0  0  0  0  0
   -0.7877   -8.4734   17.6016 C   0  0  0  0  0  0  0  0  0  0  0  0
   -0.3809   -7.9616   16.7746 C   0  0  0  0  0  0  0  0  0  0  0  0
    6.7686   -5.0121   27.0696 C   0  0  0  0  0  0  0  0  0  0  0  0
    5.6887   -5.7451   28.9170 C   0  0  0  0  0  0  0  0  0  0  0  0
    1.1101   -6.7522   26.5137 C   0  0  0  0  0  0  0  0  0  0  0  0
   -1.2383  -12.3465   19.7586 C   0  0  0  0  0  0  0  0  0  0  0  0
    0.5394  -13.2767   17.4625 O   0  0  0  0  0  0  0  0  0  0  0  0
   -1.3270  -10.0526   17.9216 F   0  0  0  0  0  0  0  0  0  0  0  0
    2.4098   -5.5859   28.2390 He  0  0  0  0  0  0  0  0  0  0  0  0
    1.3071   -7.2114   29.1476 He  0  0  0  0  0  0  0  0  0  0  0  0
   -1.4930  -12.5195   19.0473 He  0  0  0  0  0  0  0  0  0  0  0  0
    2.6318   -5.6371   26.7650 He  0  0  0  0  0  0  0  0  0  0  0  0
    8.3045   -3.9502   28.1159 He  0  0  0  0  0  0  0  0  0  0  0  0
  1  2  1  0
  1  5  4  0
  1 14  2  0
  1 16  2  0
  2  7  2  0
  2 10  1  0
  2 13  2  0
  2 18  2  0
  3  9  1  0
  3 16  2  0
  4 11  4  0
  4 12  1  0
  4 14  4  0
  4 16  2  0
  4 18  1  0
  6  7  4  0
  6  8  4  0
  6 11  4  0
  6 12  1  0
  6 13  1  0
  6 15  3  0
  7  8  4  0
  7  9  3  0
  7 12  4  0
  8 10  2  0
  8 11  3  0
  8 15  2  0
  8 17  4  0
  9 10  1  0
  9 16  4  0
  9 18  4  0
 10 12  1  0
 11 16  4  0
 11 18  4  0
 17 18  2  0
M  END
$$$$

 Created by Python create_sdf_string function

 23 24  0  0  0  0  0  0  0  0999 V2000
    2.6730   -6.0068   28.8434 C   0  0  0  0  0  0  0  0  0  0  0  0
    4.7811   -5.4116   27.7921 C   0  0  0  0  0  0  0  0  0  0  0  0
    3.4205   -5.7510   27.7395 C   0  0  0  0  0  0  0  0  0  0  0  0
   -1.1866  -12.7417   18.4815 C   0  0  0  0  0  0  0  0  0  0  0  0
    6.8794   -4.8778   29.1384 C   0  0  0  0  0  0  0  0  0  0  0  0
    5.6154   -5.1788   26.7982 C   0  0  0  0  0  0  0  0  0  0  0  0
    1.6013   -6.6592   28.9515 C   0  0  0  0  0  0  0  0  0  0  0  0
    0.0476   -8.6952   16.9649 C   0  0  0  0  0  0  0  0  0  0  0  0
    0.4419  -10.9342   17.6094 C   0  0  0  0  0  0  0  0  0  0  0  0
    0.8612   -9.8031   17.0137 C   0  0  0  0  0  0  0  0  0  0  0  0
   -0.7665  -10.9153   18.2035 C   0  0  0  0  0  0  0  0  0  0  0  0
    1.0062   -6.9391   28.1323 C   0  0  0  0  0  0  0  0  0  0  0  0
   -1.1639   -8.7304   17.6853 C   0  0  0  0  0  0  0  0  0  0  0  0
    0.1674   -7.6283   16.3341 C   0  0  0  0  0  0  0  0  0  0  0  0
    6.9428   -4.7029   26.8318 C   0  0  0  0  0  0  0  0  0  0  0  0
    5.5510   -5.2347   29.0990 C   0  0  0  0  0  0  0  0  0  0  0  0
   -1.9830  -12.7274   19.0112 N   0  0  0  0  0  0  0  0  0  0  0  0
    1.2543   -6.4920   26.8332 C   0  0  0  0  0  0  0  0  0  0  0  0
   -1.4206  -12.5149   19.0608 C   0  0  0  0  0  0  0  0  0  0  0  0
    0.0947  -13.3806   17.7753 O   0  0  0  0  0  0  0  0  0  0  0  0
   -1.5048   -9.9422   18.3356 C   0  0  0  0  0  0  0  0  0  0  0  0
    2.5734   -5.8803   26.6886 C   0  0  0  0  0  0  0  0  0  0  0  0
    7.5135   -4.6170   28.0641 C   0  0  0  0  0  0  0  0  0  0  0  0
  1  3  4  0
  1  7  4  0
  2  3  1  0
  2  6  4  0
  2 16  4  0
  3 22  4  0
  4 17  1  0
  4 19  2  0
  4 20  2  0
  5 16  4  0
  5 23  4  0
  6 15  4  0
  7 12  4  0
  8 10  4  0
  8 13  4  0
  8 14  1  0
  9 10  4  0
  9 11  4  0
 11 21  4  0
 12 18  4  0
 13 21  4  0
 15 23  4  0
 17 19  1  0
 18 22  4  0
M  END
$$$$

 Created by Python create_sdf_string function

 23 32  0  0  0  0  0  0  0  0999 V2000
    2.1980   -5.6570   28.8879 N   0  0  0  0  0  0  0  0  0  0  0  0
   -1.0462  -12.4730   18.3371 C   0  0  0  0  0  0  0  0  0  0  0  0
    6.0692   -5.0325   28.5603 C   0  0  0  0  0  0  0  0  0  0  0  0
    5.2626   -5.8016   27.3327 C   0  0  0  0  0  0  0  0  0  0  0  0
    1.7766   -7.0560   29.0801 C   0  0  0  0  0  0  0  0  0  0  0  0
   -1.0682   -7.1416   16.3035 C   0  0  0  0  0  0  0  0  0  0  0  0
    1.0731  -10.5782   16.5469 F   0  0  0  0  0  0  0  0  0  0  0  0
    1.2931  -10.6587   16.2813 C   0  0  0  0  0  0  0  0  0  0  0  0
    0.1960  -10.3490   17.6709 C   0  0  0  0  0  0  0  0  0  0  0  0
    1.2347   -6.7827   28.3964 C   0  0  0  0  0  0  0  0  0  0  0  0
   -0.1457   -7.9592   16.3475 N   0  0  0  0  0  0  0  0  0  0  0  0
    6.8788   -4.2544   27.0093 C   0  0  0  0  0  0  0  0  0  0  0  0
    5.3005   -6.3032   28.5597 C   0  0  0  0  0  0  0  0  0  0  0  0
   -2.0584  -13.1950   18.9380 N   0  0  0  0  0  0  0  0  0  0  0  0
    0.8049   -6.3352   27.1544 C   0  0  0  0  0  0  0  0  0  0  0  0
    2.5597   -6.2921   26.5690 C   0  0  0  0  0  0  0  0  0  0  0  0
    4.2727   -5.4881   27.8610 He  0  0  0  0  0  0  0  0  0  0  0  0
    3.4705   -4.7998   28.1829 He  0  0  0  0  0  0  0  0  0  0  0  0
   -1.5662   -9.2423   18.5644 He  0  0  0  0  0  0  0  0  0  0  0  0
   -1.4484  -11.9377   18.6421 He  0  0  0  0  0  0  0  0  0  0  0  0
    1.2852  -13.9662   18.0499 He  0  0  0  0  0  0  0  0  0  0  0  0
   -0.8564   -9.9152   17.9650 He  0  0  0  0  0  0  0  0  0  0  0  0
    7.0583   -3.8643   28.4075 He  0  0  0  0  0  0  0  0  0  0  0  0
  1  2  2  0
  1  5  1  0
  1  6  2  0
  1  7  1  0
  1 10  3  0
  1 13  4  0
  1 14  1  0
  2 14  1  0
  3  5  1  0
  3 11  2  0
  3 13  4  0
  4  9  1  0
  4 12  1  0
  4 15  4  0
  5  9  4  0
  5 10  4  0
  6  8  4  0
  6 11  1  0
  6 16  3  0
  7  8  1  0
  7  9  4  0
  8 14  3  0
 10 12  4  0
 10 15  4  0
 11 12  3  0
 11 13  2  0
 11 14  4  0
 12 13  2  0
 12 15  2  0
 13 15  1  0
 14 16  2  0
 15 16  2  0
M  END
$$$$

 Created by Python create_sdf_string function

 23 23  0  0  0  0  0  0  0  0999 V2000
    2.5539   -6.0563   29.1012 C   0  0  0  0  0  0  0  0  0  0  0  0
    4.5437   -5.5429   27.8952 C   0  0  0  0  0  0  0  0  0  0  0  0
    3.2433   -5.8279   27.8819 C   0  0  0  0  0  0  0  0  0  0  0  0
   -0.6796  -12.3815   18.3817 C   0  0  0  0  0  0  0  0  0  0  0  0
    6.6018   -4.9586   29.1440 C   0  0  0  0  0  0  0  0  0  0  0  0
    5.3058   -5.1120   26.8878 C   0  0  0  0  0  0  0  0  0  0  0  0
    1.3701   -6.5699   29.1873 C   0  0  0  0  0  0  0  0  0  0  0  0
   -0.7587   -7.8108   16.9397 C   0  0  0  0  0  0  0  0  0  0  0  0
    0.5630  -10.4371   16.9197 C   0  0  0  0  0  0  0  0  0  0  0  0
    1.1376  -10.5533   16.5323 C   0  0  0  0  0  0  0  0  0  0  0  0
   -0.1933  -10.6052   17.5366 C   0  0  0  0  0  0  0  0  0  0  0  0
    0.6812   -6.8615   28.1185 C   0  0  0  0  0  0  0  0  0  0  0  0
   -1.4757   -8.9429   18.1260 C   0  0  0  0  0  0  0  0  0  0  0  0
   -0.1601   -8.4450   16.6807 C   0  0  0  0  0  0  0  0  0  0  0  0
    6.6204   -4.5707   26.8969 C   0  0  0  0  0  0  0  0  0  0  0  0
    5.2852   -5.4712   29.0833 C   0  0  0  0  0  0  0  0  0  0  0  0
   -1.6432  -13.2801   18.9933 N   0  0  0  0  0  0  0  0  0  0  0  0
    1.0304   -6.5176   26.9367 C   0  0  0  0  0  0  0  0  0  0  0  0
   -1.5329  -11.8213   18.9068 N   0  0  0  0  0  0  0  0  0  0  0  0
    0.4319  -12.8924   17.9186 O   0  0  0  0  0  0  0  0  0  0  0  0
   -1.0325  -10.0395   18.1153 C   0  0  0  0  0  0  0  0  0  0  0  0
    2.3288   -5.9650   26.7344 C   0  0  0  0  0  0  0  0  0  0  0  0
    7.1597   -4.5051   28.0932 C   0  0  0  0  0  0  0  0  0  0  0  0
  1  3  4  0
  1  7  4  0
  2  3  1  0
  2  6  4  0
  2 16  4  0
  3 22  4  0
  4 17  1  0
  4 19  4  0
  4 20  1  0
  5 16  4  0
  5 23  4  0
  6 15  4  0
  7 12  4  0
  8 13  4  0
  8 14  4  0
  9 10  1  0
  9 11  4  0
  9 14  4  0
 11 21  4  0
 12 18  4  0
 13 21  4  0
 15 23  4  0
 18 22  4  0
M  END
$$$$

 Created by Python create_sdf_string function

 23 34  0  0  0  0  0  0  0  0999 V2000
    2.2453   -6.0622   29.3010 C   0  0  0  0  0  0  0  0  0  0  0  0
    3.3126   -6.2734   27.0370 C   0  0  0  0  0  0  0  0  0  0  0  0
   -0.9206  -12.3240   18.6618 C   0  0  0  0  0  0  0  0  0  0  0  0
    4.9099   -5.7342   27.0718 C   0  0  0  0  0  0  0  0  0  0  0  0
    1.5010   -6.5769   29.3616 C   0  0  0  0  0  0  0  0  0  0  0  0
   -0.4313   -6.6723   17.5515 C   0  0  0  0  0  0  0  0  0  0  0  0
    1.9408  -11.0268   15.5797 C   0  0  0  0  0  0  0  0  0  0  0  0
    0.6242   -6.9941   27.9589 C   0  0  0  0  0  0  0  0  0  0  0  0
   -1.6329   -8.9097   17.5356 C   0  0  0  0  0  0  0  0  0  0  0  0
    5.9853   -4.8088   26.3828 C   0  0  0  0  0  0  0  0  0  0  0  0
    5.7399   -5.2740   28.8671 C   0  0  0  0  0  0  0  0  0  0  0  0
   -1.0694  -13.7079   18.1171 N   0  0  0  0  0  0  0  0  0  0  0  0
    0.8533   -7.3522   26.6440 C   0  0  0  0  0  0  0  0  0  0  0  0
   -2.4773  -11.8931   18.5931 N   0  0  0  0  0  0  0  0  0  0  0  0
    0.7468  -13.0739   17.7262 O   0  0  0  0  0  0  0  0  0  0  0  0
   -1.4800   -9.5468   17.5013 C   0  0  0  0  0  0  0  0  0  0  0  0
    2.9884   -5.5253   26.8822 C   0  0  0  0  0  0  0  0  0  0  0  0
    7.6099   -4.8207   28.5435 C   0  0  0  0  0  0  0  0  0  0  0  0
    4.4603   -4.8319   28.5958 He  0  0  0  0  0  0  0  0  0  0  0  0
    5.8869   -4.7184   28.8825 He  0  0  0  0  0  0  0  0  0  0  0  0
    0.8710  -10.8707   15.9217 He  0  0  0  0  0  0  0  0  0  0  0  0
   -0.3020  -10.1859   17.5399 He  0  0  0  0  0  0  0  0  0  0  0  0
   -0.0524   -9.2609   16.3312 He  0  0  0  0  0  0  0  0  0  0  0  0
  1  3  1  0
  1  5  4  0
  1 10  1  0
  1 18  4  0
  2  6  2  0
  2 10  2  0
  2 11  3  0
  3 10  2  0
  3 12  1  0
  3 14  4  0
  4  9  1  0
  4 10  4  0
  4 12  2  0
  5  8  4  0
  5 14  2  0
  6  9  4  0
  6 12  2  0
  7 12  4  0
  8 13  2  0
  8 17  2  0
  9 11  3  0
  9 17  1  0
 10 15  3  0
 10 16  3  0
 10 18  1  0
 11 13  1  0
 11 16  4  0
 12 16  2  0
 12 17  3  0
 13 14  1  0
 13 17  4  0
 14 16  2  0
 15 17  4  0
 17 18  1  0
M  END
$$$$

 Created by Python create_sdf_string function

 23 25  0  0  0  0  0  0  0  0999 V2000
    2.4153   -6.1185   29.1942 C   0  0  0  0  0  0  0  0  0  0  0  0
    4.4283   -5.4630   27.9826 C   0  0  0  0  0  0  0  0  0  0  0  0
    3.1461   -5.9005   27.9864 C   0  0  0  0  0  0  0  0  0  0  0  0
   -0.9628  -12.4353   18.2183 C   0  0  0  0  0  0  0  0  0  0  0  0
    6.4642   -4.7564   29.1577 C   0  0  0  0  0  0  0  0  0  0  0  0
    5.3038   -5.3275   26.8762 C   0  0  0  0  0  0  0  0  0  0  0  0
    1.1084   -6.6859   29.1942 C   0  0  0  0  0  0  0  0  0  0  0  0
   -0.6984   -7.9948   17.1151 C   0  0  0  0  0  0  0  0  0  0  0  0
    0.5173  -10.7867   16.8058 C   0  0  0  0  0  0  0  0  0  0  0  0
    1.6935  -10.9406   15.7490 C   0  0  0  0  0  0  0  0  0  0  0  0
   -0.1507  -10.2133   17.1591 C   0  0  0  0  0  0  0  0  0  0  0  0
    0.6125   -6.9823   28.0356 C   0  0  0  0  0  0  0  0  0  0  0  0
   -1.5641   -8.7143   17.8892 C   0  0  0  0  0  0  0  0  0  0  0  0
    0.3026   -8.7587   16.5204 C   0  0  0  0  0  0  0  0  0  0  0  0
    6.5736   -4.9279   26.8595 C   0  0  0  0  0  0  0  0  0  0  0  0
    5.2186   -5.1197   29.1756 C   0  0  0  0  0  0  0  0  0  0  0  0
   -1.2505  -13.6852   18.6439 N   0  0  0  0  0  0  0  0  0  0  0  0
    1.1320   -6.7803   26.8462 C   0  0  0  0  0  0  0  0  0  0  0  0
   -1.8093  -11.3985   18.5322 N   0  0  0  0  0  0  0  0  0  0  0  0
    0.1745  -12.2866   17.5025 N   0  0  0  0  0  0  0  0  0  0  0  0
   -1.2194  -10.0956   17.8951 C   0  0  0  0  0  0  0  0  0  0  0  0
    2.4859   -6.2066   26.7914 C   0  0  0  0  0  0  0  0  0  0  0  0
    7.1048   -4.6509   28.0610 C   0  0  0  0  0  0  0  0  0  0  0  0
  1  3  4  0
  1  7  4  0
  2  3  1  0
  2  6  4  0
  2 16  4  0
  3 22  4  0
  4 17  1  0
  4 19  4  0
  4 20  4  0
  5 16  4  0
  5 23  4  0
  6 15  4  0
  7 12  4  0
  8 13  4  0
  8 14  4  0
  9 10  1  0
  9 11  4  0
  9 20  4  0
 11 14  4  0
 11 21  4  0
 12 18  4  0
 13 21  4  0
 15 23  4  0
 18 22  4  0
 19 21  4  0
M  END
$$$$

 Created by Python create_sdf_string function

 23 29  0  0  0  0  0  0  0  0999 V2000
    2.6311   -6.3571   28.8086 Br  0  0  0  0  0  0  0  0  0  0  0  0
    4.4263   -5.1619   27.8094 C   0  0  0  0  0  0  0  0  0  0  0  0
   -0.7892  -12.2091   17.6443 C   0  0  0  0  0  0  0  0  0  0  0  0
    6.1490   -4.9699   29.6276 P   0  0  0  0  0  0  0  0  0  0  0  0
    5.3253   -6.1118   26.4196 C   0  0  0  0  0  0  0  0  0  0  0  0
   -0.3082   -6.0075   29.0495 C   0  0  0  0  0  0  0  0  0  0  0  0
   -0.7192   -8.7103   16.6649 N   0  0  0  0  0  0  0  0  0  0  0  0
    1.4566  -11.4063   15.4273 S   0  0  0  0  0  0  0  0  0  0  0  0
    1.2456   -7.0823   28.6975 C   0  0  0  0  0  0  0  0  0  0  0  0
    6.5252   -4.0240   27.4502 P   0  0  0  0  0  0  0  0  0  0  0  0
    5.1308   -4.4866   29.3327 C   0  0  0  0  0  0  0  0  0  0  0  0
    0.2435   -7.1652   27.1277 C   0  0  0  0  0  0  0  0  0  0  0  0
    0.8006  -12.1331   16.8935 N   0  0  0  0  0  0  0  0  0  0  0  0
   -1.0573  -10.7914   17.4128 O   0  0  0  0  0  0  0  0  0  0  0  0
    2.6614   -6.2191   27.5518 C   0  0  0  0  0  0  0  0  0  0  0  0
    6.9936   -4.2553   27.7488 N   0  0  0  0  0  0  0  0  0  0  0  0
    3.5474   -5.7378   28.1770 He  0  0  0  0  0  0  0  0  0  0  0  0
    0.8228  -10.4186   16.7176 He  0  0  0  0  0  0  0  0  0  0  0  0
    0.4094  -10.2789   16.9152 He  0  0  0  0  0  0  0  0  0  0  0  0
   -1.5640   -8.5842   17.6328 He  0  0  0  0  0  0  0  0  0  0  0  0
    0.2410   -8.7187   16.2333 He  0  0  0  0  0  0  0  0  0  0  0  0
   -1.7159  -14.0867   18.0370 He  0  0  0  0  0  0  0  0  0  0  0  0
   -1.3374  -11.3031   18.4951 He  0  0  0  0  0  0  0  0  0  0  0  0
  1  4  3  0
  1  6  4  0
  2  5  2  0
  2  9  2  0
  2 11  4  0
  2 13  1  0
  2 14  2  0
  3 13  4  0
  4  7  1  0
  4  8  3  0
  4 16  4  0
  5  6  3  0
  5 10  3  0
  5 13  1  0
  5 15  4  0
  6  9  2  0
  8  9  1  0
  8 10  3  0
  8 14  1  0
  9 10  1  0
  9 12  4  0
  9 13  3  0
  9 16  1  0
 10 16  4  0
 11 12  4  0
 11 14  4  0
 11 16  4  0
 12 15  4  0
 13 16  3  0
M  END
$$$$

 Created by Python create_sdf_string function

 23 25  0  0  0  0  0  0  0  0999 V2000
    2.2922   -5.7324   29.1930 C   0  0  0  0  0  0  0  0  0  0  0  0
    4.3825   -5.4384   28.0676 C   0  0  0  0  0  0  0  0  0  0  0  0
    3.1394   -5.8758   28.0479 C   0  0  0  0  0  0  0  0  0  0  0  0
   -0.7698  -12.5467   17.8742 C   0  0  0  0  0  0  0  0  0  0  0  0
    6.2694   -4.4028   29.2403 C   0  0  0  0  0  0  0  0  0  0  0  0
    5.2272   -5.3267   27.0045 C   0  0  0  0  0  0  0  0  0  0  0  0
    0.9773   -6.2357   29.2467 C   0  0  0  0  0  0  0  0  0  0  0  0
   -0.7627   -8.1311   17.0090 N   0  0  0  0  0  0  0  0  0  0  0  0
    0.7003  -11.2002   16.4972 C   0  0  0  0  0  0  0  0  0  0  0  0
    1.8052  -11.1349   15.6327 N   0  0  0  0  0  0  0  0  0  0  0  0
    0.0396  -10.0929   16.8475 C   0  0  0  0  0  0  0  0  0  0  0  0
    0.4882   -6.7245   28.1461 C   0  0  0  0  0  0  0  0  0  0  0  0
   -1.5467   -8.9700   17.7746 N   0  0  0  0  0  0  0  0  0  0  0  0
    0.1829   -8.8479   16.4392 N   0  0  0  0  0  0  0  0  0  0  0  0
    6.5449   -4.7828   27.0091 C   0  0  0  0  0  0  0  0  0  0  0  0
    5.0606   -5.0080   29.3078 C   0  0  0  0  0  0  0  0  0  0  0  0
   -1.2603  -13.7695   18.2519 C   0  0  0  0  0  0  0  0  0  0  0  0
    1.1522   -6.9622   27.0174 C   0  0  0  0  0  0  0  0  0  0  0  0
   -1.3713  -11.4006   18.3289 N   0  0  0  0  0  0  0  0  0  0  0  0
    0.2719  -12.3975   17.0524 N   0  0  0  0  0  0  0  0  0  0  0  0
   -0.9910  -10.2166   17.7168 C   0  0  0  0  0  0  0  0  0  0  0  0
    2.5621   -6.5034   26.9721 C   0  0  0  0  0  0  0  0  0  0  0  0
    6.9509   -4.3454   28.1248 C   0  0  0  0  0  0  0  0  0  0  0  0
  1  3  4  0
  1  7  4  0
  2  3  1  0
  2  6  4  0
  2 16  4  0
  3 22  4  0
  4 17  1  0
  4 19  4  0
  4 20  4  0
  5 16  4  0
  5 23  4  0
  6 15  4  0
  7 12  4  0
  8 13  4  0
  8 14  4  0
  9 10  1  0
  9 11  4  0
  9 20  4  0
 11 14  4  0
 11 21  4  0
 12 18  4  0
 13 21  4  0
 15 23  4  0
 18 22  4  0
 19 21  4  0
M  END
$$$$

 Created by Python create_sdf_string function

 23 33  0  0  0  0  0  0  0  0999 V2000
    4.1992   -5.0537   28.1512 C   0  0  0  0  0  0  0  0  0  0  0  0
   -0.3803  -11.6059   17.0693 C   0  0  0  0  0  0  0  0  0  0  0  0
    6.1866   -4.3024   28.9217 F   0  0  0  0  0  0  0  0  0  0  0  0
    4.5197   -5.4597   27.2129 C   0  0  0  0  0  0  0  0  0  0  0  0
    1.1496   -4.9952   29.4797 C   0  0  0  0  0  0  0  0  0  0  0  0
   -0.4573   -8.5479   17.4087 N   0  0  0  0  0  0  0  0  0  0  0  0
   -0.2824  -11.2933   16.4281 C   0  0  0  0  0  0  0  0  0  0  0  0
    2.1601  -11.7070   15.2725 N   0  0  0  0  0  0  0  0  0  0  0  0
    0.0902  -10.4569   17.6597 C   0  0  0  0  0  0  0  0  0  0  0  0
    0.2262   -6.6412   27.9874 C   0  0  0  0  0  0  0  0  0  0  0  0
   -1.5556   -8.7192   17.6987 N   0  0  0  0  0  0  0  0  0  0  0  0
    6.5650   -4.0730   27.6544 C   0  0  0  0  0  0  0  0  0  0  0  0
    5.2373   -5.2387   29.5854 C   0  0  0  0  0  0  0  0  0  0  0  0
   -0.6402  -13.3805   18.7028 C   0  0  0  0  0  0  0  0  0  0  0  0
    0.8105   -7.0538   27.6399 C   0  0  0  0  0  0  0  0  0  0  0  0
    0.4391  -12.8600   17.1607 N   0  0  0  0  0  0  0  0  0  0  0  0
   -1.1060  -10.9989   17.6154 C   0  0  0  0  0  0  0  0  0  0  0  0
    7.7807   -4.2867   28.2243 C   0  0  0  0  0  0  0  0  0  0  0  0
    2.2431   -6.5084   29.0915 He  0  0  0  0  0  0  0  0  0  0  0  0
    2.5796   -5.9766   28.2164 He  0  0  0  0  0  0  0  0  0  0  0  0
    0.3667   -8.4349   16.7659 He  0  0  0  0  0  0  0  0  0  0  0  0
   -1.2071  -11.1125   18.6370 He  0  0  0  0  0  0  0  0  0  0  0  0
    2.4372   -6.0926   27.2040 He  0  0  0  0  0  0  0  0  0  0  0  0
  1  2  3  0
  1 12  3  0
  2 10  1  0
  2 16  4  0
  3  4  2  0
  3  8  1  0
  3 10  4  0
  3 18  4  0
  4  6  2  0
  4  7  1  0
  4 10  2  0
  5 10  4  0
  5 16  3  0
  6  7  4  0
  6 11  4  0
  6 18  2  0
  7  8  1  0
  7 16  3  0
  8 12  3  0
  9 11  4  0
 10 13  3  0
 10 15  4  0
 10 17  4  0
 11 12  4  0
 11 13  2  0
 11 18  3  0
 12 13  4  0
 12 18  4  0
 13 14  1  0
 13 15  4  0
 14 16  4  0
 14 17  1  0
 15 17  4  0
M  END
$$$$

 Created by Python create_sdf_string function

 23 25  0  0  0  0  0  0  0  0999 V2000
    2.2238   -5.4651   29.3626 C   0  0  0  0  0  0  0  0  0  0  0  0
    4.3672   -5.2982   28.2327 C   0  0  0  0  0  0  0  0  0  0  0  0
    3.0574   -5.7325   28.2156 C   0  0  0  0  0  0  0  0  0  0  0  0
    0.4241  -12.2406   16.9458 C   0  0  0  0  0  0  0  0  0  0  0  0
    6.3523   -4.5813   29.3459 C   0  0  0  0  0  0  0  0  0  0  0  0
    5.0808   -5.0676   27.0629 C   0  0  0  0  0  0  0  0  0  0  0  0
    0.9100   -5.8523   29.3252 C   0  0  0  0  0  0  0  0  0  0  0  0
   -0.5799   -8.2349   17.4656 N   0  0  0  0  0  0  0  0  0  0  0  0
    0.8266  -11.1650   16.2860 C   0  0  0  0  0  0  0  0  0  0  0  0
    1.5242  -11.4144   15.4449 N   0  0  0  0  0  0  0  0  0  0  0  0
    0.2179  -10.0947   16.8865 C   0  0  0  0  0  0  0  0  0  0  0  0
    0.3726   -6.4021   28.1998 C   0  0  0  0  0  0  0  0  0  0  0  0
   -1.2724   -9.0902   18.1341 N   0  0  0  0  0  0  0  0  0  0  0  0
    0.3495   -8.8679   16.6880 N   0  0  0  0  0  0  0  0  0  0  0  0
    6.3781   -4.5731   27.0083 C   0  0  0  0  0  0  0  0  0  0  0  0
    5.1347   -5.0524   29.4787 C   0  0  0  0  0  0  0  0  0  0  0  0
   -1.0277  -12.8535   18.5542 C   0  0  0  0  0  0  0  0  0  0  0  0
    1.0645   -6.6599   27.1304 C   0  0  0  0  0  0  0  0  0  0  0  0
   -1.3161  -11.3752   18.5479 N   0  0  0  0  0  0  0  0  0  0  0  0
    0.0881  -12.8870   17.3618 N   0  0  0  0  0  0  0  0  0  0  0  0
   -0.8100  -10.4286   17.9075 C   0  0  0  0  0  0  0  0  0  0  0  0
    2.4622   -6.3525   27.1183 C   0  0  0  0  0  0  0  0  0  0  0  0
    6.9809   -4.3414   28.2018 C   0  0  0  0  0  0  0  0  0  0  0  0
  1  3  4  0
  1  7  4  0
  2  3  1  0
  2  6  4  0
  2 16  4  0
  3 22  4  0
  4  9  4  0
  4 20  4  0
  5 16  4  0
  5 23  4  0
  6 15  4  0
  7 12  4  0
  8 13  4  0
  8 14  4  0
  9 10  1  0
  9 11  4  0
 11 14  4  0
 11 21  4  0
 12 18  4  0
 13 21  4  0
 15 23  4  0
 17 19  4  0
 17 20  4  0
 18 22  4  0
 19 21  4  0
M  END
$$$$

 Created by Python create_sdf_string function

 23 21  0  0  0  0  0  0  0  0999 V2000
    4.0319   -5.1840   28.5743 C   0  0  0  0  0  0  0  0  0  0  0  0
    3.0119   -5.6970   27.8992 S   0  0  0  0  0  0  0  0  0  0  0  0
    0.3588  -11.9642   16.6979 C   0  0  0  0  0  0  0  0  0  0  0  0
    6.5077   -4.1909   29.1811 N   0  0  0  0  0  0  0  0  0  0  0  0
    1.1950   -5.5177   29.2238 C   0  0  0  0  0  0  0  0  0  0  0  0
   -0.6068   -8.2243   17.1805 N   0  0  0  0  0  0  0  0  0  0  0  0
   -0.1587  -11.6618   16.9633 F   0  0  0  0  0  0  0  0  0  0  0  0
    1.3906  -12.1531   15.3573 C   0  0  0  0  0  0  0  0  0  0  0  0
    0.1727  -10.3124   16.2646 C   0  0  0  0  0  0  0  0  0  0  0  0
    0.5882   -9.0056   16.8783 N   0  0  0  0  0  0  0  0  0  0  0  0
    4.9702   -4.5721   29.8923 C   0  0  0  0  0  0  0  0  0  0  0  0
   -1.2551  -13.3797   18.6462 N   0  0  0  0  0  0  0  0  0  0  0  0
    1.1056   -7.1229   27.1568 N   0  0  0  0  0  0  0  0  0  0  0  0
   -1.1102  -11.1534   18.4506 N   0  0  0  0  0  0  0  0  0  0  0  0
    0.7427  -13.5367   17.2732 N   0  0  0  0  0  0  0  0  0  0  0  0
    1.9171   -5.6162   28.9263 He  0  0  0  0  0  0  0  0  0  0  0  0
    5.0041   -5.2372   27.1444 He  0  0  0  0  0  0  0  0  0  0  0  0
    1.1511   -6.9021   27.6884 He  0  0  0  0  0  0  0  0  0  0  0  0
   -1.2501   -8.6530   18.3056 He  0  0  0  0  0  0  0  0  0  0  0  0
    6.2987   -4.8951   27.3344 He  0  0  0  0  0  0  0  0  0  0  0  0
   -0.4719   -9.9785   18.2928 He  0  0  0  0  0  0  0  0  0  0  0  0
    2.4543   -6.5281   27.3434 He  0  0  0  0  0  0  0  0  0  0  0  0
    7.1716   -3.8447   28.4405 He  0  0  0  0  0  0  0  0  0  0  0  0
  1  2  4  0
  1 11  3  0
  1 12  2  0
  1 14  1  0
  2 13  1  0
  3  7  4  0
  3  8  4  0
  3 15  1  0
  4  9  3  0
  4 11  4  0
  6 10  4  0
  6 13  3  0
  7  9  4  0
  7 11  2  0
  7 13  4  0
  8  9  1  0
  9 10  4  0
 10 13  3  0
 11 14  3  0
 12 14  4  0
 12 15  4  0
M  END
$$$$

 Created by Python create_sdf_string function

 23 25  0  0  0  0  0  0  0  0999 V2000
    2.1294   -5.3960   29.1893 C   0  0  0  0  0  0  0  0  0  0  0  0
    4.4175   -5.2078   28.2403 C   0  0  0  0  0  0  0  0  0  0  0  0
    3.1129   -5.6885   28.1639 C   0  0  0  0  0  0  0  0  0  0  0  0
    0.4725  -12.2478   16.6562 C   0  0  0  0  0  0  0  0  0  0  0  0
    6.2047   -4.1199   29.4892 C   0  0  0  0  0  0  0  0  0  0  0  0
    5.3090   -5.2371   27.1192 C   0  0  0  0  0  0  0  0  0  0  0  0
    0.8892   -5.9513   29.0336 C   0  0  0  0  0  0  0  0  0  0  0  0
   -0.4771   -8.1129   17.4218 N   0  0  0  0  0  0  0  0  0  0  0  0
    0.1456  -11.3935   17.0995 C   0  0  0  0  0  0  0  0  0  0  0  0
    1.3236  -12.1684   15.5628 C   0  0  0  0  0  0  0  0  0  0  0  0
    0.1327  -10.0998   16.9338 C   0  0  0  0  0  0  0  0  0  0  0  0
    0.6154   -6.7116   27.9585 C   0  0  0  0  0  0  0  0  0  0  0  0
   -1.1873   -8.8448   18.3810 C   0  0  0  0  0  0  0  0  0  0  0  0
    0.2210   -8.8545   16.5634 N   0  0  0  0  0  0  0  0  0  0  0  0
    6.5521   -4.6693   27.2201 C   0  0  0  0  0  0  0  0  0  0  0  0
    4.9659   -4.5886   29.4734 C   0  0  0  0  0  0  0  0  0  0  0  0
   -0.6797  -13.0774   18.4617 N   0  0  0  0  0  0  0  0  0  0  0  0
    1.3938   -7.0488   27.0193 C   0  0  0  0  0  0  0  0  0  0  0  0
   -0.9775  -11.7070   18.5710 N   0  0  0  0  0  0  0  0  0  0  0  0
    0.1597  -13.4522   17.1606 N   0  0  0  0  0  0  0  0  0  0  0  0
   -0.9448  -10.0997   18.2550 C   0  0  0  0  0  0  0  0  0  0  0  0
    2.7150   -6.5027   27.0558 C   0  0  0  0  0  0  0  0  0  0  0  0
    6.9721   -4.1570   28.4321 C   0  0  0  0  0  0  0  0  0  0  0  0
  1  3  4  0
  1  7  4  0
  2  3  1  0
  2  6  4  0
  2 16  4  0
  3 22  4  0
  4  9  4  0
  4 10  1  0
  4 20  4  0
  5 16  4  0
  5 23  4  0
  6 15  4  0
  7 12  4  0
  8 13  4  0
  8 14  4  0
  9 11  4  0
 11 14  4  0
 11 21  4  0
 12 18  4  0
 13 21  4  0
 15 23  4  0
 17 19  4  0
 17 20  4  0
 18 22  4  0
 19 21  4  0
M  END
$$$$

 Created by Python create_sdf_string function

 23 40  0  0  0  0  0  0  0  0999 V2000
    1.9708   -4.7011   28.8919 N   0  0  0  0  0  0  0  0  0  0  0  0
    4.2835   -4.8049   28.5778 C   0  0  0  0  0  0  0  0  0  0  0  0
   -0.0024  -11.9565   16.9526 C   0  0  0  0  0  0  0  0  0  0  0  0
    6.0586   -3.9358   29.8811 C   0  0  0  0  0  0  0  0  0  0  0  0
    5.2849   -5.7626   27.8743 C   0  0  0  0  0  0  0  0  0  0  0  0
    0.7389   -5.9389   28.7315 C   0  0  0  0  0  0  0  0  0  0  0  0
   -0.5356   -7.7053   17.1877 Cl  0  0  0  0  0  0  0  0  0  0  0  0
    0.0856  -11.2787   16.9198 N   0  0  0  0  0  0  0  0  0  0  0  0
    2.1788  -12.6734   15.8314 C   0  0  0  0  0  0  0  0  0  0  0  0
   -0.0252  -10.1816   16.5920 C   0  0  0  0  0  0  0  0  0  0  0  0
    0.5908   -7.0158   27.9485 C   0  0  0  0  0  0  0  0  0  0  0  0
   -1.2832   -8.3114   18.8346 C   0  0  0  0  0  0  0  0  0  0  0  0
    0.5218   -8.6572   16.5515 N   0  0  0  0  0  0  0  0  0  0  0  0
    6.2835   -4.4062   27.8167 C   0  0  0  0  0  0  0  0  0  0  0  0
    5.2739   -4.7090   29.3479 C   0  0  0  0  0  0  0  0  0  0  0  0
   -0.4260  -12.3223   17.9847 P   0  0  0  0  0  0  0  0  0  0  0  0
    1.3599   -6.4733   26.9036 Br  0  0  0  0  0  0  0  0  0  0  0  0
   -1.3981  -11.9070   18.9683 N   0  0  0  0  0  0  0  0  0  0  0  0
    0.2448  -13.0267   16.6365 C   0  0  0  0  0  0  0  0  0  0  0  0
    7.1100   -4.1825   28.4552 C   0  0  0  0  0  0  0  0  0  0  0  0
    3.1642   -5.1194   27.4814 He  0  0  0  0  0  0  0  0  0  0  0  0
   -1.0120  -10.4593   18.3252 He  0  0  0  0  0  0  0  0  0  0  0  0
    2.9236   -6.5565   26.8953 He  0  0  0  0  0  0  0  0  0  0  0  0
  1  6  4  0
  1 10  4  0
  1 13  3  0
  1 16  4  0
  1 18  3  0
  2  5  4  0
  2 14  3  0
  2 15  4  0
  3  5  4  0
  3  8  1  0
  3  9  1  0
  3 10  2  0
  3 12  3  0
  3 19  4  0
  4 16  1  0
  5  6  2  0
  5 13  1  0
  5 14  4  0
  5 15  1  0
  5 19  3  0
  6 10  1  0
  6 11  4  0
  7 10  4  0
  7 12  4  0
  7 13  4  0
  8 10  2  0
 10 14  3  0
 10 19  2  0
 11 12  4  0
 11 13  1  0
 11 17  1  0
 11 18  3  0
 11 20  1  0
 12 17  1  0
 13 19  1  0
 14 20  4  0
 15 17  1  0
 16 18  4  0
 17 19  2  0
 18 19  4  0
M  END
$$$$

 Created by Python create_sdf_string function

 23 25  0  0  0  0  0  0  0  0999 V2000
    2.0387   -5.1185   28.9477 N   0  0  0  0  0  0  0  0  0  0  0  0
    4.3527   -5.0726   28.2970 C   0  0  0  0  0  0  0  0  0  0  0  0
    3.0777   -5.4701   28.0491 C   0  0  0  0  0  0  0  0  0  0  0  0
    0.3109  -12.2500   16.9267 C   0  0  0  0  0  0  0  0  0  0  0  0
    6.1108   -4.0313   29.7399 C   0  0  0  0  0  0  0  0  0  0  0  0
    5.3722   -5.2270   27.3424 C   0  0  0  0  0  0  0  0  0  0  0  0
    0.8082   -5.6806   28.7410 C   0  0  0  0  0  0  0  0  0  0  0  0
   -0.7073   -7.9625   17.5742 C   0  0  0  0  0  0  0  0  0  0  0  0
    0.6594  -10.9840   16.3794 N   0  0  0  0  0  0  0  0  0  0  0  0
    1.7800  -12.8794   15.7178 C   0  0  0  0  0  0  0  0  0  0  0  0
    0.0080  -10.0569   17.0586 C   0  0  0  0  0  0  0  0  0  0  0  0
    0.5991   -6.5708   27.7397 C   0  0  0  0  0  0  0  0  0  0  0  0
   -1.3767   -8.8324   18.4628 C   0  0  0  0  0  0  0  0  0  0  0  0
    0.1098   -8.6973   16.7420 N   0  0  0  0  0  0  0  0  0  0  0  0
    6.7189   -4.7798   27.5820 C   0  0  0  0  0  0  0  0  0  0  0  0
    4.8049   -4.4467   29.5329 C   0  0  0  0  0  0  0  0  0  0  0  0
   -0.8249  -12.4035   18.3665 C   0  0  0  0  0  0  0  0  0  0  0  0
    1.4753   -6.8833   26.8421 C   0  0  0  0  0  0  0  0  0  0  0  0
   -1.2711  -11.3632   18.7968 C   0  0  0  0  0  0  0  0  0  0  0  0
    0.6383  -12.8913   16.7963 C   0  0  0  0  0  0  0  0  0  0  0  0
   -0.9249  -10.1609   18.1904 C   0  0  0  0  0  0  0  0  0  0  0  0
    2.7497   -6.2361   26.8752 C   0  0  0  0  0  0  0  0  0  0  0  0
    7.0188   -4.1629   28.7526 C   0  0  0  0  0  0  0  0  0  0  0  0
  1  3  4  0
  1  7  4  0
  2  3  1  0
  2  6  4  0
  2 16  4  0
  3 22  4  0
  4  9  4  0
  4 17  4  0
  4 20  4  0
  5 16  4  0
  5 23  4  0
  6 15  4  0
  7 12  4  0
  8 13  4  0
  8 14  4  0
  9 11  4  0
 10 20  1  0
 11 14  4  0
 11 21  4  0
 12 18  4  0
 13 21  4  0
 15 23  4  0
 17 19  4  0
 18 22  4  0
 19 21  4  0
M  END
$$$$

 Created by Python create_sdf_string function

 23 40  0  0  0  0  0  0  0  0999 V2000
    1.6983   -5.8176   29.3470 N   0  0  0  0  0  0  0  0  0  0  0  0
    3.6370   -5.0508   27.8162 C   0  0  0  0  0  0  0  0  0  0  0  0
    3.0738   -5.6337   28.7936 C   0  0  0  0  0  0  0  0  0  0  0  0
    5.4318   -3.8678   30.1809 C   0  0  0  0  0  0  0  0  0  0  0  0
    5.3042   -4.4786   27.1279 C   0  0  0  0  0  0  0  0  0  0  0  0
    1.0785   -5.5694   28.4848 O   0  0  0  0  0  0  0  0  0  0  0  0
   -0.5316   -7.8380   17.4469 C   0  0  0  0  0  0  0  0  0  0  0  0
    0.5030  -11.1253   16.3033 N   0  0  0  0  0  0  0  0  0  0  0  0
    1.6423  -12.8187   15.5234 N   0  0  0  0  0  0  0  0  0  0  0  0
   -0.3618   -9.5611   17.3496 C   0  0  0  0  0  0  0  0  0  0  0  0
    0.9501   -5.8635   27.3309 C   0  0  0  0  0  0  0  0  0  0  0  0
   -1.8110   -8.8964   18.4665 C   0  0  0  0  0  0  0  0  0  0  0  0
    0.1845   -9.3521   17.2764 N   0  0  0  0  0  0  0  0  0  0  0  0
    7.0272   -4.6843   27.3683 C   0  0  0  0  0  0  0  0  0  0  0  0
    5.0340   -4.2270   29.6548 F   0  0  0  0  0  0  0  0  0  0  0  0
   -0.7921  -12.5081   18.4845 C   0  0  0  0  0  0  0  0  0  0  0  0
    1.0185   -5.9483   26.4583 C   0  0  0  0  0  0  0  0  0  0  0  0
   -1.1734  -10.9845   17.7624 C   0  0  0  0  0  0  0  0  0  0  0  0
    0.6133  -13.6135   16.9719 C   0  0  0  0  0  0  0  0  0  0  0  0
   -1.3998   -9.7999   18.2241 C   0  0  0  0  0  0  0  0  0  0  0  0
    3.0993   -5.2580   26.4564 C   0  0  0  0  0  0  0  0  0  0  0  0
   -0.0551  -12.3017   16.1350 He  0  0  0  0  0  0  0  0  0  0  0  0
    6.6385   -4.3617   28.4874 He  0  0  0  0  0  0  0  0  0  0  0  0
  1  3  4  0
  1  5  2  0
  1  6  4  0
  1  7  4  0
  1  8  3  0
  1 12  4  0
  2  5  4  0
  2  6  3  0
  2 15  4  0
  2 16  3  0
  2 17  1  0
  3  4  4  0
  3  7  1  0
  3  8  1  0
  3 10  3  0
  3 16  2  0
  3 21  4  0
  4 15  4  0
  5 10  2  0
  5 12  4  0
  5 14  4  0
  6 17  1  0
  7  8  4  0
  7 12  4  0
  8 10  4  0
  8 13  4  0
  8 17  1  0
  9 19  1  0
  9 20  1  0
 10 13  4  0
 10 20  3  0
 12 15  1  0
 12 20  4  0
 13 15  2  0
 14 16  2  0
 15 19  3  0
 16 18  4  0
 17 20  4  0
 18 20  4  0
 19 21  4  0
M  END
$$$$

 Created by Python create_sdf_string function

 23 26  0  0  0  0  0  0  0  0999 V2000
    2.0328   -5.5354   29.0004 N   0  0  0  0  0  0  0  0  0  0  0  0
    4.2624   -4.8998   28.2501 C   0  0  0  0  0  0  0  0  0  0  0  0
    3.0112   -5.3067   27.9637 C   0  0  0  0  0  0  0  0  0  0  0  0
    0.3726  -12.4036   16.7147 C   0  0  0  0  0  0  0  0  0  0  0  0
    5.9995   -4.0441   29.7453 C   0  0  0  0  0  0  0  0  0  0  0  0
    5.3367   -4.8618   27.2642 C   0  0  0  0  0  0  0  0  0  0  0  0
    0.7888   -5.8638   28.6963 C   0  0  0  0  0  0  0  0  0  0  0  0
   -0.8874   -7.9633   17.7250 C   0  0  0  0  0  0  0  0  0  0  0  0
    0.5852  -11.0673   16.3919 N   0  0  0  0  0  0  0  0  0  0  0  0
    1.5160  -13.1587   15.5468 N   0  0  0  0  0  0  0  0  0  0  0  0
   -0.1196  -10.0705   17.0967 C   0  0  0  0  0  0  0  0  0  0  0  0
    0.4388   -5.9464   27.4142 C   0  0  0  0  0  0  0  0  0  0  0  0
   -1.7560   -8.6735   18.4608 C   0  0  0  0  0  0  0  0  0  0  0  0
    0.0622   -8.7554   16.9533 C   0  0  0  0  0  0  0  0  0  0  0  0
    6.6098   -4.4472   27.5452 C   0  0  0  0  0  0  0  0  0  0  0  0
    4.7064   -4.4284   29.5581 C   0  0  0  0  0  0  0  0  0  0  0  0
   -0.9098  -12.3153   17.9725 C   0  0  0  0  0  0  0  0  0  0  0  0
    1.1859   -5.8300   26.4364 C   0  0  0  0  0  0  0  0  0  0  0  0
   -1.0054  -10.8077   17.9720 C   0  0  0  0  0  0  0  0  0  0  0  0
    0.0131  -13.2976   17.0811 C   0  0  0  0  0  0  0  0  0  0  0  0
   -1.6456   -9.9881   18.4671 C   0  0  0  0  0  0  0  0  0  0  0  0
    2.5648   -5.5567   26.6317 C   0  0  0  0  0  0  0  0  0  0  0  0
    6.8882   -4.0802   28.7456 C   0  0  0  0  0  0  0  0  0  0  0  0
  1  3  4  0
  1  7  4  0
  2  3  1  0
  2  6  4  0
  2 16  4  0
  3 22  4  0
  4  9  4  0
  4 10  1  0
  4 17  4  0
  4 20  4  0
  5 16  4  0
  5 23  4  0
  6 15  4  0
  7 12  4  0
  8 13  4  0
  8 14  4  0
  9 11  4  0
 11 14  4  0
 11 19  4  0
 12 18  4  0
 13 21  4  0
 15 23  4  0
 17 19  4  0
 17 20  4  0
 18 22  4  0
 19 21  4  0
M  END
$$$$

 Created by Python create_sdf_string function

 23 23  0  0  0  0  0  0  0  0999 V2000
    1.8639   -5.6338   29.3772 N   0  0  0  0  0  0  0  0  0  0  0  0
    3.7954   -4.7262   28.5639 C   0  0  0  0  0  0  0  0  0  0  0  0
    3.3025   -5.8702   27.8048 C   0  0  0  0  0  0  0  0  0  0  0  0
   -0.0141  -12.2902   16.6867 C   0  0  0  0  0  0  0  0  0  0  0  0
    6.5835   -3.9299   29.8518 C   0  0  0  0  0  0  0  0  0  0  0  0
    5.3186   -5.1959   27.6656 C   0  0  0  0  0  0  0  0  0  0  0  0
    0.7840   -5.7670   28.0385 C   0  0  0  0  0  0  0  0  0  0  0  0
    0.6514  -10.7927   16.8833 N   0  0  0  0  0  0  0  0  0  0  0  0
    1.0182  -13.4676   15.3126 N   0  0  0  0  0  0  0  0  0  0  0  0
    0.1395   -6.0525   27.5569 C   0  0  0  0  0  0  0  0  0  0  0  0
   -1.6845   -8.9502   18.4381 C   0  0  0  0  0  0  0  0  0  0  0  0
    6.7286   -4.4825   27.9759 C   0  0  0  0  0  0  0  0  0  0  0  0
   -0.8318  -12.4388   18.0889 C   0  0  0  0  0  0  0  0  0  0  0  0
    1.9653   -5.2405   26.3722 Se  0  0  0  0  0  0  0  0  0  0  0  0
   -0.7107  -10.9573   17.8019 C   0  0  0  0  0  0  0  0  0  0  0  0
   -1.8578  -10.5482   17.8592 C   0  0  0  0  0  0  0  0  0  0  0  0
    6.8325   -4.0577   29.0972 C   0  0  0  0  0  0  0  0  0  0  0  0
   -1.8661   -7.5186   17.9065 He  0  0  0  0  0  0  0  0  0  0  0  0
   -0.1995  -10.1950   16.3729 He  0  0  0  0  0  0  0  0  0  0  0  0
   -0.1719   -8.5598   16.7570 He  0  0  0  0  0  0  0  0  0  0  0  0
    4.8468   -4.3065   29.3947 He  0  0  0  0  0  0  0  0  0  0  0  0
   -0.0946  -13.1724   16.5136 He  0  0  0  0  0  0  0  0  0  0  0  0
    2.8655   -5.4646   26.8915 He  0  0  0  0  0  0  0  0  0  0  0  0
  1  3  4  0
  1  6  1  0
  1  7  4  0
  1 11  1  0
  2  8  2  0
  2 14  1  0
  3 16  1  0
  4  8  2  0
  4  9  3  0
  5 10  3  0
  5 11  4  0
  5 14  4  0
  5 17  4  0
  6 10  2  0
  6 12  4  0
  7 10  4  0
  7 14  4  0
  8 12  4  0
  9 17  4  0
 10 14  4  0
 11 14  2  0
 12 17  4  0
 13 15  4  0
M  END
$$$$

 Created by Python create_sdf_string function

 23 25  0  0  0  0  0  0  0  0999 V2000
    2.0393   -5.5150   29.0068 N   0  0  0  0  0  0  0  0  0  0  0  0
    4.3966   -4.9772   28.3923 C   0  0  0  0  0  0  0  0  0  0  0  0
    3.1071   -5.2800   28.0333 C   0  0  0  0  0  0  0  0  0  0  0  0
    0.5324  -12.3410   16.2071 C   0  0  0  0  0  0  0  0  0  0  0  0
    5.9813   -3.9347   29.9130 C   0  0  0  0  0  0  0  0  0  0  0  0
    5.5037   -5.0896   27.4648 C   0  0  0  0  0  0  0  0  0  0  0  0
    0.8269   -5.8014   28.5480 C   0  0  0  0  0  0  0  0  0  0  0  0
   -1.1873   -8.0507   17.5919 C   0  0  0  0  0  0  0  0  0  0  0  0
    0.6339  -11.0328   16.1203 N   0  0  0  0  0  0  0  0  0  0  0  0
    1.1863  -13.1736   15.3292 N   0  0  0  0  0  0  0  0  0  0  0  0
   -0.1832  -10.1972   16.9181 C   0  0  0  0  0  0  0  0  0  0  0  0
    0.5253   -5.8098   27.2897 C   0  0  0  0  0  0  0  0  0  0  0  0
   -2.0757   -8.7765   18.3311 C   0  0  0  0  0  0  0  0  0  0  0  0
   -0.1951   -8.7780   16.8829 C   0  0  0  0  0  0  0  0  0  0  0  0
    6.7833   -4.6335   27.8364 C   0  0  0  0  0  0  0  0  0  0  0  0
    4.7237   -4.4273   29.6412 C   0  0  0  0  0  0  0  0  0  0  0  0
   -1.0615  -12.3018   17.8874 C   0  0  0  0  0  0  0  0  0  0  0  0
    1.4441   -5.6943   26.3652 C   0  0  0  0  0  0  0  0  0  0  0  0
   -1.0334  -10.8390   17.7501 C   0  0  0  0  0  0  0  0  0  0  0  0
   -0.2646  -12.9471   17.1340 N   0  0  0  0  0  0  0  0  0  0  0  0
   -1.9769  -10.1410   18.4613 C   0  0  0  0  0  0  0  0  0  0  0  0
    2.7030   -5.4434   26.6678 C   0  0  0  0  0  0  0  0  0  0  0  0
    6.9592   -4.0424   29.0439 C   0  0  0  0  0  0  0  0  0  0  0  0
  1  3  4  0
  1  7  4  0
  2  3  1  0
  2  6  4  0
  2 16  4  0
  3 22  4  0
  4  9  4  0
  4 10  1  0
  4 20  4  0
  5 16  4  0
  5 23  4  0
  6 15  4  0
  7 12  4  0
  8 13  4  0
  8 14  4  0
  9 11  4  0
 11 14  4  0
 11 19  4  0
 12 18  4  0
 13 21  4  0
 15 23  4  0
 17 19  4  0
 17 20  4  0
 18 22  4  0
 19 21  4  0
M  END
$$$$

 Created by Python create_sdf_string function

 23 38  0  0  0  0  0  0  0  0999 V2000
    2.5152   -5.2759   28.8766 N   0  0  0  0  0  0  0  0  0  0  0  0
    4.0830   -5.3813   27.9741 C   0  0  0  0  0  0  0  0  0  0  0  0
    3.6458   -5.3781   27.6595 C   0  0  0  0  0  0  0  0  0  0  0  0
    0.1743  -12.0389   15.8327 C   0  0  0  0  0  0  0  0  0  0  0  0
    5.1680   -4.1044   29.8729 C   0  0  0  0  0  0  0  0  0  0  0  0
    5.0795   -4.7225   27.7221 C   0  0  0  0  0  0  0  0  0  0  0  0
    0.8089   -5.7181   28.2487 C   0  0  0  0  0  0  0  0  0  0  0  0
   -1.9133   -7.8909   17.6057 C   0  0  0  0  0  0  0  0  0  0  0  0
    1.4436  -13.3646   15.2240 N   0  0  0  0  0  0  0  0  0  0  0  0
   -0.6582  -10.8127   16.4990 C   0  0  0  0  0  0  0  0  0  0  0  0
    0.5712   -5.8832   26.9815 C   0  0  0  0  0  0  0  0  0  0  0  0
   -2.2749   -8.6684   18.2097 C   0  0  0  0  0  0  0  0  0  0  0  0
   -0.2134   -8.0492   16.6376 C   0  0  0  0  0  0  0  0  0  0  0  0
    4.8778   -3.8094   29.1270 C   0  0  0  0  0  0  0  0  0  0  0  0
   -0.3046  -12.2011   17.8708 C   0  0  0  0  0  0  0  0  0  0  0  0
    1.4616   -6.1738   26.3048 P   0  0  0  0  0  0  0  0  0  0  0  0
   -0.8336  -10.7971   17.5747 F   0  0  0  0  0  0  0  0  0  0  0  0
   -0.6672  -12.3380   17.5216 N   0  0  0  0  0  0  0  0  0  0  0  0
   -2.5141  -10.0554   19.0751 C   0  0  0  0  0  0  0  0  0  0  0  0
    2.8893   -5.5829   26.5970 C   0  0  0  0  0  0  0  0  0  0  0  0
    7.0525   -3.7544   29.2052 C   0  0  0  0  0  0  0  0  0  0  0  0
    0.2653  -11.7715   16.3551 He  0  0  0  0  0  0  0  0  0  0  0  0
    7.0006   -4.9163   27.4770 He  0  0  0  0  0  0  0  0  0  0  0  0
  1  3  1  0
  1  7  4  0
  1  8  2  0
  1 13  3  0
  1 18  3  0
  2  3  1  0
  2  6  4  0
  3  8  3  0
  3 19  3  0
  4 18  4  0
  5 10  3  0
  5 14  4  0
  5 16  3  0
  5 20  1  0
  5 21  4  0
  6  8  3  0
  6 20  1  0
  7  8  4  0
  7 11  4  0
  7 19  4  0
  7 20  2  0
  8 13  4  0
  8 18  1  0
  9 10  4  0
  9 16  3  0
 10 13  4  0
 11 16  1  0
 11 21  4  0
 12 19  4  0
 13 21  1  0
 15 16  1  0
 15 18  4  0
 15 21  4  0
 16 17  4  0
 16 18  4  0
 16 19  3  0
 16 20  4  0
 17 19  4  0
M  END
$$$$

 Created by Python create_sdf_string function

 23 25  0  0  0  0  0  0  0  0999 V2000
    2.1118   -5.3191   28.7634 N   0  0  0  0  0  0  0  0  0  0  0  0
    4.4136   -4.8665   28.1303 C   0  0  0  0  0  0  0  0  0  0  0  0
    3.1485   -5.2963   27.7762 C   0  0  0  0  0  0  0  0  0  0  0  0
    0.3528  -12.3047   16.1247 C   0  0  0  0  0  0  0  0  0  0  0  0
    5.9392   -3.7467   29.7081 C   0  0  0  0  0  0  0  0  0  0  0  0
    5.5653   -5.0760   27.3239 C   0  0  0  0  0  0  0  0  0  0  0  0
    0.8804   -5.6437   28.3845 C   0  0  0  0  0  0  0  0  0  0  0  0
   -1.4562   -8.0076   17.4197 C   0  0  0  0  0  0  0  0  0  0  0  0
    0.2465  -11.0480   15.9296 N   0  0  0  0  0  0  0  0  0  0  0  0
    0.9420  -13.1022   15.2998 N   0  0  0  0  0  0  0  0  0  0  0  0
   -0.4798  -10.1592   16.7728 C   0  0  0  0  0  0  0  0  0  0  0  0
    0.6069   -5.9779   27.0946 C   0  0  0  0  0  0  0  0  0  0  0  0
   -2.1683   -8.6140   18.4110 C   0  0  0  0  0  0  0  0  0  0  0  0
   -0.6283   -8.7521   16.6295 C   0  0  0  0  0  0  0  0  0  0  0  0
    6.8376   -4.6790   27.7657 C   0  0  0  0  0  0  0  0  0  0  0  0
    4.6717   -4.1600   29.3718 C   0  0  0  0  0  0  0  0  0  0  0  0
   -0.9190  -12.0943   18.0911 C   0  0  0  0  0  0  0  0  0  0  0  0
    1.4927   -6.0277   26.1918 C   0  0  0  0  0  0  0  0  0  0  0  0
   -1.1356  -10.7340   17.8503 C   0  0  0  0  0  0  0  0  0  0  0  0
   -0.2019  -12.7465   17.2375 N   0  0  0  0  0  0  0  0  0  0  0  0
   -2.0034   -9.9597   18.6239 C   0  0  0  0  0  0  0  0  0  0  0  0
    2.8101   -5.7850   26.5222 C   0  0  0  0  0  0  0  0  0  0  0  0
    6.9934   -4.0214   28.9282 C   0  0  0  0  0  0  0  0  0  0  0  0
  1  3  4  0
  1  7  4  0
  2  3  1  0
  2  6  4  0
  2 16  4  0
  3 22  4  0
  4  9  4  0
  4 10  1  0
  4 20  4  0
  5 16  4  0
  5 23  4  0
  6 15  4  0
  7 12  4  0
  8 13  4  0
  8 14  4  0
  9 11  4  0
 11 14  4  0
 11 19  4  0
 12 18  4  0
 13 21  4  0
 15 23  4  0
 17 19  4  0
 17 20  4  0
 18 22  4  0
 19 21  4  0
M  END
$$$$

 Created by Python create_sdf_string function

 23 31  0  0  0  0  0  0  0  0999 V2000
    1.3220   -4.7067   29.0480 N   0  0  0  0  0  0  0  0  0  0  0  0
    4.0026   -5.2126   27.9700 C   0  0  0  0  0  0  0  0  0  0  0  0
    3.2858   -5.3130   28.2992 C   0  0  0  0  0  0  0  0  0  0  0  0
    0.5008  -12.3190   15.7878 C   0  0  0  0  0  0  0  0  0  0  0  0
    5.6177   -4.5744   27.2738 C   0  0  0  0  0  0  0  0  0  0  0  0
   -1.3883   -7.7286   17.4557 C   0  0  0  0  0  0  0  0  0  0  0  0
    0.2785  -11.0549   15.9037 F   0  0  0  0  0  0  0  0  0  0  0  0
    0.3511  -10.2059   16.7627 C   0  0  0  0  0  0  0  0  0  0  0  0
    0.0376   -5.7821   26.7752 C   0  0  0  0  0  0  0  0  0  0  0  0
   -2.4445   -8.9890   18.0867 P   0  0  0  0  0  0  0  0  0  0  0  0
   -0.1950   -9.1152   16.1187 C   0  0  0  0  0  0  0  0  0  0  0  0
    4.7367   -4.3294   29.2623 N   0  0  0  0  0  0  0  0  0  0  0  0
   -1.3118  -12.0884   18.2443 C   0  0  0  0  0  0  0  0  0  0  0  0
    1.8142   -6.0869   25.7815 Br  0  0  0  0  0  0  0  0  0  0  0  0
    0.0898  -12.2864   17.1026 N   0  0  0  0  0  0  0  0  0  0  0  0
   -2.4032  -10.0142   18.5011 C   0  0  0  0  0  0  0  0  0  0  0  0
    2.2623   -5.8150   26.4434 C   0  0  0  0  0  0  0  0  0  0  0  0
    7.1147   -4.1555   28.9734 C   0  0  0  0  0  0  0  0  0  0  0  0
    5.9818   -3.6153   29.9109 He  0  0  0  0  0  0  0  0  0  0  0  0
    0.2883   -6.3009   28.4633 He  0  0  0  0  0  0  0  0  0  0  0  0
    1.1261  -13.4172   15.3851 He  0  0  0  0  0  0  0  0  0  0  0  0
    6.7933   -4.4631   28.4526 He  0  0  0  0  0  0  0  0  0  0  0  0
   -1.0241  -10.8324   18.3793 He  0  0  0  0  0  0  0  0  0  0  0  0
  1  3  4  0
  1  8  1  0
  1  9  2  0
  2  3  1  0
  2  5  4  0
  2 12  4  0
  2 14  1  0
  3  7  3  0
  3 11  3  0
  3 12  4  0
  3 14  4  0
  3 17  4  0
  4  7  4  0
  4 10  3  0
  4 15  4  0
  6 11  4  0
  6 16  3  0
  7  8  4  0
  7 11  3  0
  7 15  3  0
  8  9  4  0
  8 10  1  0
  8 11  4  0
  9 14  4  0
  9 18  4  0
 10 13  4  0
 10 16  4  0
 11 14  1  0
 12 18  2  0
 13 15  4  0
 14 17  4  0
M  END
$$$$

 Created by Python create_sdf_string function

 23 25  0  0  0  0  0  0  0  0999 V2000
    1.8316   -5.2359   28.7985 N   0  0  0  0  0  0  0  0  0  0  0  0
    4.2408   -4.7976   28.2628 C   0  0  0  0  0  0  0  0  0  0  0  0
    2.9747   -5.2219   27.8766 C   0  0  0  0  0  0  0  0  0  0  0  0
    0.4487  -12.3197   16.1536 C   0  0  0  0  0  0  0  0  0  0  0  0
    5.7347   -3.9139   29.8803 C   0  0  0  0  0  0  0  0  0  0  0  0
    5.3835   -4.9607   27.3948 C   0  0  0  0  0  0  0  0  0  0  0  0
    0.6022   -5.5921   28.3675 C   0  0  0  0  0  0  0  0  0  0  0  0
   -1.3583   -8.0317   17.3002 C   0  0  0  0  0  0  0  0  0  0  0  0
    0.4569  -11.0070   15.9757 N   0  0  0  0  0  0  0  0  0  0  0  0
    1.0634  -13.1524   15.3287 O   0  0  0  0  0  0  0  0  0  0  0  0
   -0.3503  -10.1752   16.7644 C   0  0  0  0  0  0  0  0  0  0  0  0
    0.4379   -6.0033   27.0546 C   0  0  0  0  0  0  0  0  0  0  0  0
   -2.1614   -8.6071   18.2447 C   0  0  0  0  0  0  0  0  0  0  0  0
   -0.3956   -8.7634   16.6136 C   0  0  0  0  0  0  0  0  0  0  0  0
    6.6179   -4.5453   27.8183 C   0  0  0  0  0  0  0  0  0  0  0  0
    4.4823   -4.2278   29.4943 N   0  0  0  0  0  0  0  0  0  0  0  0
   -0.9222  -12.0623   18.0742 C   0  0  0  0  0  0  0  0  0  0  0  0
    1.4424   -6.0083   26.1855 C   0  0  0  0  0  0  0  0  0  0  0  0
   -1.1189  -10.7320   17.7786 C   0  0  0  0  0  0  0  0  0  0  0  0
   -0.1985  -12.7969   17.2145 N   0  0  0  0  0  0  0  0  0  0  0  0
   -2.0538   -9.9285   18.4639 C   0  0  0  0  0  0  0  0  0  0  0  0
    2.7264   -5.6479   26.5355 C   0  0  0  0  0  0  0  0  0  0  0  0
    6.7649   -4.0477   29.0560 C   0  0  0  0  0  0  0  0  0  0  0  0
  1  3  4  0
  1  7  4  0
  2  3  1  0
  2  6  4  0
  2 16  4  0
  3 22  4  0
  4  9  4  0
  4 10  1  0
  4 20  4  0
  5 16  4  0
  5 23  4  0
  6 15  4  0
  7 12  4  0
  8 13  4  0
  8 14  4  0
  9 11  4  0
 11 14  4  0
 11 19  4  0
 12 18  4  0
 13 21  4  0
 15 23  4  0
 17 19  4  0
 17 20  4  0
 18 22  4  0
 19 21  4  0
M  END
$$$$

 Created by Python create_sdf_string function

 23 37  0  0  0  0  0  0  0  0999 V2000
    1.7503   -5.5806   29.3456 N   0  0  0  0  0  0  0  0  0  0  0  0
    2.6975   -5.0131   27.3151 C   0  0  0  0  0  0  0  0  0  0  0  0
    0.9299  -12.3385   16.3298 C   0  0  0  0  0  0  0  0  0  0  0  0
    5.7617   -4.4127   30.1732 C   0  0  0  0  0  0  0  0  0  0  0  0
    5.4285   -4.7292   27.7073 C   0  0  0  0  0  0  0  0  0  0  0  0
    0.9562   -5.7794   28.3726 C   0  0  0  0  0  0  0  0  0  0  0  0
   -1.3596   -8.2520   17.4546 C   0  0  0  0  0  0  0  0  0  0  0  0
    0.4729  -10.5675   16.1581 N   0  0  0  0  0  0  0  0  0  0  0  0
    0.9297  -12.9018   15.3462 O   0  0  0  0  0  0  0  0  0  0  0  0
   -0.6255   -9.8021   16.9725 C   0  0  0  0  0  0  0  0  0  0  0  0
    0.6233   -6.2718   27.1449 C   0  0  0  0  0  0  0  0  0  0  0  0
   -2.3876   -8.4022   17.7462 C   0  0  0  0  0  0  0  0  0  0  0  0
    0.4464   -9.0562   16.7983 C   0  0  0  0  0  0  0  0  0  0  0  0
    6.3365   -4.9934   28.1888 C   0  0  0  0  0  0  0  0  0  0  0  0
    4.4212   -4.3733   29.5102 N   0  0  0  0  0  0  0  0  0  0  0  0
   -1.5478  -12.0104   17.5014 C   0  0  0  0  0  0  0  0  0  0  0  0
   -2.1638   -9.8701   18.8490 C   0  0  0  0  0  0  0  0  0  0  0  0
    2.8078   -5.2384   26.6818 C   0  0  0  0  0  0  0  0  0  0  0  0
    7.0917   -3.9040   29.5399 O   0  0  0  0  0  0  0  0  0  0  0  0
    4.9029   -4.9948   28.0893 He  0  0  0  0  0  0  0  0  0  0  0  0
    1.4605   -5.8184   25.6427 He  0  0  0  0  0  0  0  0  0  0  0  0
   -0.7869  -10.3548   17.9367 He  0  0  0  0  0  0  0  0  0  0  0  0
   -0.0589  -12.6318   17.1217 He  0  0  0  0  0  0  0  0  0  0  0  0
  1  2  4  0
  1  6  4  0
  1 10  1  0
  2  4  3  0
  2  7  1  0
  2 11  2  0
  2 13  2  0
  2 18  4  0
  2 19  3  0
  3  4  4  0
  3  6  4  0
  3  8  1  0
  3  9  1  0
  3 10  1  0
  3 15  1  0
  3 19  3  0
  4  6  4  0
  4 13  3  0
  4 18  4  0
  4 19  4  0
  5 14  4  0
  5 18  2  0
  6 11  4  0
  6 15  3  0
  7 11  2  0
  7 12  4  0
  7 13  4  0
  7 14  4  0
  7 19  4  0
  8 10  4  0
  8 15  3  0
 10 13  2  0
 12 18  3  0
 14 18  1  0
 14 19  4  0
 15 19  3  0
 16 17  3  0
M  END
$$$$

 Created by Python create_sdf_string function

 23 25  0  0  0  0  0  0  0  0999 V2000
    2.0130   -5.4651   28.8746 N   0  0  0  0  0  0  0  0  0  0  0  0
    4.3315   -4.8846   28.3854 C   0  0  0  0  0  0  0  0  0  0  0  0
    3.0506   -5.2249   27.9156 C   0  0  0  0  0  0  0  0  0  0  0  0
    0.4703  -12.1186   16.1937 C   0  0  0  0  0  0  0  0  0  0  0  0
    5.8119   -4.2085   30.1598 C   0  0  0  0  0  0  0  0  0  0  0  0
    5.4343   -4.9221   27.5154 C   0  0  0  0  0  0  0  0  0  0  0  0
    0.8401   -5.9210   28.4502 C   0  0  0  0  0  0  0  0  0  0  0  0
   -1.1429   -7.8610   17.4595 C   0  0  0  0  0  0  0  0  0  0  0  0
    0.6316  -10.8134   16.1794 N   0  0  0  0  0  0  0  0  0  0  0  0
    1.1330  -12.8929   15.4334 O   0  0  0  0  0  0  0  0  0  0  0  0
   -0.2153  -10.0135   16.9117 C   0  0  0  0  0  0  0  0  0  0  0  0
    0.5883   -6.0684   27.1119 C   0  0  0  0  0  0  0  0  0  0  0  0
   -2.1042   -8.4409   18.2419 C   0  0  0  0  0  0  0  0  0  0  0  0
   -0.1716   -8.6113   16.7802 C   0  0  0  0  0  0  0  0  0  0  0  0
    6.7122   -4.6315   28.0573 C   0  0  0  0  0  0  0  0  0  0  0  0
    4.5414   -4.4809   29.7078 N   0  0  0  0  0  0  0  0  0  0  0  0
   -1.1683  -11.9775   17.9624 C   0  0  0  0  0  0  0  0  0  0  0  0
    1.4852   -5.7804   26.1961 C   0  0  0  0  0  0  0  0  0  0  0  0
   -1.1822  -10.6043   17.7290 C   0  0  0  0  0  0  0  0  0  0  0  0
   -0.3922  -12.6975   17.0922 C   0  0  0  0  0  0  0  0  0  0  0  0
   -2.1716   -9.8164   18.3254 C   0  0  0  0  0  0  0  0  0  0  0  0
    2.7433   -5.3744   26.5559 C   0  0  0  0  0  0  0  0  0  0  0  0
    6.8362   -4.3313   29.3588 C   0  0  0  0  0  0  0  0  0  0  0  0
  1  3  4  0
  1  7  4  0
  2  3  1  0
  2  6  4  0
  2 16  4  0
  3 22  4  0
  4  9  4  0
  4 10  1  0
  4 20  4  0
  5 16  4  0
  5 23  4  0
  6 15  4  0
  7 12  4  0
  8 13  4  0
  8 14  4  0
  9 11  4  0
 11 14  4  0
 11 19  4  0
 12 18  4  0
 13 21  4  0
 15 23  4  0
 17 19  4  0
 17 20  4  0
 18 22  4  0
 19 21  4  0
M  END
$$$$

 Created by Python create_sdf_string function

 23 29  0  0  0  0  0  0  0  0999 V2000
    2.3035   -5.3003   28.4346 N   0  0  0  0  0  0  0  0  0  0  0  0
    4.2940   -4.7151   29.0351 C   0  0  0  0  0  0  0  0  0  0  0  0
    3.4868   -5.3480   28.0661 C   0  0  0  0  0  0  0  0  0  0  0  0
    0.0093  -11.7416   16.3088 C   0  0  0  0  0  0  0  0  0  0  0  0
    5.5083   -4.5899   27.6678 C   0  0  0  0  0  0  0  0  0  0  0  0
    1.1994   -6.0958   28.3705 C   0  0  0  0  0  0  0  0  0  0  0  0
   -1.5076   -8.1675   17.6543 C   0  0  0  0  0  0  0  0  0  0  0  0
    0.6474  -11.6369   16.3938 N   0  0  0  0  0  0  0  0  0  0  0  0
    0.9654  -13.1725   15.0079 O   0  0  0  0  0  0  0  0  0  0  0  0
   -0.1136  -10.2085   17.3033 N   0  0  0  0  0  0  0  0  0  0  0  0
   -2.1417   -8.6252   17.5675 C   0  0  0  0  0  0  0  0  0  0  0  0
    0.1065   -8.7478   16.7981 C   0  0  0  0  0  0  0  0  0  0  0  0
    6.8449   -4.1487   28.1506 C   0  0  0  0  0  0  0  0  0  0  0  0
    4.6339   -4.5253   30.3601 N   0  0  0  0  0  0  0  0  0  0  0  0
   -1.4980  -11.5546   18.6075 Se  0  0  0  0  0  0  0  0  0  0  0  0
    1.7008   -6.5302   26.3241 C   0  0  0  0  0  0  0  0  0  0  0  0
   -1.4942  -10.8138   17.5292 C   0  0  0  0  0  0  0  0  0  0  0  0
   -1.3047   -9.6323   18.1636 C   0  0  0  0  0  0  0  0  0  0  0  0
    3.0893   -4.8268   26.6295 C   0  0  0  0  0  0  0  0  0  0  0  0
    5.7540   -3.7735   30.4055 He  0  0  0  0  0  0  0  0  0  0  0  0
    0.4757   -5.8697   27.1522 He  0  0  0  0  0  0  0  0  0  0  0  0
    0.1315  -12.4576   17.2398 He  0  0  0  0  0  0  0  0  0  0  0  0
    6.8162   -4.4215   29.6551 He  0  0  0  0  0  0  0  0  0  0  0  0
  1  3  4  0
  1  6  4  0
  2  3  1  0
  2  5  4  0
  2 14  4  0
  3 10  1  0
  3 15  2  0
  3 16  3  0
  3 19  4  0
  4  5  4  0
  4  8  4  0
  4  9  1  0
  5 13  4  0
  5 19  2  0
  6 19  3  0
  7 10  4  0
  7 12  4  0
  7 13  2  0
  7 16  3  0
  8 10  4  0
  8 14  2  0
  9 17  4  0
 10 12  2  0
 10 15  4  0
 10 17  4  0
 11 18  4  0
 15 17  4  0
 16 19  1  0
 17 18  2  0
M  END
$$$$

 Created by Python create_sdf_string function

 23 25  0  0  0  0  0  0  0  0999 V2000
    2.1227   -5.4631   28.9718 N   0  0  0  0  0  0  0  0  0  0  0  0
    4.4186   -4.7382   28.5985 C   0  0  0  0  0  0  0  0  0  0  0  0
    3.2129   -5.1952   28.1000 C   0  0  0  0  0  0  0  0  0  0  0  0
    0.4195  -12.2875   16.2917 C   0  0  0  0  0  0  0  0  0  0  0  0
    5.7999   -4.1660   30.4648 C   0  0  0  0  0  0  0  0  0  0  0  0
    5.5534   -4.6157   27.7404 C   0  0  0  0  0  0  0  0  0  0  0  0
    0.9691   -5.9130   28.4633 C   0  0  0  0  0  0  0  0  0  0  0  0
   -0.9548   -7.9058   17.2790 C   0  0  0  0  0  0  0  0  0  0  0  0
    0.5964  -11.0053   16.1639 N   0  0  0  0  0  0  0  0  0  0  0  0
    0.9385  -13.0852   15.4234 O   0  0  0  0  0  0  0  0  0  0  0  0
   -0.1359  -10.1304   16.9292 C   0  0  0  0  0  0  0  0  0  0  0  0
    0.8196   -6.1492   27.1178 C   0  0  0  0  0  0  0  0  0  0  0  0
   -1.9673   -8.3927   18.0582 C   0  0  0  0  0  0  0  0  0  0  0  0
   -0.0013   -8.7474   16.7381 C   0  0  0  0  0  0  0  0  0  0  0  0
    6.8037   -4.2432   28.3623 C   0  0  0  0  0  0  0  0  0  0  0  0
    4.5679   -4.4766   29.9901 N   0  0  0  0  0  0  0  0  0  0  0  0
   -1.0903  -11.9735   18.1518 C   0  0  0  0  0  0  0  0  0  0  0  0
    1.7876   -5.8247   26.2779 C   0  0  0  0  0  0  0  0  0  0  0  0
   -1.0783  -10.6360   17.8073 C   0  0  0  0  0  0  0  0  0  0  0  0
   -0.3818  -12.7824   17.3065 C   0  0  0  0  0  0  0  0  0  0  0  0
   -2.0561   -9.7540   18.2789 C   0  0  0  0  0  0  0  0  0  0  0  0
    2.9802   -5.4179   26.7040 C   0  0  0  0  0  0  0  0  0  0  0  0
    6.8444   -3.9891   29.6968 C   0  0  0  0  0  0  0  0  0  0  0  0
  1  3  4  0
  1  7  4  0
  2  3  1  0
  2  6  4  0
  2 16  4  0
  3 22  4  0
  4  9  4  0
  4 10  1  0
  4 20  4  0
  5 16  4  0
  5 23  4  0
  6 15  4  0
  7 12  4  0
  8 13  4  0
  8 14  4  0
  9 11  4  0
 11 14  4  0
 11 19  4  0
 12 18  4  0
 13 21  4  0
 15 23  4  0
 17 19  4  0
 17 20  4  0
 18 22  4  0
 19 21  4  0
M  END
$$$$

 Created by Python create_sdf_string function

 23 33  0  0  0  0  0  0  0  0999 V2000
    2.0031   -5.7048   28.8000 S   0  0  0  0  0  0  0  0  0  0  0  0
    4.3715   -4.5398   28.6393 C   0  0  0  0  0  0  0  0  0  0  0  0
    3.2921   -5.2312   27.7740 N   0  0  0  0  0  0  0  0  0  0  0  0
   -0.0680  -12.6394   16.6794 C   0  0  0  0  0  0  0  0  0  0  0  0
    6.5604   -4.6075   30.3875 C   0  0  0  0  0  0  0  0  0  0  0  0
    5.6465   -4.3505   27.5058 C   0  0  0  0  0  0  0  0  0  0  0  0
    1.4305   -5.7584   28.1978 C   0  0  0  0  0  0  0  0  0  0  0  0
   -0.8670   -8.3238   17.3841 C   0  0  0  0  0  0  0  0  0  0  0  0
    0.2429  -11.5339   16.2883 C   0  0  0  0  0  0  0  0  0  0  0  0
    1.1281  -13.4536   15.2456 O   0  0  0  0  0  0  0  0  0  0  0  0
   -0.2757   -9.6164   17.2229 C   0  0  0  0  0  0  0  0  0  0  0  0
    0.7476   -6.1185   27.3211 C   0  0  0  0  0  0  0  0  0  0  0  0
   -2.1468   -8.2000   17.3678 N   0  0  0  0  0  0  0  0  0  0  0  0
    0.0564   -8.7564   16.3792 C   0  0  0  0  0  0  0  0  0  0  0  0
    6.7588   -4.1582   27.9237 C   0  0  0  0  0  0  0  0  0  0  0  0
   -0.5597  -12.2682   17.4386 C   0  0  0  0  0  0  0  0  0  0  0  0
   -0.0566  -12.5673   17.3060 C   0  0  0  0  0  0  0  0  0  0  0  0
   -1.6837  -10.0647   18.6380 C   0  0  0  0  0  0  0  0  0  0  0  0
    6.4350   -4.0077   30.4190 P   0  0  0  0  0  0  0  0  0  0  0  0
    5.1340   -4.6111   30.2764 He  0  0  0  0  0  0  0  0  0  0  0  0
    2.4179   -6.0464   26.3623 He  0  0  0  0  0  0  0  0  0  0  0  0
   -1.2266  -11.0469   18.0677 He  0  0  0  0  0  0  0  0  0  0  0  0
    3.2083   -5.2296   26.3907 He  0  0  0  0  0  0  0  0  0  0  0  0
  1  2  3  0
  1  3  4  0
  1  7  2  0
  1 15  2  0
  2  3  1  0
  2  6  3  0
  3  7  4  0
  3 15  1  0
  4  9  4  0
  4 10  1  0
  4 11  4  0
  4 17  4  0
  5 18  2  0
  5 19  4  0
  6  7  4  0
  6 15  4  0
  6 17  1  0
  6 19  2  0
  7  8  2  0
  7 12  4  0
  8 11  4  0
  8 13  4  0
  8 14  4  0
  9 11  4  0
  9 17  2  0
 10 12  3  0
 10 18  3  0
 10 19  1  0
 13 18  3  0
 14 17  1  0
 15 19  2  0
 16 17  4  0
 18 19  4  0
M  END
$$$$

 Created by Python create_sdf_string function

 23 25  0  0  0  0  0  0  0  0999 V2000
    2.2206   -5.4180   28.8876 C   0  0  0  0  0  0  0  0  0  0  0  0
    4.5760   -4.8132   28.5631 C   0  0  0  0  0  0  0  0  0  0  0  0
    3.3643   -5.2230   28.0277 C   0  0  0  0  0  0  0  0  0  0  0  0
    0.4303  -12.4795   16.2397 C   0  0  0  0  0  0  0  0  0  0  0  0
    6.0920   -4.3679   30.4372 C   0  0  0  0  0  0  0  0  0  0  0  0
    5.6209   -4.3156   27.6799 C   0  0  0  0  0  0  0  0  0  0  0  0
    1.0614   -5.9562   28.3186 C   0  0  0  0  0  0  0  0  0  0  0  0
   -1.0214   -8.0491   17.1892 C   0  0  0  0  0  0  0  0  0  0  0  0
    0.5193  -11.1527   16.0193 C   0  0  0  0  0  0  0  0  0  0  0  0
    1.0319  -13.3290   15.4426 O   0  0  0  0  0  0  0  0  0  0  0  0
   -0.2204  -10.2505   16.7887 C   0  0  0  0  0  0  0  0  0  0  0  0
    1.0144   -6.1847   26.9948 C   0  0  0  0  0  0  0  0  0  0  0  0
   -1.8775   -8.4637   18.1595 C   0  0  0  0  0  0  0  0  0  0  0  0
   -0.1133   -8.8623   16.5382 C   0  0  0  0  0  0  0  0  0  0  0  0
    6.8675   -3.9699   28.2881 C   0  0  0  0  0  0  0  0  0  0  0  0
    4.8274   -4.7821   29.9481 C   0  0  0  0  0  0  0  0  0  0  0  0
   -1.0391  -12.0475   18.1504 C   0  0  0  0  0  0  0  0  0  0  0  0
    2.0398   -5.8992   26.1782 C   0  0  0  0  0  0  0  0  0  0  0  0
   -1.0573  -10.7226   17.7808 C   0  0  0  0  0  0  0  0  0  0  0  0
   -0.3341  -12.9126   17.3261 C   0  0  0  0  0  0  0  0  0  0  0  0
   -1.9512   -9.8186   18.3969 C   0  0  0  0  0  0  0  0  0  0  0  0
    3.1777   -5.4804   26.6792 C   0  0  0  0  0  0  0  0  0  0  0  0
    7.0377   -4.1151   29.6127 C   0  0  0  0  0  0  0  0  0  0  0  0
  1  3  4  0
  1  7  4  0
  2  3  1  0
  2  6  4  0
  2 16  4  0
  3 22  4  0
  4  9  4  0
  4 10  1  0
  4 20  4  0
  5 16  4  0
  5 23  4  0
  6 15  4  0
  7 12  4  0
  8 13  4  0
  8 14  4  0
  9 11  4  0
 11 14  4  0
 11 19  4  0
 12 18  4  0
 13 21  4  0
 15 23  4  0
 17 19  4  0
 17 20  4  0
 18 22  4  0
 19 21  4  0
M  END
$$$$

 Created by Python create_sdf_string function

 23 37  0  0  0  0  0  0  0  0999 V2000
    2.6306   -5.5097   29.1544 C   0  0  0  0  0  0  0  0  0  0  0  0
    4.3158   -5.4057   28.4610 C   0  0  0  0  0  0  0  0  0  0  0  0
    3.5198   -4.9119   27.7962 C   0  0  0  0  0  0  0  0  0  0  0  0
    0.7659  -12.7909   16.6098 C   0  0  0  0  0  0  0  0  0  0  0  0
    6.2539   -4.1274   30.3640 C   0  0  0  0  0  0  0  0  0  0  0  0
    5.6365   -4.5521   27.7200 C   0  0  0  0  0  0  0  0  0  0  0  0
   -1.5921   -8.1734   17.0377 C   0  0  0  0  0  0  0  0  0  0  0  0
    0.1597  -10.9865   16.2578 C   0  0  0  0  0  0  0  0  0  0  0  0
    1.0920  -13.4691   15.6610 O   0  0  0  0  0  0  0  0  0  0  0  0
   -0.3148  -10.0197   16.7887 C   0  0  0  0  0  0  0  0  0  0  0  0
    0.7679   -6.3018   26.7941 C   0  0  0  0  0  0  0  0  0  0  0  0
   -2.0247   -8.0421   17.9287 C   0  0  0  0  0  0  0  0  0  0  0  0
    0.0996   -8.9474   16.6459 C   0  0  0  0  0  0  0  0  0  0  0  0
    6.8081   -4.1525   28.5542 C   0  0  0  0  0  0  0  0  0  0  0  0
    4.5335   -5.0547   30.0087 C   0  0  0  0  0  0  0  0  0  0  0  0
   -1.2948  -12.0151   18.0051 C   0  0  0  0  0  0  0  0  0  0  0  0
    2.0757   -5.4097   26.5475 S   0  0  0  0  0  0  0  0  0  0  0  0
   -1.2523   -9.0424   18.4681 C   0  0  0  0  0  0  0  0  0  0  0  0
    2.6730   -5.6980   26.5756 C   0  0  0  0  0  0  0  0  0  0  0  0
    6.7804   -4.3508   29.6703 C   0  0  0  0  0  0  0  0  0  0  0  0
    1.5579   -5.8707   28.8245 He  0  0  0  0  0  0  0  0  0  0  0  0
   -0.8926  -10.8700   18.0401 He  0  0  0  0  0  0  0  0  0  0  0  0
   -1.2320  -12.9617   17.0690 He  0  0  0  0  0  0  0  0  0  0  0  0
  1  6  4  0
  1  7  3  0
  1 16  3  0
  1 19  2  0
  2  3  3  0
  2  5  1  0
  2 15  4  0
  2 18  1  0
  3 19  4  0
  4  8  4  0
  4  9  2  0
  5 20  4  0
  6 14  4  0
  6 17  2  0
  7 10  1  0
  7 12  1  0
  7 13  1  0
  7 14  3  0
  7 15  1  0
  8 10  4  0
  8 12  1  0
  8 20  1  0
  9 16  4  0
  9 17  4  0
 10 12  1  0
 10 13  4  0
 10 14  1  0
 10 15  1  0
 11 15  3  0
 11 17  4  0
 12 18  4  0
 13 16  2  0
 14 17  4  0
 14 20  4  0
 16 18  4  0
 17 18  1  0
 17 19  4  0
M  END
$$$$

 Created by Python create_sdf_string function

 23 25  0  0  0  0  0  0  0  0999 V2000
    2.2372   -5.6836   29.0178 C   0  0  0  0  0  0  0  0  0  0  0  0
    4.5695   -4.9338   28.5901 C   0  0  0  0  0  0  0  0  0  0  0  0
    3.3339   -5.3161   28.0970 C   0  0  0  0  0  0  0  0  0  0  0  0
    0.2286  -12.5349   16.3820 C   0  0  0  0  0  0  0  0  0  0  0  0
    6.0770   -4.4763   30.4653 C   0  0  0  0  0  0  0  0  0  0  0  0
    5.6703   -4.6528   27.7132 C   0  0  0  0  0  0  0  0  0  0  0  0
    1.0341   -6.0234   28.5009 C   0  0  0  0  0  0  0  0  0  0  0  0
   -1.0256   -7.8804   17.0483 C   0  0  0  0  0  0  0  0  0  0  0  0
    0.4446  -11.2125   16.1545 C   0  0  0  0  0  0  0  0  0  0  0  0
    0.8562  -13.4383   15.7351 O   0  0  0  0  0  0  0  0  0  0  0  0
   -0.3007  -10.1821   16.8323 C   0  0  0  0  0  0  0  0  0  0  0  0
    0.8441   -6.0472   27.1446 C   0  0  0  0  0  0  0  0  0  0  0  0
   -1.7726   -8.2260   18.1870 C   0  0  0  0  0  0  0  0  0  0  0  0
   -0.2597   -8.8253   16.3919 C   0  0  0  0  0  0  0  0  0  0  0  0
    6.9145   -4.2407   28.3203 C   0  0  0  0  0  0  0  0  0  0  0  0
    4.8175   -4.8248   30.0153 C   0  0  0  0  0  0  0  0  0  0  0  0
   -1.3013  -11.8942   18.1674 C   0  0  0  0  0  0  0  0  0  0  0  0
    1.8211   -5.7350   26.2870 C   0  0  0  0  0  0  0  0  0  0  0  0
   -1.1085  -10.5336   17.8744 C   0  0  0  0  0  0  0  0  0  0  0  0
   -0.6651  -12.8409   17.3826 C   0  0  0  0  0  0  0  0  0  0  0  0
   -1.7624   -9.5043   18.5590 C   0  0  0  0  0  0  0  0  0  0  0  0
    3.0398   -5.3547   26.7118 C   0  0  0  0  0  0  0  0  0  0  0  0
    7.0392   -4.1488   29.6293 C   0  0  0  0  0  0  0  0  0  0  0  0
  1  3  4  0
  1  7  4  0
  2  3  1  0
  2  6  4  0
  2 16  4  0
  3 22  4  0
  4  9  4  0
  4 10  2  0
  4 20  4  0
  5 16  4  0
  5 23  4  0
  6 15  4  0
  7 12  4  0
  8 13  4  0
  8 14  4  0
  9 11  4  0
 11 14  4  0
 11 19  4  0
 12 18  4  0
 13 21  4  0
 15 23  4  0
 17 19  4  0
 17 20  4  0
 18 22  4  0
 19 21  4  0
M  END
$$$$

 Created by Python create_sdf_string function

 23 28  0  0  0  0  0  0  0  0999 V2000
    2.2726   -5.6790   29.0035 C   0  0  0  0  0  0  0  0  0  0  0  0
    4.3469   -5.1073   28.3987 C   0  0  0  0  0  0  0  0  0  0  0  0
    3.6732   -5.0643   28.2649 C   0  0  0  0  0  0  0  0  0  0  0  0
    0.3035  -12.4756   16.2990 C   0  0  0  0  0  0  0  0  0  0  0  0
    5.6620   -4.9342   27.4489 O   0  0  0  0  0  0  0  0  0  0  0  0
    0.8907   -6.0117   28.7227 C   0  0  0  0  0  0  0  0  0  0  0  0
   -1.2107   -8.2419   17.1697 N   0  0  0  0  0  0  0  0  0  0  0  0
    0.7183  -11.3661   15.7290 C   0  0  0  0  0  0  0  0  0  0  0  0
    0.8626  -13.9215   15.6377 O   0  0  0  0  0  0  0  0  0  0  0  0
   -0.0428  -10.1470   17.1353 C   0  0  0  0  0  0  0  0  0  0  0  0
    0.8081   -5.6577   27.0535 C   0  0  0  0  0  0  0  0  0  0  0  0
   -1.6045   -8.3008   18.3704 C   0  0  0  0  0  0  0  0  0  0  0  0
   -0.4309   -9.1740   16.3542 C   0  0  0  0  0  0  0  0  0  0  0  0
    6.6015   -4.1958   28.6350 O   0  0  0  0  0  0  0  0  0  0  0  0
    5.2210   -4.5055   30.0534 C   0  0  0  0  0  0  0  0  0  0  0  0
   -1.1090  -12.0554   18.3867 C   0  0  0  0  0  0  0  0  0  0  0  0
    2.0993   -5.6289   26.4287 C   0  0  0  0  0  0  0  0  0  0  0  0
   -0.7276  -10.2108   18.1793 C   0  0  0  0  0  0  0  0  0  0  0  0
   -1.6146   -9.3840   18.2175 P   0  0  0  0  0  0  0  0  0  0  0  0
    2.6646   -5.6305   26.5867 C   0  0  0  0  0  0  0  0  0  0  0  0
    7.1638   -4.2311   29.7839 C   0  0  0  0  0  0  0  0  0  0  0  0
    6.1704   -4.3950   30.1592 He  0  0  0  0  0  0  0  0  0  0  0  0
   -0.3920  -12.9311   16.7655 He  0  0  0  0  0  0  0  0  0  0  0  0
  1  3  4  0
  1  6  4  0
  1  8  1  0
  2 14  3  0
  2 15  4  0
  3  9  1  0
  3 10  3  0
  3 20  4  0
  4  8  4  0
  4 12  1  0
  4 15  1  0
  5  8  4  0
  6 11  4  0
  7 12  4  0
  7 21  2  0
  8 10  4  0
  8 17  1  0
  8 20  4  0
  9 11  4  0
  9 15  4  0
 10 18  4  0
 11 17  3  0
 12 15  1  0
 14 21  4  0
 16 17  3  0
 16 18  4  0
 17 20  4  0
 18 19  4  0
M  END
$$$$

 Created by Python create_sdf_string function

 23 25  0  0  0  0  0  0  0  0999 V2000
    2.2642   -5.5673   29.0726 C   0  0  0  0  0  0  0  0  0  0  0  0
    4.6296   -4.9406   28.6419 C   0  0  0  0  0  0  0  0  0  0  0  0
    3.3680   -5.3120   28.1689 C   0  0  0  0  0  0  0  0  0  0  0  0
    0.3112  -12.5723   16.2945 C   0  0  0  0  0  0  0  0  0  0  0  0
    6.1429   -4.3375   30.4001 C   0  0  0  0  0  0  0  0  0  0  0  0
    5.6897   -4.7308   27.7141 C   0  0  0  0  0  0  0  0  0  0  0  0
    1.0249   -5.8356   28.5814 C   0  0  0  0  0  0  0  0  0  0  0  0
   -0.9910   -7.9772   17.1037 C   0  0  0  0  0  0  0  0  0  0  0  0
    0.3938  -11.2092   15.9877 C   0  0  0  0  0  0  0  0  0  0  0  0
    0.8419  -13.5268   15.5450 O   0  0  0  0  0  0  0  0  0  0  0  0
   -0.2695  -10.2386   16.7317 C   0  0  0  0  0  0  0  0  0  0  0  0
    0.7891   -5.8863   27.2190 C   0  0  0  0  0  0  0  0  0  0  0  0
   -1.6641   -8.3516   18.2285 C   0  0  0  0  0  0  0  0  0  0  0  0
   -0.2692   -8.8914   16.4001 C   0  0  0  0  0  0  0  0  0  0  0  0
    6.9246   -4.3802   28.2727 C   0  0  0  0  0  0  0  0  0  0  0  0
    4.8662   -4.7512   30.0364 C   0  0  0  0  0  0  0  0  0  0  0  0
   -1.0641  -11.9495   18.2434 C   0  0  0  0  0  0  0  0  0  0  0  0
    1.8063   -5.6480   26.3689 C   0  0  0  0  0  0  0  0  0  0  0  0
   -0.9792  -10.5900   17.8626 C   0  0  0  0  0  0  0  0  0  0  0  0
   -0.4007  -12.8873   17.4269 C   0  0  0  0  0  0  0  0  0  0  0  0
   -1.5905   -9.5974   18.6404 C   0  0  0  0  0  0  0  0  0  0  0  0
    3.0817   -5.3963   26.7884 C   0  0  0  0  0  0  0  0  0  0  0  0
    7.1044   -4.1792   29.5360 C   0  0  0  0  0  0  0  0  0  0  0  0
  1  3  4  0
  1  7  4  0
  2  3  1  0
  2  6  4  0
  2 16  4  0
  3 22  4  0
  4  9  4  0
  4 10  1  0
  4 20  4  0
  5 16  4  0
  5 23  4  0
  6 15  4  0
  7 12  4  0
  8 13  4  0
  8 14  4  0
  9 11  4  0
 11 14  4  0
 11 19  4  0
 12 18  4  0
 13 21  4  0
 15 23  4  0
 17 19  4  0
 17 20  4  0
 18 22  4  0
 19 21  4  0
M  END
$$$$

 Created by Python create_sdf_string function

 23 25  0  0  0  0  0  0  0  0999 V2000
    4.4684   -5.3074   28.3465 C   0  0  0  0  0  0  0  0  0  0  0  0
    2.8345   -4.9754   28.6419 C   0  0  0  0  0  0  0  0  0  0  0  0
    0.4765  -12.4377   16.3083 C   0  0  0  0  0  0  0  0  0  0  0  0
    6.1702   -4.3995   30.5580 C   0  0  0  0  0  0  0  0  0  0  0  0
    0.7600   -5.6847   28.3060 C   0  0  0  0  0  0  0  0  0  0  0  0
   -1.3629   -8.0571   16.7386 Br  0  0  0  0  0  0  0  0  0  0  0  0
    0.0628  -11.4401   15.8220 C   0  0  0  0  0  0  0  0  0  0  0  0
    1.0394  -13.3497   15.3103 F   0  0  0  0  0  0  0  0  0  0  0  0
   -0.0051  -10.1283   16.8481 C   0  0  0  0  0  0  0  0  0  0  0  0
   -1.7432   -8.0467   18.1014 C   0  0  0  0  0  0  0  0  0  0  0  0
   -0.5521   -8.8203   16.5013 C   0  0  0  0  0  0  0  0  0  0  0  0
    7.0897   -4.7027   28.6680 C   0  0  0  0  0  0  0  0  0  0  0  0
    4.8680   -4.8055   29.6337 C   0  0  0  0  0  0  0  0  0  0  0  0
   -1.0182  -12.0671   18.5624 C   0  0  0  0  0  0  0  0  0  0  0  0
    1.8763   -5.7008   26.2692 C   0  0  0  0  0  0  0  0  0  0  0  0
   -0.6077  -13.1113   17.3416 C   0  0  0  0  0  0  0  0  0  0  0  0
   -1.8185   -9.7437   18.7504 C   0  0  0  0  0  0  0  0  0  0  0  0
    7.0237   -4.1177   29.4218 C   0  0  0  0  0  0  0  0  0  0  0  0
    2.7366   -5.3413   28.7389 He  0  0  0  0  0  0  0  0  0  0  0  0
    5.5595   -4.6828   27.5296 He  0  0  0  0  0  0  0  0  0  0  0  0
    1.1797   -5.6039   27.1410 He  0  0  0  0  0  0  0  0  0  0  0  0
   -0.8102  -10.2814   17.4904 He  0  0  0  0  0  0  0  0  0  0  0  0
    2.9173   -5.1884   26.6345 He  0  0  0  0  0  0  0  0  0  0  0  0
  1  2  1  0
  1 13  4  0
  2  3  2  0
  2  5  2  0
  2 14  1  0
  3  8  1  0
  3 16  4  0
  3 18  4  0
  4 13  4  0
  4 18  4  0
  5 11  3  0
  6 10  4  0
  6 11  4  0
  6 18  4  0
  7 12  2  0
  9 11  4  0
  9 13  3  0
 10 11  2  0
 10 14  3  0
 10 17  4  0
 11 16  4  0
 12 18  4  0
 13 14  2  0
 13 17  2  0
 14 16  4  0
M  END
$$$$

 Created by Python create_sdf_string function

 23 25  0  0  0  0  0  0  0  0999 V2000
    2.1847   -5.3801   28.9633 C   0  0  0  0  0  0  0  0  0  0  0  0
    4.5797   -4.9350   28.5828 C   0  0  0  0  0  0  0  0  0  0  0  0
    3.2899   -5.1931   28.0829 C   0  0  0  0  0  0  0  0  0  0  0  0
    0.2431  -12.4928   16.2854 C   0  0  0  0  0  0  0  0  0  0  0  0
    6.1362   -4.4226   30.4008 C   0  0  0  0  0  0  0  0  0  0  0  0
    5.6854   -4.8329   27.7181 C   0  0  0  0  0  0  0  0  0  0  0  0
    0.9496   -5.6918   28.4196 C   0  0  0  0  0  0  0  0  0  0  0  0
   -1.1406   -7.9504   17.0415 C   0  0  0  0  0  0  0  0  0  0  0  0
    0.2863  -11.1709   15.9075 C   0  0  0  0  0  0  0  0  0  0  0  0
    0.8241  -13.4534   15.4701 O   0  0  0  0  0  0  0  0  0  0  0  0
   -0.4021  -10.2057   16.6525 C   0  0  0  0  0  0  0  0  0  0  0  0
    0.8186   -5.7762   27.1027 C   0  0  0  0  0  0  0  0  0  0  0  0
   -1.7825   -8.3087   18.1936 C   0  0  0  0  0  0  0  0  0  0  0  0
   -0.5090   -8.8474   16.2809 C   0  0  0  0  0  0  0  0  0  0  0  0
    6.9588   -4.4952   28.2447 C   0  0  0  0  0  0  0  0  0  0  0  0
    4.8236   -4.7104   29.9828 C   0  0  0  0  0  0  0  0  0  0  0  0
   -0.9958  -11.9364   18.2947 C   0  0  0  0  0  0  0  0  0  0  0  0
    1.7747   -5.5135   26.2774 C   0  0  0  0  0  0  0  0  0  0  0  0
   -1.0232  -10.5812   17.8565 C   0  0  0  0  0  0  0  0  0  0  0  0
   -0.3653  -12.8530   17.4678 C   0  0  0  0  0  0  0  0  0  0  0  0
   -1.6693   -9.5948   18.5915 C   0  0  0  0  0  0  0  0  0  0  0  0
    3.0580   -5.2494   26.7071 C   0  0  0  0  0  0  0  0  0  0  0  0
    7.1360   -4.3245   29.5451 C   0  0  0  0  0  0  0  0  0  0  0  0
  1  3  4  0
  1  7  4  0
  2  3  1  0
  2  6  4  0
  2 16  4  0
  3 22  4  0
  4  9  4  0
  4 10  1  0
  4 20  4  0
  5 16  4  0
  5 23  4  0
  6 15  4  0
  7 12  4  0
  8 13  4  0
  8 14  4  0
  9 11  4  0
 11 14  4  0
 11 19  4  0
 12 18  4  0
 13 21  4  0
 15 23  4  0
 17 19  4  0
 17 20  4  0
 18 22  4  0
 19 21  4  0
M  END
$$$$

 Created by Python create_sdf_string function

 23 31  0  0  0  0  0  0  0  0999 V2000
    4.6367   -5.0975   28.6300 C   0  0  0  0  0  0  0  0  0  0  0  0
    3.3928   -5.2458   28.0073 C   0  0  0  0  0  0  0  0  0  0  0  0
    0.0669  -12.6205   16.3261 C   0  0  0  0  0  0  0  0  0  0  0  0
    6.3739   -4.3307   30.3226 C   0  0  0  0  0  0  0  0  0  0  0  0
    5.4894   -4.4735   27.9286 C   0  0  0  0  0  0  0  0  0  0  0  0
    0.8851   -5.3895   28.2164 C   0  0  0  0  0  0  0  0  0  0  0  0
    0.5484  -11.1915   16.1975 C   0  0  0  0  0  0  0  0  0  0  0  0
    0.0181  -10.4445   16.7260 C   0  0  0  0  0  0  0  0  0  0  0  0
    1.1047   -6.0596   27.2451 C   0  0  0  0  0  0  0  0  0  0  0  0
   -1.5241   -8.5543   18.1941 C   0  0  0  0  0  0  0  0  0  0  0  0
   -0.4128   -8.8608   16.4345 C   0  0  0  0  0  0  0  0  0  0  0  0
    7.2078   -5.3414   28.4528 C   0  0  0  0  0  0  0  0  0  0  0  0
   -1.0762  -11.9564   18.4553 C   0  0  0  0  0  0  0  0  0  0  0  0
    1.8465   -5.8262   25.8388 C   0  0  0  0  0  0  0  0  0  0  0  0
   -1.1209  -10.0451   18.0427 C   0  0  0  0  0  0  0  0  0  0  0  0
   -0.5909  -12.3840   17.2965 C   0  0  0  0  0  0  0  0  0  0  0  0
   -1.6838   -9.8314   18.7732 C   0  0  0  0  0  0  0  0  0  0  0  0
    3.4276   -5.1077   26.9646 F   0  0  0  0  0  0  0  0  0  0  0  0
    6.5338   -4.3438   29.3816 C   0  0  0  0  0  0  0  0  0  0  0  0
    2.0639   -5.4729   28.7626 He  0  0  0  0  0  0  0  0  0  0  0  0
   -1.1380   -7.8580   17.3000 He  0  0  0  0  0  0  0  0  0  0  0  0
    0.8236  -13.4489   15.3345 He  0  0  0  0  0  0  0  0  0  0  0  0
    5.3009   -4.8626   30.1610 He  0  0  0  0  0  0  0  0  0  0  0  0
  1  2  1  0
  1  5  4  0
  1 16  1  0
  2  4  3  0
  2  5  4  0
  2  7  2  0
  2 18  4  0
  3  7  4  0
  3 10  3  0
  3 12  4  0
  3 14  2  0
  3 16  4  0
  4  8  4  0
  4 19  4  0
  5 12  4  0
  6  9  4  0
  8 11  4  0
  8 12  3  0
  8 15  4  0
  9 12  2  0
  9 14  4  0
  9 16  3  0
 10 12  4  0
 10 17  4  0
 11 17  2  0
 12 19  4  0
 13 15  3  0
 14 18  4  0
 15 16  1  0
 15 17  4  0
 16 19  3  0
M  END
$$$$

 Created by Python create_sdf_string function

 23 25  0  0  0  0  0  0  0  0999 V2000
    2.2169   -5.3395   28.9168 C   0  0  0  0  0  0  0  0  0  0  0  0
    4.6580   -4.9968   28.6027 C   0  0  0  0  0  0  0  0  0  0  0  0
    3.3601   -5.2303   28.0649 C   0  0  0  0  0  0  0  0  0  0  0  0
    0.1980  -12.4330   16.3309 C   0  0  0  0  0  0  0  0  0  0  0  0
    6.1607   -4.5002   30.4140 C   0  0  0  0  0  0  0  0  0  0  0  0
    5.8080   -5.0132   27.7692 C   0  0  0  0  0  0  0  0  0  0  0  0
    1.0142   -5.6814   28.3770 C   0  0  0  0  0  0  0  0  0  0  0  0
   -0.9921   -7.8738   17.2256 C   0  0  0  0  0  0  0  0  0  0  0  0
    0.3379  -11.1259   16.0205 C   0  0  0  0  0  0  0  0  0  0  0  0
    0.7262  -13.4198   15.4566 O   0  0  0  0  0  0  0  0  0  0  0  0
   -0.2955  -10.1542   16.8155 C   0  0  0  0  0  0  0  0  0  0  0  0
    0.8869   -5.8374   27.0727 C   0  0  0  0  0  0  0  0  0  0  0  0
   -1.6965   -8.2661   18.3320 C   0  0  0  0  0  0  0  0  0  0  0  0
   -0.2748   -8.7635   16.5117 C   0  0  0  0  0  0  0  0  0  0  0  0
    7.0816   -4.6634   28.3113 C   0  0  0  0  0  0  0  0  0  0  0  0
    4.8581   -4.7058   29.9596 C   0  0  0  0  0  0  0  0  0  0  0  0
   -1.1200  -11.9119   18.3094 C   0  0  0  0  0  0  0  0  0  0  0  0
    1.9332   -5.7310   26.2152 C   0  0  0  0  0  0  0  0  0  0  0  0
   -1.0192  -10.5437   17.9484 C   0  0  0  0  0  0  0  0  0  0  0  0
   -0.4815  -12.8073   17.4599 C   0  0  0  0  0  0  0  0  0  0  0  0
   -1.6694   -9.5865   18.7041 C   0  0  0  0  0  0  0  0  0  0  0  0
    3.1644   -5.4191   26.6932 C   0  0  0  0  0  0  0  0  0  0  0  0
    7.2002   -4.4937   29.6113 C   0  0  0  0  0  0  0  0  0  0  0  0
  1  3  4  0
  1  7  4  0
  2  3  1  0
  2  6  4  0
  2 16  4  0
  3 22  4  0
  4  9  4  0
  4 10  1  0
  4 20  4  0
  5 16  4  0
  5 23  4  0
  6 15  4  0
  7 12  4  0
  8 13  4  0
  8 14  4  0
  9 11  4  0
 11 14  4  0
 11 19  4  0
 12 18  4  0
 13 21  4  0
 15 23  4  0
 17 19  4  0
 17 20  4  0
 18 22  4  0
 19 21  4  0
M  END
$$$$

 Created by Python create_sdf_string function

 23 42  0  0  0  0  0  0  0  0999 V2000
    1.9731   -5.2663   29.0993 C   0  0  0  0  0  0  0  0  0  0  0  0
    4.4393   -5.2875   28.4175 C   0  0  0  0  0  0  0  0  0  0  0  0
    0.0526  -12.3637   15.9844 P   0  0  0  0  0  0  0  0  0  0  0  0
    6.5436   -4.5859   30.3242 C   0  0  0  0  0  0  0  0  0  0  0  0
    5.5086   -4.9709   27.9242 O   0  0  0  0  0  0  0  0  0  0  0  0
    0.5940   -5.7680   28.5716 C   0  0  0  0  0  0  0  0  0  0  0  0
   -1.1307   -7.7659   17.3411 C   0  0  0  0  0  0  0  0  0  0  0  0
    0.3479  -11.1039   16.1123 C   0  0  0  0  0  0  0  0  0  0  0  0
    0.7899  -13.1908   15.5516 O   0  0  0  0  0  0  0  0  0  0  0  0
   -0.7875  -10.0694   17.2654 C   0  0  0  0  0  0  0  0  0  0  0  0
    1.0218   -5.3579   26.7280 C   0  0  0  0  0  0  0  0  0  0  0  0
   -1.5194   -8.2736   18.3117 C   0  0  0  0  0  0  0  0  0  0  0  0
   -0.4741   -9.1595   16.7088 F   0  0  0  0  0  0  0  0  0  0  0  0
    4.8940   -4.6591   29.3811 C   0  0  0  0  0  0  0  0  0  0  0  0
   -0.9602  -11.8154   18.2686 C   0  0  0  0  0  0  0  0  0  0  0  0
    1.5157   -5.7863   26.2118 C   0  0  0  0  0  0  0  0  0  0  0  0
   -1.0091  -10.7976   17.9855 C   0  0  0  0  0  0  0  0  0  0  0  0
   -0.6469  -12.8983   17.6336 C   0  0  0  0  0  0  0  0  0  0  0  0
   -1.1553   -9.2808   19.0126 C   0  0  0  0  0  0  0  0  0  0  0  0
    3.0382   -5.4373   26.5509 C   0  0  0  0  0  0  0  0  0  0  0  0
    7.3510   -4.5342   29.9133 C   0  0  0  0  0  0  0  0  0  0  0  0
    3.8482   -5.3904   28.2408 He  0  0  0  0  0  0  0  0  0  0  0  0
    7.2454   -4.3464   28.1281 He  0  0  0  0  0  0  0  0  0  0  0  0
  1  5  1  0
  1  6  4  0
  1  7  3  0
  1 21  1  0
  2  5  4  0
  2  6  4  0
  2 14  4  0
  3  8  4  0
  3  9  1  0
  3 17  3  0
  3 18  4  0
  4 11  1  0
  4 14  4  0
  4 21  4  0
  5  8  1  0
  6 10  1  0
  6 11  4  0
  6 16  4  0
  6 19  1  0
  7 12  4  0
  7 13  4  0
  7 16  3  0
  7 18  2  0
  7 19  1  0
  8 10  4  0
  8 21  2  0
  9 10  2  0
  9 19  2  0
  9 20  2  0
 10 16  2  0
 10 17  4  0
 10 18  2  0
 10 19  3  0
 11 16  4  0
 12 18  1  0
 12 19  4  0
 13 16  4  0
 13 19  3  0
 15 17  4  0
 15 18  4  0
 16 21  3  0
 20 21  2  0
M  END
$$$$

 Created by Python create_sdf_string function

 23 25  0  0  0  0  0  0  0  0999 V2000
    2.1878   -5.3298   28.9578 C   0  0  0  0  0  0  0  0  0  0  0  0
    4.6189   -5.0110   28.5408 C   0  0  0  0  0  0  0  0  0  0  0  0
    3.3298   -5.2940   28.0621 C   0  0  0  0  0  0  0  0  0  0  0  0
    0.0885  -12.3975   16.3802 C   0  0  0  0  0  0  0  0  0  0  0  0
    6.1795   -4.5301   30.3430 C   0  0  0  0  0  0  0  0  0  0  0  0
    5.6950   -4.8959   27.6840 C   0  0  0  0  0  0  0  0  0  0  0  0
    0.9193   -5.5025   28.4325 C   0  0  0  0  0  0  0  0  0  0  0  0
   -1.0507   -7.8299   17.3681 C   0  0  0  0  0  0  0  0  0  0  0  0
    0.1004  -11.0859   16.0529 C   0  0  0  0  0  0  0  0  0  0  0  0
    0.6234  -13.2726   15.5380 O   0  0  0  0  0  0  0  0  0  0  0  0
   -0.4397  -10.1044   16.9001 C   0  0  0  0  0  0  0  0  0  0  0  0
    0.7537   -5.6850   27.0769 C   0  0  0  0  0  0  0  0  0  0  0  0
   -1.5713   -8.2277   18.5828 C   0  0  0  0  0  0  0  0  0  0  0  0
   -0.5044   -8.7655   16.5580 C   0  0  0  0  0  0  0  0  0  0  0  0
    6.9692   -4.6379   28.1544 C   0  0  0  0  0  0  0  0  0  0  0  0
    4.8928   -4.8549   29.9355 C   0  0  0  0  0  0  0  0  0  0  0  0
   -1.0368  -11.8500   18.4765 C   0  0  0  0  0  0  0  0  0  0  0  0
    1.7928   -5.6425   26.2425 C   0  0  0  0  0  0  0  0  0  0  0  0
   -0.9943  -10.4938   18.1243 C   0  0  0  0  0  0  0  0  0  0  0  0
   -0.5132  -12.7630   17.5704 C   0  0  0  0  0  0  0  0  0  0  0  0
   -1.5382   -9.5083   18.9328 C   0  0  0  0  0  0  0  0  0  0  0  0
    3.0917   -5.5188   26.7027 C   0  0  0  0  0  0  0  0  0  0  0  0
    7.1744   -4.4341   29.4596 C   0  0  0  0  0  0  0  0  0  0  0  0
  1  3  4  0
  1  7  4  0
  2  3  1  0
  2  6  4  0
  2 16  4  0
  3 22  4  0
  4  9  4  0
  4 10  1  0
  4 20  4  0
  5 16  4  0
  5 23  4  0
  6 15  4  0
  7 12  4  0
  8 13  4  0
  8 14  4  0
  9 11  4  0
 11 14  4  0
 11 19  4  0
 12 18  4  0
 13 21  4  0
 15 23  4  0
 17 19  4  0
 17 20  4  0
 18 22  4  0
 19 21  4  0
M  END
$$$$

 Created by Python create_sdf_string function

 23 44  0  0  0  0  0  0  0  0999 V2000
    2.5204   -5.3176   28.9053 C   0  0  0  0  0  0  0  0  0  0  0  0
    4.6325   -5.3290   28.3744 C   0  0  0  0  0  0  0  0  0  0  0  0
    2.9608   -5.2032   28.2796 C   0  0  0  0  0  0  0  0  0  0  0  0
    0.0013  -12.3445   16.2827 C   0  0  0  0  0  0  0  0  0  0  0  0
    6.2491   -4.3996   30.4201 C   0  0  0  0  0  0  0  0  0  0  0  0
    5.9694   -5.0336   27.9434 F   0  0  0  0  0  0  0  0  0  0  0  0
    0.8763   -5.4970   28.6333 C   0  0  0  0  0  0  0  0  0  0  0  0
   -1.0491   -7.6031   17.2123 C   0  0  0  0  0  0  0  0  0  0  0  0
    0.1892  -11.1086   15.7288 C   0  0  0  0  0  0  0  0  0  0  0  0
    0.5051  -13.3588   15.3639 O   0  0  0  0  0  0  0  0  0  0  0  0
   -0.2219  -10.0408   16.9632 C   0  0  0  0  0  0  0  0  0  0  0  0
    0.5929   -5.8367   26.7404 C   0  0  0  0  0  0  0  0  0  0  0  0
   -1.3782   -8.2836   18.8424 C   0  0  0  0  0  0  0  0  0  0  0  0
   -0.3988   -8.3990   16.4929 C   0  0  0  0  0  0  0  0  0  0  0  0
    6.8186   -4.2121   28.3389 C   0  0  0  0  0  0  0  0  0  0  0  0
    5.1631   -5.1198   29.9639 C   0  0  0  0  0  0  0  0  0  0  0  0
   -0.7147  -11.7611   18.4435 C   0  0  0  0  0  0  0  0  0  0  0  0
    1.8786   -5.8061   26.0871 C   0  0  0  0  0  0  0  0  0  0  0  0
   -1.2274  -10.6464   17.7918 C   0  0  0  0  0  0  0  0  0  0  0  0
   -0.7519  -12.6273   17.5747 C   0  0  0  0  0  0  0  0  0  0  0  0
    3.3061   -5.5319   26.3939 C   0  0  0  0  0  0  0  0  0  0  0  0
    7.2085   -4.4122   29.2583 C   0  0  0  0  0  0  0  0  0  0  0  0
   -1.7665   -9.5990   19.2656 He  0  0  0  0  0  0  0  0  0  0  0  0
  1  3  4  0
  1  7  1  0
  1 17  2  0
  2  3  1  0
  2 15  4  0
  2 16  4  0
  2 22  2  0
  3 10  4  0
  3 13  2  0
  3 21  4  0
  4  9  4  0
  4 10  1  0
  4 16  4  0
  4 20  4  0
  5 16  4  0
  5 22  4  0
  6  7  2  0
  6 11  1  0
  6 15  4  0
  6 18  4  0
  6 22  2  0
  7 12  4  0
  7 16  4  0
  7 17  3  0
  8 10  3  0
  8 11  3  0
  8 13  4  0
  8 17  2  0
  9 11  4  0
  9 12  4  0
  9 15  3  0
 10 14  3  0
 11 14  4  0
 11 19  4  0
 12 13  4  0
 12 18  4  0
 13 17  2  0
 14 16  2  0
 14 17  1  0
 15 22  4  0
 16 19  4  0
 17 19  4  0
 17 20  1  0
 19 22  4  0
M  END
$$$$

 Created by Python create_sdf_string function

 23 25  0  0  0  0  0  0  0  0999 V2000
    2.2624   -5.3547   28.9314 C   0  0  0  0  0  0  0  0  0  0  0  0
    4.6764   -5.0649   28.5433 C   0  0  0  0  0  0  0  0  0  0  0  0
    3.3867   -5.3458   28.0461 C   0  0  0  0  0  0  0  0  0  0  0  0
    0.0108  -12.3258   16.2741 C   0  0  0  0  0  0  0  0  0  0  0  0
    6.2483   -4.5998   30.3547 C   0  0  0  0  0  0  0  0  0  0  0  0
    5.7431   -4.8279   27.6473 C   0  0  0  0  0  0  0  0  0  0  0  0
    0.9882   -5.5488   28.4094 C   0  0  0  0  0  0  0  0  0  0  0  0
   -0.9958   -7.7285   17.4233 C   0  0  0  0  0  0  0  0  0  0  0  0
    0.0501  -10.9852   15.9669 C   0  0  0  0  0  0  0  0  0  0  0  0
    0.4316  -13.2319   15.3844 O   0  0  0  0  0  0  0  0  0  0  0  0
   -0.4396  -10.0236   16.8577 C   0  0  0  0  0  0  0  0  0  0  0  0
    0.8223   -5.7538   27.0523 C   0  0  0  0  0  0  0  0  0  0  0  0
   -1.6078   -8.1676   18.5963 C   0  0  0  0  0  0  0  0  0  0  0  0
   -0.4449   -8.6291   16.5574 C   0  0  0  0  0  0  0  0  0  0  0  0
    7.0131   -4.4630   28.1555 C   0  0  0  0  0  0  0  0  0  0  0  0
    4.9552   -5.0022   29.9357 C   0  0  0  0  0  0  0  0  0  0  0  0
   -1.0406  -11.8024   18.4122 C   0  0  0  0  0  0  0  0  0  0  0  0
    1.8729   -5.7397   26.2001 C   0  0  0  0  0  0  0  0  0  0  0  0
   -0.9824  -10.4319   18.0680 C   0  0  0  0  0  0  0  0  0  0  0  0
   -0.4926  -12.7355   17.4980 C   0  0  0  0  0  0  0  0  0  0  0  0
   -1.5267   -9.5079   18.9449 C   0  0  0  0  0  0  0  0  0  0  0  0
    3.1616   -5.5703   26.6871 C   0  0  0  0  0  0  0  0  0  0  0  0
    7.1915   -4.2737   29.4677 C   0  0  0  0  0  0  0  0  0  0  0  0
  1  3  4  0
  1  7  4  0
  2  3  1  0
  2  6  4  0
  2 16  4  0
  3 22  4  0
  4  9  4  0
  4 10  1  0
  4 20  4  0
  5 16  4  0
  5 23  4  0
  6 15  4  0
  7 12  4  0
  8 13  4  0
  8 14  4  0
  9 11  4  0
 11 14  4  0
 11 19  4  0
 12 18  4  0
 13 21  4  0
 15 23  4  0
 17 19  4  0
 17 20  4  0
 18 22  4  0
 19 21  4  0
M  END
$$$$

 Created by Python create_sdf_string function

 23 17  0  0  0  0  0  0  0  0999 V2000
    4.8508   -5.0783   28.4913 C   0  0  0  0  0  0  0  0  0  0  0  0
   -0.0888  -12.3651   16.2647 C   0  0  0  0  0  0  0  0  0  0  0  0
    6.3806   -4.4227   30.5214 O   0  0  0  0  0  0  0  0  0  0  0  0
    5.5102   -4.9185   27.5109 C   0  0  0  0  0  0  0  0  0  0  0  0
   -0.7255   -7.4588   17.3860 C   0  0  0  0  0  0  0  0  0  0  0  0
    0.5467  -13.3558   15.1774 O   0  0  0  0  0  0  0  0  0  0  0  0
   -0.6999  -10.1058   16.7142 C   0  0  0  0  0  0  0  0  0  0  0  0
   -1.6056   -7.8533   18.9881 C   0  0  0  0  0  0  0  0  0  0  0  0
   -0.4955   -8.7094   16.3798 C   0  0  0  0  0  0  0  0  0  0  0  0
    7.4101   -4.5091   27.7184 F   0  0  0  0  0  0  0  0  0  0  0  0
    5.0936   -4.9563   30.2241 C   0  0  0  0  0  0  0  0  0  0  0  0
   -1.1598  -12.1666   17.9103 C   0  0  0  0  0  0  0  0  0  0  0  0
    1.8440   -5.7723   26.4063 C   0  0  0  0  0  0  0  0  0  0  0  0
   -0.5007  -12.8928   17.3465 C   0  0  0  0  0  0  0  0  0  0  0  0
   -1.4172   -9.5224   18.5390 O   0  0  0  0  0  0  0  0  0  0  0  0
    3.4160   -5.5994   26.6957 Se  0  0  0  0  0  0  0  0  0  0  0  0
    7.1407   -4.1349   29.6809 C   0  0  0  0  0  0  0  0  0  0  0  0
    2.4114   -5.1898   28.7508 He  0  0  0  0  0  0  0  0  0  0  0  0
    3.4054   -5.4952   28.0214 He  0  0  0  0  0  0  0  0  0  0  0  0
    0.6620   -5.3021   28.5980 He  0  0  0  0  0  0  0  0  0  0  0  0
    0.1003  -11.1597   15.7687 He  0  0  0  0  0  0  0  0  0  0  0  0
    1.1151   -5.7776   27.2677 He  0  0  0  0  0  0  0  0  0  0  0  0
   -0.5351  -10.7244   18.2145 He  0  0  0  0  0  0  0  0  0  0  0  0
  1  4  4  0
  1 11  4  0
  2  6  1  0
  2 10  4  0
  2 14  4  0
  3 11  4  0
  3 17  4  0
  4  8  3  0
  4  9  4  0
  4 10  4  0
  5  9  4  0
  6  8  1  0
  8 15  4  0
  9 13  1  0
  9 14  4  0
 12 14  4  0
 13 15  3  0
M  END
$$$$

 Created by Python create_sdf_string function

 23 25  0  0  0  0  0  0  0  0999 V2000
    2.3691   -5.2000   28.9820 C   0  0  0  0  0  0  0  0  0  0  0  0
    4.7456   -5.0179   28.5285 C   0  0  0  0  0  0  0  0  0  0  0  0
    3.4512   -5.2892   28.0725 C   0  0  0  0  0  0  0  0  0  0  0  0
   -0.0272  -12.3550   16.1463 C   0  0  0  0  0  0  0  0  0  0  0  0
    6.3259   -4.4805   30.3367 C   0  0  0  0  0  0  0  0  0  0  0  0
    5.8164   -4.8782   27.6029 C   0  0  0  0  0  0  0  0  0  0  0  0
    1.0209   -5.3986   28.4964 C   0  0  0  0  0  0  0  0  0  0  0  0
   -0.9266   -7.7518   17.3750 C   0  0  0  0  0  0  0  0  0  0  0  0
    0.0399  -11.0159   15.8665 C   0  0  0  0  0  0  0  0  0  0  0  0
    0.4598  -13.2511   15.2707 O   0  0  0  0  0  0  0  0  0  0  0  0
   -0.4566  -10.0397   16.7511 C   0  0  0  0  0  0  0  0  0  0  0  0
    0.8773   -5.6948   27.2123 C   0  0  0  0  0  0  0  0  0  0  0  0
   -1.4687   -8.1974   18.5756 C   0  0  0  0  0  0  0  0  0  0  0  0
   -0.3866   -8.6436   16.4845 C   0  0  0  0  0  0  0  0  0  0  0  0
    7.0777   -4.4574   28.1162 C   0  0  0  0  0  0  0  0  0  0  0  0
    5.0411   -4.8486   29.9134 C   0  0  0  0  0  0  0  0  0  0  0  0
   -1.0414  -11.8433   18.2820 C   0  0  0  0  0  0  0  0  0  0  0  0
    1.8763   -5.8306   26.3709 C   0  0  0  0  0  0  0  0  0  0  0  0
   -0.9936  -10.4648   17.9442 C   0  0  0  0  0  0  0  0  0  0  0  0
   -0.5851  -12.7745   17.3634 C   0  0  0  0  0  0  0  0  0  0  0  0
   -1.4774   -9.5033   18.8586 C   0  0  0  0  0  0  0  0  0  0  0  0
    3.2257   -5.6466   26.7330 C   0  0  0  0  0  0  0  0  0  0  0  0
    7.2645   -4.2753   29.4584 C   0  0  0  0  0  0  0  0  0  0  0  0
  1  3  4  0
  1  7  4  0
  2  3  1  0
  2  6  4  0
  2 16  4  0
  3 22  4  0
  4  9  4  0
  4 10  1  0
  4 20  4  0
  5 16  4  0
  5 23  4  0
  6 15  4  0
  7 12  4  0
  8 13  4  0
  8 14  4  0
  9 11  4  0
 11 14  4  0
 11 19  4  0
 12 18  4  0
 13 21  4  0
 15 23  4  0
 17 19  4  0
 17 20  4  0
 18 22  4  0
 19 21  4  0
M  END
$$$$

 Created by Python create_sdf_string function

 23 26  0  0  0  0  0  0  0  0999 V2000
    2.2520   -5.1566   28.8954 C   0  0  0  0  0  0  0  0  0  0  0  0
    3.8343   -5.2613   28.2494 C   0  0  0  0  0  0  0  0  0  0  0  0
   -0.0796  -12.1351   16.2243 C   0  0  0  0  0  0  0  0  0  0  0  0
    6.2386   -4.4449   30.3461 C   0  0  0  0  0  0  0  0  0  0  0  0
    5.7548   -4.7530   27.5280 C   0  0  0  0  0  0  0  0  0  0  0  0
    0.8256   -5.0405   28.4617 C   0  0  0  0  0  0  0  0  0  0  0  0
   -0.6361   -7.7133   17.5107 C   0  0  0  0  0  0  0  0  0  0  0  0
    0.1894  -10.8836   15.8862 C   0  0  0  0  0  0  0  0  0  0  0  0
    0.4329  -13.3186   15.3903 O   0  0  0  0  0  0  0  0  0  0  0  0
   -0.7434   -9.8625   16.8211 F   0  0  0  0  0  0  0  0  0  0  0  0
   -1.6489   -8.3112   18.6050 C   0  0  0  0  0  0  0  0  0  0  0  0
   -0.0607   -8.2921   16.5137 C   0  0  0  0  0  0  0  0  0  0  0  0
    6.8667   -4.5955   28.0412 C   0  0  0  0  0  0  0  0  0  0  0  0
    4.8664   -4.7111   30.2173 C   0  0  0  0  0  0  0  0  0  0  0  0
   -1.0550  -12.1917   18.2199 C   0  0  0  0  0  0  0  0  0  0  0  0
    1.7856   -6.0291   26.4241 C   0  0  0  0  0  0  0  0  0  0  0  0
   -1.1972  -10.2531   18.2653 C   0  0  0  0  0  0  0  0  0  0  0  0
   -0.5645  -13.0066   17.0868 C   0  0  0  0  0  0  0  0  0  0  0  0
   -1.2921   -9.5989   18.8750 C   0  0  0  0  0  0  0  0  0  0  0  0
    3.2723   -5.7993   26.4218 C   0  0  0  0  0  0  0  0  0  0  0  0
    7.2599   -4.2621   29.4624 N   0  0  0  0  0  0  0  0  0  0  0  0
    4.8659   -4.8743   28.5934 He  0  0  0  0  0  0  0  0  0  0  0  0
    0.9453   -5.8332   27.3862 He  0  0  0  0  0  0  0  0  0  0  0  0
  2 12  3  0
  2 14  4  0
  2 20  4  0
  3  8  4  0
  3  9  1  0
  3 14  1  0
  3 17  3  0
  3 20  1  0
  4 14  4  0
  4 21  4  0
  5 13  4  0
  6 10  3  0
  7 11  4  0
  7 12  4  0
  8 10  4  0
  8 11  4  0
  9 10  4  0
 10 12  4  0
 10 17  4  0
 11 15  4  0
 11 19  4  0
 13 21  4  0
 15 17  4  0
 16 20  4  0
 17 19  4  0
 18 20  2  0
M  END
$$$$

 Created by Python create_sdf_string function

 23 25  0  0  0  0  0  0  0  0999 V2000
    2.2914   -4.9984   28.9427 C   0  0  0  0  0  0  0  0  0  0  0  0
    4.7192   -4.9320   28.5575 C   0  0  0  0  0  0  0  0  0  0  0  0
    3.4115   -5.2267   28.1014 C   0  0  0  0  0  0  0  0  0  0  0  0
   -0.0318  -12.3036   16.1477 C   0  0  0  0  0  0  0  0  0  0  0  0
    6.2803   -4.4165   30.3447 C   0  0  0  0  0  0  0  0  0  0  0  0
    5.7835   -4.8136   27.6422 C   0  0  0  0  0  0  0  0  0  0  0  0
    0.9801   -5.2847   28.4735 C   0  0  0  0  0  0  0  0  0  0  0  0
   -0.8566   -7.7160   17.5087 C   0  0  0  0  0  0  0  0  0  0  0  0
    0.0764  -10.9641   15.9155 C   0  0  0  0  0  0  0  0  0  0  0  0
    0.4547  -13.1723   15.2595 O   0  0  0  0  0  0  0  0  0  0  0  0
   -0.3922  -10.0028   16.8508 C   0  0  0  0  0  0  0  0  0  0  0  0
    0.8227   -5.7519   27.2018 C   0  0  0  0  0  0  0  0  0  0  0  0
   -1.4812   -8.1983   18.6707 C   0  0  0  0  0  0  0  0  0  0  0  0
   -0.3037   -8.6148   16.6307 C   0  0  0  0  0  0  0  0  0  0  0  0
    7.0613   -4.4700   28.1258 C   0  0  0  0  0  0  0  0  0  0  0  0
    4.9916   -4.7280   29.9475 C   0  0  0  0  0  0  0  0  0  0  0  0
   -1.1343  -11.8347   18.2630 C   0  0  0  0  0  0  0  0  0  0  0  0
    1.8641   -6.0140   26.4048 C   0  0  0  0  0  0  0  0  0  0  0  0
   -1.0184  -10.4640   17.9935 C   0  0  0  0  0  0  0  0  0  0  0  0
   -0.6346  -12.7504   17.3166 C   0  0  0  0  0  0  0  0  0  0  0  0
   -1.5772   -9.5314   18.8756 C   0  0  0  0  0  0  0  0  0  0  0  0
    3.1961   -5.7614   26.8187 C   0  0  0  0  0  0  0  0  0  0  0  0
    7.2808   -4.3052   29.4507 C   0  0  0  0  0  0  0  0  0  0  0  0
  1  3  4  0
  1  7  4  0
  2  3  1  0
  2  6  4  0
  2 16  4  0
  3 22  4  0
  4  9  4  0
  4 10  1  0
  4 20  4  0
  5 16  4  0
  5 23  4  0
  6 15  4  0
  7 12  4  0
  8 13  4  0
  8 14  4  0
  9 11  4  0
 11 14  4  0
 11 19  4  0
 12 18  4  0
 13 21  4  0
 15 23  4  0
 17 19  4  0
 17 20  4  0
 18 22  4  0
 19 21  4  0
M  END
$$$$

 Created by Python create_sdf_string function

 23 30  0  0  0  0  0  0  0  0999 V2000
    2.7291   -5.1361   28.7677 C   0  0  0  0  0  0  0  0  0  0  0  0
    5.0250   -4.8231   28.7202 C   0  0  0  0  0  0  0  0  0  0  0  0
    3.1835   -5.2700   28.3389 N   0  0  0  0  0  0  0  0  0  0  0  0
    0.0172  -12.3498   16.4308 C   0  0  0  0  0  0  0  0  0  0  0  0
    6.3183   -4.2677   30.3126 C   0  0  0  0  0  0  0  0  0  0  0  0
    0.6595   -5.1316   28.5547 C   0  0  0  0  0  0  0  0  0  0  0  0
   -0.5522   -7.6073   17.4173 C   0  0  0  0  0  0  0  0  0  0  0  0
    0.2831  -10.6965   16.1319 C   0  0  0  0  0  0  0  0  0  0  0  0
    0.3279  -13.1611   15.2731 O   0  0  0  0  0  0  0  0  0  0  0  0
    0.6484   -6.0102   27.3757 C   0  0  0  0  0  0  0  0  0  0  0  0
   -1.4437   -8.0645   18.4613 C   0  0  0  0  0  0  0  0  0  0  0  0
   -0.3115   -8.7176   16.7297 C   0  0  0  0  0  0  0  0  0  0  0  0
    7.0034   -4.7207   27.6709 C   0  0  0  0  0  0  0  0  0  0  0  0
    4.8499   -4.5954   29.8526 C   0  0  0  0  0  0  0  0  0  0  0  0
   -1.1640  -11.6417   18.3647 C   0  0  0  0  0  0  0  0  0  0  0  0
    1.7625   -6.0088   26.5439 C   0  0  0  0  0  0  0  0  0  0  0  0
   -1.0100  -10.5511   17.8601 C   0  0  0  0  0  0  0  0  0  0  0  0
   -0.6096  -12.6161   17.1994 C   0  0  0  0  0  0  0  0  0  0  0  0
   -1.3811   -9.5000   18.8219 C   0  0  0  0  0  0  0  0  0  0  0  0
    3.2357   -5.4365   26.7151 Cl  0  0  0  0  0  0  0  0  0  0  0  0
    7.1255   -4.3352   29.3708 C   0  0  0  0  0  0  0  0  0  0  0  0
    5.8704   -4.6538   27.6018 He  0  0  0  0  0  0  0  0  0  0  0  0
   -0.3891   -9.8829   16.7661 He  0  0  0  0  0  0  0  0  0  0  0  0
  1  3  4  0
  1 10  2  0
  2  3  1  0
  2 14  4  0
  3  4  3  0
  3 11  1  0
  3 20  4  0
  4  8  4  0
  4  9  1  0
  4 12  3  0
  4 13  1  0
  4 18  4  0
  5 10  2  0
  5 14  4  0
  6 10  4  0
  6 18  3  0
  7 12  4  0
  9 18  4  0
 10 13  1  0
 10 15  3  0
 10 16  4  0
 11 19  4  0
 12 17  3  0
 13 16  2  0
 13 21  4  0
 15 17  1  0
 15 18  4  0
 16 20  4  0
 17 19  4  0
 17 21  1  0
M  END
$$$$

 Created by Python create_sdf_string function

 23 25  0  0  0  0  0  0  0  0999 V2000
    2.2856   -5.0049   28.9723 C   0  0  0  0  0  0  0  0  0  0  0  0
    4.6758   -4.8605   28.4955 C   0  0  0  0  0  0  0  0  0  0  0  0
    3.3545   -5.1603   28.0830 C   0  0  0  0  0  0  0  0  0  0  0  0
   -0.0076  -12.2261   16.2501 C   0  0  0  0  0  0  0  0  0  0  0  0
    6.3219   -4.3222   30.2152 C   0  0  0  0  0  0  0  0  0  0  0  0
    5.7003   -4.8612   27.5531 C   0  0  0  0  0  0  0  0  0  0  0  0
    0.9836   -5.3546   28.5928 C   0  0  0  0  0  0  0  0  0  0  0  0
   -0.7658   -7.6359   17.4121 C   0  0  0  0  0  0  0  0  0  0  0  0
    0.1805  -10.9068   16.0045 C   0  0  0  0  0  0  0  0  0  0  0  0
    0.4371  -13.1499   15.3631 O   0  0  0  0  0  0  0  0  0  0  0  0
   -0.3076   -9.9218   16.8692 C   0  0  0  0  0  0  0  0  0  0  0  0
    0.7761   -5.8029   27.3280 C   0  0  0  0  0  0  0  0  0  0  0  0
   -1.4540   -8.0410   18.5563 C   0  0  0  0  0  0  0  0  0  0  0  0
   -0.1872   -8.5584   16.6131 C   0  0  0  0  0  0  0  0  0  0  0  0
    7.0313   -4.5624   27.9584 C   0  0  0  0  0  0  0  0  0  0  0  0
    4.9705   -4.5798   29.8582 C   0  0  0  0  0  0  0  0  0  0  0  0
   -1.1757  -11.7023   18.3002 C   0  0  0  0  0  0  0  0  0  0  0  0
    1.7859   -5.9521   26.4421 C   0  0  0  0  0  0  0  0  0  0  0  0
   -1.0115  -10.3343   18.0073 C   0  0  0  0  0  0  0  0  0  0  0  0
   -0.6546  -12.6339   17.3973 C   0  0  0  0  0  0  0  0  0  0  0  0
   -1.5711   -9.3690   18.8154 C   0  0  0  0  0  0  0  0  0  0  0  0
    3.0982   -5.6439   26.8124 C   0  0  0  0  0  0  0  0  0  0  0  0
    7.2924   -4.3250   29.2628 C   0  0  0  0  0  0  0  0  0  0  0  0
  1  3  4  0
  1  7  4  0
  2  3  1  0
  2  6  4  0
  2 16  4  0
  3 22  4  0
  4  9  4  0
  4 10  1  0
  4 20  4  0
  5 16  4  0
  5 23  4  0
  6 15  4  0
  7 12  4  0
  8 13  4  0
  8 14  4  0
  9 11  4  0
 11 14  4  0
 11 19  4  0
 12 18  4  0
 13 21  4  0
 15 23  4  0
 17 19  4  0
 17 20  4  0
 18 22  4  0
 19 21  4  0
M  END
$$$$

 Created by Python create_sdf_string function

 23 39  0  0  0  0  0  0  0  0999 V2000
    2.3256   -5.2192   28.9651 C   0  0  0  0  0  0  0  0  0  0  0  0
    4.5924   -4.6376   28.5015 C   0  0  0  0  0  0  0  0  0  0  0  0
    3.4385   -5.3884   28.2190 C   0  0  0  0  0  0  0  0  0  0  0  0
   -0.1263  -12.3024   15.9295 C   0  0  0  0  0  0  0  0  0  0  0  0
    6.2795   -4.3610   30.5990 C   0  0  0  0  0  0  0  0  0  0  0  0
    5.5587   -4.7190   27.3265 C   0  0  0  0  0  0  0  0  0  0  0  0
    0.8039   -5.4211   28.4580 C   0  0  0  0  0  0  0  0  0  0  0  0
   -0.6928   -7.6933   17.3524 C   0  0  0  0  0  0  0  0  0  0  0  0
    0.3434  -13.2697   15.4852 F   0  0  0  0  0  0  0  0  0  0  0  0
   -0.3862  -10.1497   16.7523 C   0  0  0  0  0  0  0  0  0  0  0  0
   -1.7059   -7.7636   18.4470 C   0  0  0  0  0  0  0  0  0  0  0  0
   -0.0320   -8.4190   16.5694 O   0  0  0  0  0  0  0  0  0  0  0  0
    7.1778   -4.7387   27.7319 N   0  0  0  0  0  0  0  0  0  0  0  0
    5.0483   -4.7134   29.7528 C   0  0  0  0  0  0  0  0  0  0  0  0
   -1.1161  -11.6018   18.2723 C   0  0  0  0  0  0  0  0  0  0  0  0
    1.5608   -6.3731   26.4765 C   0  0  0  0  0  0  0  0  0  0  0  0
   -1.2372  -10.2067   18.1737 C   0  0  0  0  0  0  0  0  0  0  0  0
   -0.6868  -12.4989   17.4431 C   0  0  0  0  0  0  0  0  0  0  0  0
   -1.6213   -9.4631   18.6499 C   0  0  0  0  0  0  0  0  0  0  0  0
    3.0492   -5.5854   26.7856 C   0  0  0  0  0  0  0  0  0  0  0  0
    7.3878   -4.2260   29.0897 C   0  0  0  0  0  0  0  0  0  0  0  0
    0.4887  -11.1469   15.9332 He  0  0  0  0  0  0  0  0  0  0  0  0
    0.8829   -5.5938   27.3533 He  0  0  0  0  0  0  0  0  0  0  0  0
  1  3  4  0
  1  4  4  0
  1  6  4  0
  1  7  4  0
  2  3  1  0
  2  6  4  0
  2 14  1  0
  3  5  3  0
  3  9  3  0
  3 20  4  0
  4 18  4  0
  5  7  4  0
  5 14  4  0
  5 15  2  0
  5 19  2  0
  5 21  1  0
  6 13  4  0
  6 18  1  0
  7  9  3  0
  8 11  4  0
  8 12  4  0
  8 13  3  0
  9 13  3  0
  9 17  1  0
 10 12  4  0
 10 14  3  0
 10 17  4  0
 11 17  3  0
 11 19  4  0
 11 21  4  0
 12 13  1  0
 13 15  3  0
 13 18  2  0
 13 19  2  0
 13 21  4  0
 15 17  4  0
 15 18  4  0
 16 20  4  0
 17 19  4  0
M  END
$$$$

 Created by Python create_sdf_string function

 23 25  0  0  0  0  0  0  0  0999 V2000
    2.2531   -5.0901   28.9703 C   0  0  0  0  0  0  0  0  0  0  0  0
    4.6605   -4.9103   28.4527 C   0  0  0  0  0  0  0  0  0  0  0  0
    3.3357   -5.2532   28.0675 C   0  0  0  0  0  0  0  0  0  0  0  0
   -0.0281  -12.2687   16.2563 C   0  0  0  0  0  0  0  0  0  0  0  0
    6.3365   -4.3746   30.1345 C   0  0  0  0  0  0  0  0  0  0  0  0
    5.6728   -4.8119   27.4741 C   0  0  0  0  0  0  0  0  0  0  0  0
    0.9510   -5.4021   28.5854 C   0  0  0  0  0  0  0  0  0  0  0  0
   -0.7466   -7.6334   17.3093 C   0  0  0  0  0  0  0  0  0  0  0  0
    0.1921  -10.9377   15.9906 C   0  0  0  0  0  0  0  0  0  0  0  0
    0.3686  -13.2004   15.4072 O   0  0  0  0  0  0  0  0  0  0  0  0
   -0.3147   -9.9301   16.8295 C   0  0  0  0  0  0  0  0  0  0  0  0
    0.7315   -5.8733   27.3372 C   0  0  0  0  0  0  0  0  0  0  0  0
   -1.5607   -7.9728   18.3860 C   0  0  0  0  0  0  0  0  0  0  0  0
   -0.1210   -8.5675   16.5651 C   0  0  0  0  0  0  0  0  0  0  0  0
    7.0084   -4.5111   27.8336 N   0  0  0  0  0  0  0  0  0  0  0  0
    4.9889   -4.6370   29.8137 C   0  0  0  0  0  0  0  0  0  0  0  0
   -1.2543  -11.6361   18.2688 C   0  0  0  0  0  0  0  0  0  0  0  0
    1.7099   -6.0294   26.4297 C   0  0  0  0  0  0  0  0  0  0  0  0
   -1.0757  -10.2836   17.9411 C   0  0  0  0  0  0  0  0  0  0  0  0
   -0.7112  -12.5815   17.4005 C   0  0  0  0  0  0  0  0  0  0  0  0
   -1.6985   -9.2968   18.6960 C   0  0  0  0  0  0  0  0  0  0  0  0
    3.0438   -5.7548   26.7849 C   0  0  0  0  0  0  0  0  0  0  0  0
    7.2853   -4.3445   29.1469 C   0  0  0  0  0  0  0  0  0  0  0  0
  1  3  4  0
  1  7  4  0
  2  3  1  0
  2  6  4  0
  2 16  4  0
  3 22  4  0
  4  9  4  0
  4 10  1  0
  4 20  4  0
  5 16  4  0
  5 23  4  0
  6 15  4  0
  7 12  4  0
  8 13  4  0
  8 14  4  0
  9 11  4  0
 11 14  4  0
 11 19  4  0
 12 18  4  0
 13 21  4  0
 15 23  4  0
 17 19  4  0
 17 20  4  0
 18 22  4  0
 19 21  4  0
M  END
$$$$

 Created by Python create_sdf_string function

 23 31  0  0  0  0  0  0  0  0999 V2000
    2.6067   -4.8081   29.0463 C   0  0  0  0  0  0  0  0  0  0  0  0
    4.6630   -4.9017   28.4514 C   0  0  0  0  0  0  0  0  0  0  0  0
    2.9354   -5.4453   28.0078 C   0  0  0  0  0  0  0  0  0  0  0  0
   -0.0607  -12.3627   16.2858 C   0  0  0  0  0  0  0  0  0  0  0  0
    5.9956   -5.1364   27.5242 F   0  0  0  0  0  0  0  0  0  0  0  0
    0.7139   -5.4450   28.6479 C   0  0  0  0  0  0  0  0  0  0  0  0
   -0.6764   -7.6358   17.2875 C   0  0  0  0  0  0  0  0  0  0  0  0
    0.1416  -10.8339   16.2906 O   0  0  0  0  0  0  0  0  0  0  0  0
    0.5835  -13.2239   15.4950 O   0  0  0  0  0  0  0  0  0  0  0  0
   -0.3628   -9.6843   16.7173 C   0  0  0  0  0  0  0  0  0  0  0  0
   -1.5455   -7.7742   18.3081 C   0  0  0  0  0  0  0  0  0  0  0  0
   -0.1105   -8.5349   16.4572 C   0  0  0  0  0  0  0  0  0  0  0  0
    7.1778   -4.3772   27.9450 N   0  0  0  0  0  0  0  0  0  0  0  0
    5.0325   -4.9908   29.6722 C   0  0  0  0  0  0  0  0  0  0  0  0
   -1.2942  -11.8084   18.4947 C   0  0  0  0  0  0  0  0  0  0  0  0
    1.8797   -5.7721   26.4219 C   0  0  0  0  0  0  0  0  0  0  0  0
   -1.1441  -10.5572   17.9447 C   0  0  0  0  0  0  0  0  0  0  0  0
   -0.5912  -12.5552   17.2950 C   0  0  0  0  0  0  0  0  0  0  0  0
   -1.6902   -9.1998   18.5450 C   0  0  0  0  0  0  0  0  0  0  0  0
    2.9511   -5.8524   26.9165 C   0  0  0  0  0  0  0  0  0  0  0  0
    7.4218   -4.4145   29.3168 C   0  0  0  0  0  0  0  0  0  0  0  0
    6.3341   -4.5517   30.1003 He  0  0  0  0  0  0  0  0  0  0  0  0
    0.7144   -5.5973   27.3714 He  0  0  0  0  0  0  0  0  0  0  0  0
  1  3  4  0
  1  6  4  0
  2  3  1  0
  2  5  4  0
  2 14  4  0
  3 20  4  0
  4  6  4  0
  4  8  4  0
  4  9  1  0
  4 18  4  0
  5  7  2  0
  5 10  2  0
  5 13  4  0
  6 10  2  0
  7 11  4  0
  7 12  4  0
  7 16  3  0
  8 10  4  0
  9 17  1  0
  9 20  4  0
 10 12  4  0
 10 16  1  0
 10 17  4  0
 10 20  3  0
 11 20  3  0
 13 21  4  0
 15 17  4  0
 15 18  4  0
 15 20  3  0
 17 19  4  0
 18 21  3  0
M  END
$$$$

 Created by Python create_sdf_string function

 23 25  0  0  0  0  0  0  0  0999 V2000
    2.3067   -5.0670   29.0055 C   0  0  0  0  0  0  0  0  0  0  0  0
    4.7060   -5.0439   28.4519 C   0  0  0  0  0  0  0  0  0  0  0  0
    3.3689   -5.2794   28.0780 C   0  0  0  0  0  0  0  0  0  0  0  0
    0.0079  -12.2351   16.3628 C   0  0  0  0  0  0  0  0  0  0  0  0
    6.4124   -4.5549   30.1393 C   0  0  0  0  0  0  0  0  0  0  0  0
    5.7407   -4.9437   27.5196 C   0  0  0  0  0  0  0  0  0  0  0  0
    0.9826   -5.2322   28.6054 C   0  0  0  0  0  0  0  0  0  0  0  0
   -0.7623   -7.5823   17.2479 C   0  0  0  0  0  0  0  0  0  0  0  0
    0.1737  -10.9561   16.0570 C   0  0  0  0  0  0  0  0  0  0  0  0
    0.5140  -13.1906   15.5685 O   0  0  0  0  0  0  0  0  0  0  0  0
   -0.3498   -9.9270   16.8296 C   0  0  0  0  0  0  0  0  0  0  0  0
    0.7199   -5.6590   27.3279 C   0  0  0  0  0  0  0  0  0  0  0  0
   -1.5643   -7.8942   18.3255 C   0  0  0  0  0  0  0  0  0  0  0  0
   -0.1484   -8.5658   16.5118 C   0  0  0  0  0  0  0  0  0  0  0  0
    7.0487   -4.6247   27.8726 N   0  0  0  0  0  0  0  0  0  0  0  0
    5.0603   -4.8602   29.8268 C   0  0  0  0  0  0  0  0  0  0  0  0
   -1.2905  -11.5893   18.3037 C   0  0  0  0  0  0  0  0  0  0  0  0
    1.7005   -5.8987   26.4414 C   0  0  0  0  0  0  0  0  0  0  0  0
   -1.1148  -10.2483   17.9355 C   0  0  0  0  0  0  0  0  0  0  0  0
   -0.7032  -12.5630   17.4903 C   0  0  0  0  0  0  0  0  0  0  0  0
   -1.7309   -9.2320   18.6604 C   0  0  0  0  0  0  0  0  0  0  0  0
    3.0588   -5.6957   26.7831 C   0  0  0  0  0  0  0  0  0  0  0  0
    7.3319   -4.4126   29.1721 C   0  0  0  0  0  0  0  0  0  0  0  0
  1  3  4  0
  1  7  4  0
  2  3  1  0
  2  6  4  0
  2 16  4  0
  3 22  4  0
  4  9  4  0
  4 10  1  0
  4 20  4  0
  5 16  4  0
  5 23  4  0
  6 15  4  0
  7 12  4  0
  8 13  4  0
  8 14  4  0
  9 11  4  0
 11 14  4  0
 11 19  4  0
 12 18  4  0
 13 21  4  0
 15 23  4  0
 17 19  4  0
 17 20  4  0
 18 22  4  0
 19 21  4  0
M  END
$$$$

 Created by Python create_sdf_string function

 23 30  0  0  0  0  0  0  0  0999 V2000
    2.1309   -5.1387   29.0179 C   0  0  0  0  0  0  0  0  0  0  0  0
    3.5715   -5.3446   28.0744 C   0  0  0  0  0  0  0  0  0  0  0  0
   -0.0357  -12.2690   16.2778 O   0  0  0  0  0  0  0  0  0  0  0  0
    6.3781   -4.4088   30.1096 C   0  0  0  0  0  0  0  0  0  0  0  0
    5.7397   -5.1364   27.5838 C   0  0  0  0  0  0  0  0  0  0  0  0
    1.0255   -5.2078   28.4939 C   0  0  0  0  0  0  0  0  0  0  0  0
   -0.7455   -7.7966   17.2816 C   0  0  0  0  0  0  0  0  0  0  0  0
    0.1624  -10.8991   16.1025 C   0  0  0  0  0  0  0  0  0  0  0  0
    0.6541  -13.3217   15.6476 O   0  0  0  0  0  0  0  0  0  0  0  0
   -0.4586   -9.9857   16.6069 C   0  0  0  0  0  0  0  0  0  0  0  0
    1.2172   -5.6511   27.4295 C   0  0  0  0  0  0  0  0  0  0  0  0
   -1.8768   -8.0455   18.0703 C   0  0  0  0  0  0  0  0  0  0  0  0
   -0.0200   -8.7965   16.7101 C   0  0  0  0  0  0  0  0  0  0  0  0
    7.1005   -4.3703   27.5772 N   0  0  0  0  0  0  0  0  0  0  0  0
    4.9925   -4.9637   29.9288 C   0  0  0  0  0  0  0  0  0  0  0  0
    1.5619   -6.0163   26.4294 C   0  0  0  0  0  0  0  0  0  0  0  0
   -1.2433  -10.3010   18.1116 C   0  0  0  0  0  0  0  0  0  0  0  0
   -0.5284  -12.5591   17.6703 C   0  0  0  0  0  0  0  0  0  0  0  0
   -1.7488   -9.1267   18.8011 C   0  0  0  0  0  0  0  0  0  0  0  0
    3.0555   -5.4363   26.6654 C   0  0  0  0  0  0  0  0  0  0  0  0
    7.4273   -4.1803   29.0820 C   0  0  0  0  0  0  0  0  0  0  0  0
    4.7622   -5.0036   28.2211 He  0  0  0  0  0  0  0  0  0  0  0  0
   -1.3204  -11.6623   18.3763 He  0  0  0  0  0  0  0  0  0  0  0  0
  1  2  4  0
  1  6  4  0
  1 12  1  0
  1 13  3  0
  2 20  1  0
  3  8  4  0
  3  9  1  0
  3 18  4  0
  4 15  4  0
  4 21  4  0
  5 13  3  0
  5 14  4  0
  6 11  4  0
  6 13  2  0
  6 19  2  0
  7 13  4  0
  8 10  4  0
  8 13  1  0
  8 16  3  0
 10 12  2  0
 10 13  4  0
 10 21  4  0
 11 16  4  0
 12 19  4  0
 14 21  4  0
 16 20  4  0
 17 18  1  0
 17 19  4  0
 19 21  4  0
 20 21  1  0
M  END
$$$$

 Created by Python create_sdf_string function

 23 25  0  0  0  0  0  0  0  0999 V2000
    2.3520   -5.0865   28.9880 C   0  0  0  0  0  0  0  0  0  0  0  0
    4.7514   -5.0054   28.4031 C   0  0  0  0  0  0  0  0  0  0  0  0
    3.4155   -5.2550   28.0428 C   0  0  0  0  0  0  0  0  0  0  0  0
    0.0376  -12.3021   16.4649 C   0  0  0  0  0  0  0  0  0  0  0  0
    6.4448   -4.4145   30.0720 C   0  0  0  0  0  0  0  0  0  0  0  0
    5.7562   -4.9205   27.4311 C   0  0  0  0  0  0  0  0  0  0  0  0
    1.0437   -5.3187   28.5969 C   0  0  0  0  0  0  0  0  0  0  0  0
   -0.8667   -7.6215   17.2634 C   0  0  0  0  0  0  0  0  0  0  0  0
    0.1786  -11.0063   16.1139 C   0  0  0  0  0  0  0  0  0  0  0  0
    0.5831  -13.2769   15.7096 O   0  0  0  0  0  0  0  0  0  0  0  0
   -0.3673   -9.9721   16.8823 C   0  0  0  0  0  0  0  0  0  0  0  0
    0.7775   -5.6847   27.3269 C   0  0  0  0  0  0  0  0  0  0  0  0
   -1.6990   -7.9428   18.3233 C   0  0  0  0  0  0  0  0  0  0  0  0
   -0.1967   -8.6026   16.5640 C   0  0  0  0  0  0  0  0  0  0  0  0
    7.0589   -4.5229   27.7528 C   0  0  0  0  0  0  0  0  0  0  0  0
    5.1141   -4.8070   29.7630 C   0  0  0  0  0  0  0  0  0  0  0  0
   -1.2646  -11.6012   18.3956 C   0  0  0  0  0  0  0  0  0  0  0  0
    1.7265   -5.8436   26.3883 C   0  0  0  0  0  0  0  0  0  0  0  0
   -1.1551  -10.2756   17.9815 C   0  0  0  0  0  0  0  0  0  0  0  0
   -0.6635  -12.5804   17.6004 C   0  0  0  0  0  0  0  0  0  0  0  0
   -1.8646   -9.2556   18.6294 C   0  0  0  0  0  0  0  0  0  0  0  0
    3.0632   -5.6660   26.7251 C   0  0  0  0  0  0  0  0  0  0  0  0
    7.3381   -4.2415   29.0623 C   0  0  0  0  0  0  0  0  0  0  0  0
  1  3  4  0
  1  7  4  0
  2  3  1  0
  2  6  4  0
  2 16  4  0
  3 22  4  0
  4  9  4  0
  4 10  1  0
  4 20  4  0
  5 16  4  0
  5 23  4  0
  6 15  4  0
  7 12  4  0
  8 13  4  0
  8 14  4  0
  9 11  4  0
 11 14  4  0
 11 19  4  0
 12 18  4  0
 13 21  4  0
 15 23  4  0
 17 19  4  0
 17 20  4  0
 18 22  4  0
 19 21  4  0
M  END
$$$$

 Created by Python create_sdf_string function

 23 34  0  0  0  0  0  0  0  0999 V2000
    2.2891   -5.1524   29.2399 C   0  0  0  0  0  0  0  0  0  0  0  0
    4.8051   -5.0936   28.4053 C   0  0  0  0  0  0  0  0  0  0  0  0
    3.3610   -5.4603   27.9348 C   0  0  0  0  0  0  0  0  0  0  0  0
    0.2249  -12.4083   16.3027 C   0  0  0  0  0  0  0  0  0  0  0  0
    6.5693   -4.2416   29.8344 C   0  0  0  0  0  0  0  0  0  0  0  0
    5.6244   -4.8253   27.3994 B   0  0  0  0  0  0  0  0  0  0  0  0
    1.0748   -5.3849   28.3038 C   0  0  0  0  0  0  0  0  0  0  0  0
   -0.8468   -7.6818   17.3046 C   0  0  0  0  0  0  0  0  0  0  0  0
    0.1513  -10.8596   15.9587 C   0  0  0  0  0  0  0  0  0  0  0  0
    0.6893  -12.9011   15.8526 O   0  0  0  0  0  0  0  0  0  0  0  0
   -0.5300   -9.9060   16.9567 C   0  0  0  0  0  0  0  0  0  0  0  0
    0.8708   -5.8981   27.7496 C   0  0  0  0  0  0  0  0  0  0  0  0
   -1.8239   -8.0692   18.3771 C   0  0  0  0  0  0  0  0  0  0  0  0
   -0.0605   -8.9265   16.6610 C   0  0  0  0  0  0  0  0  0  0  0  0
    7.0423   -4.4115   27.6510 C   0  0  0  0  0  0  0  0  0  0  0  0
    5.1335   -4.8419   30.0706 C   0  0  0  0  0  0  0  0  0  0  0  0
   -1.3924  -11.6336   18.3919 C   0  0  0  0  0  0  0  0  0  0  0  0
    1.7609   -5.6970   26.2976 C   0  0  0  0  0  0  0  0  0  0  0  0
   -1.0231  -10.0449   18.0691 C   0  0  0  0  0  0  0  0  0  0  0  0
   -0.7467  -12.5578   17.3246 P   0  0  0  0  0  0  0  0  0  0  0  0
   -1.8247   -9.3801   18.6946 C   0  0  0  0  0  0  0  0  0  0  0  0
    3.0995   -5.6032   26.8315 C   0  0  0  0  0  0  0  0  0  0  0  0
    7.2521   -4.1528   29.1794 C   0  0  0  0  0  0  0  0  0  0  0  0
  1  3  4  0
  1  7  1  0
  2  6  4  0
  2 10  3  0
  2 16  4  0
  3  8  4  0
  3 15  4  0
  3 22  4  0
  4  9  4  0
  4 10  1  0
  4 20  4  0
  5  7  2  0
  5 16  4  0
  5 21  1  0
  5 23  4  0
  6 15  4  0
  7 12  4  0
  7 21  1  0
  8 14  4  0
  8 23  3  0
  9 11  4  0
  9 15  3  0
  9 19  3  0
 11 14  4  0
 11 19  4  0
 12 18  4  0
 13 15  3  0
 13 21  4  0
 14 19  1  0
 15 23  1  0
 17 19  4  0
 17 20  4  0
 18 22  4  0
 19 21  4  0
M  END
$$$$

 Created by Python create_sdf_string function

 23 25  0  0  0  0  0  0  0  0999 V2000
    2.3593   -5.2161   29.0517 C   0  0  0  0  0  0  0  0  0  0  0  0
    4.7439   -4.9615   28.4224 C   0  0  0  0  0  0  0  0  0  0  0  0
    3.4189   -5.2557   28.0846 C   0  0  0  0  0  0  0  0  0  0  0  0
    0.0647  -12.2077   16.4171 C   0  0  0  0  0  0  0  0  0  0  0  0
    6.4841   -4.3463   30.0434 C   0  0  0  0  0  0  0  0  0  0  0  0
    5.7053   -4.8495   27.4182 C   0  0  0  0  0  0  0  0  0  0  0  0
    1.0448   -5.4771   28.6537 C   0  0  0  0  0  0  0  0  0  0  0  0
   -0.8939   -7.6025   17.3744 C   0  0  0  0  0  0  0  0  0  0  0  0
    0.2241  -10.9046   16.1357 C   0  0  0  0  0  0  0  0  0  0  0  0
    0.6578  -13.1515   15.6999 O   0  0  0  0  0  0  0  0  0  0  0  0
   -0.3815   -9.9012   16.8850 C   0  0  0  0  0  0  0  0  0  0  0  0
    0.7781   -5.7463   27.3686 C   0  0  0  0  0  0  0  0  0  0  0  0
   -1.7227   -7.9809   18.4277 C   0  0  0  0  0  0  0  0  0  0  0  0
   -0.2320   -8.5375   16.6186 C   0  0  0  0  0  0  0  0  0  0  0  0
    7.0077   -4.4048   27.7388 C   0  0  0  0  0  0  0  0  0  0  0  0
    5.1533   -4.7523   29.7893 C   0  0  0  0  0  0  0  0  0  0  0  0
   -1.3446  -11.6371   18.2983 C   0  0  0  0  0  0  0  0  0  0  0  0
    1.7416   -5.8726   26.4348 C   0  0  0  0  0  0  0  0  0  0  0  0
   -1.1955  -10.2848   17.9706 C   0  0  0  0  0  0  0  0  0  0  0  0
   -0.7016  -12.5747   17.4948 C   0  0  0  0  0  0  0  0  0  0  0  0
   -1.8445   -9.3123   18.6977 C   0  0  0  0  0  0  0  0  0  0  0  0
    3.0869   -5.6176   26.7675 C   0  0  0  0  0  0  0  0  0  0  0  0
    7.3432   -4.1525   29.0359 C   0  0  0  0  0  0  0  0  0  0  0  0
  1  3  4  0
  1  7  4  0
  2  3  1  0
  2  6  4  0
  2 16  4  0
  3 22  4  0
  4  9  4  0
  4 10  1  0
  4 20  4  0
  5 16  4  0
  5 23  4  0
  6 15  4  0
  7 12  4  0
  8 13  4  0
  8 14  4  0
  9 11  4  0
 11 14  4  0
 11 19  4  0
 12 18  4  0
 13 21  4  0
 15 23  4  0
 17 19  4  0
 17 20  4  0
 18 22  4  0
 19 21  4  0
M  END
$$$$

 Created by Python create_sdf_string function

 23 28  0  0  0  0  0  0  0  0999 V2000
    2.3253   -5.3805   29.2640 C   0  0  0  0  0  0  0  0  0  0  0  0
    4.8766   -4.9133   28.1430 F   0  0  0  0  0  0  0  0  0  0  0  0
    3.3091   -4.9621   28.3242 C   0  0  0  0  0  0  0  0  0  0  0  0
   -0.0927  -12.2366   16.4107 C   0  0  0  0  0  0  0  0  0  0  0  0
    6.5396   -4.3649   29.9961 C   0  0  0  0  0  0  0  0  0  0  0  0
    5.6505   -4.6930   27.2879 C   0  0  0  0  0  0  0  0  0  0  0  0
    0.9465   -5.6852   28.7371 C   0  0  0  0  0  0  0  0  0  0  0  0
   -0.9074   -7.4172   17.3651 C   0  0  0  0  0  0  0  0  0  0  0  0
    0.2874  -10.7936   16.2220 C   0  0  0  0  0  0  0  0  0  0  0  0
    0.4188  -13.3876   15.7381 O   0  0  0  0  0  0  0  0  0  0  0  0
   -0.5010   -9.7726   16.7954 C   0  0  0  0  0  0  0  0  0  0  0  0
    0.8675   -5.7457   27.4478 C   0  0  0  0  0  0  0  0  0  0  0  0
   -1.7124   -7.8772   18.3690 C   0  0  0  0  0  0  0  0  0  0  0  0
    6.9323   -4.4378   27.6285 C   0  0  0  0  0  0  0  0  0  0  0  0
    4.9847   -4.8161   29.8793 C   0  0  0  0  0  0  0  0  0  0  0  0
   -1.3770  -11.7633   18.4174 C   0  0  0  0  0  0  0  0  0  0  0  0
    1.7968   -5.6534   26.2534 C   0  0  0  0  0  0  0  0  0  0  0  0
   -1.1675  -10.5044   18.0275 C   0  0  0  0  0  0  0  0  0  0  0  0
   -0.5608  -12.6561   17.3400 C   0  0  0  0  0  0  0  0  0  0  0  0
   -2.0514   -9.2938   18.6905 C   0  0  0  0  0  0  0  0  0  0  0  0
    2.9146   -5.3683   26.8469 C   0  0  0  0  0  0  0  0  0  0  0  0
    7.0977   -3.9163   29.1974 C   0  0  0  0  0  0  0  0  0  0  0  0
   -0.1350   -8.4767   16.7062 He  0  0  0  0  0  0  0  0  0  0  0  0
  1  4  3  0
  1  7  4  0
  2  3  1  0
  2  6  4  0
  2 15  4  0
  3 21  4  0
  4  9  4  0
  4 10  1  0
  4 18  4  0
  4 19  4  0
  5 12  1  0
  5 15  4  0
  5 22  4  0
  6 14  4  0
  7 12  4  0
  7 14  3  0
  7 21  3  0
  8 13  1  0
  9 11  4  0
 11 18  4  0
 12 17  4  0
 13 20  4  0
 14 22  4  0
 16 18  2  0
 16 19  3  0
 17 21  4  0
 18 20  4  0
 20 21  1  0
M  END
$$$$

 Created by Python create_sdf_string function

 23 25  0  0  0  0  0  0  0  0999 V2000
    2.3357   -5.3383   29.1183 C   0  0  0  0  0  0  0  0  0  0  0  0
    4.6963   -4.8699   28.4427 C   0  0  0  0  0  0  0  0  0  0  0  0
    3.3545   -5.1786   28.0885 C   0  0  0  0  0  0  0  0  0  0  0  0
   -0.0011  -12.2148   16.4358 C   0  0  0  0  0  0  0  0  0  0  0  0
    6.4479   -4.3132   30.0484 C   0  0  0  0  0  0  0  0  0  0  0  0
    5.6621   -4.6709   27.3950 C   0  0  0  0  0  0  0  0  0  0  0  0
    1.0243   -5.6566   28.7404 C   0  0  0  0  0  0  0  0  0  0  0  0
   -0.9012   -7.5459   17.3946 C   0  0  0  0  0  0  0  0  0  0  0  0
    0.1939  -10.8692   16.1497 C   0  0  0  0  0  0  0  0  0  0  0  0
    0.4955  -13.2110   15.6613 O   0  0  0  0  0  0  0  0  0  0  0  0
   -0.4112   -9.8548   16.9374 C   0  0  0  0  0  0  0  0  0  0  0  0
    0.7412   -5.8050   27.4361 C   0  0  0  0  0  0  0  0  0  0  0  0
   -1.7938   -7.9376   18.4224 C   0  0  0  0  0  0  0  0  0  0  0  0
   -0.2381   -8.5022   16.6733 C   0  0  0  0  0  0  0  0  0  0  0  0
    6.9672   -4.2637   27.7246 C   0  0  0  0  0  0  0  0  0  0  0  0
    5.1077   -4.7282   29.7789 C   0  0  0  0  0  0  0  0  0  0  0  0
   -1.3808  -11.5999   18.3284 C   0  0  0  0  0  0  0  0  0  0  0  0
    1.6496   -5.6321   26.4334 C   0  0  0  0  0  0  0  0  0  0  0  0
   -1.2325  -10.2406   17.9873 C   0  0  0  0  0  0  0  0  0  0  0  0
   -0.7482  -12.5764   17.5413 C   0  0  0  0  0  0  0  0  0  0  0  0
   -1.9401   -9.2738   18.7022 C   0  0  0  0  0  0  0  0  0  0  0  0
    2.9791   -5.3129   26.7682 C   0  0  0  0  0  0  0  0  0  0  0  0
    7.3098   -4.1054   29.0269 C   0  0  0  0  0  0  0  0  0  0  0  0
  1  3  4  0
  1  7  4  0
  2  3  1  0
  2  6  4  0
  2 16  4  0
  3 22  4  0
  4  9  4  0
  4 10  1  0
  4 20  4  0
  5 16  4  0
  5 23  4  0
  6 15  4  0
  7 12  4  0
  8 13  4  0
  8 14  4  0
  9 11  4  0
 11 14  4  0
 11 19  4  0
 12 18  4  0
 13 21  4  0
 15 23  4  0
 17 19  4  0
 17 20  4  0
 18 22  4  0
 19 21  4  0
M  END
$$$$

 Created by Python create_sdf_string function

 23 35  0  0  0  0  0  0  0  0999 V2000
    2.3225   -5.2947   29.2674 F   0  0  0  0  0  0  0  0  0  0  0  0
    4.8282   -4.9089   28.4738 C   0  0  0  0  0  0  0  0  0  0  0  0
    3.3345   -5.1459   28.0767 C   0  0  0  0  0  0  0  0  0  0  0  0
   -0.0195  -12.0120   16.3328 C   0  0  0  0  0  0  0  0  0  0  0  0
    6.3710   -4.4196   29.8288 C   0  0  0  0  0  0  0  0  0  0  0  0
    5.6016   -4.6210   27.2275 C   0  0  0  0  0  0  0  0  0  0  0  0
    1.0098   -5.7178   28.8522 C   0  0  0  0  0  0  0  0  0  0  0  0
   -0.7045   -7.5253   17.4990 C   0  0  0  0  0  0  0  0  0  0  0  0
    0.2652  -10.8621   16.1629 C   0  0  0  0  0  0  0  0  0  0  0  0
    0.4056  -13.3126   15.7368 O   0  0  0  0  0  0  0  0  0  0  0  0
   -0.4112   -9.8631   17.2257 C   0  0  0  0  0  0  0  0  0  0  0  0
    0.9869   -5.9843   27.3796 C   0  0  0  0  0  0  0  0  0  0  0  0
   -1.7481   -8.0465   18.5211 C   0  0  0  0  0  0  0  0  0  0  0  0
    7.0119   -4.1442   27.9438 C   0  0  0  0  0  0  0  0  0  0  0  0
    5.0272   -4.7475   29.8651 C   0  0  0  0  0  0  0  0  0  0  0  0
   -1.3994  -11.7140   18.4087 C   0  0  0  0  0  0  0  0  0  0  0  0
    1.4613   -5.6757   26.5315 C   0  0  0  0  0  0  0  0  0  0  0  0
   -1.3226  -10.1184   18.0696 C   0  0  0  0  0  0  0  0  0  0  0  0
   -1.8888   -9.3184   18.7734 C   0  0  0  0  0  0  0  0  0  0  0  0
    3.0319   -5.3180   26.8801 C   0  0  0  0  0  0  0  0  0  0  0  0
    7.2402   -3.9386   29.1180 C   0  0  0  0  0  0  0  0  0  0  0  0
   -0.2978   -8.5119   16.5565 He  0  0  0  0  0  0  0  0  0  0  0  0
   -0.6708  -12.5811   17.5513 He  0  0  0  0  0  0  0  0  0  0  0  0
  1  3  4  0
  1  7  4  0
  1 17  3  0
  2  3  1  0
  2  4  2  0
  2  6  4  0
  2  8  4  0
  2  9  4  0
  2 15  4  0
  3 10  1  0
  3 18  3  0
  3 20  4  0
  4  7  1  0
  4  9  4  0
  4 10  1  0
  4 21  3  0
  5 13  1  0
  5 14  1  0
  5 18  4  0
  5 21  4  0
  6 14  4  0
  7 12  4  0
  8 13  4  0
  8 14  2  0
  9 11  4  0
  9 19  1  0
 11 18  4  0
 12 17  4  0
 13 18  4  0
 13 19  3  0
 13 21  3  0
 14 21  4  0
 16 18  4  0
 17 20  4  0
 18 19  4  0
M  END
$$$$

 Created by Python create_sdf_string function

 23 25  0  0  0  0  0  0  0  0999 V2000
    2.3989   -5.3647   29.1286 C   0  0  0  0  0  0  0  0  0  0  0  0
    4.6896   -4.8354   28.4354 C   0  0  0  0  0  0  0  0  0  0  0  0
    3.3526   -5.1684   28.1071 C   0  0  0  0  0  0  0  0  0  0  0  0
   -0.0231  -12.1821   16.4808 C   0  0  0  0  0  0  0  0  0  0  0  0
    6.4352   -4.3099   30.0435 C   0  0  0  0  0  0  0  0  0  0  0  0
    5.6351   -4.5749   27.4113 C   0  0  0  0  0  0  0  0  0  0  0  0
    1.0846   -5.7446   28.8130 C   0  0  0  0  0  0  0  0  0  0  0  0
   -0.9096   -7.5514   17.4874 C   0  0  0  0  0  0  0  0  0  0  0  0
    0.1683  -10.8636   16.2056 C   0  0  0  0  0  0  0  0  0  0  0  0
    0.4755  -13.1468   15.6815 O   0  0  0  0  0  0  0  0  0  0  0  0
   -0.4204   -9.8597   16.9796 C   0  0  0  0  0  0  0  0  0  0  0  0
    0.7395   -5.9085   27.5169 C   0  0  0  0  0  0  0  0  0  0  0  0
   -1.7260   -7.9518   18.5333 C   0  0  0  0  0  0  0  0  0  0  0  0
   -0.2327   -8.4961   16.7358 C   0  0  0  0  0  0  0  0  0  0  0  0
    6.9476   -4.1603   27.7338 C   0  0  0  0  0  0  0  0  0  0  0  0
    5.1130   -4.7447   29.7818 C   0  0  0  0  0  0  0  0  0  0  0  0
   -1.3849  -11.5629   18.3891 C   0  0  0  0  0  0  0  0  0  0  0  0
    1.6194   -5.7225   26.5009 C   0  0  0  0  0  0  0  0  0  0  0  0
   -1.2292  -10.2384   18.0522 C   0  0  0  0  0  0  0  0  0  0  0  0
   -0.7786  -12.5317   17.5731 C   0  0  0  0  0  0  0  0  0  0  0  0
   -1.8815   -9.2770   18.7941 C   0  0  0  0  0  0  0  0  0  0  0  0
    2.9423   -5.3288   26.8014 C   0  0  0  0  0  0  0  0  0  0  0  0
    7.3116   -4.0357   29.0544 C   0  0  0  0  0  0  0  0  0  0  0  0
  1  3  4  0
  1  7  4  0
  2  3  1  0
  2  6  4  0
  2 16  4  0
  3 22  4  0
  4  9  4  0
  4 10  1  0
  4 20  4  0
  5 16  4  0
  5 23  4  0
  6 15  4  0
  7 12  4  0
  8 13  4  0
  8 14  4  0
  9 11  4  0
 11 14  4  0
 11 19  4  0
 12 18  4  0
 13 21  4  0
 15 23  4  0
 17 19  4  0
 17 20  4  0
 18 22  4  0
 19 21  4  0
M  END
$$$$

 Created by Python create_sdf_string function

 23 29  0  0  0  0  0  0  0  0999 V2000
    2.4633   -5.3161   29.2338 C   0  0  0  0  0  0  0  0  0  0  0  0
    4.8808   -4.7285   28.5518 C   0  0  0  0  0  0  0  0  0  0  0  0
    3.2986   -5.1630   28.0258 C   0  0  0  0  0  0  0  0  0  0  0  0
    6.4920   -4.2741   29.9854 C   0  0  0  0  0  0  0  0  0  0  0  0
    5.7032   -4.5246   27.4700 C   0  0  0  0  0  0  0  0  0  0  0  0
    0.9153   -5.8164   28.8105 C   0  0  0  0  0  0  0  0  0  0  0  0
   -0.7708   -7.6536   17.3472 C   0  0  0  0  0  0  0  0  0  0  0  0
    0.0481  -11.0272   16.2396 C   0  0  0  0  0  0  0  0  0  0  0  0
    0.6358  -13.0276   15.7943 C   0  0  0  0  0  0  0  0  0  0  0  0
   -0.5687  -10.0883   17.2071 C   0  0  0  0  0  0  0  0  0  0  0  0
    0.6782   -5.8527   27.4672 C   0  0  0  0  0  0  0  0  0  0  0  0
   -1.7822   -8.0682   18.5978 C   0  0  0  0  0  0  0  0  0  0  0  0
   -0.4690   -8.5798   16.6993 C   0  0  0  0  0  0  0  0  0  0  0  0
    6.9955   -4.2422   27.5871 C   0  0  0  0  0  0  0  0  0  0  0  0
    5.1834   -4.7954   29.8598 C   0  0  0  0  0  0  0  0  0  0  0  0
    1.6985   -5.8174   26.5290 C   0  0  0  0  0  0  0  0  0  0  0  0
   -1.3921  -10.0923   17.8966 C   0  0  0  0  0  0  0  0  0  0  0  0
   -0.8671  -12.4722   17.6354 N   0  0  0  0  0  0  0  0  0  0  0  0
   -1.9141   -9.4454   18.8278 C   0  0  0  0  0  0  0  0  0  0  0  0
    2.7099   -5.6122   26.6836 C   0  0  0  0  0  0  0  0  0  0  0  0
    7.3326   -3.8230   29.1963 C   0  0  0  0  0  0  0  0  0  0  0  0
    0.0066  -12.1810   16.4438 He  0  0  0  0  0  0  0  0  0  0  0  0
   -1.4362  -11.5390   18.1886 He  0  0  0  0  0  0  0  0  0  0  0  0
  1  3  4  0
  1  6  4  0
  1 20  3  0
  2  3  1  0
  2  5  4  0
  2  7  1  0
  2 15  4  0
  3  8  4  0
  3 20  4  0
  4 15  4  0
  4 18  1  0
  4 21  4  0
  5 14  4  0
  6 10  3  0
  6 11  4  0
  6 15  1  0
  6 20  2  0
  7 12  4  0
  7 13  4  0
  8 10  4  0
  8 20  3  0
  9 10  4  0
 10 13  4  0
 10 17  4  0
 11 16  4  0
 11 21  2  0
 12 19  4  0
 14 21  4  0
 17 19  4  0
M  END
$$$$

 Created by Python create_sdf_string function

 23 25  0  0  0  0  0  0  0  0999 V2000
    2.4024   -5.3553   29.1278 C   0  0  0  0  0  0  0  0  0  0  0  0
    4.7147   -4.8385   28.4368 C   0  0  0  0  0  0  0  0  0  0  0  0
    3.3648   -5.2241   28.1154 C   0  0  0  0  0  0  0  0  0  0  0  0
   -0.0621  -12.1756   16.5495 C   0  0  0  0  0  0  0  0  0  0  0  0
    6.4713   -4.2626   30.0659 C   0  0  0  0  0  0  0  0  0  0  0  0
    5.6352   -4.5670   27.4100 C   0  0  0  0  0  0  0  0  0  0  0  0
    1.0700   -5.6950   28.8159 C   0  0  0  0  0  0  0  0  0  0  0  0
   -0.9738   -7.5936   17.4921 C   0  0  0  0  0  0  0  0  0  0  0  0
    0.1000  -10.8914   16.2270 C   0  0  0  0  0  0  0  0  0  0  0  0
    0.6054  -13.1764   15.7919 C   0  0  0  0  0  0  0  0  0  0  0  0
   -0.5234   -9.9258   16.9743 C   0  0  0  0  0  0  0  0  0  0  0  0
    0.7295   -5.9304   27.4932 C   0  0  0  0  0  0  0  0  0  0  0  0
   -1.7741   -7.9684   18.5607 C   0  0  0  0  0  0  0  0  0  0  0  0
   -0.3558   -8.5561   16.7104 C   0  0  0  0  0  0  0  0  0  0  0  0
    6.9514   -4.1196   27.7180 C   0  0  0  0  0  0  0  0  0  0  0  0
    5.1573   -4.6888   29.7896 C   0  0  0  0  0  0  0  0  0  0  0  0
   -1.5133  -11.6200   18.3426 C   0  0  0  0  0  0  0  0  0  0  0  0
    1.6439   -5.8043   26.4860 C   0  0  0  0  0  0  0  0  0  0  0  0
   -1.3478  -10.2897   18.0540 C   0  0  0  0  0  0  0  0  0  0  0  0
   -0.8749  -12.5205   17.5779 N   0  0  0  0  0  0  0  0  0  0  0  0
   -1.9770   -9.3128   18.8199 C   0  0  0  0  0  0  0  0  0  0  0  0
    2.9589   -5.4523   26.7942 C   0  0  0  0  0  0  0  0  0  0  0  0
    7.3411   -3.9844   29.0384 C   0  0  0  0  0  0  0  0  0  0  0  0
  1  3  4  0
  1  7  4  0
  2  3  1  0
  2  6  4  0
  2 16  4  0
  3 22  4  0
  4  9  4  0
  4 10  1  0
  4 20  4  0
  5 16  4  0
  5 23  4  0
  6 15  4  0
  7 12  4  0
  8 13  4  0
  8 14  4  0
  9 11  4  0
 11 14  4  0
 11 19  4  0
 12 18  4  0
 13 21  4  0
 15 23  4  0
 17 19  4  0
 17 20  4  0
 18 22  4  0
 19 21  4  0
M  END
$$$$

 Created by Python create_sdf_string function

 23 27  0  0  0  0  0  0  0  0999 V2000
    2.3717   -5.2472   29.0699 C   0  0  0  0  0  0  0  0  0  0  0  0
    3.3642   -5.3609   28.1539 C   0  0  0  0  0  0  0  0  0  0  0  0
    0.1604  -12.2794   16.5838 C   0  0  0  0  0  0  0  0  0  0  0  0
    6.4497   -4.2150   30.0930 C   0  0  0  0  0  0  0  0  0  0  0  0
    5.5428   -4.5854   27.2212 C   0  0  0  0  0  0  0  0  0  0  0  0
    0.8022   -5.4273   28.8097 C   0  0  0  0  0  0  0  0  0  0  0  0
   -1.0826   -7.6839   17.6139 C   0  0  0  0  0  0  0  0  0  0  0  0
    0.0580  -10.9923   16.1454 C   0  0  0  0  0  0  0  0  0  0  0  0
    0.8221  -13.1044   15.7193 C   0  0  0  0  0  0  0  0  0  0  0  0
   -0.4999   -9.7154   17.0171 I   0  0  0  0  0  0  0  0  0  0  0  0
    0.8343   -5.9903   27.5367 C   0  0  0  0  0  0  0  0  0  0  0  0
   -1.7858   -8.0365   18.5008 C   0  0  0  0  0  0  0  0  0  0  0  0
    7.0152   -4.1129   27.7531 C   0  0  0  0  0  0  0  0  0  0  0  0
    5.0581   -4.5757   29.8795 C   0  0  0  0  0  0  0  0  0  0  0  0
   -1.5010  -11.6627   18.2629 C   0  0  0  0  0  0  0  0  0  0  0  0
    1.5489   -5.7436   26.5873 C   0  0  0  0  0  0  0  0  0  0  0  0
   -1.6068  -10.2051   18.1013 C   0  0  0  0  0  0  0  0  0  0  0  0
   -0.7952  -12.7189   17.5291 N   0  0  0  0  0  0  0  0  0  0  0  0
   -1.9467   -9.2449   18.7648 C   0  0  0  0  0  0  0  0  0  0  0  0
    2.8713   -5.4736   26.8526 C   0  0  0  0  0  0  0  0  0  0  0  0
    7.5745   -3.8460   29.1419 C   0  0  0  0  0  0  0  0  0  0  0  0
    4.8055   -5.0767   28.6367 He  0  0  0  0  0  0  0  0  0  0  0  0
   -0.5487   -8.8491   16.7318 He  0  0  0  0  0  0  0  0  0  0  0  0
  1  2  4  0
  1  6  4  0
  2 15  4  0
  2 20  4  0
  3  7  2  0
  3  8  4  0
  3  9  3  0
  3 18  4  0
  4 14  4  0
  4 15  3  0
  4 21  4  0
  5 13  4  0
  7  9  1  0
  7 12  4  0
  7 21  4  0
  8  9  2  0
  8 10  4  0
 10 17  4  0
 11 15  3  0
 11 16  4  0
 12 19  4  0
 13 21  4  0
 15 17  4  0
 15 18  4  0
 16 20  4  0
 17 19  4  0
 18 21  4  0
M  END
$$$$

 Created by Python create_sdf_string function

 23 25  0  0  0  0  0  0  0  0999 V2000
    2.3569   -5.2590   29.1442 C   0  0  0  0  0  0  0  0  0  0  0  0
    4.6883   -4.8200   28.4634 C   0  0  0  0  0  0  0  0  0  0  0  0
    3.3354   -5.1914   28.1454 C   0  0  0  0  0  0  0  0  0  0  0  0
    0.0015  -12.1690   16.5502 C   0  0  0  0  0  0  0  0  0  0  0  0
    6.4239   -4.1973   30.1019 C   0  0  0  0  0  0  0  0  0  0  0  0
    5.6314   -4.6286   27.4465 C   0  0  0  0  0  0  0  0  0  0  0  0
    1.0115   -5.5731   28.8214 C   0  0  0  0  0  0  0  0  0  0  0  0
   -1.0922   -7.6341   17.5223 C   0  0  0  0  0  0  0  0  0  0  0  0
    0.1031  -10.8761   16.2485 C   0  0  0  0  0  0  0  0  0  0  0  0
    0.7797  -13.1420   15.7738 C   0  0  0  0  0  0  0  0  0  0  0  0
   -0.5693   -9.9191   16.9859 C   0  0  0  0  0  0  0  0  0  0  0  0
    0.6973   -5.8212   27.5121 C   0  0  0  0  0  0  0  0  0  0  0  0
   -1.8692   -8.0298   18.5824 C   0  0  0  0  0  0  0  0  0  0  0  0
   -0.4578   -8.5727   16.7316 C   0  0  0  0  0  0  0  0  0  0  0  0
    6.9423   -4.1597   27.7354 C   0  0  0  0  0  0  0  0  0  0  0  0
    5.1112   -4.6560   29.8104 C   0  0  0  0  0  0  0  0  0  0  0  0
   -1.5116  -11.6542   18.3275 C   0  0  0  0  0  0  0  0  0  0  0  0
    1.6256   -5.8320   26.5233 C   0  0  0  0  0  0  0  0  0  0  0  0
   -1.3849  -10.3060   18.0525 C   0  0  0  0  0  0  0  0  0  0  0  0
   -0.8163  -12.5686   17.5784 N   0  0  0  0  0  0  0  0  0  0  0  0
   -2.0277   -9.3625   18.8153 C   0  0  0  0  0  0  0  0  0  0  0  0
    2.9619   -5.5198   26.8345 C   0  0  0  0  0  0  0  0  0  0  0  0
    7.3217   -3.9414   29.0634 C   0  0  0  0  0  0  0  0  0  0  0  0
  1  3  4  0
  1  7  4  0
  2  3  1  0
  2  6  4  0
  2 16  4  0
  3 22  4  0
  4  9  4  0
  4 10  1  0
  4 20  4  0
  5 16  4  0
  5 23  4  0
  6 15  4  0
  7 12  4  0
  8 13  4  0
  8 14  4  0
  9 11  4  0
 11 14  4  0
 11 19  4  0
 12 18  4  0
 13 21  4  0
 15 23  4  0
 17 19  4  0
 17 20  4  0
 18 22  4  0
 19 21  4  0
M  END
$$$$

 Created by Python create_sdf_string function

 23 32  0  0  0  0  0  0  0  0999 V2000
    2.4264   -5.4678   29.3338 C   0  0  0  0  0  0  0  0  0  0  0  0
    4.7052   -4.7727   28.4433 C   0  0  0  0  0  0  0  0  0  0  0  0
    3.3391   -5.1642   28.3111 C   0  0  0  0  0  0  0  0  0  0  0  0
   -0.0325  -12.1828   16.4547 C   0  0  0  0  0  0  0  0  0  0  0  0
    6.4863   -4.1715   29.9956 C   0  0  0  0  0  0  0  0  0  0  0  0
    5.8255   -4.6612   27.5147 C   0  0  0  0  0  0  0  0  0  0  0  0
    0.9923   -5.6120   28.8107 C   0  0  0  0  0  0  0  0  0  0  0  0
   -1.0640   -7.6472   17.4705 C   0  0  0  0  0  0  0  0  0  0  0  0
   -0.0031  -10.8834   16.2465 C   0  0  0  0  0  0  0  0  0  0  0  0
    0.6708  -12.8657   15.8898 C   0  0  0  0  0  0  0  0  0  0  0  0
   -0.4784   -9.9514   17.0118 C   0  0  0  0  0  0  0  0  0  0  0  0
    0.6059   -5.9163   27.5954 C   0  0  0  0  0  0  0  0  0  0  0  0
   -1.8449   -7.9909   18.6111 C   0  0  0  0  0  0  0  0  0  0  0  0
   -0.4317   -8.5159   16.7840 C   0  0  0  0  0  0  0  0  0  0  0  0
    6.9427   -4.0486   27.6569 C   0  0  0  0  0  0  0  0  0  0  0  0
    5.0314   -4.7229   29.9235 C   0  0  0  0  0  0  0  0  0  0  0  0
    1.6690   -5.8985   26.5598 C   0  0  0  0  0  0  0  0  0  0  0  0
   -1.3425  -10.2595   18.1398 C   0  0  0  0  0  0  0  0  0  0  0  0
   -1.9201   -9.2916   18.7932 C   0  0  0  0  0  0  0  0  0  0  0  0
    2.9370   -5.4800   26.6732 C   0  0  0  0  0  0  0  0  0  0  0  0
    7.2278   -3.7826   28.9820 C   0  0  0  0  0  0  0  0  0  0  0  0
   -1.4574  -11.5258   18.2709 He  0  0  0  0  0  0  0  0  0  0  0  0
   -0.7581  -12.5920   17.7587 He  0  0  0  0  0  0  0  0  0  0  0  0
  1  2  1  0
  1  3  4  0
  1  7  4  0
  2  3  4  0
  2  6  4  0
  2 16  4  0
  3 20  4  0
  4  9  4  0
  4 10  1  0
  4 19  3  0
  5 16  4  0
  5 21  4  0
  6 15  4  0
  7 12  4  0
  8 13  4  0
  8 14  4  0
  9 11  4  0
  9 18  3  0
 10 11  3  0
 10 12  1  0
 11 13  1  0
 11 14  4  0
 11 18  4  0
 12 17  4  0
 13 18  3  0
 13 19  4  0
 14 16  2  0
 14 20  4  0
 15 21  4  0
 17 18  4  0
 17 20  4  0
 18 19  4  0
M  END
$$$$

 Created by Python create_sdf_string function

 23 25  0  0  0  0  0  0  0  0999 V2000
    2.3854   -5.3427   29.1832 C   0  0  0  0  0  0  0  0  0  0  0  0
    4.7045   -4.8327   28.4638 C   0  0  0  0  0  0  0  0  0  0  0  0
    3.3501   -5.2357   28.1633 C   0  0  0  0  0  0  0  0  0  0  0  0
   -0.0344  -12.1182   16.5913 C   0  0  0  0  0  0  0  0  0  0  0  0
    6.4429   -4.1288   30.0373 C   0  0  0  0  0  0  0  0  0  0  0  0
    5.6111   -4.5872   27.4203 C   0  0  0  0  0  0  0  0  0  0  0  0
    1.0639   -5.6927   28.8817 C   0  0  0  0  0  0  0  0  0  0  0  0
   -1.0655   -7.5564   17.5174 C   0  0  0  0  0  0  0  0  0  0  0  0
    0.0843  -10.8112   16.2586 C   0  0  0  0  0  0  0  0  0  0  0  0
    0.6672  -13.1006   15.8142 C   0  0  0  0  0  0  0  0  0  0  0  0
   -0.5463   -9.8630   17.0049 C   0  0  0  0  0  0  0  0  0  0  0  0
    0.7122   -5.9175   27.5666 C   0  0  0  0  0  0  0  0  0  0  0  0
   -1.8504   -7.9501   18.5834 C   0  0  0  0  0  0  0  0  0  0  0  0
   -0.4234   -8.4829   16.7347 C   0  0  0  0  0  0  0  0  0  0  0  0
    6.9211   -4.0958   27.7010 C   0  0  0  0  0  0  0  0  0  0  0  0
    5.1277   -4.6375   29.8034 C   0  0  0  0  0  0  0  0  0  0  0  0
   -1.4386  -11.5692   18.4287 C   0  0  0  0  0  0  0  0  0  0  0  0
    1.6336   -5.8157   26.5553 C   0  0  0  0  0  0  0  0  0  0  0  0
   -1.3303  -10.2470   18.1052 C   0  0  0  0  0  0  0  0  0  0  0  0
   -0.8183  -12.4927   17.6611 C   0  0  0  0  0  0  0  0  0  0  0  0
   -1.9794   -9.3038   18.8638 C   0  0  0  0  0  0  0  0  0  0  0  0
    2.9724   -5.4847   26.8539 C   0  0  0  0  0  0  0  0  0  0  0  0
    7.2924   -3.8615   29.0040 C   0  0  0  0  0  0  0  0  0  0  0  0
  1  3  4  0
  1  7  4  0
  2  3  1  0
  2  6  4  0
  2 16  4  0
  3 22  4  0
  4  9  4  0
  4 10  1  0
  4 20  4  0
  5 16  4  0
  5 23  4  0
  6 15  4  0
  7 12  4  0
  8 13  4  0
  8 14  4  0
  9 11  4  0
 11 14  4  0
 11 19  4  0
 12 18  4  0
 13 21  4  0
 15 23  4  0
 17 19  4  0
 17 20  4  0
 18 22  4  0
 19 21  4  0
M  END
$$$$

 Created by Python create_sdf_string function

 23 34  0  0  0  0  0  0  0  0999 V2000
    2.3771   -5.3802   29.1288 C   0  0  0  0  0  0  0  0  0  0  0  0
    4.6943   -4.9031   28.3670 C   0  0  0  0  0  0  0  0  0  0  0  0
    3.4892   -5.3144   28.1852 C   0  0  0  0  0  0  0  0  0  0  0  0
    0.0132  -12.2990   16.4985 C   0  0  0  0  0  0  0  0  0  0  0  0
    6.4949   -4.1727   29.9386 C   0  0  0  0  0  0  0  0  0  0  0  0
    5.4996   -4.5327   27.3386 C   0  0  0  0  0  0  0  0  0  0  0  0
    0.9923   -5.5896   28.9240 C   0  0  0  0  0  0  0  0  0  0  0  0
   -1.0663   -7.4583   17.4155 C   0  0  0  0  0  0  0  0  0  0  0  0
    0.2057  -10.7496   16.2111 C   0  0  0  0  0  0  0  0  0  0  0  0
    0.6741  -13.0070   15.7850 C   0  0  0  0  0  0  0  0  0  0  0  0
   -0.6516  -10.0157   17.1735 C   0  0  0  0  0  0  0  0  0  0  0  0
    0.7530   -5.9186   27.5797 C   0  0  0  0  0  0  0  0  0  0  0  0
   -1.9307   -7.8128   18.6532 C   0  0  0  0  0  0  0  0  0  0  0  0
   -0.3448   -8.6031   16.8454 C   0  0  0  0  0  0  0  0  0  0  0  0
    6.8530   -4.1256   27.8706 C   0  0  0  0  0  0  0  0  0  0  0  0
    5.1729   -4.6426   29.7472 C   0  0  0  0  0  0  0  0  0  0  0  0
   -1.3995  -11.6273   18.4501 C   0  0  0  0  0  0  0  0  0  0  0  0
    1.6403   -5.8101   26.6261 C   0  0  0  0  0  0  0  0  0  0  0  0
   -1.2012  -10.2631   17.9771 C   0  0  0  0  0  0  0  0  0  0  0  0
   -0.6674  -12.4293   17.5819 C   0  0  0  0  0  0  0  0  0  0  0  0
   -1.9847   -9.4113   19.0189 C   0  0  0  0  0  0  0  0  0  0  0  0
    3.0644   -5.3670   26.8588 O   0  0  0  0  0  0  0  0  0  0  0  0
    7.3164   -3.8327   29.1096 C   0  0  0  0  0  0  0  0  0  0  0  0
  1  3  4  0
  1  7  4  0
  1  9  4  0
  1 13  2  0
  2  3  1  0
  2  6  4  0
  3  4  1  0
  3 22  4  0
  4  9  4  0
  4 10  1  0
  4 18  3  0
  4 20  4  0
  5 16  4  0
  5 23  4  0
  6 15  4  0
  7 12  4  0
  7 18  1  0
  8 13  4  0
  8 14  4  0
  9 11  4  0
  9 15  2  0
 10 17  2  0
 10 21  3  0
 10 23  3  0
 11 14  4  0
 11 19  3  0
 12 18  4  0
 13 16  3  0
 13 21  4  0
 15 23  4  0
 17 20  4  0
 18 19  4  0
 18 22  3  0
 19 21  4  0
M  END
$$$$

 Created by Python create_sdf_string function

 23 25  0  0  0  0  0  0  0  0999 V2000
    2.4136   -5.3478   29.1888 C   0  0  0  0  0  0  0  0  0  0  0  0
    4.7010   -4.8075   28.4732 C   0  0  0  0  0  0  0  0  0  0  0  0
    3.3650   -5.2039   28.1783 C   0  0  0  0  0  0  0  0  0  0  0  0
    0.0177  -12.1296   16.5664 C   0  0  0  0  0  0  0  0  0  0  0  0
    6.4572   -4.1784   30.0462 C   0  0  0  0  0  0  0  0  0  0  0  0
    5.5939   -4.5516   27.4146 C   0  0  0  0  0  0  0  0  0  0  0  0
    1.0867   -5.6707   28.8838 C   0  0  0  0  0  0  0  0  0  0  0  0
   -1.0790   -7.5341   17.5298 C   0  0  0  0  0  0  0  0  0  0  0  0
    0.1291  -10.8118   16.2838 C   0  0  0  0  0  0  0  0  0  0  0  0
    0.6793  -13.0851   15.7384 C   0  0  0  0  0  0  0  0  0  0  0  0
   -0.5000   -9.8474   17.0478 C   0  0  0  0  0  0  0  0  0  0  0  0
    0.7615   -5.8756   27.5755 C   0  0  0  0  0  0  0  0  0  0  0  0
   -1.8700   -7.9326   18.6012 C   0  0  0  0  0  0  0  0  0  0  0  0
   -0.4160   -8.4735   16.7822 C   0  0  0  0  0  0  0  0  0  0  0  0
    6.8762   -4.0712   27.7247 C   0  0  0  0  0  0  0  0  0  0  0  0
    5.1563   -4.6585   29.8061 C   0  0  0  0  0  0  0  0  0  0  0  0
   -1.3914  -11.5981   18.4396 C   0  0  0  0  0  0  0  0  0  0  0  0
    1.6831   -5.7779   26.5927 C   0  0  0  0  0  0  0  0  0  0  0  0
   -1.2855  -10.2372   18.1397 C   0  0  0  0  0  0  0  0  0  0  0  0
   -0.7384  -12.5202   17.6417 C   0  0  0  0  0  0  0  0  0  0  0  0
   -1.9696   -9.2809   18.8933 C   0  0  0  0  0  0  0  0  0  0  0  0
    2.9886   -5.4569   26.8839 C   0  0  0  0  0  0  0  0  0  0  0  0
    7.3014   -3.8888   29.0095 C   0  0  0  0  0  0  0  0  0  0  0  0
  1  3  4  0
  1  7  4  0
  2  3  1  0
  2  6  4  0
  2 16  4  0
  3 22  4  0
  4  9  4  0
  4 10  1  0
  4 20  4  0
  5 16  4  0
  5 23  4  0
  6 15  4  0
  7 12  4  0
  8 13  4  0
  8 14  4  0
  9 11  4  0
 11 14  4  0
 11 19  4  0
 12 18  4  0
 13 21  4  0
 15 23  4  0
 17 19  4  0
 17 20  4  0
 18 22  4  0
 19 21  4  0
M  END
$$$$

 Created by Python create_sdf_string function

 23 24  0  0  0  0  0  0  0  0999 V2000
    2.2616   -5.3666   29.2404 C   0  0  0  0  0  0  0  0  0  0  0  0
    4.6736   -4.8248   28.4023 C   0  0  0  0  0  0  0  0  0  0  0  0
    3.3039   -5.2730   28.0907 C   0  0  0  0  0  0  0  0  0  0  0  0
    0.0167  -12.0739   16.5125 C   0  0  0  0  0  0  0  0  0  0  0  0
    6.5205   -4.2576   30.0445 C   0  0  0  0  0  0  0  0  0  0  0  0
    5.6796   -4.5837   27.6139 C   0  0  0  0  0  0  0  0  0  0  0  0
    0.9992   -5.6746   28.9132 C   0  0  0  0  0  0  0  0  0  0  0  0
   -1.2110   -7.3908   17.6590 C   0  0  0  0  0  0  0  0  0  0  0  0
    0.2302  -10.7907   16.2776 C   0  0  0  0  0  0  0  0  0  0  0  0
    0.4767  -13.0879   15.6619 C   0  0  0  0  0  0  0  0  0  0  0  0
   -0.6768   -9.8437   17.1769 C   0  0  0  0  0  0  0  0  0  0  0  0
    0.7477   -5.6827   27.7411 C   0  0  0  0  0  0  0  0  0  0  0  0
   -1.9112   -7.9066   18.5301 C   0  0  0  0  0  0  0  0  0  0  0  0
   -0.3280   -8.5801   16.9991 C   0  0  0  0  0  0  0  0  0  0  0  0
    7.0376   -4.2001   27.6451 C   0  0  0  0  0  0  0  0  0  0  0  0
    5.2414   -4.6840   29.8620 C   0  0  0  0  0  0  0  0  0  0  0  0
   -1.3451  -11.4608   18.5186 C   0  0  0  0  0  0  0  0  0  0  0  0
    1.7587   -5.6094   26.6750 C   0  0  0  0  0  0  0  0  0  0  0  0
   -1.3585  -10.1599   17.9953 P   0  0  0  0  0  0  0  0  0  0  0  0
   -0.8252  -12.5684   17.6667 C   0  0  0  0  0  0  0  0  0  0  0  0
   -1.9909   -9.2840   18.9268 C   0  0  0  0  0  0  0  0  0  0  0  0
    7.2889   -3.7843   28.9038 C   0  0  0  0  0  0  0  0  0  0  0  0
    3.1024   -5.3620   26.8178 He  0  0  0  0  0  0  0  0  0  0  0  0
  1  3  4  0
  1  7  4  0
  2  3  1  0
  2  6  4  0
  2 10  2  0
  2 16  4  0
  3  5  4  0
  3 20  4  0
  4  9  4  0
  4 10  1  0
  4 20  4  0
  5 10  1  0
  5 16  4  0
  6 15  4  0
  7 12  4  0
  8 13  4  0
  8 14  4  0
  9 11  4  0
 11 14  4  0
 11 19  4  0
 12 18  4  0
 13 21  4  0
 17 19  4  0
 17 20  4  0
M  END
$$$$

 Created by Python create_sdf_string function

 23 25  0  0  0  0  0  0  0  0999 V2000
    2.4190   -5.3570   29.2172 C   0  0  0  0  0  0  0  0  0  0  0  0
    4.7268   -4.8242   28.4884 C   0  0  0  0  0  0  0  0  0  0  0  0
    3.3635   -5.1866   28.1960 C   0  0  0  0  0  0  0  0  0  0  0  0
   -0.0539  -12.0879   16.5679 C   0  0  0  0  0  0  0  0  0  0  0  0
    6.5150   -4.1860   30.0486 C   0  0  0  0  0  0  0  0  0  0  0  0
    5.6526   -4.6005   27.4466 C   0  0  0  0  0  0  0  0  0  0  0  0
    1.0766   -5.6296   28.9197 C   0  0  0  0  0  0  0  0  0  0  0  0
   -1.1094   -7.4890   17.6186 C   0  0  0  0  0  0  0  0  0  0  0  0
    0.0998  -10.7492   16.3332 C   0  0  0  0  0  0  0  0  0  0  0  0
    0.5135  -13.0751   15.6897 C   0  0  0  0  0  0  0  0  0  0  0  0
   -0.5102   -9.7780   17.1117 C   0  0  0  0  0  0  0  0  0  0  0  0
    0.7438   -5.7504   27.6044 C   0  0  0  0  0  0  0  0  0  0  0  0
   -1.9364   -7.9093   18.6152 C   0  0  0  0  0  0  0  0  0  0  0  0
   -0.4171   -8.4198   16.8831 C   0  0  0  0  0  0  0  0  0  0  0  0
    6.9726   -4.1295   27.7076 C   0  0  0  0  0  0  0  0  0  0  0  0
    5.1974   -4.6541   29.8064 C   0  0  0  0  0  0  0  0  0  0  0  0
   -1.4379  -11.5227   18.4487 C   0  0  0  0  0  0  0  0  0  0  0  0
    1.6335   -5.6285   26.6101 C   0  0  0  0  0  0  0  0  0  0  0  0
   -1.3271  -10.1817   18.1705 C   0  0  0  0  0  0  0  0  0  0  0  0
   -0.7938  -12.4760   17.6633 C   0  0  0  0  0  0  0  0  0  0  0  0
   -2.0503   -9.2470   18.8815 C   0  0  0  0  0  0  0  0  0  0  0  0
    2.9955   -5.3560   26.8791 C   0  0  0  0  0  0  0  0  0  0  0  0
    7.3363   -3.9285   29.0030 C   0  0  0  0  0  0  0  0  0  0  0  0
  1  3  4  0
  1  7  4  0
  2  3  1  0
  2  6  4  0
  2 16  4  0
  3 22  4  0
  4  9  4  0
  4 10  1  0
  4 20  4  0
  5 16  4  0
  5 23  4  0
  6 15  4  0
  7 12  4  0
  8 13  4  0
  8 14  4  0
  9 11  4  0
 11 14  4  0
 11 19  4  0
 12 18  4  0
 13 21  4  0
 15 23  4  0
 17 19  4  0
 17 20  4  0
 18 22  4  0
 19 21  4  0
M  END
$$$$

 Created by Python create_sdf_string function

 23 28  0  0  0  0  0  0  0  0999 V2000
    2.2938   -5.3407   29.2155 C   0  0  0  0  0  0  0  0  0  0  0  0
    4.7222   -4.7416   28.3019 C   0  0  0  0  0  0  0  0  0  0  0  0
    3.2094   -5.2446   28.2111 C   0  0  0  0  0  0  0  0  0  0  0  0
   -0.1199  -12.0334   16.6491 C   0  0  0  0  0  0  0  0  0  0  0  0
    6.4838   -4.2253   30.1355 C   0  0  0  0  0  0  0  0  0  0  0  0
    5.6933   -4.5559   27.4574 C   0  0  0  0  0  0  0  0  0  0  0  0
    1.0112   -5.8052   28.7137 C   0  0  0  0  0  0  0  0  0  0  0  0
   -1.2359   -7.5907   17.6259 C   0  0  0  0  0  0  0  0  0  0  0  0
    0.0515  -10.7857   16.3218 C   0  0  0  0  0  0  0  0  0  0  0  0
    0.4845  -13.1433   15.6656 C   0  0  0  0  0  0  0  0  0  0  0  0
   -0.5995   -9.8104   17.0143 C   0  0  0  0  0  0  0  0  0  0  0  0
    0.8185   -5.8016   27.5180 C   0  0  0  0  0  0  0  0  0  0  0  0
   -1.8862   -7.7922   18.7362 C   0  0  0  0  0  0  0  0  0  0  0  0
   -0.3816   -8.3105   16.8648 C   0  0  0  0  0  0  0  0  0  0  0  0
    6.9237   -4.1151   27.6954 C   0  0  0  0  0  0  0  0  0  0  0  0
    5.2333   -4.4840   29.8397 C   0  0  0  0  0  0  0  0  0  0  0  0
   -1.4613  -11.5506   18.4785 C   0  0  0  0  0  0  0  0  0  0  0  0
    1.5751   -5.6120   26.5311 C   0  0  0  0  0  0  0  0  0  0  0  0
   -1.3206  -10.1087   18.2511 C   0  0  0  0  0  0  0  0  0  0  0  0
   -0.7357  -12.6229   17.6153 C   0  0  0  0  0  0  0  0  0  0  0  0
   -2.0048   -9.1650   18.7451 C   0  0  0  0  0  0  0  0  0  0  0  0
    2.9431   -5.3826   26.8269 C   0  0  0  0  0  0  0  0  0  0  0  0
    7.3393   -3.7852   28.9917 C   0  0  0  0  0  0  0  0  0  0  0  0
  1  3  4  0
  1  7  4  0
  1 20  3  0
  2  3  1  0
  2  6  4  0
  2 16  4  0
  3 22  4  0
  4  9  4  0
  4 10  1  0
  4 20  4  0
  5 16  4  0
  5 23  4  0
  6  9  3  0
  6 15  4  0
  6 22  1  0
  7 12  4  0
  8 13  4  0
  9 11  4  0
 10 17  2  0
 11 19  4  0
 12 17  1  0
 12 18  4  0
 12 23  1  0
 13 21  4  0
 15 23  4  0
 17 19  4  0
 18 22  4  0
 19 21  4  0
M  END
$$$$

 Created by Python create_sdf_string function

 23 25  0  0  0  0  0  0  0  0999 V2000
    2.3600   -5.3843   29.1444 C   0  0  0  0  0  0  0  0  0  0  0  0
    4.6962   -4.7582   28.4515 C   0  0  0  0  0  0  0  0  0  0  0  0
    3.3170   -5.1623   28.1313 C   0  0  0  0  0  0  0  0  0  0  0  0
   -0.0999  -12.0758   16.5848 C   0  0  0  0  0  0  0  0  0  0  0  0
    6.4628   -4.1297   30.0563 C   0  0  0  0  0  0  0  0  0  0  0  0
    5.6404   -4.5382   27.4216 C   0  0  0  0  0  0  0  0  0  0  0  0
    1.0479   -5.7316   28.8142 C   0  0  0  0  0  0  0  0  0  0  0  0
   -1.1293   -7.4787   17.6184 C   0  0  0  0  0  0  0  0  0  0  0  0
    0.0424  -10.7403   16.3164 C   0  0  0  0  0  0  0  0  0  0  0  0
    0.4812  -13.0848   15.7214 C   0  0  0  0  0  0  0  0  0  0  0  0
   -0.5728   -9.7622   17.0919 C   0  0  0  0  0  0  0  0  0  0  0  0
    0.7177   -5.8487   27.4957 C   0  0  0  0  0  0  0  0  0  0  0  0
   -1.9277   -7.8637   18.6568 C   0  0  0  0  0  0  0  0  0  0  0  0
   -0.4712   -8.3776   16.8489 C   0  0  0  0  0  0  0  0  0  0  0  0
    6.9477   -4.0892   27.6965 C   0  0  0  0  0  0  0  0  0  0  0  0
    5.1461   -4.5584   29.7566 C   0  0  0  0  0  0  0  0  0  0  0  0
   -1.4481  -11.5112   18.4723 C   0  0  0  0  0  0  0  0  0  0  0  0
    1.6272   -5.6523   26.4944 C   0  0  0  0  0  0  0  0  0  0  0  0
   -1.3551  -10.1496   18.1625 C   0  0  0  0  0  0  0  0  0  0  0  0
   -0.8234  -12.4567   17.6955 C   0  0  0  0  0  0  0  0  0  0  0  0
   -2.0211   -9.2179   18.9130 C   0  0  0  0  0  0  0  0  0  0  0  0
    2.9503   -5.3253   26.8192 C   0  0  0  0  0  0  0  0  0  0  0  0
    7.3445   -3.8811   29.0021 C   0  0  0  0  0  0  0  0  0  0  0  0
  1  3  4  0
  1  7  4  0
  2  3  1  0
  2  6  4  0
  2 16  4  0
  3 22  4  0
  4  9  4  0
  4 10  1  0
  4 20  4  0
  5 16  4  0
  5 23  4  0
  6 15  4  0
  7 12  4  0
  8 13  4  0
  8 14  4  0
  9 11  4  0
 11 14  4  0
 11 19  4  0
 12 18  4  0
 13 21  4  0
 15 23  4  0
 17 19  4  0
 17 20  4  0
 18 22  4  0
 19 21  4  0
M  END
$$$$

 Created by Python create_sdf_string function

 23 25  0  0  0  0  0  0  0  0999 V2000
    2.4251   -5.4073   29.0906 C   0  0  0  0  0  0  0  0  0  0  0  0
    4.7583   -4.7693   28.6032 C   0  0  0  0  0  0  0  0  0  0  0  0
   -0.1191  -12.1266   16.6051 C   0  0  0  0  0  0  0  0  0  0  0  0
    6.4613   -4.1288   30.0528 C   0  0  0  0  0  0  0  0  0  0  0  0
    5.6833   -4.4901   27.4168 C   0  0  0  0  0  0  0  0  0  0  0  0
    1.0741   -5.7122   28.8846 C   0  0  0  0  0  0  0  0  0  0  0  0
   -1.1495   -7.4452   17.6552 C   0  0  0  0  0  0  0  0  0  0  0  0
    0.1704  -10.7485   16.2991 C   0  0  0  0  0  0  0  0  0  0  0  0
    0.3472  -13.1031   15.7532 C   0  0  0  0  0  0  0  0  0  0  0  0
   -0.5423   -9.6481   17.0438 C   0  0  0  0  0  0  0  0  0  0  0  0
    0.7788   -5.8306   27.3024 C   0  0  0  0  0  0  0  0  0  0  0  0
   -1.8970   -7.8579   18.6372 C   0  0  0  0  0  0  0  0  0  0  0  0
   -0.4309   -8.4541   16.7832 C   0  0  0  0  0  0  0  0  0  0  0  0
    6.9419   -3.9731   27.7615 C   0  0  0  0  0  0  0  0  0  0  0  0
    5.0386   -4.5808   29.8071 C   0  0  0  0  0  0  0  0  0  0  0  0
   -1.4393  -11.5322   18.4168 C   0  0  0  0  0  0  0  0  0  0  0  0
    1.5726   -5.6592   26.6309 C   0  0  0  0  0  0  0  0  0  0  0  0
   -1.3164  -10.0379   18.0585 C   0  0  0  0  0  0  0  0  0  0  0  0
   -0.8399  -12.4040   17.7463 C   0  0  0  0  0  0  0  0  0  0  0  0
   -1.9534   -9.2289   18.8978 C   0  0  0  0  0  0  0  0  0  0  0  0
    2.8936   -5.3263   26.8388 C   0  0  0  0  0  0  0  0  0  0  0  0
    7.3909   -3.8892   28.9751 C   0  0  0  0  0  0  0  0  0  0  0  0
    3.4318   -5.0545   28.0181 He  0  0  0  0  0  0  0  0  0  0  0  0
  1  6  4  0
  1 15  3  0
  2  5  4  0
  2 15  4  0
  3  8  4  0
  3  9  1  0
  3 19  4  0
  4 15  4  0
  4 20  2  0
  4 22  4  0
  5 14  4  0
  6 11  4  0
  7 13  4  0
  8 10  4  0
 10 13  4  0
 10 18  4  0
 11 17  4  0
 12 20  4  0
 14 16  4  0
 14 22  4  0
 15 19  1  0
 16 18  4  0
 16 19  4  0
 17 21  4  0
 18 20  4  0
M  END
$$$$

 Created by Python create_sdf_string function

 23 25  0  0  0  0  0  0  0  0999 V2000
    2.4310   -5.3624   29.1020 C   0  0  0  0  0  0  0  0  0  0  0  0
    4.7316   -4.7190   28.4435 C   0  0  0  0  0  0  0  0  0  0  0  0
    3.3647   -5.1368   28.1094 C   0  0  0  0  0  0  0  0  0  0  0  0
   -0.1198  -12.0638   16.6074 C   0  0  0  0  0  0  0  0  0  0  0  0
    6.4544   -4.1400   30.0668 C   0  0  0  0  0  0  0  0  0  0  0  0
    5.6441   -4.4688   27.4263 C   0  0  0  0  0  0  0  0  0  0  0  0
    1.0958   -5.7189   28.8104 C   0  0  0  0  0  0  0  0  0  0  0  0
   -1.1094   -7.4493   17.5848 C   0  0  0  0  0  0  0  0  0  0  0  0
    0.0644  -10.7326   16.3280 C   0  0  0  0  0  0  0  0  0  0  0  0
    0.3938  -13.0933   15.7759 C   0  0  0  0  0  0  0  0  0  0  0  0
   -0.5502   -9.7442   17.0832 C   0  0  0  0  0  0  0  0  0  0  0  0
    0.7403   -5.8465   27.4784 C   0  0  0  0  0  0  0  0  0  0  0  0
   -1.8833   -7.8365   18.6390 C   0  0  0  0  0  0  0  0  0  0  0  0
   -0.4530   -8.3854   16.8270 C   0  0  0  0  0  0  0  0  0  0  0  0
    6.9540   -4.0325   27.7333 C   0  0  0  0  0  0  0  0  0  0  0  0
    5.1422   -4.5649   29.7778 C   0  0  0  0  0  0  0  0  0  0  0  0
   -1.4708  -11.4657   18.4750 C   0  0  0  0  0  0  0  0  0  0  0  0
    1.6425   -5.6393   26.4853 C   0  0  0  0  0  0  0  0  0  0  0  0
   -1.3398  -10.1253   18.1625 C   0  0  0  0  0  0  0  0  0  0  0  0
   -0.8582  -12.4180   17.6961 C   0  0  0  0  0  0  0  0  0  0  0  0
   -2.0055   -9.1752   18.9152 C   0  0  0  0  0  0  0  0  0  0  0  0
    2.9475   -5.2895   26.7969 C   0  0  0  0  0  0  0  0  0  0  0  0
    7.3456   -3.8727   29.0450 C   0  0  0  0  0  0  0  0  0  0  0  0
  1  3  4  0
  1  7  4  0
  2  3  1  0
  2  6  4  0
  2 16  4  0
  3 22  4  0
  4  9  4  0
  4 10  1  0
  4 20  4  0
  5 16  4  0
  5 23  4  0
  6 15  4  0
  7 12  4  0
  8 13  4  0
  8 14  4  0
  9 11  4  0
 11 14  4  0
 11 19  4  0
 12 18  4  0
 13 21  4  0
 15 23  4  0
 17 19  4  0
 17 20  4  0
 18 22  4  0
 19 21  4  0
M  END
$$$$

 Created by Python create_sdf_string function

 23 33  0  0  0  0  0  0  0  0999 V2000
    2.5357   -5.2476   29.0691 C   0  0  0  0  0  0  0  0  0  0  0  0
    4.7353   -4.7220   28.4438 C   0  0  0  0  0  0  0  0  0  0  0  0
    3.3692   -5.1928   28.1211 C   0  0  0  0  0  0  0  0  0  0  0  0
   -0.0875  -12.0097   16.5873 C   0  0  0  0  0  0  0  0  0  0  0  0
    6.5169   -4.1895   30.0513 C   0  0  0  0  0  0  0  0  0  0  0  0
    5.7628   -4.4145   27.4294 C   0  0  0  0  0  0  0  0  0  0  0  0
    1.1192   -5.6532   28.8616 C   0  0  0  0  0  0  0  0  0  0  0  0
   -1.0824   -7.3429   17.6890 C   0  0  0  0  0  0  0  0  0  0  0  0
    0.0973  -10.8058   16.2628 C   0  0  0  0  0  0  0  0  0  0  0  0
    0.4567  -13.1505   15.8093 C   0  0  0  0  0  0  0  0  0  0  0  0
   -0.5486   -9.7408   17.0668 C   0  0  0  0  0  0  0  0  0  0  0  0
    0.7388   -5.8188   27.4929 C   0  0  0  0  0  0  0  0  0  0  0  0
   -1.8096   -7.8782   18.6053 C   0  0  0  0  0  0  0  0  0  0  0  0
   -0.5769   -8.3479   16.8714 C   0  0  0  0  0  0  0  0  0  0  0  0
    7.0550   -4.0676   27.7962 C   0  0  0  0  0  0  0  0  0  0  0  0
    5.1996   -4.5071   29.7955 C   0  0  0  0  0  0  0  0  0  0  0  0
   -1.4901  -11.4041   18.4007 C   0  0  0  0  0  0  0  0  0  0  0  0
    1.6090   -5.5606   26.4147 C   0  0  0  0  0  0  0  0  0  0  0  0
   -1.2505  -10.1138   18.1235 C   0  0  0  0  0  0  0  0  0  0  0  0
   -0.8523  -12.4078   17.7198 C   0  0  0  0  0  0  0  0  0  0  0  0
   -2.0707   -9.1902   18.8124 C   0  0  0  0  0  0  0  0  0  0  0  0
    2.9774   -5.2904   26.9122 C   0  0  0  0  0  0  0  0  0  0  0  0
    7.4129   -3.9453   29.0253 C   0  0  0  0  0  0  0  0  0  0  0  0
  1  3  4  0
  1  7  4  0
  2  3  1  0
  2  6  4  0
  2 16  4  0
  3 10  4  0
  3 18  4  0
  3 22  4  0
  4  9  4  0
  4 10  1  0
  4 15  1  0
  4 20  4  0
  5  8  3  0
  5 16  4  0
  5 23  4  0
  6  9  3  0
  6 15  4  0
  7 12  4  0
  8 13  4  0
  8 14  4  0
  8 15  4  0
  9 11  4  0
 10 23  1  0
 11 14  4  0
 11 19  4  0
 12 16  1  0
 12 18  4  0
 13 21  4  0
 15 23  4  0
 17 19  4  0
 17 20  4  0
 18 22  4  0
 19 21  4  0
M  END
$$$$

 Created by Python create_sdf_string function

 23 25  0  0  0  0  0  0  0  0999 V2000
    2.4676   -5.3001   29.1188 C   0  0  0  0  0  0  0  0  0  0  0  0
    4.7870   -4.6962   28.4433 C   0  0  0  0  0  0  0  0  0  0  0  0
    3.3985   -5.0921   28.1159 C   0  0  0  0  0  0  0  0  0  0  0  0
   -0.1081  -12.0407   16.6158 C   0  0  0  0  0  0  0  0  0  0  0  0
    6.5177   -4.1703   30.0750 C   0  0  0  0  0  0  0  0  0  0  0  0
    5.7219   -4.4527   27.4404 C   0  0  0  0  0  0  0  0  0  0  0  0
    1.1343   -5.6505   28.8479 C   0  0  0  0  0  0  0  0  0  0  0  0
   -1.0866   -7.4240   17.6324 C   0  0  0  0  0  0  0  0  0  0  0  0
    0.0471  -10.7122   16.3224 C   0  0  0  0  0  0  0  0  0  0  0  0
    0.4649  -13.1162   15.8208 C   0  0  0  0  0  0  0  0  0  0  0  0
   -0.5779   -9.7209   17.0785 C   0  0  0  0  0  0  0  0  0  0  0  0
    0.7732   -5.7877   27.5158 C   0  0  0  0  0  0  0  0  0  0  0  0
   -1.8748   -7.8447   18.6542 C   0  0  0  0  0  0  0  0  0  0  0  0
   -0.4809   -8.3495   16.8516 C   0  0  0  0  0  0  0  0  0  0  0  0
    7.0312   -4.0710   27.7542 C   0  0  0  0  0  0  0  0  0  0  0  0
    5.1982   -4.5427   29.7745 C   0  0  0  0  0  0  0  0  0  0  0  0
   -1.4928  -11.4365   18.4623 C   0  0  0  0  0  0  0  0  0  0  0  0
    1.6695   -5.5946   26.4892 C   0  0  0  0  0  0  0  0  0  0  0  0
   -1.3728  -10.0953   18.1479 C   0  0  0  0  0  0  0  0  0  0  0  0
   -0.8669  -12.3912   17.7088 C   0  0  0  0  0  0  0  0  0  0  0  0
   -2.0371   -9.1452   18.8940 C   0  0  0  0  0  0  0  0  0  0  0  0
    2.9864   -5.2735   26.8244 C   0  0  0  0  0  0  0  0  0  0  0  0
    7.4173   -3.9431   29.0668 C   0  0  0  0  0  0  0  0  0  0  0  0
  1  3  4  0
  1  7  4  0
  2  3  1  0
  2  6  4  0
  2 16  4  0
  3 22  4  0
  4  9  4  0
  4 10  1  0
  4 20  4  0
  5 16  4  0
  5 23  4  0
  6 15  4  0
  7 12  4  0
  8 13  4  0
  8 14  4  0
  9 11  4  0
 11 14  4  0
 11 19  4  0
 12 18  4  0
 13 21  4  0
 15 23  4  0
 17 19  4  0
 17 20  4  0
 18 22  4  0
 19 21  4  0
M  END
$$$$

 Created by Python create_sdf_string function

 23 29  0  0  0  0  0  0  0  0999 V2000
    2.4205   -5.2345   29.0611 C   0  0  0  0  0  0  0  0  0  0  0  0
    4.7874   -4.6436   28.5605 C   0  0  0  0  0  0  0  0  0  0  0  0
    3.3809   -5.0730   28.1623 C   0  0  0  0  0  0  0  0  0  0  0  0
   -0.1082  -12.0866   16.5299 C   0  0  0  0  0  0  0  0  0  0  0  0
    6.4716   -4.1455   30.0222 C   0  0  0  0  0  0  0  0  0  0  0  0
    5.6683   -4.4359   27.3914 C   0  0  0  0  0  0  0  0  0  0  0  0
    1.0493   -5.5666   28.8683 C   0  0  0  0  0  0  0  0  0  0  0  0
   -1.0821   -7.4878   17.6625 C   0  0  0  0  0  0  0  0  0  0  0  0
    0.0262  -10.7772   16.4207 C   0  0  0  0  0  0  0  0  0  0  0  0
    0.4193  -13.0962   15.8611 C   0  0  0  0  0  0  0  0  0  0  0  0
   -0.5846   -9.6756   17.1727 C   0  0  0  0  0  0  0  0  0  0  0  0
    0.6832   -5.8445   27.4003 C   0  0  0  0  0  0  0  0  0  0  0  0
   -1.8631   -7.9184   18.6199 C   0  0  0  0  0  0  0  0  0  0  0  0
   -0.4126   -8.4443   16.9606 C   0  0  0  0  0  0  0  0  0  0  0  0
    7.0385   -4.0844   27.7146 C   0  0  0  0  0  0  0  0  0  0  0  0
    5.1290   -4.4936   29.6304 C   0  0  0  0  0  0  0  0  0  0  0  0
   -1.4365  -11.4655   18.4409 C   0  0  0  0  0  0  0  0  0  0  0  0
    1.6717   -5.5920   26.3932 C   0  0  0  0  0  0  0  0  0  0  0  0
   -1.4277  -10.0246   18.1379 C   0  0  0  0  0  0  0  0  0  0  0  0
   -0.8251  -12.3813   17.7372 C   0  0  0  0  0  0  0  0  0  0  0  0
   -1.9974   -9.2251   18.8985 C   0  0  0  0  0  0  0  0  0  0  0  0
    2.8601   -5.3481   26.7649 C   0  0  0  0  0  0  0  0  0  0  0  0
    7.4405   -3.9080   29.0625 O   0  0  0  0  0  0  0  0  0  0  0  0
  1  3  4  0
  1  7  4  0
  2  3  1  0
  2  6  4  0
  2 16  4  0
  3 22  4  0
  4  9  4  0
  4 10  1  0
  4 20  4  0
  4 23  1  0
  5 11  4  0
  5 16  4  0
  5 23  4  0
  6 15  4  0
  7 12  4  0
  8  9  2  0
  8 13  4  0
  8 14  4  0
  8 16  1  0
  9 11  4  0
  9 18  3  0
 11 14  4  0
 11 19  4  0
 12 18  4  0
 13 21  4  0
 15 23  4  0
 17 19  4  0
 17 20  4  0
 18 22  4  0
M  END
$$$$

 Created by Python create_sdf_string function

 23 25  0  0  0  0  0  0  0  0999 V2000
    2.3962   -5.2330   29.0810 C   0  0  0  0  0  0  0  0  0  0  0  0
    4.7470   -4.6682   28.4188 C   0  0  0  0  0  0  0  0  0  0  0  0
    3.3622   -5.0658   28.0890 C   0  0  0  0  0  0  0  0  0  0  0  0
   -0.1362  -12.0504   16.6537 C   0  0  0  0  0  0  0  0  0  0  0  0
    6.4876   -4.1284   30.0322 C   0  0  0  0  0  0  0  0  0  0  0  0
    5.6804   -4.4537   27.4088 C   0  0  0  0  0  0  0  0  0  0  0  0
    1.0693   -5.5915   28.7994 C   0  0  0  0  0  0  0  0  0  0  0  0
   -1.0735   -7.4775   17.6612 C   0  0  0  0  0  0  0  0  0  0  0  0
    0.0296  -10.7215   16.3806 C   0  0  0  0  0  0  0  0  0  0  0  0
    0.4263  -13.0740   15.8542 C   0  0  0  0  0  0  0  0  0  0  0  0
   -0.5646   -9.7479   17.1406 C   0  0  0  0  0  0  0  0  0  0  0  0
    0.7218   -5.7984   27.4594 C   0  0  0  0  0  0  0  0  0  0  0  0
   -1.8930   -7.8514   18.6649 C   0  0  0  0  0  0  0  0  0  0  0  0
   -0.4166   -8.3998   16.9106 C   0  0  0  0  0  0  0  0  0  0  0  0
    7.0184   -4.0802   27.7206 C   0  0  0  0  0  0  0  0  0  0  0  0
    5.1626   -4.4927   29.7355 C   0  0  0  0  0  0  0  0  0  0  0  0
   -1.5038  -11.4586   18.4945 C   0  0  0  0  0  0  0  0  0  0  0  0
    1.6603   -5.6398   26.4469 C   0  0  0  0  0  0  0  0  0  0  0  0
   -1.3781  -10.1227   18.1990 C   0  0  0  0  0  0  0  0  0  0  0  0
   -0.8845  -12.4077   17.7332 C   0  0  0  0  0  0  0  0  0  0  0  0
   -2.0573   -9.1768   18.9314 C   0  0  0  0  0  0  0  0  0  0  0  0
    2.9582   -5.2858   26.7804 C   0  0  0  0  0  0  0  0  0  0  0  0
    7.3814   -3.9321   29.0219 C   0  0  0  0  0  0  0  0  0  0  0  0
  1  3  4  0
  1  7  4  0
  2  3  1  0
  2  6  4  0
  2 16  4  0
  3 22  4  0
  4  9  4  0
  4 10  1  0
  4 20  4  0
  5 16  4  0
  5 23  4  0
  6 15  4  0
  7 12  4  0
  8 13  4  0
  8 14  4  0
  9 11  4  0
 11 14  4  0
 11 19  4  0
 12 18  4  0
 13 21  4  0
 15 23  4  0
 17 19  4  0
 17 20  4  0
 18 22  4  0
 19 21  4  0
M  END
$$$$

 Created by Python create_sdf_string function

 23 28  0  0  0  0  0  0  0  0999 V2000
    2.3743   -5.3143   29.1103 C   0  0  0  0  0  0  0  0  0  0  0  0
    4.8287   -4.7470   28.3767 C   0  0  0  0  0  0  0  0  0  0  0  0
    3.3134   -5.0518   28.1599 C   0  0  0  0  0  0  0  0  0  0  0  0
   -0.1023  -12.1206   16.5574 C   0  0  0  0  0  0  0  0  0  0  0  0
    5.7348   -4.4515   27.3850 C   0  0  0  0  0  0  0  0  0  0  0  0
    1.0947   -5.5682   28.8828 C   0  0  0  0  0  0  0  0  0  0  0  0
   -1.0450   -7.4783   17.6199 C   0  0  0  0  0  0  0  0  0  0  0  0
    0.0273  -10.6509   16.3875 C   0  0  0  0  0  0  0  0  0  0  0  0
    0.5080  -13.1300   15.8540 C   0  0  0  0  0  0  0  0  0  0  0  0
   -0.4830   -9.8178   17.2348 C   0  0  0  0  0  0  0  0  0  0  0  0
    0.7834   -5.8089   27.5039 C   0  0  0  0  0  0  0  0  0  0  0  0
   -1.8445   -7.8937   18.6704 C   0  0  0  0  0  0  0  0  0  0  0  0
   -0.4378   -8.4107   16.9219 C   0  0  0  0  0  0  0  0  0  0  0  0
    7.0693   -4.1018   27.7485 C   0  0  0  0  0  0  0  0  0  0  0  0
    5.1289   -4.5075   29.7476 C   0  0  0  0  0  0  0  0  0  0  0  0
   -1.3846  -11.4955   18.5102 C   0  0  0  0  0  0  0  0  0  0  0  0
    1.6440   -5.6726   26.4182 C   0  0  0  0  0  0  0  0  0  0  0  0
   -1.4314  -10.1464   18.1246 C   0  0  0  0  0  0  0  0  0  0  0  0
   -0.8317  -12.3894   17.7023 C   0  0  0  0  0  0  0  0  0  0  0  0
   -2.1022   -9.1464   18.8676 C   0  0  0  0  0  0  0  0  0  0  0  0
    3.0645   -5.3582   26.8157 C   0  0  0  0  0  0  0  0  0  0  0  0
    7.4312   -3.9409   29.0293 C   0  0  0  0  0  0  0  0  0  0  0  0
    6.4643   -4.1380   29.9229 He  0  0  0  0  0  0  0  0  0  0  0  0
  1  3  4  0
  1  6  4  0
  2  3  1  0
  2  5  4  0
  2 15  4  0
  3  5  4  0
  3 21  4  0
  4  8  4  0
  4  9  1  0
  4 19  4  0
  5 14  4  0
  6 11  4  0
  7 12  4  0
  7 13  4  0
  8 10  4  0
  8 12  4  0
  8 17  2  0
  9 18  2  0
 10 13  4  0
 10 18  4  0
 11 17  4  0
 12 17  4  0
 12 20  4  0
 14 22  4  0
 16 18  4  0
 16 19  4  0
 17 21  4  0
 18 20  4  0
M  END
$$$$

 Created by Python create_sdf_string function

 23 25  0  0  0  0  0  0  0  0999 V2000
    2.4239   -5.2584   29.1151 C   0  0  0  0  0  0  0  0  0  0  0  0
    4.7786   -4.6949   28.4070 C   0  0  0  0  0  0  0  0  0  0  0  0
    3.3822   -5.1109   28.1035 C   0  0  0  0  0  0  0  0  0  0  0  0
   -0.1034  -12.0516   16.6365 C   0  0  0  0  0  0  0  0  0  0  0  0
    6.4807   -4.1370   29.9996 C   0  0  0  0  0  0  0  0  0  0  0  0
    5.7511   -4.4783   27.4060 C   0  0  0  0  0  0  0  0  0  0  0  0
    1.1009   -5.5926   28.8414 C   0  0  0  0  0  0  0  0  0  0  0  0
   -1.0545   -7.4663   17.6494 C   0  0  0  0  0  0  0  0  0  0  0  0
    0.0466  -10.7201   16.3900 C   0  0  0  0  0  0  0  0  0  0  0  0
    0.4878  -13.1000   15.8526 C   0  0  0  0  0  0  0  0  0  0  0  0
   -0.5649   -9.7495   17.1550 C   0  0  0  0  0  0  0  0  0  0  0  0
    0.7647   -5.7999   27.5107 C   0  0  0  0  0  0  0  0  0  0  0  0
   -1.8917   -7.8549   18.6557 C   0  0  0  0  0  0  0  0  0  0  0  0
   -0.4079   -8.4004   16.9189 C   0  0  0  0  0  0  0  0  0  0  0  0
    7.0518   -4.1066   27.7097 C   0  0  0  0  0  0  0  0  0  0  0  0
    5.1765   -4.5106   29.7248 C   0  0  0  0  0  0  0  0  0  0  0  0
   -1.4793  -11.4750   18.5177 C   0  0  0  0  0  0  0  0  0  0  0  0
    1.6842   -5.6744   26.4732 C   0  0  0  0  0  0  0  0  0  0  0  0
   -1.3878  -10.1214   18.2110 C   0  0  0  0  0  0  0  0  0  0  0  0
   -0.8545  -12.4062   17.7329 C   0  0  0  0  0  0  0  0  0  0  0  0
   -2.0823   -9.1569   18.9141 C   0  0  0  0  0  0  0  0  0  0  0  0
    3.0132   -5.3308   26.8037 C   0  0  0  0  0  0  0  0  0  0  0  0
    7.4134   -3.9403   29.0367 C   0  0  0  0  0  0  0  0  0  0  0  0
  1  3  4  0
  1  7  4  0
  2  3  1  0
  2  6  4  0
  2 16  4  0
  3 22  4  0
  4  9  4  0
  4 10  1  0
  4 20  4  0
  5 16  4  0
  5 23  4  0
  6 15  4  0
  7 12  4  0
  8 13  4  0
  8 14  4  0
  9 11  4  0
 11 14  4  0
 11 19  4  0
 12 18  4  0
 13 21  4  0
 15 23  4  0
 17 19  4  0
 17 20  4  0
 18 22  4  0
 19 21  4  0
M  END
$$$$

 Created by Python create_sdf_string function

 23 26  0  0  0  0  0  0  0  0999 V2000
    2.4348   -5.2773   29.1166 C   0  0  0  0  0  0  0  0  0  0  0  0
    4.7643   -4.7063   28.4095 C   0  0  0  0  0  0  0  0  0  0  0  0
    3.4093   -5.0869   28.1611 C   0  0  0  0  0  0  0  0  0  0  0  0
   -0.0835  -12.0596   16.6804 C   0  0  0  0  0  0  0  0  0  0  0  0
    6.4969   -4.0617   30.0867 C   0  0  0  0  0  0  0  0  0  0  0  0
    5.7076   -4.4759   27.4209 C   0  0  0  0  0  0  0  0  0  0  0  0
    1.0464   -5.4941   28.7997 C   0  0  0  0  0  0  0  0  0  0  0  0
   -1.0356   -7.5081   17.5675 C   0  0  0  0  0  0  0  0  0  0  0  0
    0.0025  -10.7132   16.3739 C   0  0  0  0  0  0  0  0  0  0  0  0
    0.6019  -13.0618   15.9594 C   0  0  0  0  0  0  0  0  0  0  0  0
   -0.5433   -9.7544   17.1530 C   0  0  0  0  0  0  0  0  0  0  0  0
    0.7116   -5.7960   27.5263 C   0  0  0  0  0  0  0  0  0  0  0  0
   -1.9307   -7.8836   18.6434 C   0  0  0  0  0  0  0  0  0  0  0  0
   -0.3732   -8.3890   16.9895 C   0  0  0  0  0  0  0  0  0  0  0  0
    7.0297   -4.0263   27.7167 C   0  0  0  0  0  0  0  0  0  0  0  0
    5.1878   -4.5377   29.7394 C   0  0  0  0  0  0  0  0  0  0  0  0
   -1.4749  -11.4639   18.4919 C   0  0  0  0  0  0  0  0  0  0  0  0
    1.6761   -5.5892   26.4232 C   0  0  0  0  0  0  0  0  0  0  0  0
   -1.3936  -10.1449   18.2325 C   0  0  0  0  0  0  0  0  0  0  0  0
   -0.7499  -12.3796   17.6865 S   0  0  0  0  0  0  0  0  0  0  0  0
   -2.0806   -9.1887   18.9373 C   0  0  0  0  0  0  0  0  0  0  0  0
    3.0497   -5.2749   26.8516 C   0  0  0  0  0  0  0  0  0  0  0  0
    7.4817   -4.0092   29.0356 C   0  0  0  0  0  0  0  0  0  0  0  0
  1  3  4  0
  1  7  4  0
  2  6  4  0
  2 16  4  0
  3 22  4  0
  4  9  4  0
  4 10  1  0
  4 15  4  0
  4 20  4  0
  5 16  4  0
  5 17  2  0
  5 23  2  0
  7 12  4  0
  8 13  4  0
  8 14  4  0
  9 11  4  0
 11 13  2  0
 11 14  4  0
 11 19  4  0
 12 18  4  0
 13 21  4  0
 15 23  4  0
 17 19  4  0
 17 20  4  0
 18 22  4  0
 19 21  4  0
M  END
$$$$

 Created by Python create_sdf_string function

 23 25  0  0  0  0  0  0  0  0999 V2000
    2.4303   -5.2413   29.1172 C   0  0  0  0  0  0  0  0  0  0  0  0
    4.7680   -4.6967   28.4370 C   0  0  0  0  0  0  0  0  0  0  0  0
    3.3879   -5.0840   28.1167 C   0  0  0  0  0  0  0  0  0  0  0  0
   -0.0623  -12.0278   16.6774 C   0  0  0  0  0  0  0  0  0  0  0  0
    6.4870   -4.1230   30.0577 C   0  0  0  0  0  0  0  0  0  0  0  0
    5.7037   -4.4684   27.4224 C   0  0  0  0  0  0  0  0  0  0  0  0
    1.1050   -5.5334   28.8210 C   0  0  0  0  0  0  0  0  0  0  0  0
   -1.0776   -7.4665   17.6407 C   0  0  0  0  0  0  0  0  0  0  0  0
    0.0444  -10.7032   16.3951 C   0  0  0  0  0  0  0  0  0  0  0  0
    0.5963  -13.0513   15.9373 C   0  0  0  0  0  0  0  0  0  0  0  0
   -0.5572   -9.7439   17.1621 C   0  0  0  0  0  0  0  0  0  0  0  0
    0.7425   -5.7585   27.5041 C   0  0  0  0  0  0  0  0  0  0  0  0
   -1.9289   -7.8409   18.6507 C   0  0  0  0  0  0  0  0  0  0  0  0
   -0.3949   -8.3957   16.9390 C   0  0  0  0  0  0  0  0  0  0  0  0
    7.0126   -4.0745   27.7168 C   0  0  0  0  0  0  0  0  0  0  0  0
    5.1702   -4.5227   29.7601 C   0  0  0  0  0  0  0  0  0  0  0  0
   -1.4931  -11.4705   18.5167 C   0  0  0  0  0  0  0  0  0  0  0  0
    1.6888   -5.6043   26.4602 C   0  0  0  0  0  0  0  0  0  0  0  0
   -1.3855  -10.1229   18.2206 C   0  0  0  0  0  0  0  0  0  0  0  0
   -0.8227  -12.3981   17.7497 C   0  0  0  0  0  0  0  0  0  0  0  0
   -2.0756   -9.1579   18.9395 C   0  0  0  0  0  0  0  0  0  0  0  0
    3.0090   -5.2794   26.8122 C   0  0  0  0  0  0  0  0  0  0  0  0
    7.4076   -3.9614   29.0305 C   0  0  0  0  0  0  0  0  0  0  0  0
  1  3  4  0
  1  7  4  0
  2  3  1  0
  2  6  4  0
  2 16  4  0
  3 22  4  0
  4  9  4  0
  4 10  1  0
  4 20  4  0
  5 16  4  0
  5 23  4  0
  6 15  4  0
  7 12  4  0
  8 13  4  0
  8 14  4  0
  9 11  4  0
 11 14  4  0
 11 19  4  0
 12 18  4  0
 13 21  4  0
 15 23  4  0
 17 19  4  0
 17 20  4  0
 18 22  4  0
 19 21  4  0
M  END
$$$$

 Created by Python create_sdf_string function

 23 28  0  0  0  0  0  0  0  0999 V2000
    2.4187   -5.3119   29.1704 C   0  0  0  0  0  0  0  0  0  0  0  0
    4.8176   -4.6697   28.4707 C   0  0  0  0  0  0  0  0  0  0  0  0
    3.3517   -5.0365   28.1315 C   0  0  0  0  0  0  0  0  0  0  0  0
   -0.0273  -12.0967   16.6939 C   0  0  0  0  0  0  0  0  0  0  0  0
    6.4489   -4.1627   30.1144 C   0  0  0  0  0  0  0  0  0  0  0  0
    5.6994   -4.4263   27.4253 C   0  0  0  0  0  0  0  0  0  0  0  0
    1.1135   -5.5266   28.9115 C   0  0  0  0  0  0  0  0  0  0  0  0
   -1.0547   -7.4882   17.6413 C   0  0  0  0  0  0  0  0  0  0  0  0
    0.1575  -10.7647   16.3823 C   0  0  0  0  0  0  0  0  0  0  0  0
    0.5289  -13.0548   15.9548 C   0  0  0  0  0  0  0  0  0  0  0  0
   -0.5841   -9.7530   17.2477 C   0  0  0  0  0  0  0  0  0  0  0  0
    0.6907   -5.7520   27.5055 C   0  0  0  0  0  0  0  0  0  0  0  0
   -1.9725   -7.8181   18.6108 C   0  0  0  0  0  0  0  0  0  0  0  0
   -0.3375   -8.3512   16.9331 C   0  0  0  0  0  0  0  0  0  0  0  0
    6.9370   -4.0859   27.6852 C   0  0  0  0  0  0  0  0  0  0  0  0
    5.2048   -4.4953   29.7629 C   0  0  0  0  0  0  0  0  0  0  0  0
   -1.5358  -11.5118   18.5234 C   0  0  0  0  0  0  0  0  0  0  0  0
    1.6692   -5.6471   26.4699 C   0  0  0  0  0  0  0  0  0  0  0  0
   -1.4347  -10.1388   18.2044 C   0  0  0  0  0  0  0  0  0  0  0  0
   -0.7802  -12.3756   17.7392 C   0  0  0  0  0  0  0  0  0  0  0  0
   -2.0750   -9.1795   18.9462 C   0  0  0  0  0  0  0  0  0  0  0  0
    3.0236   -5.2658   26.8276 C   0  0  0  0  0  0  0  0  0  0  0  0
    7.3675   -3.9885   29.0655 C   0  0  0  0  0  0  0  0  0  0  0  0
  1  3  4  0
  1  7  4  0
  2  3  1  0
  2  6  4  0
  2 16  4  0
  3 22  4  0
  4  9  4  0
  4 10  1  0
  4 20  4  0
  5 15  1  0
  5 16  4  0
  5 22  4  0
  5 23  4  0
  6 15  4  0
  7 12  4  0
  8 13  4  0
  8 14  4  0
  9 11  4  0
  9 19  4  0
 11 14  4  0
 11 19  4  0
 12 18  4  0
 13 21  4  0
 15 23  4  0
 17 19  4  0
 17 20  4  0
 18 22  4  0
 19 21  4  0
M  END
$$$$

 Created by Python create_sdf_string function

 23 25  0  0  0  0  0  0  0  0999 V2000
    2.4376   -5.2505   29.1433 C   0  0  0  0  0  0  0  0  0  0  0  0
    4.7621   -4.6689   28.4549 C   0  0  0  0  0  0  0  0  0  0  0  0
    3.3749   -5.0718   28.1339 C   0  0  0  0  0  0  0  0  0  0  0  0
   -0.0581  -12.0435   16.7289 C   0  0  0  0  0  0  0  0  0  0  0  0
    6.4900   -4.1592   30.0880 C   0  0  0  0  0  0  0  0  0  0  0  0
    5.6761   -4.4412   27.4366 C   0  0  0  0  0  0  0  0  0  0  0  0
    1.1030   -5.5586   28.8809 C   0  0  0  0  0  0  0  0  0  0  0  0
   -1.0691   -7.4652   17.6481 C   0  0  0  0  0  0  0  0  0  0  0  0
    0.0983  -10.7151   16.4616 C   0  0  0  0  0  0  0  0  0  0  0  0
    0.5410  -13.0599   15.9633 C   0  0  0  0  0  0  0  0  0  0  0  0
   -0.5459   -9.7362   17.1986 C   0  0  0  0  0  0  0  0  0  0  0  0
    0.7226   -5.7512   27.5292 C   0  0  0  0  0  0  0  0  0  0  0  0
   -1.9553   -7.8316   18.6416 C   0  0  0  0  0  0  0  0  0  0  0  0
   -0.3710   -8.3763   16.9458 C   0  0  0  0  0  0  0  0  0  0  0  0
    7.0001   -4.0814   27.7505 C   0  0  0  0  0  0  0  0  0  0  0  0
    5.1647   -4.5156   29.7791 C   0  0  0  0  0  0  0  0  0  0  0  0
   -1.5384  -11.4806   18.5255 C   0  0  0  0  0  0  0  0  0  0  0  0
    1.6734   -5.6250   26.4949 C   0  0  0  0  0  0  0  0  0  0  0  0
   -1.4010  -10.1087   18.2255 C   0  0  0  0  0  0  0  0  0  0  0  0
   -0.8603  -12.4021   17.7930 C   0  0  0  0  0  0  0  0  0  0  0  0
   -2.1097   -9.1501   18.9436 C   0  0  0  0  0  0  0  0  0  0  0  0
    2.9847   -5.2650   26.8258 C   0  0  0  0  0  0  0  0  0  0  0  0
    7.3851   -3.9647   29.0618 C   0  0  0  0  0  0  0  0  0  0  0  0
  1  3  4  0
  1  7  4  0
  2  3  1  0
  2  6  4  0
  2 16  4  0
  3 22  4  0
  4  9  4  0
  4 10  1  0
  4 20  4  0
  5 16  4  0
  5 23  4  0
  6 15  4  0
  7 12  4  0
  8 13  4  0
  8 14  4  0
  9 11  4  0
 11 14  4  0
 11 19  4  0
 12 18  4  0
 13 21  4  0
 15 23  4  0
 17 19  4  0
 17 20  4  0
 18 22  4  0
 19 21  4  0
M  END
$$$$

 Created by Python create_sdf_string function

 23 28  0  0  0  0  0  0  0  0999 V2000
    2.4685   -5.2738   29.1516 C   0  0  0  0  0  0  0  0  0  0  0  0
    4.7521   -4.6702   28.4535 C   0  0  0  0  0  0  0  0  0  0  0  0
    3.3985   -5.1062   28.1401 C   0  0  0  0  0  0  0  0  0  0  0  0
   -0.1015  -11.9841   16.7420 C   0  0  0  0  0  0  0  0  0  0  0  0
    6.4860   -4.1241   30.0787 C   0  0  0  0  0  0  0  0  0  0  0  0
    5.7450   -4.4430   27.4221 C   0  0  0  0  0  0  0  0  0  0  0  0
    1.0984   -5.6206   28.9793 C   0  0  0  0  0  0  0  0  0  0  0  0
   -1.1270   -7.4250   17.6364 C   0  0  0  0  0  0  0  0  0  0  0  0
    0.0494  -10.7051   16.4661 C   0  0  0  0  0  0  0  0  0  0  0  0
    0.5031  -13.0517   16.0019 Se  0  0  0  0  0  0  0  0  0  0  0  0
   -0.5207   -9.7098   17.1697 C   0  0  0  0  0  0  0  0  0  0  0  0
    0.7531   -5.7749   27.5500 C   0  0  0  0  0  0  0  0  0  0  0  0
   -2.0196   -7.8162   18.6651 C   0  0  0  0  0  0  0  0  0  0  0  0
   -0.3873   -8.3414   16.9622 C   0  0  0  0  0  0  0  0  0  0  0  0
    7.0053   -4.0616   27.7823 C   0  0  0  0  0  0  0  0  0  0  0  0
    5.1535   -4.5310   29.8994 C   0  0  0  0  0  0  0  0  0  0  0  0
    1.6801   -5.6776   26.5465 C   0  0  0  0  0  0  0  0  0  0  0  0
   -1.4253  -10.1526   18.2034 C   0  0  0  0  0  0  0  0  0  0  0  0
   -0.8081  -12.3797   17.7378 C   0  0  0  0  0  0  0  0  0  0  0  0
   -2.1236   -9.1903   18.9591 C   0  0  0  0  0  0  0  0  0  0  0  0
    3.0054   -5.3088   26.8048 C   0  0  0  0  0  0  0  0  0  0  0  0
    7.4020   -3.8868   29.0479 C   0  0  0  0  0  0  0  0  0  0  0  0
   -1.4718  -11.4510   18.4981 He  0  0  0  0  0  0  0  0  0  0  0  0
  1  3  4  0
  1  6  2  0
  1  7  4  0
  2  3  1  0
  2  4  3  0
  2  6  4  0
  2 16  4  0
  3 21  4  0
  4  9  4  0
  4 10  1  0
  4 19  4  0
  5 16  4  0
  5 22  4  0
  6 15  4  0
  7 12  4  0
  8 13  4  0
  8 14  4  0
  9 11  4  0
 10 13  4  0
 10 19  2  0
 11 14  4  0
 11 18  4  0
 12 17  4  0
 13 20  4  0
 15 22  4  0
 17 21  4  0
 18 20  4  0
 18 21  1  0
M  END
$$$$

 Created by Python create_sdf_string function

 23 25  0  0  0  0  0  0  0  0999 V2000
    2.4595   -5.2704   29.1587 C   0  0  0  0  0  0  0  0  0  0  0  0
    4.7775   -4.6843   28.4662 C   0  0  0  0  0  0  0  0  0  0  0  0
    3.3927   -5.0924   28.1437 C   0  0  0  0  0  0  0  0  0  0  0  0
   -0.0860  -11.9907   16.7377 C   0  0  0  0  0  0  0  0  0  0  0  0
    6.4937   -4.1203   30.1041 C   0  0  0  0  0  0  0  0  0  0  0  0
    5.7079   -4.4526   27.4599 C   0  0  0  0  0  0  0  0  0  0  0  0
    1.1249   -5.6161   28.9195 C   0  0  0  0  0  0  0  0  0  0  0  0
   -1.1266   -7.4274   17.6544 C   0  0  0  0  0  0  0  0  0  0  0  0
    0.0775  -10.6687   16.4527 C   0  0  0  0  0  0  0  0  0  0  0  0
    0.5018  -12.9939   15.9989 O   0  0  0  0  0  0  0  0  0  0  0  0
   -0.5627   -9.7079   17.1957 C   0  0  0  0  0  0  0  0  0  0  0  0
    0.7499   -5.7955   27.5697 C   0  0  0  0  0  0  0  0  0  0  0  0
   -2.0006   -7.8206   18.6641 C   0  0  0  0  0  0  0  0  0  0  0  0
   -0.4168   -8.3527   16.9554 C   0  0  0  0  0  0  0  0  0  0  0  0
    7.0068   -4.0588   27.7634 C   0  0  0  0  0  0  0  0  0  0  0  0
    5.1752   -4.5194   29.8126 C   0  0  0  0  0  0  0  0  0  0  0  0
   -1.5192  -11.4309   18.5227 C   0  0  0  0  0  0  0  0  0  0  0  0
    1.6788   -5.6659   26.5343 C   0  0  0  0  0  0  0  0  0  0  0  0
   -1.4039  -10.0933   18.2266 C   0  0  0  0  0  0  0  0  0  0  0  0
   -0.8640  -12.3518   17.7857 C   0  0  0  0  0  0  0  0  0  0  0  0
   -2.1145   -9.1550   18.9348 C   0  0  0  0  0  0  0  0  0  0  0  0
    2.9901   -5.3090   26.8264 C   0  0  0  0  0  0  0  0  0  0  0  0
    7.3939   -3.8912   29.0823 C   0  0  0  0  0  0  0  0  0  0  0  0
  1  3  4  0
  1  7  4  0
  2  3  1  0
  2  6  4  0
  2 16  4  0
  3 22  4  0
  4  9  4  0
  4 10  1  0
  4 20  4  0
  5 16  4  0
  5 23  4  0
  6 15  4  0
  7 12  4  0
  8 13  4  0
  8 14  4  0
  9 11  4  0
 11 14  4  0
 11 19  4  0
 12 18  4  0
 13 21  4  0
 15 23  4  0
 17 19  4  0
 17 20  4  0
 18 22  4  0
 19 21  4  0
M  END
$$$$

 Created by Python create_sdf_string function

 23 28  0  0  0  0  0  0  0  0999 V2000
    2.4365   -5.2856   29.1176 C   0  0  0  0  0  0  0  0  0  0  0  0
    4.7189   -4.6722   28.4688 O   0  0  0  0  0  0  0  0  0  0  0  0
    3.4583   -5.1549   28.1436 C   0  0  0  0  0  0  0  0  0  0  0  0
   -0.0825  -12.0219   16.6999 C   0  0  0  0  0  0  0  0  0  0  0  0
    6.4848   -4.1508   30.1397 C   0  0  0  0  0  0  0  0  0  0  0  0
    5.6713   -4.4284   27.4242 C   0  0  0  0  0  0  0  0  0  0  0  0
    1.1275   -5.6358   28.9027 C   0  0  0  0  0  0  0  0  0  0  0  0
   -1.1305   -7.4041   17.6721 C   0  0  0  0  0  0  0  0  0  0  0  0
    0.0802  -10.7184   16.4220 C   0  0  0  0  0  0  0  0  0  0  0  0
    0.5136  -12.9672   16.0036 O   0  0  0  0  0  0  0  0  0  0  0  0
   -0.5694   -9.6573   17.2351 C   0  0  0  0  0  0  0  0  0  0  0  0
    0.7604   -5.8191   27.5701 S   0  0  0  0  0  0  0  0  0  0  0  0
   -1.9947   -7.8002   18.6469 C   0  0  0  0  0  0  0  0  0  0  0  0
   -0.4273   -8.3658   16.9649 C   0  0  0  0  0  0  0  0  0  0  0  0
    6.9807   -4.0300   27.8105 C   0  0  0  0  0  0  0  0  0  0  0  0
    5.1715   -4.5345   29.8377 C   0  0  0  0  0  0  0  0  0  0  0  0
   -1.5348  -11.4220   18.5271 C   0  0  0  0  0  0  0  0  0  0  0  0
    1.7008   -5.6780   26.5350 C   0  0  0  0  0  0  0  0  0  0  0  0
   -1.4712  -10.0916   18.2333 C   0  0  0  0  0  0  0  0  0  0  0  0
   -0.9162  -12.3248   17.7986 C   0  0  0  0  0  0  0  0  0  0  0  0
   -2.0844   -9.1476   18.9003 C   0  0  0  0  0  0  0  0  0  0  0  0
    3.0140   -5.3674   26.8355 C   0  0  0  0  0  0  0  0  0  0  0  0
    7.4286   -3.8894   29.0887 C   0  0  0  0  0  0  0  0  0  0  0  0
  1  3  4  0
  1  7  4  0
  2  3  1  0
  2  6  4  0
  2 11  3  0
  2 16  4  0
  3 22  4  0
  4  9  4  0
  4 10  1  0
  4 19  3  0
  4 20  4  0
  5 16  4  0
  5 23  4  0
  6 15  4  0
  7 12  4  0
  8 13  4  0
  8 14  4  0
  9 11  4  0
 11 14  4  0
 11 19  4  0
 12 18  4  0
 13 21  4  0
 15 23  4  0
 17 19  4  0
 17 20  4  0
 18 22  4  0
 19 21  4  0
 21 22  3  0
M  END
$$$$

 Created by Python create_sdf_string function

 23 25  0  0  0  0  0  0  0  0999 V2000
    2.4584   -5.2869   29.1380 C   0  0  0  0  0  0  0  0  0  0  0  0
    4.7616   -4.6986   28.4747 C   0  0  0  0  0  0  0  0  0  0  0  0
    3.4206   -5.1146   28.1455 C   0  0  0  0  0  0  0  0  0  0  0  0
   -0.1151  -11.9841   16.7538 C   0  0  0  0  0  0  0  0  0  0  0  0
    6.4740   -4.1501   30.1262 C   0  0  0  0  0  0  0  0  0  0  0  0
    5.6849   -4.4319   27.4681 C   0  0  0  0  0  0  0  0  0  0  0  0
    1.1558   -5.6318   28.8813 C   0  0  0  0  0  0  0  0  0  0  0  0
   -1.1170   -7.4181   17.6624 C   0  0  0  0  0  0  0  0  0  0  0  0
    0.0590  -10.6716   16.4650 C   0  0  0  0  0  0  0  0  0  0  0  0
    0.4775  -12.9235   16.0465 O   0  0  0  0  0  0  0  0  0  0  0  0
   -0.5901   -9.6854   17.2097 C   0  0  0  0  0  0  0  0  0  0  0  0
    0.7808   -5.8253   27.5591 C   0  0  0  0  0  0  0  0  0  0  0  0
   -1.9893   -7.7893   18.6642 C   0  0  0  0  0  0  0  0  0  0  0  0
   -0.4371   -8.3316   16.9665 C   0  0  0  0  0  0  0  0  0  0  0  0
    6.9780   -4.0311   27.7896 C   0  0  0  0  0  0  0  0  0  0  0  0
    5.1723   -4.5376   29.8005 C   0  0  0  0  0  0  0  0  0  0  0  0
   -1.5683  -11.4213   18.5409 C   0  0  0  0  0  0  0  0  0  0  0  0
    1.7097   -5.6900   26.5326 C   0  0  0  0  0  0  0  0  0  0  0  0
   -1.4368  -10.0541   18.2406 C   0  0  0  0  0  0  0  0  0  0  0  0
   -0.9191  -12.3445   17.8016 C   0  0  0  0  0  0  0  0  0  0  0  0
   -2.1350   -9.1009   18.9463 C   0  0  0  0  0  0  0  0  0  0  0  0
    3.0097   -5.3534   26.8360 C   0  0  0  0  0  0  0  0  0  0  0  0
    7.3891   -3.8961   29.1001 C   0  0  0  0  0  0  0  0  0  0  0  0
  1  3  4  0
  1  7  4  0
  2  3  1  0
  2  6  4  0
  2 16  4  0
  3 22  4  0
  4  9  4  0
  4 10  1  0
  4 20  4  0
  5 16  4  0
  5 23  4  0
  6 15  4  0
  7 12  4  0
  8 13  4  0
  8 14  4  0
  9 11  4  0
 11 14  4  0
 11 19  4  0
 12 18  4  0
 13 21  4  0
 15 23  4  0
 17 19  4  0
 17 20  4  0
 18 22  4  0
 19 21  4  0
M  END
$$$$

 Created by Python create_sdf_string function

 23 29  0  0  0  0  0  0  0  0999 V2000
    2.4345   -5.3024   29.1722 C   0  0  0  0  0  0  0  0  0  0  0  0
    4.7709   -4.7570   28.4837 C   0  0  0  0  0  0  0  0  0  0  0  0
    3.3910   -5.1434   28.1121 C   0  0  0  0  0  0  0  0  0  0  0  0
   -0.1160  -11.9861   16.7228 C   0  0  0  0  0  0  0  0  0  0  0  0
    6.4619   -4.1186   30.0969 C   0  0  0  0  0  0  0  0  0  0  0  0
    5.7110   -4.4060   27.4492 C   0  0  0  0  0  0  0  0  0  0  0  0
    1.1460   -5.6270   28.8899 C   0  0  0  0  0  0  0  0  0  0  0  0
   -1.0832   -7.4134   17.6951 C   0  0  0  0  0  0  0  0  0  0  0  0
    0.0506  -10.6268   16.4693 C   0  0  0  0  0  0  0  0  0  0  0  0
    0.4969  -12.9262   16.0179 O   0  0  0  0  0  0  0  0  0  0  0  0
   -0.5898   -9.7353   17.2196 C   0  0  0  0  0  0  0  0  0  0  0  0
    0.7805   -5.8087   27.5432 C   0  0  0  0  0  0  0  0  0  0  0  0
   -2.0336   -7.7564   18.6470 C   0  0  0  0  0  0  0  0  0  0  0  0
   -0.4138   -8.3112   16.9594 C   0  0  0  0  0  0  0  0  0  0  0  0
    6.9341   -4.0220   27.8353 C   0  0  0  0  0  0  0  0  0  0  0  0
    5.1673   -4.5591   29.7917 C   0  0  0  0  0  0  0  0  0  0  0  0
   -1.6107  -11.4250   18.5140 C   0  0  0  0  0  0  0  0  0  0  0  0
    1.7155   -5.6682   26.4786 C   0  0  0  0  0  0  0  0  0  0  0  0
   -1.4079  -10.0762   18.2753 C   0  0  0  0  0  0  0  0  0  0  0  0
   -0.9748  -12.3341   17.7709 C   0  0  0  0  0  0  0  0  0  0  0  0
   -2.1686   -9.0747   18.9702 C   0  0  0  0  0  0  0  0  0  0  0  0
    3.0290   -5.3523   26.8300 C   0  0  0  0  0  0  0  0  0  0  0  0
    7.3506   -3.8463   29.1073 C   0  0  0  0  0  0  0  0  0  0  0  0
  1  3  4  0
  1  7  4  0
  2  3  1  0
  2  6  4  0
  2 16  4  0
  3 22  4  0
  4  9  4  0
  4 10  1  0
  4 20  4  0
  5 16  4  0
  5 23  4  0
  6 15  4  0
  6 17  1  0
  6 22  4  0
  7 12  4  0
  7 20  1  0
  8 10  4  0
  8 13  4  0
  8 14  4  0
  9 11  4  0
 11 14  4  0
 11 19  4  0
 12 18  4  0
 13 21  4  0
 15 23  4  0
 17 19  4  0
 17 20  4  0
 18 22  4  0
 19 21  4  0
M  END
$$$$

 Created by Python create_sdf_string function

 23 25  0  0  0  0  0  0  0  0999 V2000
    2.4561   -5.3015   29.1578 C   0  0  0  0  0  0  0  0  0  0  0  0
    4.7704   -4.7133   28.4715 C   0  0  0  0  0  0  0  0  0  0  0  0
    3.3958   -5.1332   28.1344 C   0  0  0  0  0  0  0  0  0  0  0  0
   -0.1385  -11.9587   16.7557 C   0  0  0  0  0  0  0  0  0  0  0  0
    6.4530   -4.1272   30.1122 C   0  0  0  0  0  0  0  0  0  0  0  0
    5.7003   -4.4327   27.4759 C   0  0  0  0  0  0  0  0  0  0  0  0
    1.1530   -5.6306   28.8671 C   0  0  0  0  0  0  0  0  0  0  0  0
   -1.1051   -7.4062   17.6965 C   0  0  0  0  0  0  0  0  0  0  0  0
    0.0443  -10.6406   16.4924 C   0  0  0  0  0  0  0  0  0  0  0  0
    0.4614  -12.8818   16.0572 O   0  0  0  0  0  0  0  0  0  0  0  0
   -0.6015   -9.6569   17.2374 C   0  0  0  0  0  0  0  0  0  0  0  0
    0.7909   -5.8115   27.5384 C   0  0  0  0  0  0  0  0  0  0  0  0
   -2.0090   -7.7535   18.6691 C   0  0  0  0  0  0  0  0  0  0  0  0
   -0.4238   -8.2965   16.9790 C   0  0  0  0  0  0  0  0  0  0  0  0
    6.9657   -4.0111   27.8120 C   0  0  0  0  0  0  0  0  0  0  0  0
    5.1755   -4.5590   29.8070 C   0  0  0  0  0  0  0  0  0  0  0  0
   -1.6196  -11.4057   18.5364 C   0  0  0  0  0  0  0  0  0  0  0  0
    1.7153   -5.6740   26.4959 C   0  0  0  0  0  0  0  0  0  0  0  0
   -1.4664  -10.0304   18.2695 C   0  0  0  0  0  0  0  0  0  0  0  0
   -0.9738  -12.3248   17.7813 C   0  0  0  0  0  0  0  0  0  0  0  0
   -2.1738   -9.0659   18.9878 C   0  0  0  0  0  0  0  0  0  0  0  0
    3.0130   -5.3458   26.8238 C   0  0  0  0  0  0  0  0  0  0  0  0
    7.3402   -3.8533   29.1102 C   0  0  0  0  0  0  0  0  0  0  0  0
  1  3  4  0
  1  7  4  0
  2  3  1  0
  2  6  4  0
  2 16  4  0
  3 22  4  0
  4  9  4  0
  4 10  1  0
  4 20  4  0
  5 16  4  0
  5 23  4  0
  6 15  4  0
  7 12  4  0
  8 13  4  0
  8 14  4  0
  9 11  4  0
 11 14  4  0
 11 19  4  0
 12 18  4  0
 13 21  4  0
 15 23  4  0
 17 19  4  0
 17 20  4  0
 18 22  4  0
 19 21  4  0
M  END
$$$$

 Created by Python create_sdf_string function

 23 28  0  0  0  0  0  0  0  0999 V2000
    2.4549   -5.2909   29.1645 C   0  0  0  0  0  0  0  0  0  0  0  0
    4.7543   -4.7199   28.4733 C   0  0  0  0  0  0  0  0  0  0  0  0
    3.3802   -5.1196   28.1343 C   0  0  0  0  0  0  0  0  0  0  0  0
   -0.1608  -11.9828   16.7930 C   0  0  0  0  0  0  0  0  0  0  0  0
    6.4607   -4.1401   30.0952 C   0  0  0  0  0  0  0  0  0  0  0  0
    5.6977   -4.4109   27.4934 C   0  0  0  0  0  0  0  0  0  0  0  0
    1.1438   -5.6593   28.8536 C   0  0  0  0  0  0  0  0  0  0  0  0
   -1.1167   -7.4015   17.7014 C   0  0  0  0  0  0  0  0  0  0  0  0
    0.0372  -10.6243   16.4988 C   0  0  0  0  0  0  0  0  0  0  0  0
    0.4623  -12.8976   16.0755 O   0  0  0  0  0  0  0  0  0  0  0  0
   -0.6029   -9.6695   17.2580 C   0  0  0  0  0  0  0  0  0  0  0  0
    0.7869   -5.7795   27.5405 C   0  0  0  0  0  0  0  0  0  0  0  0
   -2.0124   -7.7451   18.7149 C   0  0  0  0  0  0  0  0  0  0  0  0
   -0.4383   -8.2675   16.9603 C   0  0  0  0  0  0  0  0  0  0  0  0
    6.9548   -4.0126   27.8378 C   0  0  0  0  0  0  0  0  0  0  0  0
    5.1577   -4.5837   29.8027 C   0  0  0  0  0  0  0  0  0  0  0  0
   -1.6429  -11.4005   18.5074 C   0  0  0  0  0  0  0  0  0  0  0  0
    1.7546   -5.6763   26.5242 C   0  0  0  0  0  0  0  0  0  0  0  0
   -1.5016  -10.0298   18.2662 C   0  0  0  0  0  0  0  0  0  0  0  0
   -1.0154  -12.3398   17.7716 C   0  0  0  0  0  0  0  0  0  0  0  0
   -2.2330   -9.0817   18.9903 C   0  0  0  0  0  0  0  0  0  0  0  0
    3.0309   -5.3499   26.8096 C   0  0  0  0  0  0  0  0  0  0  0  0
    7.3491   -3.8804   29.0925 C   0  0  0  0  0  0  0  0  0  0  0  0
  1  3  4  0
  1  7  4  0
  2  3  1  0
  2  6  4  0
  2 16  4  0
  2 19  4  0
  3 22  4  0
  4  9  4  0
  4 10  1  0
  4 20  4  0
  5 16  4  0
  5 23  4  0
  6 15  4  0
  7 12  4  0
  8 13  4  0
  8 14  4  0
  9 11  4  0
 11 13  3  0
 11 14  4  0
 11 19  4  0
 12 18  4  0
 12 19  3  0
 13 21  4  0
 15 23  4  0
 17 19  3  0
 17 20  4  0
 18 22  4  0
 19 21  4  0
M  END
$$$$

 Created by Python create_sdf_string function

 23 25  0  0  0  0  0  0  0  0999 V2000
    2.4583   -5.2952   29.1522 C   0  0  0  0  0  0  0  0  0  0  0  0
    4.7660   -4.7049   28.4747 C   0  0  0  0  0  0  0  0  0  0  0  0
    3.3959   -5.1201   28.1356 C   0  0  0  0  0  0  0  0  0  0  0  0
   -0.1737  -11.9256   16.8000 C   0  0  0  0  0  0  0  0  0  0  0  0
    6.4530   -4.1504   30.1085 C   0  0  0  0  0  0  0  0  0  0  0  0
    5.6941   -4.4214   27.4894 C   0  0  0  0  0  0  0  0  0  0  0  0
    1.1576   -5.6458   28.8573 C   0  0  0  0  0  0  0  0  0  0  0  0
   -1.1355   -7.3820   17.7204 C   0  0  0  0  0  0  0  0  0  0  0  0
    0.0286  -10.6194   16.5268 C   0  0  0  0  0  0  0  0  0  0  0  0
    0.4300  -12.8542   16.1145 O   0  0  0  0  0  0  0  0  0  0  0  0
   -0.6275   -9.6317   17.2498 C   0  0  0  0  0  0  0  0  0  0  0  0
    0.8060   -5.7977   27.5314 C   0  0  0  0  0  0  0  0  0  0  0  0
   -2.0078   -7.7423   18.7119 C   0  0  0  0  0  0  0  0  0  0  0  0
   -0.4520   -8.2625   16.9915 C   0  0  0  0  0  0  0  0  0  0  0  0
    6.9636   -4.0123   27.8111 C   0  0  0  0  0  0  0  0  0  0  0  0
    5.1713   -4.5710   29.8136 C   0  0  0  0  0  0  0  0  0  0  0  0
   -1.6623  -11.3768   18.5162 C   0  0  0  0  0  0  0  0  0  0  0  0
    1.7385   -5.6763   26.5061 C   0  0  0  0  0  0  0  0  0  0  0  0
   -1.5076  -10.0093   18.2631 C   0  0  0  0  0  0  0  0  0  0  0  0
   -1.0265  -12.3205   17.7985 C   0  0  0  0  0  0  0  0  0  0  0  0
   -2.2201   -9.0553   18.9928 C   0  0  0  0  0  0  0  0  0  0  0  0
    3.0329   -5.3351   26.8235 C   0  0  0  0  0  0  0  0  0  0  0  0
    7.3393   -3.8816   29.1116 C   0  0  0  0  0  0  0  0  0  0  0  0
  1  3  4  0
  1  7  4  0
  2  3  1  0
  2  6  4  0
  2 16  4  0
  3 22  4  0
  4  9  4  0
  4 10  1  0
  4 20  4  0
  5 16  4  0
  5 23  4  0
  6 15  4  0
  7 12  4  0
  8 13  4  0
  8 14  4  0
  9 11  4  0
 11 14  4  0
 11 19  4  0
 12 18  4  0
 13 21  4  0
 15 23  4  0
 17 19  4  0
 17 20  4  0
 18 22  4  0
 19 21  4  0
M  END
$$$$

 Created by Python create_sdf_string function

 23 24  0  0  0  0  0  0  0  0999 V2000
    2.4477   -5.3059   29.1498 C   0  0  0  0  0  0  0  0  0  0  0  0
    4.7398   -4.6622   28.4394 C   0  0  0  0  0  0  0  0  0  0  0  0
    3.3921   -5.1377   28.1176 C   0  0  0  0  0  0  0  0  0  0  0  0
   -0.1506  -11.9259   16.7972 C   0  0  0  0  0  0  0  0  0  0  0  0
    6.4519   -4.1648   30.1090 C   0  0  0  0  0  0  0  0  0  0  0  0
    5.6917   -4.4347   27.5188 C   0  0  0  0  0  0  0  0  0  0  0  0
    1.1571   -5.6637   28.8601 C   0  0  0  0  0  0  0  0  0  0  0  0
   -1.1546   -7.3902   17.7036 C   0  0  0  0  0  0  0  0  0  0  0  0
    0.0553  -10.6216   16.5359 C   0  0  0  0  0  0  0  0  0  0  0  0
    0.4115  -12.8333   16.1160 O   0  0  0  0  0  0  0  0  0  0  0  0
   -0.6297   -9.6382   17.2484 C   0  0  0  0  0  0  0  0  0  0  0  0
    0.7953   -5.8097   27.5502 C   0  0  0  0  0  0  0  0  0  0  0  0
   -1.9879   -7.7321   18.7222 C   0  0  0  0  0  0  0  0  0  0  0  0
   -0.4500   -8.2737   16.9672 C   0  0  0  0  0  0  0  0  0  0  0  0
    6.9268   -4.0055   27.8031 C   0  0  0  0  0  0  0  0  0  0  0  0
    5.1683   -4.5811   29.8145 C   0  0  0  0  0  0  0  0  0  0  0  0
   -1.6289  -11.4009   18.5301 C   0  0  0  0  0  0  0  0  0  0  0  0
    1.7562   -5.6715   26.4965 C   0  0  0  0  0  0  0  0  0  0  0  0
   -1.4843  -10.0378   18.2602 C   0  0  0  0  0  0  0  0  0  0  0  0
   -1.0663  -12.3294   17.7932 C   0  0  0  0  0  0  0  0  0  0  0  0
   -2.1993   -9.0620   19.0143 C   0  0  0  0  0  0  0  0  0  0  0  0
    3.0182   -5.3384   26.8376 C   0  0  0  0  0  0  0  0  0  0  0  0
    7.3295   -3.8768   29.1236 C   0  0  0  0  0  0  0  0  0  0  0  0
  1  3  4  0
  1  7  4  0
  2  3  1  0
  2  6  4  0
  2 16  4  0
  3 22  4  0
  4  9  4  0
  4 10  1  0
  4 20  4  0
  5 16  4  0
  5 23  4  0
  6 15  4  0
  7 12  4  0
  8 14  4  0
  9 11  4  0
 11 14  4  0
 11 19  4  0
 12 18  4  0
 13 21  4  0
 15 23  4  0
 17 19  4  0
 17 20  4  0
 18 22  4  0
 19 21  4  0
M  END
$$$$

 Created by Python create_sdf_string function

 23 25  0  0  0  0  0  0  0  0999 V2000
    2.4631   -5.3031   29.1455 C   0  0  0  0  0  0  0  0  0  0  0  0
    4.7628   -4.6977   28.4723 C   0  0  0  0  0  0  0  0  0  0  0  0
    3.3989   -5.1139   28.1349 C   0  0  0  0  0  0  0  0  0  0  0  0
   -0.1790  -11.9150   16.8168 C   0  0  0  0  0  0  0  0  0  0  0  0
    6.4500   -4.1631   30.1163 C   0  0  0  0  0  0  0  0  0  0  0  0
    5.6916   -4.4238   27.4990 C   0  0  0  0  0  0  0  0  0  0  0  0
    1.1668   -5.6592   28.8563 C   0  0  0  0  0  0  0  0  0  0  0  0
   -1.1545   -7.3736   17.7149 C   0  0  0  0  0  0  0  0  0  0  0  0
    0.0276  -10.6097   16.5563 C   0  0  0  0  0  0  0  0  0  0  0  0
    0.4029  -12.8174   16.1367 O   0  0  0  0  0  0  0  0  0  0  0  0
   -0.6360   -9.6191   17.2661 C   0  0  0  0  0  0  0  0  0  0  0  0
    0.8059   -5.8232   27.5337 C   0  0  0  0  0  0  0  0  0  0  0  0
   -2.0003   -7.7274   18.7330 C   0  0  0  0  0  0  0  0  0  0  0  0
   -0.4775   -8.2623   17.0017 C   0  0  0  0  0  0  0  0  0  0  0  0
    6.9550   -4.0014   27.8111 C   0  0  0  0  0  0  0  0  0  0  0  0
    5.1666   -4.5693   29.8098 C   0  0  0  0  0  0  0  0  0  0  0  0
   -1.6718  -11.3695   18.5535 C   0  0  0  0  0  0  0  0  0  0  0  0
    1.7341   -5.6769   26.5052 C   0  0  0  0  0  0  0  0  0  0  0  0
   -1.5043   -9.9985   18.2857 C   0  0  0  0  0  0  0  0  0  0  0  0
   -1.0440  -12.2957   17.8017 C   0  0  0  0  0  0  0  0  0  0  0  0
   -2.1941   -9.0380   19.0168 C   0  0  0  0  0  0  0  0  0  0  0  0
    3.0251   -5.3255   26.8309 C   0  0  0  0  0  0  0  0  0  0  0  0
    7.3272   -3.8783   29.1138 C   0  0  0  0  0  0  0  0  0  0  0  0
  1  3  4  0
  1  7  4  0
  2  3  1  0
  2  6  4  0
  2 16  4  0
  3 22  4  0
  4  9  4  0
  4 10  1  0
  4 20  4  0
  5 16  4  0
  5 23  4  0
  6 15  4  0
  7 12  4  0
  8 13  4  0
  8 14  4  0
  9 11  4  0
 11 14  4  0
 11 19  4  0
 12 18  4  0
 13 21  4  0
 15 23  4  0
 17 19  4  0
 17 20  4  0
 18 22  4  0
 19 21  4  0
M  END
$$$$

 Created by Python create_sdf_string function

 23 25  0  0  0  0  0  0  0  0999 V2000
    2.4703   -5.2992   29.1400 C   0  0  0  0  0  0  0  0  0  0  0  0
    4.7699   -4.6914   28.4909 C   0  0  0  0  0  0  0  0  0  0  0  0
    3.3852   -5.0955   28.1546 C   0  0  0  0  0  0  0  0  0  0  0  0
   -0.1685  -11.9151   16.8243 C   0  0  0  0  0  0  0  0  0  0  0  0
    6.4579   -4.1593   30.1122 C   0  0  0  0  0  0  0  0  0  0  0  0
    5.6995   -4.4252   27.5050 C   0  0  0  0  0  0  0  0  0  0  0  0
    1.1666   -5.6379   28.8640 C   0  0  0  0  0  0  0  0  0  0  0  0
   -1.1542   -7.3815   17.7029 C   0  0  0  0  0  0  0  0  0  0  0  0
    0.0255  -10.5943   16.5772 C   0  0  0  0  0  0  0  0  0  0  0  0
    0.3913  -12.8306   16.1367 O   0  0  0  0  0  0  0  0  0  0  0  0
   -0.6498   -9.6113   17.2527 C   0  0  0  0  0  0  0  0  0  0  0  0
    0.7963   -5.8340   27.5189 C   0  0  0  0  0  0  0  0  0  0  0  0
   -2.0155   -7.7391   18.7248 C   0  0  0  0  0  0  0  0  0  0  0  0
   -0.4930   -8.2774   17.0235 C   0  0  0  0  0  0  0  0  0  0  0  0
    6.9420   -4.0117   27.8094 C   0  0  0  0  0  0  0  0  0  0  0  0
    5.1522   -4.5582   29.8026 C   0  0  0  0  0  0  0  0  0  0  0  0
   -1.6810  -11.3844   18.5510 C   0  0  0  0  0  0  0  0  0  0  0  0
    1.7531   -5.6674   26.4880 C   0  0  0  0  0  0  0  0  0  0  0  0
   -1.4952  -10.0103   18.2780 C   0  0  0  0  0  0  0  0  0  0  0  0
   -1.0440  -12.3217   17.7827 C   0  0  0  0  0  0  0  0  0  0  0  0
   -2.2132   -9.0448   19.0144 C   0  0  0  0  0  0  0  0  0  0  0  0
    3.0157   -5.3394   26.8131 C   0  0  0  0  0  0  0  0  0  0  0  0
    7.3166   -3.8766   29.1166 C   0  0  0  0  0  0  0  0  0  0  0  0
  1  3  4  0
  1  7  4  0
  2  3  1  0
  2  6  4  0
  2 16  4  0
  3 22  4  0
  4  9  1  0
  4 10  1  0
  4 20  4  0
  5 16  4  0
  5 23  4  0
  6 15  4  0
  7 12  4  0
  8 13  4  0
  8 14  4  0
  9 11  4  0
 11 14  4  0
 11 19  4  0
 12 18  4  0
 13 21  4  0
 15 23  4  0
 17 19  4  0
 17 20  4  0
 18 22  4  0
 19 21  4  0
M  END
$$$$

 Created by Python create_sdf_string function

 23 25  0  0  0  0  0  0  0  0999 V2000
    2.4623   -5.2937   29.1391 C   0  0  0  0  0  0  0  0  0  0  0  0
    4.7655   -4.6914   28.4834 C   0  0  0  0  0  0  0  0  0  0  0  0
    3.3994   -5.1074   28.1396 C   0  0  0  0  0  0  0  0  0  0  0  0
   -0.1947  -11.8993   16.8415 C   0  0  0  0  0  0  0  0  0  0  0  0
    6.4531   -4.1569   30.1176 C   0  0  0  0  0  0  0  0  0  0  0  0
    5.6947   -4.4250   27.5028 C   0  0  0  0  0  0  0  0  0  0  0  0
    1.1713   -5.6421   28.8503 C   0  0  0  0  0  0  0  0  0  0  0  0
   -1.1743   -7.3686   17.7339 C   0  0  0  0  0  0  0  0  0  0  0  0
    0.0085  -10.5959   16.5859 C   0  0  0  0  0  0  0  0  0  0  0  0
    0.3934  -12.8179   16.1469 O   0  0  0  0  0  0  0  0  0  0  0  0
   -0.6594   -9.6143   17.2901 C   0  0  0  0  0  0  0  0  0  0  0  0
    0.8117   -5.8327   27.5255 C   0  0  0  0  0  0  0  0  0  0  0  0
   -2.0172   -7.7303   18.7304 C   0  0  0  0  0  0  0  0  0  0  0  0
   -0.5026   -8.2648   17.0340 C   0  0  0  0  0  0  0  0  0  0  0  0
    6.9606   -4.0099   27.8169 C   0  0  0  0  0  0  0  0  0  0  0  0
    5.1670   -4.5517   29.8132 C   0  0  0  0  0  0  0  0  0  0  0  0
   -1.6967  -11.3583   18.5615 C   0  0  0  0  0  0  0  0  0  0  0  0
    1.7481   -5.6721   26.4937 C   0  0  0  0  0  0  0  0  0  0  0  0
   -1.5309   -9.9919   18.3035 C   0  0  0  0  0  0  0  0  0  0  0  0
   -1.0576  -12.2823   17.8187 C   0  0  0  0  0  0  0  0  0  0  0  0
   -2.2204   -9.0296   19.0291 C   0  0  0  0  0  0  0  0  0  0  0  0
    3.0271   -5.3198   26.8294 C   0  0  0  0  0  0  0  0  0  0  0  0
    7.3199   -3.8801   29.1164 C   0  0  0  0  0  0  0  0  0  0  0  0
  1  3  4  0
  1  7  4  0
  2  3  1  0
  2  6  4  0
  2 16  4  0
  3 22  4  0
  4  9  4  0
  4 10  1  0
  4 20  4  0
  5 16  4  0
  5 23  4  0
  6 15  4  0
  7 12  4  0
  8 13  4  0
  8 14  4  0
  9 11  4  0
 11 14  4  0
 11 19  4  0
 12 18  4  0
 13 21  4  0
 15 23  4  0
 17 19  4  0
 17 20  4  0
 18 22  4  0
 19 21  4  0
M  END
$$$$

 Created by Python create_sdf_string function

 23 26  0  0  0  0  0  0  0  0999 V2000
    2.4711   -5.3108   29.1268 C   0  0  0  0  0  0  0  0  0  0  0  0
    4.7731   -4.7065   28.4837 C   0  0  0  0  0  0  0  0  0  0  0  0
    3.3767   -5.1146   28.1475 C   0  0  0  0  0  0  0  0  0  0  0  0
   -0.1914  -11.8955   16.8404 C   0  0  0  0  0  0  0  0  0  0  0  0
    6.4498   -4.1832   30.1087 S   0  0  0  0  0  0  0  0  0  0  0  0
    5.6948   -4.4272   27.5033 C   0  0  0  0  0  0  0  0  0  0  0  0
    1.1694   -5.6455   28.8511 C   0  0  0  0  0  0  0  0  0  0  0  0
   -1.1838   -7.3721   17.7413 C   0  0  0  0  0  0  0  0  0  0  0  0
    0.0104  -10.6093   16.5869 C   0  0  0  0  0  0  0  0  0  0  0  0
    0.4048  -12.8187   16.1358 O   0  0  0  0  0  0  0  0  0  0  0  0
   -0.6668   -9.6080   17.3051 C   0  0  0  0  0  0  0  0  0  0  0  0
    0.7980   -5.8319   27.5260 C   0  0  0  0  0  0  0  0  0  0  0  0
   -2.0282   -7.7281   18.7401 C   0  0  0  0  0  0  0  0  0  0  0  0
   -0.5134   -8.2699   17.0294 C   0  0  0  0  0  0  0  0  0  0  0  0
    6.9525   -4.0078   27.8127 C   0  0  0  0  0  0  0  0  0  0  0  0
    5.1670   -4.5356   29.8191 C   0  0  0  0  0  0  0  0  0  0  0  0
   -1.6965  -11.3569   18.5503 C   0  0  0  0  0  0  0  0  0  0  0  0
    1.7457   -5.6750   26.5077 C   0  0  0  0  0  0  0  0  0  0  0  0
   -1.5365   -9.9917   18.3036 C   0  0  0  0  0  0  0  0  0  0  0  0
   -1.0585  -12.2784   17.8119 C   0  0  0  0  0  0  0  0  0  0  0  0
   -2.2174   -9.0013   19.0209 C   0  0  0  0  0  0  0  0  0  0  0  0
    3.0147   -5.3146   26.8202 C   0  0  0  0  0  0  0  0  0  0  0  0
    7.3198   -3.8887   29.1240 C   0  0  0  0  0  0  0  0  0  0  0  0
  1  3  4  0
  1  7  4  0
  2  3  1  0
  2  6  4  0
  2 16  4  0
  3 22  4  0
  4  9  4  0
  4 10  1  0
  4 20  4  0
  4 21  2  0
  5 16  4  0
  5 23  4  0
  6 15  4  0
  7 12  4  0
  8 13  4  0
  8 14  4  0
  9 11  4  0
 11 14  4  0
 11 19  4  0
 12 18  4  0
 13 21  4  0
 15 23  4  0
 17 19  4  0
 17 20  4  0
 18 22  4  0
 19 21  4  0
M  END
$$$$

 Created by Python create_sdf_string function

 23 25  0  0  0  0  0  0  0  0999 V2000
    2.4655   -5.3053   29.1347 C   0  0  0  0  0  0  0  0  0  0  0  0
    4.7588   -4.6973   28.4777 C   0  0  0  0  0  0  0  0  0  0  0  0
    3.4031   -5.1101   28.1364 C   0  0  0  0  0  0  0  0  0  0  0  0
   -0.2085  -11.8855   16.8543 C   0  0  0  0  0  0  0  0  0  0  0  0
    6.4491   -4.1712   30.1163 C   0  0  0  0  0  0  0  0  0  0  0  0
    5.6886   -4.4295   27.4889 C   0  0  0  0  0  0  0  0  0  0  0  0
    1.1752   -5.6499   28.8515 C   0  0  0  0  0  0  0  0  0  0  0  0
   -1.1843   -7.3555   17.7482 C   0  0  0  0  0  0  0  0  0  0  0  0
   -0.0034  -10.5840   16.5971 C   0  0  0  0  0  0  0  0  0  0  0  0
    0.3876  -12.7963   16.1652 O   0  0  0  0  0  0  0  0  0  0  0  0
   -0.6717   -9.5994   17.3052 C   0  0  0  0  0  0  0  0  0  0  0  0
    0.8132   -5.8336   27.5291 C   0  0  0  0  0  0  0  0  0  0  0  0
   -2.0357   -7.7008   18.7508 C   0  0  0  0  0  0  0  0  0  0  0  0
   -0.5176   -8.2513   17.0468 C   0  0  0  0  0  0  0  0  0  0  0  0
    6.9547   -4.0151   27.8114 C   0  0  0  0  0  0  0  0  0  0  0  0
    5.1612   -4.5498   29.8110 C   0  0  0  0  0  0  0  0  0  0  0  0
   -1.7212  -11.3324   18.5737 C   0  0  0  0  0  0  0  0  0  0  0  0
    1.7470   -5.6716   26.5025 C   0  0  0  0  0  0  0  0  0  0  0  0
   -1.5528   -9.9670   18.3208 C   0  0  0  0  0  0  0  0  0  0  0  0
   -1.0720  -12.2597   17.8416 C   0  0  0  0  0  0  0  0  0  0  0  0
   -2.2315   -8.9982   19.0375 C   0  0  0  0  0  0  0  0  0  0  0  0
    3.0263   -5.3077   26.8283 C   0  0  0  0  0  0  0  0  0  0  0  0
    7.3282   -3.8909   29.1051 C   0  0  0  0  0  0  0  0  0  0  0  0
  1  3  4  0
  1  7  4  0
  2  3  1  0
  2  6  4  0
  2 16  4  0
  3 22  4  0
  4  9  4  0
  4 10  1  0
  4 20  4  0
  5 16  4  0
  5 23  4  0
  6 15  4  0
  7 12  4  0
  8 13  4  0
  8 14  4  0
  9 11  4  0
 11 14  4  0
 11 19  4  0
 12 18  4  0
 13 21  4  0
 15 23  4  0
 17 19  4  0
 17 20  4  0
 18 22  4  0
 19 21  4  0
M  END
$$$$

 Created by Python create_sdf_string function

 23 25  0  0  0  0  0  0  0  0999 V2000
    2.4576   -5.3057   29.1297 C   0  0  0  0  0  0  0  0  0  0  0  0
    4.7690   -4.6879   28.4764 C   0  0  0  0  0  0  0  0  0  0  0  0
    3.4099   -5.1067   28.1390 C   0  0  0  0  0  0  0  0  0  0  0  0
   -0.2104  -11.8787   16.8713 C   0  0  0  0  0  0  0  0  0  0  0  0
    6.4433   -4.1538   30.1166 C   0  0  0  0  0  0  0  0  0  0  0  0
    5.6931   -4.4453   27.4829 C   0  0  0  0  0  0  0  0  0  0  0  0
    1.1766   -5.6503   28.8522 C   0  0  0  0  0  0  0  0  0  0  0  0
   -1.1951   -7.3428   17.7514 C   0  0  0  0  0  0  0  0  0  0  0  0
    0.0067  -10.5835   16.5966 C   0  0  0  0  0  0  0  0  0  0  0  0
    0.4037  -12.7938   16.1602 O   0  0  0  0  0  0  0  0  0  0  0  0
   -0.6698   -9.6005   17.3073 C   0  0  0  0  0  0  0  0  0  0  0  0
    0.8164   -5.8346   27.5274 C   0  0  0  0  0  0  0  0  0  0  0  0
   -2.0487   -7.7032   18.7494 C   0  0  0  0  0  0  0  0  0  0  0  0
   -0.5160   -8.2462   17.0366 C   0  0  0  0  0  0  0  0  0  0  0  0
    6.9545   -4.0088   27.8135 C   0  0  0  0  0  0  0  0  0  0  0  0
    5.1629   -4.5535   29.8149 C   0  0  0  0  0  0  0  0  0  0  0  0
   -1.7225  -11.3407   18.5740 C   0  0  0  0  0  0  0  0  0  0  0  0
    1.7556   -5.6743   26.5033 C   0  0  0  0  0  0  0  0  0  0  0  0
   -1.5523   -9.9653   18.3196 C   0  0  0  0  0  0  0  0  0  0  0  0
   -1.0705  -12.2628   17.8432 C   0  0  0  0  0  0  0  0  0  0  0  0
   -2.2406   -9.0045   19.0337 C   0  0  0  0  0  0  0  0  0  0  0  0
    3.0335   -5.3119   26.8361 C   0  0  0  0  0  0  0  0  0  0  0  0
    7.3323   -3.8924   29.1141 C   0  0  0  0  0  0  0  0  0  0  0  0
  1  3  4  0
  1  7  4  0
  2  3  1  0
  2  6  4  0
  2 16  4  0
  3 22  4  0
  4  9  4  0
  4 10  1  0
  4 20  4  0
  5 16  4  0
  5 23  4  0
  6 15  4  0
  7 12  4  0
  8 13  4  0
  8 14  4  0
  9 11  4  0
 11 14  4  0
 11 19  4  0
 12 18  4  0
 13 21  4  0
 15 23  4  0
 17 19  4  0
 17 20  4  0
 18 22  4  0
 19 21  4  0
M  END
$$$$

 Created by Python create_sdf_string function

 23 25  0  0  0  0  0  0  0  0999 V2000
    2.4575   -5.3032   29.1264 C   0  0  0  0  0  0  0  0  0  0  0  0
    4.7704   -4.6941   28.4807 C   0  0  0  0  0  0  0  0  0  0  0  0
    3.4028   -5.1081   28.1352 C   0  0  0  0  0  0  0  0  0  0  0  0
   -0.2136  -11.8751   16.8738 C   0  0  0  0  0  0  0  0  0  0  0  0
    6.4488   -4.1520   30.1205 C   0  0  0  0  0  0  0  0  0  0  0  0
    5.7007   -4.4368   27.4920 C   0  0  0  0  0  0  0  0  0  0  0  0
    1.1794   -5.6537   28.8449 C   0  0  0  0  0  0  0  0  0  0  0  0
   -1.1976   -7.3400   17.7610 C   0  0  0  0  0  0  0  0  0  0  0  0
   -0.0070  -10.5726   16.6086 C   0  0  0  0  0  0  0  0  0  0  0  0
    0.3837  -12.7749   16.1914 O   0  0  0  0  0  0  0  0  0  0  0  0
   -0.6799   -9.5836   17.3166 C   0  0  0  0  0  0  0  0  0  0  0  0
    0.8268   -5.8371   27.5267 C   0  0  0  0  0  0  0  0  0  0  0  0
   -2.0599   -7.6851   18.7665 C   0  0  0  0  0  0  0  0  0  0  0  0
   -0.5241   -8.2334   17.0569 C   0  0  0  0  0  0  0  0  0  0  0  0
    6.9646   -4.0150   27.8149 C   0  0  0  0  0  0  0  0  0  0  0  0
    5.1707   -4.5477   29.8127 C   0  0  0  0  0  0  0  0  0  0  0  0
   -1.7370  -11.3203   18.5897 C   0  0  0  0  0  0  0  0  0  0  0  0
    1.7499   -5.6756   26.4967 C   0  0  0  0  0  0  0  0  0  0  0  0
   -1.5674   -9.9498   18.3331 C   0  0  0  0  0  0  0  0  0  0  0  0
   -1.0806  -12.2411   17.8641 C   0  0  0  0  0  0  0  0  0  0  0  0
   -2.2584   -8.9845   19.0555 C   0  0  0  0  0  0  0  0  0  0  0  0
    3.0260   -5.3103   26.8247 C   0  0  0  0  0  0  0  0  0  0  0  0
    7.3284   -3.8915   29.1153 C   0  0  0  0  0  0  0  0  0  0  0  0
  1  3  4  0
  1  7  4  0
  2  3  1  0
  2  6  4  0
  2 16  4  0
  3 22  4  0
  4  9  4  0
  4 10  1  0
  4 20  4  0
  5 16  4  0
  5 23  4  0
  6 15  4  0
  7 12  4  0
  8 13  4  0
  8 14  4  0
  9 11  4  0
 11 14  4  0
 11 19  4  0
 12 18  4  0
 13 21  4  0
 15 23  4  0
 17 19  4  0
 17 20  4  0
 18 22  4  0
 19 21  4  0
M  END
$$$$

 Created by Python create_sdf_string function

 23 25  0  0  0  0  0  0  0  0999 V2000
    2.4573   -5.3110   29.1248 C   0  0  0  0  0  0  0  0  0  0  0  0
    4.7738   -4.6953   28.4802 C   0  0  0  0  0  0  0  0  0  0  0  0
    3.4000   -5.1064   28.1338 C   0  0  0  0  0  0  0  0  0  0  0  0
   -0.2136  -11.8724   16.8733 C   0  0  0  0  0  0  0  0  0  0  0  0
    6.4467   -4.1538   30.1206 C   0  0  0  0  0  0  0  0  0  0  0  0
    5.7052   -4.4374   27.4927 C   0  0  0  0  0  0  0  0  0  0  0  0
    1.1768   -5.6587   28.8446 C   0  0  0  0  0  0  0  0  0  0  0  0
   -1.1989   -7.3446   17.7609 C   0  0  0  0  0  0  0  0  0  0  0  0
   -0.0047  -10.5728   16.6051 C   0  0  0  0  0  0  0  0  0  0  0  0
    0.3848  -12.7775   16.1929 O   0  0  0  0  0  0  0  0  0  0  0  0
   -0.6741   -9.5799   17.3144 C   0  0  0  0  0  0  0  0  0  0  0  0
    0.8285   -5.8399   27.5263 C   0  0  0  0  0  0  0  0  0  0  0  0
   -2.0623   -7.6810   18.7679 C   0  0  0  0  0  0  0  0  0  0  0  0
   -0.5222   -8.2299   17.0586 C   0  0  0  0  0  0  0  0  0  0  0  0
    6.9609   -4.0140   27.8155 C   0  0  0  0  0  0  0  0  0  0  0  0
    5.1723   -4.5488   29.8108 C   0  0  0  0  0  0  0  0  0  0  0  0
   -1.7374  -11.3221   18.5919 C   0  0  0  0  0  0  0  0  0  0  0  0
    1.7514   -5.6779   26.5026 C   0  0  0  0  0  0  0  0  0  0  0  0
   -1.5677   -9.9465   18.3322 C   0  0  0  0  0  0  0  0  0  0  0  0
   -1.0775  -12.2404   17.8702 C   0  0  0  0  0  0  0  0  0  0  0  0
   -2.2574   -8.9860   19.0535 C   0  0  0  0  0  0  0  0  0  0  0  0
    3.0276   -5.3107   26.8240 C   0  0  0  0  0  0  0  0  0  0  0  0
    7.3320   -3.8950   29.1160 C   0  0  0  0  0  0  0  0  0  0  0  0
  1  3  4  0
  1  7  4  0
  2  3  1  0
  2  6  4  0
  2 16  4  0
  3 22  4  0
  4  9  4  0
  4 10  1  0
  4 20  4  0
  5 16  4  0
  5 23  4  0
  6 15  4  0
  7 12  4  0
  8 13  4  0
  8 14  4  0
  9 11  4  0
 11 14  4  0
 11 19  4  0
 12 18  4  0
 13 21  4  0
 15 23  4  0
 17 19  4  0
 17 20  4  0
 18 22  4  0
 19 21  4  0
M  END
$$$$

 Created by Python create_sdf_string function

 23 25  0  0  0  0  0  0  0  0999 V2000
    2.4610   -5.3070   29.1240 C   0  0  0  0  0  0  0  0  0  0  0  0
    4.7710   -4.6952   28.4803 C   0  0  0  0  0  0  0  0  0  0  0  0
    3.4047   -5.1087   28.1314 C   0  0  0  0  0  0  0  0  0  0  0  0
   -0.2234  -11.8615   16.8874 C   0  0  0  0  0  0  0  0  0  0  0  0
    6.4491   -4.1532   30.1213 C   0  0  0  0  0  0  0  0  0  0  0  0
    5.7060   -4.4340   27.4975 C   0  0  0  0  0  0  0  0  0  0  0  0
    1.1818   -5.6612   28.8399 C   0  0  0  0  0  0  0  0  0  0  0  0
   -1.2067   -7.3287   17.7772 C   0  0  0  0  0  0  0  0  0  0  0  0
   -0.0206  -10.5585   16.6210 C   0  0  0  0  0  0  0  0  0  0  0  0
    0.3696  -12.7626   16.2169 O   0  0  0  0  0  0  0  0  0  0  0  0
   -0.6895   -9.5676   17.3297 C   0  0  0  0  0  0  0  0  0  0  0  0
    0.8388   -5.8417   27.5264 C   0  0  0  0  0  0  0  0  0  0  0  0
   -2.0709   -7.6637   18.7817 C   0  0  0  0  0  0  0  0  0  0  0  0
   -0.5279   -8.2168   17.0717 C   0  0  0  0  0  0  0  0  0  0  0  0
    6.9694   -4.0191   27.8190 C   0  0  0  0  0  0  0  0  0  0  0  0
    5.1733   -4.5469   29.8123 C   0  0  0  0  0  0  0  0  0  0  0  0
   -1.7508  -11.3016   18.6072 C   0  0  0  0  0  0  0  0  0  0  0  0
    1.7497   -5.6771   26.4971 C   0  0  0  0  0  0  0  0  0  0  0  0
   -1.5799   -9.9322   18.3468 C   0  0  0  0  0  0  0  0  0  0  0  0
   -1.0871  -12.2214   17.8851 C   0  0  0  0  0  0  0  0  0  0  0  0
   -2.2706   -8.9669   19.0691 C   0  0  0  0  0  0  0  0  0  0  0  0
    3.0279   -5.3073   26.8197 C   0  0  0  0  0  0  0  0  0  0  0  0
    7.3282   -3.8948   29.1186 C   0  0  0  0  0  0  0  0  0  0  0  0
  1  3  4  0
  1  7  4  0
  2  3  1  0
  2  6  4  0
  2 16  4  0
  3 22  4  0
  4  9  4  0
  4 10  1  0
  4 20  4  0
  5 16  4  0
  5 23  4  0
  6 15  4  0
  7 12  4  0
  8 13  4  0
  8 14  4  0
  9 11  4  0
 11 14  4  0
 11 19  4  0
 12 18  4  0
 13 21  4  0
 15 23  4  0
 17 19  4  0
 17 20  4  0
 18 22  4  0
 19 21  4  0
M  END
$$$$

 Created by Python create_sdf_string function

 23 25  0  0  0  0  0  0  0  0999 V2000
    2.4610   -5.3070   29.1240 C   0  0  0  0  0  0  0  0  0  0  0  0
    4.7710   -4.6952   28.4803 C   0  0  0  0  0  0  0  0  0  0  0  0
    3.4047   -5.1087   28.1314 C   0  0  0  0  0  0  0  0  0  0  0  0
   -0.2234  -11.8615   16.8874 C   0  0  0  0  0  0  0  0  0  0  0  0
    6.4491   -4.1532   30.1213 C   0  0  0  0  0  0  0  0  0  0  0  0
    5.7060   -4.4340   27.4975 C   0  0  0  0  0  0  0  0  0  0  0  0
    1.1818   -5.6612   28.8399 C   0  0  0  0  0  0  0  0  0  0  0  0
   -1.2067   -7.3287   17.7772 C   0  0  0  0  0  0  0  0  0  0  0  0
   -0.0206  -10.5585   16.6210 C   0  0  0  0  0  0  0  0  0  0  0  0
    0.3696  -12.7626   16.2169 O   0  0  0  0  0  0  0  0  0  0  0  0
   -0.6895   -9.5676   17.3297 C   0  0  0  0  0  0  0  0  0  0  0  0
    0.8388   -5.8417   27.5264 C   0  0  0  0  0  0  0  0  0  0  0  0
   -2.0709   -7.6637   18.7817 C   0  0  0  0  0  0  0  0  0  0  0  0
   -0.5279   -8.2168   17.0717 C   0  0  0  0  0  0  0  0  0  0  0  0
    6.9694   -4.0191   27.8190 C   0  0  0  0  0  0  0  0  0  0  0  0
    5.1733   -4.5469   29.8123 C   0  0  0  0  0  0  0  0  0  0  0  0
   -1.7508  -11.3016   18.6072 C   0  0  0  0  0  0  0  0  0  0  0  0
    1.7497   -5.6771   26.4971 C   0  0  0  0  0  0  0  0  0  0  0  0
   -1.5799   -9.9322   18.3468 C   0  0  0  0  0  0  0  0  0  0  0  0
   -1.0871  -12.2214   17.8851 C   0  0  0  0  0  0  0  0  0  0  0  0
   -2.2706   -8.9669   19.0691 C   0  0  0  0  0  0  0  0  0  0  0  0
    3.0279   -5.3073   26.8197 C   0  0  0  0  0  0  0  0  0  0  0  0
    7.3282   -3.8948   29.1186 C   0  0  0  0  0  0  0  0  0  0  0  0
  1  3  4  0
  1  7  4  0
  2  3  1  0
  2  6  4  0
  2 16  4  0
  3 22  4  0
  4  9  4  0
  4 10  1  0
  4 20  4  0
  5 16  4  0
  5 23  4  0
  6 15  4  0
  7 12  4  0
  8 13  4  0
  8 14  4  0
  9 11  4  0
 11 14  4  0
 11 19  4  0
 12 18  4  0
 13 21  4  0
 15 23  4  0
 17 19  4  0
 17 20  4  0
 18 22  4  0
 19 21  4  0
M  END
$$$$

 Created by Python create_sdf_string function

 23 25  0  0  0  0  0  0  0  0999 V2000
    2.4610   -5.3070   29.1240 C   0  0  0  0  0  0  0  0  0  0  0  0
    4.7710   -4.6952   28.4803 C   0  0  0  0  0  0  0  0  0  0  0  0
    3.4047   -5.1087   28.1314 C   0  0  0  0  0  0  0  0  0  0  0  0
   -0.2234  -11.8615   16.8874 C   0  0  0  0  0  0  0  0  0  0  0  0
    6.4491   -4.1532   30.1213 C   0  0  0  0  0  0  0  0  0  0  0  0
    5.7060   -4.4340   27.4975 C   0  0  0  0  0  0  0  0  0  0  0  0
    1.1818   -5.6612   28.8399 C   0  0  0  0  0  0  0  0  0  0  0  0
   -1.2067   -7.3287   17.7772 C   0  0  0  0  0  0  0  0  0  0  0  0
   -0.0206  -10.5585   16.6210 C   0  0  0  0  0  0  0  0  0  0  0  0
    0.3696  -12.7626   16.2169 O   0  0  0  0  0  0  0  0  0  0  0  0
   -0.6895   -9.5676   17.3297 C   0  0  0  0  0  0  0  0  0  0  0  0
    0.8388   -5.8417   27.5264 C   0  0  0  0  0  0  0  0  0  0  0  0
   -2.0709   -7.6637   18.7817 C   0  0  0  0  0  0  0  0  0  0  0  0
   -0.5279   -8.2168   17.0717 C   0  0  0  0  0  0  0  0  0  0  0  0
    6.9694   -4.0191   27.8190 C   0  0  0  0  0  0  0  0  0  0  0  0
    5.1733   -4.5469   29.8123 C   0  0  0  0  0  0  0  0  0  0  0  0
   -1.7508  -11.3016   18.6072 C   0  0  0  0  0  0  0  0  0  0  0  0
    1.7497   -5.6771   26.4971 C   0  0  0  0  0  0  0  0  0  0  0  0
   -1.5799   -9.9322   18.3468 C   0  0  0  0  0  0  0  0  0  0  0  0
   -1.0871  -12.2214   17.8851 C   0  0  0  0  0  0  0  0  0  0  0  0
   -2.2706   -8.9669   19.0691 C   0  0  0  0  0  0  0  0  0  0  0  0
    3.0279   -5.3073   26.8197 C   0  0  0  0  0  0  0  0  0  0  0  0
    7.3282   -3.8948   29.1186 C   0  0  0  0  0  0  0  0  0  0  0  0
  1  3  4  0
  1  7  4  0
  2  3  1  0
  2  6  4  0
  2 16  4  0
  3 22  4  0
  4  9  4  0
  4 10  1  0
  4 20  4  0
  5 16  4  0
  5 23  4  0
  6 15  4  0
  7 12  4  0
  8 13  4  0
  8 14  4  0
  9 11  4  0
 11 14  4  0
 11 19  4  0
 12 18  4  0
 13 21  4  0
 15 23  4  0
 17 19  4  0
 17 20  4  0
 18 22  4  0
 19 21  4  0
M  END
$$$$

 Created by Python create_sdf_string function

 23 25  0  0  0  0  0  0  0  0999 V2000
    2.4610   -5.3070   29.1240 C   0  0  0  0  0  0  0  0  0  0  0  0
    4.7710   -4.6952   28.4803 C   0  0  0  0  0  0  0  0  0  0  0  0
    3.4047   -5.1087   28.1314 C   0  0  0  0  0  0  0  0  0  0  0  0
   -0.2234  -11.8615   16.8874 C   0  0  0  0  0  0  0  0  0  0  0  0
    6.4491   -4.1532   30.1213 C   0  0  0  0  0  0  0  0  0  0  0  0
    5.7060   -4.4340   27.4975 C   0  0  0  0  0  0  0  0  0  0  0  0
    1.1818   -5.6612   28.8399 C   0  0  0  0  0  0  0  0  0  0  0  0
   -1.2067   -7.3287   17.7772 C   0  0  0  0  0  0  0  0  0  0  0  0
   -0.0206  -10.5585   16.6210 C   0  0  0  0  0  0  0  0  0  0  0  0
    0.3696  -12.7626   16.2169 O   0  0  0  0  0  0  0  0  0  0  0  0
   -0.6895   -9.5676   17.3297 C   0  0  0  0  0  0  0  0  0  0  0  0
    0.8388   -5.8417   27.5264 C   0  0  0  0  0  0  0  0  0  0  0  0
   -2.0709   -7.6637   18.7817 C   0  0  0  0  0  0  0  0  0  0  0  0
   -0.5279   -8.2168   17.0717 C   0  0  0  0  0  0  0  0  0  0  0  0
    6.9694   -4.0191   27.8190 C   0  0  0  0  0  0  0  0  0  0  0  0
    5.1733   -4.5469   29.8123 C   0  0  0  0  0  0  0  0  0  0  0  0
   -1.7508  -11.3016   18.6072 C   0  0  0  0  0  0  0  0  0  0  0  0
    1.7497   -5.6771   26.4971 C   0  0  0  0  0  0  0  0  0  0  0  0
   -1.5799   -9.9322   18.3468 C   0  0  0  0  0  0  0  0  0  0  0  0
   -1.0871  -12.2214   17.8851 C   0  0  0  0  0  0  0  0  0  0  0  0
   -2.2706   -8.9669   19.0691 C   0  0  0  0  0  0  0  0  0  0  0  0
    3.0279   -5.3073   26.8197 C   0  0  0  0  0  0  0  0  0  0  0  0
    7.3282   -3.8948   29.1186 C   0  0  0  0  0  0  0  0  0  0  0  0
  1  3  4  0
  1  7  4  0
  2  3  1  0
  2  6  4  0
  2 16  4  0
  3 22  4  0
  4  9  4  0
  4 10  1  0
  4 20  4  0
  5 16  4  0
  5 23  4  0
  6 15  4  0
  7 12  4  0
  8 13  4  0
  8 14  4  0
  9 11  4  0
 11 14  4  0
 11 19  4  0
 12 18  4  0
 13 21  4  0
 15 23  4  0
 17 19  4  0
 17 20  4  0
 18 22  4  0
 19 21  4  0
M  END
$$$$

 Created by Python create_sdf_string function

 23 25  0  0  0  0  0  0  0  0999 V2000
    2.4610   -5.3070   29.1240 C   0  0  0  0  0  0  0  0  0  0  0  0
    4.7710   -4.6952   28.4803 C   0  0  0  0  0  0  0  0  0  0  0  0
    3.4047   -5.1087   28.1314 C   0  0  0  0  0  0  0  0  0  0  0  0
   -0.2234  -11.8615   16.8874 C   0  0  0  0  0  0  0  0  0  0  0  0
    6.4491   -4.1532   30.1213 C   0  0  0  0  0  0  0  0  0  0  0  0
    5.7060   -4.4340   27.4975 C   0  0  0  0  0  0  0  0  0  0  0  0
    1.1818   -5.6612   28.8399 C   0  0  0  0  0  0  0  0  0  0  0  0
   -1.2067   -7.3287   17.7772 C   0  0  0  0  0  0  0  0  0  0  0  0
   -0.0206  -10.5585   16.6210 C   0  0  0  0  0  0  0  0  0  0  0  0
    0.3696  -12.7626   16.2169 O   0  0  0  0  0  0  0  0  0  0  0  0
   -0.6895   -9.5676   17.3297 C   0  0  0  0  0  0  0  0  0  0  0  0
    0.8388   -5.8417   27.5264 C   0  0  0  0  0  0  0  0  0  0  0  0
   -2.0709   -7.6637   18.7817 C   0  0  0  0  0  0  0  0  0  0  0  0
   -0.5279   -8.2168   17.0717 C   0  0  0  0  0  0  0  0  0  0  0  0
    6.9694   -4.0191   27.8190 C   0  0  0  0  0  0  0  0  0  0  0  0
    5.1733   -4.5469   29.8123 C   0  0  0  0  0  0  0  0  0  0  0  0
   -1.7508  -11.3016   18.6072 C   0  0  0  0  0  0  0  0  0  0  0  0
    1.7497   -5.6771   26.4971 C   0  0  0  0  0  0  0  0  0  0  0  0
   -1.5799   -9.9322   18.3468 C   0  0  0  0  0  0  0  0  0  0  0  0
   -1.0871  -12.2214   17.8851 C   0  0  0  0  0  0  0  0  0  0  0  0
   -2.2706   -8.9669   19.0691 C   0  0  0  0  0  0  0  0  0  0  0  0
    3.0279   -5.3073   26.8197 C   0  0  0  0  0  0  0  0  0  0  0  0
    7.3282   -3.8948   29.1186 C   0  0  0  0  0  0  0  0  0  0  0  0
  1  3  4  0
  1  7  4  0
  2  3  1  0
  2  6  4  0
  2 16  4  0
  3 22  4  0
  4  9  4  0
  4 10  1  0
  4 20  4  0
  5 16  4  0
  5 23  4  0
  6 15  4  0
  7 12  4  0
  8 13  4  0
  8 14  4  0
  9 11  4  0
 11 14  4  0
 11 19  4  0
 12 18  4  0
 13 21  4  0
 15 23  4  0
 17 19  4  0
 17 20  4  0
 18 22  4  0
 19 21  4  0
M  END
$$$$

 Created by Python create_sdf_string function

 23 25  0  0  0  0  0  0  0  0999 V2000
    2.4610   -5.3070   29.1240 C   0  0  0  0  0  0  0  0  0  0  0  0
    4.7710   -4.6952   28.4803 C   0  0  0  0  0  0  0  0  0  0  0  0
    3.4047   -5.1087   28.1314 C   0  0  0  0  0  0  0  0  0  0  0  0
   -0.2234  -11.8615   16.8874 C   0  0  0  0  0  0  0  0  0  0  0  0
    6.4491   -4.1532   30.1213 C   0  0  0  0  0  0  0  0  0  0  0  0
    5.7060   -4.4340   27.4975 C   0  0  0  0  0  0  0  0  0  0  0  0
    1.1818   -5.6612   28.8399 C   0  0  0  0  0  0  0  0  0  0  0  0
   -1.2067   -7.3287   17.7772 C   0  0  0  0  0  0  0  0  0  0  0  0
   -0.0206  -10.5585   16.6210 C   0  0  0  0  0  0  0  0  0  0  0  0
    0.3696  -12.7626   16.2169 O   0  0  0  0  0  0  0  0  0  0  0  0
   -0.6895   -9.5676   17.3297 C   0  0  0  0  0  0  0  0  0  0  0  0
    0.8388   -5.8417   27.5264 C   0  0  0  0  0  0  0  0  0  0  0  0
   -2.0709   -7.6637   18.7817 C   0  0  0  0  0  0  0  0  0  0  0  0
   -0.5279   -8.2168   17.0717 C   0  0  0  0  0  0  0  0  0  0  0  0
    6.9694   -4.0191   27.8190 C   0  0  0  0  0  0  0  0  0  0  0  0
    5.1733   -4.5469   29.8123 C   0  0  0  0  0  0  0  0  0  0  0  0
   -1.7508  -11.3016   18.6072 C   0  0  0  0  0  0  0  0  0  0  0  0
    1.7497   -5.6771   26.4971 C   0  0  0  0  0  0  0  0  0  0  0  0
   -1.5799   -9.9322   18.3468 C   0  0  0  0  0  0  0  0  0  0  0  0
   -1.0871  -12.2214   17.8851 C   0  0  0  0  0  0  0  0  0  0  0  0
   -2.2706   -8.9669   19.0691 C   0  0  0  0  0  0  0  0  0  0  0  0
    3.0279   -5.3073   26.8197 C   0  0  0  0  0  0  0  0  0  0  0  0
    7.3282   -3.8948   29.1186 C   0  0  0  0  0  0  0  0  0  0  0  0
  1  3  4  0
  1  7  4  0
  2  3  1  0
  2  6  4  0
  2 16  4  0
  3 22  4  0
  4  9  4  0
  4 10  1  0
  4 20  4  0
  5 16  4  0
  5 23  4  0
  6 15  4  0
  7 12  4  0
  8 13  4  0
  8 14  4  0
  9 11  4  0
 11 14  4  0
 11 19  4  0
 12 18  4  0
 13 21  4  0
 15 23  4  0
 17 19  4  0
 17 20  4  0
 18 22  4  0
 19 21  4  0
M  END
$$$$

 Created by Python create_sdf_string function

 23 25  0  0  0  0  0  0  0  0999 V2000
    2.4610   -5.3070   29.1240 C   0  0  0  0  0  0  0  0  0  0  0  0
    4.7710   -4.6952   28.4803 C   0  0  0  0  0  0  0  0  0  0  0  0
    3.4047   -5.1087   28.1314 C   0  0  0  0  0  0  0  0  0  0  0  0
   -0.2234  -11.8615   16.8874 C   0  0  0  0  0  0  0  0  0  0  0  0
    6.4491   -4.1532   30.1213 C   0  0  0  0  0  0  0  0  0  0  0  0
    5.7060   -4.4340   27.4975 C   0  0  0  0  0  0  0  0  0  0  0  0
    1.1818   -5.6612   28.8399 C   0  0  0  0  0  0  0  0  0  0  0  0
   -1.2067   -7.3287   17.7772 C   0  0  0  0  0  0  0  0  0  0  0  0
   -0.0206  -10.5585   16.6210 C   0  0  0  0  0  0  0  0  0  0  0  0
    0.3696  -12.7626   16.2169 O   0  0  0  0  0  0  0  0  0  0  0  0
   -0.6895   -9.5676   17.3297 C   0  0  0  0  0  0  0  0  0  0  0  0
    0.8388   -5.8417   27.5264 C   0  0  0  0  0  0  0  0  0  0  0  0
   -2.0709   -7.6637   18.7817 C   0  0  0  0  0  0  0  0  0  0  0  0
   -0.5279   -8.2168   17.0717 C   0  0  0  0  0  0  0  0  0  0  0  0
    6.9694   -4.0191   27.8190 C   0  0  0  0  0  0  0  0  0  0  0  0
    5.1733   -4.5469   29.8123 C   0  0  0  0  0  0  0  0  0  0  0  0
   -1.7508  -11.3016   18.6072 C   0  0  0  0  0  0  0  0  0  0  0  0
    1.7497   -5.6771   26.4971 C   0  0  0  0  0  0  0  0  0  0  0  0
   -1.5799   -9.9322   18.3468 C   0  0  0  0  0  0  0  0  0  0  0  0
   -1.0871  -12.2214   17.8851 C   0  0  0  0  0  0  0  0  0  0  0  0
   -2.2706   -8.9669   19.0691 C   0  0  0  0  0  0  0  0  0  0  0  0
    3.0279   -5.3073   26.8197 C   0  0  0  0  0  0  0  0  0  0  0  0
    7.3282   -3.8948   29.1186 C   0  0  0  0  0  0  0  0  0  0  0  0
  1  3  4  0
  1  7  4  0
  2  3  1  0
  2  6  4  0
  2 16  4  0
  3 22  4  0
  4  9  4  0
  4 10  1  0
  4 20  4  0
  5 16  4  0
  5 23  4  0
  6 15  4  0
  7 12  4  0
  8 13  4  0
  8 14  4  0
  9 11  4  0
 11 14  4  0
 11 19  4  0
 12 18  4  0
 13 21  4  0
 15 23  4  0
 17 19  4  0
 17 20  4  0
 18 22  4  0
 19 21  4  0
M  END
$$$$

 Created by Python create_sdf_string function

 23 25  0  0  0  0  0  0  0  0999 V2000
    2.4610   -5.3070   29.1240 C   0  0  0  0  0  0  0  0  0  0  0  0
    4.7710   -4.6952   28.4803 C   0  0  0  0  0  0  0  0  0  0  0  0
    3.4047   -5.1087   28.1314 C   0  0  0  0  0  0  0  0  0  0  0  0
   -0.2234  -11.8615   16.8874 C   0  0  0  0  0  0  0  0  0  0  0  0
    6.4491   -4.1532   30.1213 C   0  0  0  0  0  0  0  0  0  0  0  0
    5.7060   -4.4340   27.4975 C   0  0  0  0  0  0  0  0  0  0  0  0
    1.1818   -5.6612   28.8399 C   0  0  0  0  0  0  0  0  0  0  0  0
   -1.2067   -7.3287   17.7772 C   0  0  0  0  0  0  0  0  0  0  0  0
   -0.0206  -10.5585   16.6210 C   0  0  0  0  0  0  0  0  0  0  0  0
    0.3696  -12.7626   16.2169 O   0  0  0  0  0  0  0  0  0  0  0  0
   -0.6895   -9.5676   17.3297 C   0  0  0  0  0  0  0  0  0  0  0  0
    0.8388   -5.8417   27.5264 C   0  0  0  0  0  0  0  0  0  0  0  0
   -2.0709   -7.6637   18.7817 C   0  0  0  0  0  0  0  0  0  0  0  0
   -0.5279   -8.2168   17.0717 C   0  0  0  0  0  0  0  0  0  0  0  0
    6.9694   -4.0191   27.8190 C   0  0  0  0  0  0  0  0  0  0  0  0
    5.1733   -4.5469   29.8123 C   0  0  0  0  0  0  0  0  0  0  0  0
   -1.7508  -11.3016   18.6072 C   0  0  0  0  0  0  0  0  0  0  0  0
    1.7497   -5.6771   26.4971 C   0  0  0  0  0  0  0  0  0  0  0  0
   -1.5799   -9.9322   18.3468 C   0  0  0  0  0  0  0  0  0  0  0  0
   -1.0871  -12.2214   17.8851 C   0  0  0  0  0  0  0  0  0  0  0  0
   -2.2706   -8.9669   19.0691 C   0  0  0  0  0  0  0  0  0  0  0  0
    3.0279   -5.3073   26.8197 C   0  0  0  0  0  0  0  0  0  0  0  0
    7.3282   -3.8948   29.1186 C   0  0  0  0  0  0  0  0  0  0  0  0
  1  3  4  0
  1  7  4  0
  2  3  1  0
  2  6  4  0
  2 16  4  0
  3 22  4  0
  4  9  4  0
  4 10  1  0
  4 20  4  0
  5 16  4  0
  5 23  4  0
  6 15  4  0
  7 12  4  0
  8 13  4  0
  8 14  4  0
  9 11  4  0
 11 14  4  0
 11 19  4  0
 12 18  4  0
 13 21  4  0
 15 23  4  0
 17 19  4  0
 17 20  4  0
 18 22  4  0
 19 21  4  0
M  END
$$$$

 Created by Python create_sdf_string function

 23 25  0  0  0  0  0  0  0  0999 V2000
    2.4610   -5.3070   29.1240 C   0  0  0  0  0  0  0  0  0  0  0  0
    4.7710   -4.6952   28.4803 C   0  0  0  0  0  0  0  0  0  0  0  0
    3.4047   -5.1087   28.1314 C   0  0  0  0  0  0  0  0  0  0  0  0
   -0.2234  -11.8615   16.8874 C   0  0  0  0  0  0  0  0  0  0  0  0
    6.4491   -4.1532   30.1213 C   0  0  0  0  0  0  0  0  0  0  0  0
    5.7060   -4.4340   27.4975 C   0  0  0  0  0  0  0  0  0  0  0  0
    1.1818   -5.6612   28.8399 C   0  0  0  0  0  0  0  0  0  0  0  0
   -1.2067   -7.3287   17.7772 C   0  0  0  0  0  0  0  0  0  0  0  0
   -0.0206  -10.5585   16.6210 C   0  0  0  0  0  0  0  0  0  0  0  0
    0.3696  -12.7626   16.2169 O   0  0  0  0  0  0  0  0  0  0  0  0
   -0.6895   -9.5676   17.3297 C   0  0  0  0  0  0  0  0  0  0  0  0
    0.8388   -5.8417   27.5264 C   0  0  0  0  0  0  0  0  0  0  0  0
   -2.0709   -7.6637   18.7817 C   0  0  0  0  0  0  0  0  0  0  0  0
   -0.5279   -8.2168   17.0717 C   0  0  0  0  0  0  0  0  0  0  0  0
    6.9694   -4.0191   27.8190 C   0  0  0  0  0  0  0  0  0  0  0  0
    5.1733   -4.5469   29.8123 C   0  0  0  0  0  0  0  0  0  0  0  0
   -1.7508  -11.3016   18.6072 C   0  0  0  0  0  0  0  0  0  0  0  0
    1.7497   -5.6771   26.4971 C   0  0  0  0  0  0  0  0  0  0  0  0
   -1.5799   -9.9322   18.3468 C   0  0  0  0  0  0  0  0  0  0  0  0
   -1.0871  -12.2214   17.8851 C   0  0  0  0  0  0  0  0  0  0  0  0
   -2.2706   -8.9669   19.0691 C   0  0  0  0  0  0  0  0  0  0  0  0
    3.0279   -5.3073   26.8197 C   0  0  0  0  0  0  0  0  0  0  0  0
    7.3282   -3.8948   29.1186 C   0  0  0  0  0  0  0  0  0  0  0  0
  1  3  4  0
  1  7  4  0
  2  3  1  0
  2  6  4  0
  2 16  4  0
  3 22  4  0
  4  9  4  0
  4 10  1  0
  4 20  4  0
  5 16  4  0
  5 23  4  0
  6 15  4  0
  7 12  4  0
  8 13  4  0
  8 14  4  0
  9 11  4  0
 11 14  4  0
 11 19  4  0
 12 18  4  0
 13 21  4  0
 15 23  4  0
 17 19  4  0
 17 20  4  0
 18 22  4  0
 19 21  4  0
M  END
$$$$

 Created by Python create_sdf_string function

 23 25  0  0  0  0  0  0  0  0999 V2000
    2.4610   -5.3070   29.1240 C   0  0  0  0  0  0  0  0  0  0  0  0
    4.7710   -4.6952   28.4803 C   0  0  0  0  0  0  0  0  0  0  0  0
    3.4047   -5.1087   28.1314 C   0  0  0  0  0  0  0  0  0  0  0  0
   -0.2234  -11.8615   16.8874 C   0  0  0  0  0  0  0  0  0  0  0  0
    6.4491   -4.1532   30.1213 C   0  0  0  0  0  0  0  0  0  0  0  0
    5.7060   -4.4340   27.4975 C   0  0  0  0  0  0  0  0  0  0  0  0
    1.1818   -5.6612   28.8399 C   0  0  0  0  0  0  0  0  0  0  0  0
   -1.2067   -7.3287   17.7772 C   0  0  0  0  0  0  0  0  0  0  0  0
   -0.0206  -10.5585   16.6210 C   0  0  0  0  0  0  0  0  0  0  0  0
    0.3696  -12.7626   16.2169 O   0  0  0  0  0  0  0  0  0  0  0  0
   -0.6895   -9.5676   17.3297 C   0  0  0  0  0  0  0  0  0  0  0  0
    0.8388   -5.8417   27.5264 C   0  0  0  0  0  0  0  0  0  0  0  0
   -2.0709   -7.6637   18.7817 C   0  0  0  0  0  0  0  0  0  0  0  0
   -0.5279   -8.2168   17.0717 C   0  0  0  0  0  0  0  0  0  0  0  0
    6.9694   -4.0191   27.8190 C   0  0  0  0  0  0  0  0  0  0  0  0
    5.1733   -4.5469   29.8123 C   0  0  0  0  0  0  0  0  0  0  0  0
   -1.7508  -11.3016   18.6072 C   0  0  0  0  0  0  0  0  0  0  0  0
    1.7497   -5.6771   26.4971 C   0  0  0  0  0  0  0  0  0  0  0  0
   -1.5799   -9.9322   18.3468 C   0  0  0  0  0  0  0  0  0  0  0  0
   -1.0871  -12.2214   17.8851 C   0  0  0  0  0  0  0  0  0  0  0  0
   -2.2706   -8.9669   19.0691 C   0  0  0  0  0  0  0  0  0  0  0  0
    3.0279   -5.3073   26.8197 C   0  0  0  0  0  0  0  0  0  0  0  0
    7.3282   -3.8948   29.1186 C   0  0  0  0  0  0  0  0  0  0  0  0
  1  3  4  0
  1  7  4  0
  2  3  1  0
  2  6  4  0
  2 16  4  0
  3 22  4  0
  4  9  4  0
  4 10  1  0
  4 20  4  0
  5 16  4  0
  5 23  4  0
  6 15  4  0
  7 12  4  0
  8 13  4  0
  8 14  4  0
  9 11  4  0
 11 14  4  0
 11 19  4  0
 12 18  4  0
 13 21  4  0
 15 23  4  0
 17 19  4  0
 17 20  4  0
 18 22  4  0
 19 21  4  0
M  END
$$$$

 Created by Python create_sdf_string function

 23 25  0  0  0  0  0  0  0  0999 V2000
    2.4610   -5.3070   29.1240 C   0  0  0  0  0  0  0  0  0  0  0  0
    4.7710   -4.6952   28.4803 C   0  0  0  0  0  0  0  0  0  0  0  0
    3.4047   -5.1087   28.1314 C   0  0  0  0  0  0  0  0  0  0  0  0
   -0.2234  -11.8615   16.8874 C   0  0  0  0  0  0  0  0  0  0  0  0
    6.4491   -4.1532   30.1213 C   0  0  0  0  0  0  0  0  0  0  0  0
    5.7060   -4.4340   27.4975 C   0  0  0  0  0  0  0  0  0  0  0  0
    1.1818   -5.6612   28.8399 C   0  0  0  0  0  0  0  0  0  0  0  0
   -1.2067   -7.3287   17.7772 C   0  0  0  0  0  0  0  0  0  0  0  0
   -0.0206  -10.5585   16.6210 C   0  0  0  0  0  0  0  0  0  0  0  0
    0.3696  -12.7626   16.2169 O   0  0  0  0  0  0  0  0  0  0  0  0
   -0.6895   -9.5676   17.3297 C   0  0  0  0  0  0  0  0  0  0  0  0
    0.8388   -5.8417   27.5264 C   0  0  0  0  0  0  0  0  0  0  0  0
   -2.0709   -7.6637   18.7817 C   0  0  0  0  0  0  0  0  0  0  0  0
   -0.5279   -8.2168   17.0717 C   0  0  0  0  0  0  0  0  0  0  0  0
    6.9694   -4.0191   27.8190 C   0  0  0  0  0  0  0  0  0  0  0  0
    5.1733   -4.5469   29.8123 C   0  0  0  0  0  0  0  0  0  0  0  0
   -1.7508  -11.3016   18.6072 C   0  0  0  0  0  0  0  0  0  0  0  0
    1.7497   -5.6771   26.4971 C   0  0  0  0  0  0  0  0  0  0  0  0
   -1.5799   -9.9322   18.3468 C   0  0  0  0  0  0  0  0  0  0  0  0
   -1.0871  -12.2214   17.8851 C   0  0  0  0  0  0  0  0  0  0  0  0
   -2.2706   -8.9669   19.0691 C   0  0  0  0  0  0  0  0  0  0  0  0
    3.0279   -5.3073   26.8197 C   0  0  0  0  0  0  0  0  0  0  0  0
    7.3282   -3.8948   29.1186 C   0  0  0  0  0  0  0  0  0  0  0  0
  1  3  4  0
  1  7  4  0
  2  3  1  0
  2  6  4  0
  2 16  4  0
  3 22  4  0
  4  9  4  0
  4 10  1  0
  4 20  4  0
  5 16  4  0
  5 23  4  0
  6 15  4  0
  7 12  4  0
  8 13  4  0
  8 14  4  0
  9 11  4  0
 11 14  4  0
 11 19  4  0
 12 18  4  0
 13 21  4  0
 15 23  4  0
 17 19  4  0
 17 20  4  0
 18 22  4  0
 19 21  4  0
M  END
$$$$

 Created by Python create_sdf_string function

 23 25  0  0  0  0  0  0  0  0999 V2000
    2.4610   -5.3070   29.1240 C   0  0  0  0  0  0  0  0  0  0  0  0
    4.7710   -4.6952   28.4803 C   0  0  0  0  0  0  0  0  0  0  0  0
    3.4047   -5.1087   28.1314 C   0  0  0  0  0  0  0  0  0  0  0  0
   -0.2234  -11.8615   16.8874 C   0  0  0  0  0  0  0  0  0  0  0  0
    6.4491   -4.1532   30.1213 C   0  0  0  0  0  0  0  0  0  0  0  0
    5.7060   -4.4340   27.4975 C   0  0  0  0  0  0  0  0  0  0  0  0
    1.1818   -5.6612   28.8399 C   0  0  0  0  0  0  0  0  0  0  0  0
   -1.2067   -7.3287   17.7772 C   0  0  0  0  0  0  0  0  0  0  0  0
   -0.0206  -10.5585   16.6210 C   0  0  0  0  0  0  0  0  0  0  0  0
    0.3696  -12.7626   16.2169 O   0  0  0  0  0  0  0  0  0  0  0  0
   -0.6895   -9.5676   17.3297 C   0  0  0  0  0  0  0  0  0  0  0  0
    0.8388   -5.8417   27.5264 C   0  0  0  0  0  0  0  0  0  0  0  0
   -2.0709   -7.6637   18.7817 C   0  0  0  0  0  0  0  0  0  0  0  0
   -0.5279   -8.2168   17.0717 C   0  0  0  0  0  0  0  0  0  0  0  0
    6.9694   -4.0191   27.8190 C   0  0  0  0  0  0  0  0  0  0  0  0
    5.1733   -4.5469   29.8123 C   0  0  0  0  0  0  0  0  0  0  0  0
   -1.7508  -11.3016   18.6072 C   0  0  0  0  0  0  0  0  0  0  0  0
    1.7497   -5.6771   26.4971 C   0  0  0  0  0  0  0  0  0  0  0  0
   -1.5799   -9.9322   18.3468 C   0  0  0  0  0  0  0  0  0  0  0  0
   -1.0871  -12.2214   17.8851 C   0  0  0  0  0  0  0  0  0  0  0  0
   -2.2706   -8.9669   19.0691 C   0  0  0  0  0  0  0  0  0  0  0  0
    3.0279   -5.3073   26.8197 C   0  0  0  0  0  0  0  0  0  0  0  0
    7.3282   -3.8948   29.1186 C   0  0  0  0  0  0  0  0  0  0  0  0
  1  3  4  0
  1  7  4  0
  2  3  1  0
  2  6  4  0
  2 16  4  0
  3 22  4  0
  4  9  4  0
  4 10  1  0
  4 20  4  0
  5 16  4  0
  5 23  4  0
  6 15  4  0
  7 12  4  0
  8 13  4  0
  8 14  4  0
  9 11  4  0
 11 14  4  0
 11 19  4  0
 12 18  4  0
 13 21  4  0
 15 23  4  0
 17 19  4  0
 17 20  4  0
 18 22  4  0
 19 21  4  0
M  END
$$$$

 Created by Python create_sdf_string function

 23 25  0  0  0  0  0  0  0  0999 V2000
    2.4610   -5.3070   29.1240 C   0  0  0  0  0  0  0  0  0  0  0  0
    4.7710   -4.6952   28.4803 C   0  0  0  0  0  0  0  0  0  0  0  0
    3.4047   -5.1087   28.1314 C   0  0  0  0  0  0  0  0  0  0  0  0
   -0.2234  -11.8615   16.8874 C   0  0  0  0  0  0  0  0  0  0  0  0
    6.4491   -4.1532   30.1213 C   0  0  0  0  0  0  0  0  0  0  0  0
    5.7060   -4.4340   27.4975 C   0  0  0  0  0  0  0  0  0  0  0  0
    1.1818   -5.6612   28.8399 C   0  0  0  0  0  0  0  0  0  0  0  0
   -1.2067   -7.3287   17.7772 C   0  0  0  0  0  0  0  0  0  0  0  0
   -0.0206  -10.5585   16.6210 C   0  0  0  0  0  0  0  0  0  0  0  0
    0.3696  -12.7626   16.2169 O   0  0  0  0  0  0  0  0  0  0  0  0
   -0.6895   -9.5676   17.3297 C   0  0  0  0  0  0  0  0  0  0  0  0
    0.8388   -5.8417   27.5264 C   0  0  0  0  0  0  0  0  0  0  0  0
   -2.0709   -7.6637   18.7817 C   0  0  0  0  0  0  0  0  0  0  0  0
   -0.5279   -8.2168   17.0717 C   0  0  0  0  0  0  0  0  0  0  0  0
    6.9694   -4.0191   27.8190 C   0  0  0  0  0  0  0  0  0  0  0  0
    5.1733   -4.5469   29.8123 C   0  0  0  0  0  0  0  0  0  0  0  0
   -1.7508  -11.3016   18.6072 C   0  0  0  0  0  0  0  0  0  0  0  0
    1.7497   -5.6771   26.4971 C   0  0  0  0  0  0  0  0  0  0  0  0
   -1.5799   -9.9322   18.3468 C   0  0  0  0  0  0  0  0  0  0  0  0
   -1.0871  -12.2214   17.8851 C   0  0  0  0  0  0  0  0  0  0  0  0
   -2.2706   -8.9669   19.0691 C   0  0  0  0  0  0  0  0  0  0  0  0
    3.0279   -5.3073   26.8197 C   0  0  0  0  0  0  0  0  0  0  0  0
    7.3282   -3.8948   29.1186 C   0  0  0  0  0  0  0  0  0  0  0  0
  1  3  4  0
  1  7  4  0
  2  3  1  0
  2  6  4  0
  2 16  4  0
  3 22  4  0
  4  9  4  0
  4 10  1  0
  4 20  4  0
  5 16  4  0
  5 23  4  0
  6 15  4  0
  7 12  4  0
  8 13  4  0
  8 14  4  0
  9 11  4  0
 11 14  4  0
 11 19  4  0
 12 18  4  0
 13 21  4  0
 15 23  4  0
 17 19  4  0
 17 20  4  0
 18 22  4  0
 19 21  4  0
M  END
$$$$

 Created by Python create_sdf_string function

 23 25  0  0  0  0  0  0  0  0999 V2000
    2.4610   -5.3070   29.1240 C   0  0  0  0  0  0  0  0  0  0  0  0
    4.7710   -4.6952   28.4803 C   0  0  0  0  0  0  0  0  0  0  0  0
    3.4047   -5.1087   28.1314 C   0  0  0  0  0  0  0  0  0  0  0  0
   -0.2234  -11.8615   16.8874 C   0  0  0  0  0  0  0  0  0  0  0  0
    6.4491   -4.1532   30.1213 C   0  0  0  0  0  0  0  0  0  0  0  0
    5.7060   -4.4340   27.4975 C   0  0  0  0  0  0  0  0  0  0  0  0
    1.1818   -5.6612   28.8399 C   0  0  0  0  0  0  0  0  0  0  0  0
   -1.2067   -7.3287   17.7772 C   0  0  0  0  0  0  0  0  0  0  0  0
   -0.0206  -10.5585   16.6210 C   0  0  0  0  0  0  0  0  0  0  0  0
    0.3696  -12.7626   16.2169 O   0  0  0  0  0  0  0  0  0  0  0  0
   -0.6895   -9.5676   17.3297 C   0  0  0  0  0  0  0  0  0  0  0  0
    0.8388   -5.8417   27.5264 C   0  0  0  0  0  0  0  0  0  0  0  0
   -2.0709   -7.6637   18.7817 C   0  0  0  0  0  0  0  0  0  0  0  0
   -0.5279   -8.2168   17.0717 C   0  0  0  0  0  0  0  0  0  0  0  0
    6.9694   -4.0191   27.8190 C   0  0  0  0  0  0  0  0  0  0  0  0
    5.1733   -4.5469   29.8123 C   0  0  0  0  0  0  0  0  0  0  0  0
   -1.7508  -11.3016   18.6072 C   0  0  0  0  0  0  0  0  0  0  0  0
    1.7497   -5.6771   26.4971 C   0  0  0  0  0  0  0  0  0  0  0  0
   -1.5799   -9.9322   18.3468 C   0  0  0  0  0  0  0  0  0  0  0  0
   -1.0871  -12.2214   17.8851 C   0  0  0  0  0  0  0  0  0  0  0  0
   -2.2706   -8.9669   19.0691 C   0  0  0  0  0  0  0  0  0  0  0  0
    3.0279   -5.3073   26.8197 C   0  0  0  0  0  0  0  0  0  0  0  0
    7.3282   -3.8948   29.1186 C   0  0  0  0  0  0  0  0  0  0  0  0
  1  3  4  0
  1  7  4  0
  2  3  1  0
  2  6  4  0
  2 16  4  0
  3 22  4  0
  4  9  4  0
  4 10  1  0
  4 20  4  0
  5 16  4  0
  5 23  4  0
  6 15  4  0
  7 12  4  0
  8 13  4  0
  8 14  4  0
  9 11  4  0
 11 14  4  0
 11 19  4  0
 12 18  4  0
 13 21  4  0
 15 23  4  0
 17 19  4  0
 17 20  4  0
 18 22  4  0
 19 21  4  0
M  END
$$$$

 Created by Python create_sdf_string function

 23 25  0  0  0  0  0  0  0  0999 V2000
    2.4610   -5.3070   29.1240 C   0  0  0  0  0  0  0  0  0  0  0  0
    4.7710   -4.6952   28.4803 C   0  0  0  0  0  0  0  0  0  0  0  0
    3.4047   -5.1087   28.1314 C   0  0  0  0  0  0  0  0  0  0  0  0
   -0.2234  -11.8615   16.8874 C   0  0  0  0  0  0  0  0  0  0  0  0
    6.4491   -4.1532   30.1213 C   0  0  0  0  0  0  0  0  0  0  0  0
    5.7060   -4.4340   27.4975 C   0  0  0  0  0  0  0  0  0  0  0  0
    1.1818   -5.6612   28.8399 C   0  0  0  0  0  0  0  0  0  0  0  0
   -1.2067   -7.3287   17.7772 C   0  0  0  0  0  0  0  0  0  0  0  0
   -0.0206  -10.5585   16.6210 C   0  0  0  0  0  0  0  0  0  0  0  0
    0.3696  -12.7626   16.2169 O   0  0  0  0  0  0  0  0  0  0  0  0
   -0.6895   -9.5676   17.3297 C   0  0  0  0  0  0  0  0  0  0  0  0
    0.8388   -5.8417   27.5264 C   0  0  0  0  0  0  0  0  0  0  0  0
   -2.0709   -7.6637   18.7817 C   0  0  0  0  0  0  0  0  0  0  0  0
   -0.5279   -8.2168   17.0717 C   0  0  0  0  0  0  0  0  0  0  0  0
    6.9694   -4.0191   27.8190 C   0  0  0  0  0  0  0  0  0  0  0  0
    5.1733   -4.5469   29.8123 C   0  0  0  0  0  0  0  0  0  0  0  0
   -1.7508  -11.3016   18.6072 C   0  0  0  0  0  0  0  0  0  0  0  0
    1.7497   -5.6771   26.4971 C   0  0  0  0  0  0  0  0  0  0  0  0
   -1.5799   -9.9322   18.3468 C   0  0  0  0  0  0  0  0  0  0  0  0
   -1.0871  -12.2214   17.8851 C   0  0  0  0  0  0  0  0  0  0  0  0
   -2.2706   -8.9669   19.0691 C   0  0  0  0  0  0  0  0  0  0  0  0
    3.0279   -5.3073   26.8197 C   0  0  0  0  0  0  0  0  0  0  0  0
    7.3282   -3.8948   29.1186 C   0  0  0  0  0  0  0  0  0  0  0  0
  1  3  4  0
  1  7  4  0
  2  3  1  0
  2  6  4  0
  2 16  4  0
  3 22  4  0
  4  9  4  0
  4 10  1  0
  4 20  4  0
  5 16  4  0
  5 23  4  0
  6 15  4  0
  7 12  4  0
  8 13  4  0
  8 14  4  0
  9 11  4  0
 11 14  4  0
 11 19  4  0
 12 18  4  0
 13 21  4  0
 15 23  4  0
 17 19  4  0
 17 20  4  0
 18 22  4  0
 19 21  4  0
M  END
$$$$

 Created by Python create_sdf_string function

 23 25  0  0  0  0  0  0  0  0999 V2000
    2.4610   -5.3070   29.1240 C   0  0  0  0  0  0  0  0  0  0  0  0
    4.7710   -4.6952   28.4803 C   0  0  0  0  0  0  0  0  0  0  0  0
    3.4047   -5.1087   28.1314 C   0  0  0  0  0  0  0  0  0  0  0  0
   -0.2234  -11.8615   16.8874 C   0  0  0  0  0  0  0  0  0  0  0  0
    6.4491   -4.1532   30.1213 C   0  0  0  0  0  0  0  0  0  0  0  0
    5.7060   -4.4340   27.4975 C   0  0  0  0  0  0  0  0  0  0  0  0
    1.1818   -5.6612   28.8399 C   0  0  0  0  0  0  0  0  0  0  0  0
   -1.2067   -7.3287   17.7772 C   0  0  0  0  0  0  0  0  0  0  0  0
   -0.0206  -10.5585   16.6210 C   0  0  0  0  0  0  0  0  0  0  0  0
    0.3696  -12.7626   16.2169 O   0  0  0  0  0  0  0  0  0  0  0  0
   -0.6895   -9.5676   17.3297 C   0  0  0  0  0  0  0  0  0  0  0  0
    0.8388   -5.8417   27.5264 C   0  0  0  0  0  0  0  0  0  0  0  0
   -2.0709   -7.6637   18.7817 C   0  0  0  0  0  0  0  0  0  0  0  0
   -0.5279   -8.2168   17.0717 C   0  0  0  0  0  0  0  0  0  0  0  0
    6.9694   -4.0191   27.8190 C   0  0  0  0  0  0  0  0  0  0  0  0
    5.1733   -4.5469   29.8123 C   0  0  0  0  0  0  0  0  0  0  0  0
   -1.7508  -11.3016   18.6072 C   0  0  0  0  0  0  0  0  0  0  0  0
    1.7497   -5.6771   26.4971 C   0  0  0  0  0  0  0  0  0  0  0  0
   -1.5799   -9.9322   18.3468 C   0  0  0  0  0  0  0  0  0  0  0  0
   -1.0871  -12.2214   17.8851 C   0  0  0  0  0  0  0  0  0  0  0  0
   -2.2706   -8.9669   19.0691 C   0  0  0  0  0  0  0  0  0  0  0  0
    3.0279   -5.3073   26.8197 C   0  0  0  0  0  0  0  0  0  0  0  0
    7.3282   -3.8948   29.1186 C   0  0  0  0  0  0  0  0  0  0  0  0
  1  3  4  0
  1  7  4  0
  2  3  1  0
  2  6  4  0
  2 16  4  0
  3 22  4  0
  4  9  4  0
  4 10  1  0
  4 20  4  0
  5 16  4  0
  5 23  4  0
  6 15  4  0
  7 12  4  0
  8 13  4  0
  8 14  4  0
  9 11  4  0
 11 14  4  0
 11 19  4  0
 12 18  4  0
 13 21  4  0
 15 23  4  0
 17 19  4  0
 17 20  4  0
 18 22  4  0
 19 21  4  0
M  END
$$$$

 Created by Python create_sdf_string function

 23 25  0  0  0  0  0  0  0  0999 V2000
    2.4610   -5.3070   29.1240 C   0  0  0  0  0  0  0  0  0  0  0  0
    4.7710   -4.6952   28.4803 C   0  0  0  0  0  0  0  0  0  0  0  0
    3.4047   -5.1087   28.1314 C   0  0  0  0  0  0  0  0  0  0  0  0
   -0.2234  -11.8615   16.8874 C   0  0  0  0  0  0  0  0  0  0  0  0
    6.4491   -4.1532   30.1213 C   0  0  0  0  0  0  0  0  0  0  0  0
    5.7060   -4.4340   27.4975 C   0  0  0  0  0  0  0  0  0  0  0  0
    1.1818   -5.6612   28.8399 C   0  0  0  0  0  0  0  0  0  0  0  0
   -1.2067   -7.3287   17.7772 C   0  0  0  0  0  0  0  0  0  0  0  0
   -0.0206  -10.5585   16.6210 C   0  0  0  0  0  0  0  0  0  0  0  0
    0.3696  -12.7626   16.2169 O   0  0  0  0  0  0  0  0  0  0  0  0
   -0.6895   -9.5676   17.3297 C   0  0  0  0  0  0  0  0  0  0  0  0
    0.8388   -5.8417   27.5264 C   0  0  0  0  0  0  0  0  0  0  0  0
   -2.0709   -7.6637   18.7817 C   0  0  0  0  0  0  0  0  0  0  0  0
   -0.5279   -8.2168   17.0717 C   0  0  0  0  0  0  0  0  0  0  0  0
    6.9694   -4.0191   27.8190 C   0  0  0  0  0  0  0  0  0  0  0  0
    5.1733   -4.5469   29.8123 C   0  0  0  0  0  0  0  0  0  0  0  0
   -1.7508  -11.3016   18.6072 C   0  0  0  0  0  0  0  0  0  0  0  0
    1.7497   -5.6771   26.4971 C   0  0  0  0  0  0  0  0  0  0  0  0
   -1.5799   -9.9322   18.3468 C   0  0  0  0  0  0  0  0  0  0  0  0
   -1.0871  -12.2214   17.8851 C   0  0  0  0  0  0  0  0  0  0  0  0
   -2.2706   -8.9669   19.0691 C   0  0  0  0  0  0  0  0  0  0  0  0
    3.0279   -5.3073   26.8197 C   0  0  0  0  0  0  0  0  0  0  0  0
    7.3282   -3.8948   29.1186 C   0  0  0  0  0  0  0  0  0  0  0  0
  1  3  4  0
  1  7  4  0
  2  3  1  0
  2  6  4  0
  2 16  4  0
  3 22  4  0
  4  9  4  0
  4 10  1  0
  4 20  4  0
  5 16  4  0
  5 23  4  0
  6 15  4  0
  7 12  4  0
  8 13  4  0
  8 14  4  0
  9 11  4  0
 11 14  4  0
 11 19  4  0
 12 18  4  0
 13 21  4  0
 15 23  4  0
 17 19  4  0
 17 20  4  0
 18 22  4  0
 19 21  4  0
M  END
$$$$

 Created by Python create_sdf_string function

 23 25  0  0  0  0  0  0  0  0999 V2000
    2.4610   -5.3070   29.1240 C   0  0  0  0  0  0  0  0  0  0  0  0
    4.7710   -4.6952   28.4803 C   0  0  0  0  0  0  0  0  0  0  0  0
    3.4047   -5.1087   28.1314 C   0  0  0  0  0  0  0  0  0  0  0  0
   -0.2234  -11.8615   16.8874 C   0  0  0  0  0  0  0  0  0  0  0  0
    6.4491   -4.1532   30.1213 C   0  0  0  0  0  0  0  0  0  0  0  0
    5.7060   -4.4340   27.4975 C   0  0  0  0  0  0  0  0  0  0  0  0
    1.1818   -5.6612   28.8399 C   0  0  0  0  0  0  0  0  0  0  0  0
   -1.2067   -7.3287   17.7772 C   0  0  0  0  0  0  0  0  0  0  0  0
   -0.0206  -10.5585   16.6210 C   0  0  0  0  0  0  0  0  0  0  0  0
    0.3696  -12.7626   16.2169 O   0  0  0  0  0  0  0  0  0  0  0  0
   -0.6895   -9.5676   17.3297 C   0  0  0  0  0  0  0  0  0  0  0  0
    0.8388   -5.8417   27.5264 C   0  0  0  0  0  0  0  0  0  0  0  0
   -2.0709   -7.6637   18.7817 C   0  0  0  0  0  0  0  0  0  0  0  0
   -0.5279   -8.2168   17.0717 C   0  0  0  0  0  0  0  0  0  0  0  0
    6.9694   -4.0191   27.8190 C   0  0  0  0  0  0  0  0  0  0  0  0
    5.1733   -4.5469   29.8123 C   0  0  0  0  0  0  0  0  0  0  0  0
   -1.7508  -11.3016   18.6072 C   0  0  0  0  0  0  0  0  0  0  0  0
    1.7497   -5.6771   26.4971 C   0  0  0  0  0  0  0  0  0  0  0  0
   -1.5799   -9.9322   18.3468 C   0  0  0  0  0  0  0  0  0  0  0  0
   -1.0871  -12.2214   17.8851 C   0  0  0  0  0  0  0  0  0  0  0  0
   -2.2706   -8.9669   19.0691 C   0  0  0  0  0  0  0  0  0  0  0  0
    3.0279   -5.3073   26.8197 C   0  0  0  0  0  0  0  0  0  0  0  0
    7.3282   -3.8948   29.1186 C   0  0  0  0  0  0  0  0  0  0  0  0
  1  3  4  0
  1  7  4  0
  2  3  1  0
  2  6  4  0
  2 16  4  0
  3 22  4  0
  4  9  4  0
  4 10  1  0
  4 20  4  0
  5 16  4  0
  5 23  4  0
  6 15  4  0
  7 12  4  0
  8 13  4  0
  8 14  4  0
  9 11  4  0
 11 14  4  0
 11 19  4  0
 12 18  4  0
 13 21  4  0
 15 23  4  0
 17 19  4  0
 17 20  4  0
 18 22  4  0
 19 21  4  0
M  END
$$$$

 Created by Python create_sdf_string function

 23 25  0  0  0  0  0  0  0  0999 V2000
    2.4610   -5.3070   29.1240 C   0  0  0  0  0  0  0  0  0  0  0  0
    4.7710   -4.6952   28.4803 C   0  0  0  0  0  0  0  0  0  0  0  0
    3.4047   -5.1087   28.1314 C   0  0  0  0  0  0  0  0  0  0  0  0
   -0.2234  -11.8615   16.8874 C   0  0  0  0  0  0  0  0  0  0  0  0
    6.4491   -4.1532   30.1213 C   0  0  0  0  0  0  0  0  0  0  0  0
    5.7060   -4.4340   27.4975 C   0  0  0  0  0  0  0  0  0  0  0  0
    1.1818   -5.6612   28.8399 C   0  0  0  0  0  0  0  0  0  0  0  0
   -1.2067   -7.3287   17.7772 C   0  0  0  0  0  0  0  0  0  0  0  0
   -0.0206  -10.5585   16.6210 C   0  0  0  0  0  0  0  0  0  0  0  0
    0.3696  -12.7626   16.2169 O   0  0  0  0  0  0  0  0  0  0  0  0
   -0.6895   -9.5676   17.3297 C   0  0  0  0  0  0  0  0  0  0  0  0
    0.8388   -5.8417   27.5264 C   0  0  0  0  0  0  0  0  0  0  0  0
   -2.0709   -7.6637   18.7817 C   0  0  0  0  0  0  0  0  0  0  0  0
   -0.5279   -8.2168   17.0717 C   0  0  0  0  0  0  0  0  0  0  0  0
    6.9694   -4.0191   27.8190 C   0  0  0  0  0  0  0  0  0  0  0  0
    5.1733   -4.5469   29.8123 C   0  0  0  0  0  0  0  0  0  0  0  0
   -1.7508  -11.3016   18.6072 C   0  0  0  0  0  0  0  0  0  0  0  0
    1.7497   -5.6771   26.4971 C   0  0  0  0  0  0  0  0  0  0  0  0
   -1.5799   -9.9322   18.3468 C   0  0  0  0  0  0  0  0  0  0  0  0
   -1.0871  -12.2214   17.8851 C   0  0  0  0  0  0  0  0  0  0  0  0
   -2.2706   -8.9669   19.0691 C   0  0  0  0  0  0  0  0  0  0  0  0
    3.0279   -5.3073   26.8197 C   0  0  0  0  0  0  0  0  0  0  0  0
    7.3282   -3.8948   29.1186 C   0  0  0  0  0  0  0  0  0  0  0  0
  1  3  4  0
  1  7  4  0
  2  3  1  0
  2  6  4  0
  2 16  4  0
  3 22  4  0
  4  9  4  0
  4 10  1  0
  4 20  4  0
  5 16  4  0
  5 23  4  0
  6 15  4  0
  7 12  4  0
  8 13  4  0
  8 14  4  0
  9 11  4  0
 11 14  4  0
 11 19  4  0
 12 18  4  0
 13 21  4  0
 15 23  4  0
 17 19  4  0
 17 20  4  0
 18 22  4  0
 19 21  4  0
M  END
$$$$

 Created by Python create_sdf_string function

 23 25  0  0  0  0  0  0  0  0999 V2000
    2.4610   -5.3070   29.1240 C   0  0  0  0  0  0  0  0  0  0  0  0
    4.7710   -4.6952   28.4803 C   0  0  0  0  0  0  0  0  0  0  0  0
    3.4047   -5.1087   28.1314 C   0  0  0  0  0  0  0  0  0  0  0  0
   -0.2234  -11.8615   16.8874 C   0  0  0  0  0  0  0  0  0  0  0  0
    6.4491   -4.1532   30.1213 C   0  0  0  0  0  0  0  0  0  0  0  0
    5.7060   -4.4340   27.4975 C   0  0  0  0  0  0  0  0  0  0  0  0
    1.1818   -5.6612   28.8399 C   0  0  0  0  0  0  0  0  0  0  0  0
   -1.2067   -7.3287   17.7772 C   0  0  0  0  0  0  0  0  0  0  0  0
   -0.0206  -10.5585   16.6210 C   0  0  0  0  0  0  0  0  0  0  0  0
    0.3696  -12.7626   16.2169 O   0  0  0  0  0  0  0  0  0  0  0  0
   -0.6895   -9.5676   17.3297 C   0  0  0  0  0  0  0  0  0  0  0  0
    0.8388   -5.8417   27.5264 C   0  0  0  0  0  0  0  0  0  0  0  0
   -2.0709   -7.6637   18.7817 C   0  0  0  0  0  0  0  0  0  0  0  0
   -0.5279   -8.2168   17.0717 C   0  0  0  0  0  0  0  0  0  0  0  0
    6.9694   -4.0191   27.8190 C   0  0  0  0  0  0  0  0  0  0  0  0
    5.1733   -4.5469   29.8123 C   0  0  0  0  0  0  0  0  0  0  0  0
   -1.7508  -11.3016   18.6072 C   0  0  0  0  0  0  0  0  0  0  0  0
    1.7497   -5.6771   26.4971 C   0  0  0  0  0  0  0  0  0  0  0  0
   -1.5799   -9.9322   18.3468 C   0  0  0  0  0  0  0  0  0  0  0  0
   -1.0871  -12.2214   17.8851 C   0  0  0  0  0  0  0  0  0  0  0  0
   -2.2706   -8.9669   19.0691 C   0  0  0  0  0  0  0  0  0  0  0  0
    3.0279   -5.3073   26.8197 C   0  0  0  0  0  0  0  0  0  0  0  0
    7.3282   -3.8948   29.1186 C   0  0  0  0  0  0  0  0  0  0  0  0
  1  3  4  0
  1  7  4  0
  2  3  1  0
  2  6  4  0
  2 16  4  0
  3 22  4  0
  4  9  4  0
  4 10  1  0
  4 20  4  0
  5 16  4  0
  5 23  4  0
  6 15  4  0
  7 12  4  0
  8 13  4  0
  8 14  4  0
  9 11  4  0
 11 14  4  0
 11 19  4  0
 12 18  4  0
 13 21  4  0
 15 23  4  0
 17 19  4  0
 17 20  4  0
 18 22  4  0
 19 21  4  0
M  END
$$$$

 Created by Python create_sdf_string function

 23 25  0  0  0  0  0  0  0  0999 V2000
    2.4610   -5.3070   29.1240 C   0  0  0  0  0  0  0  0  0  0  0  0
    4.7710   -4.6952   28.4803 C   0  0  0  0  0  0  0  0  0  0  0  0
    3.4047   -5.1087   28.1314 C   0  0  0  0  0  0  0  0  0  0  0  0
   -0.2234  -11.8615   16.8874 C   0  0  0  0  0  0  0  0  0  0  0  0
    6.4491   -4.1532   30.1213 C   0  0  0  0  0  0  0  0  0  0  0  0
    5.7060   -4.4340   27.4975 C   0  0  0  0  0  0  0  0  0  0  0  0
    1.1818   -5.6612   28.8399 C   0  0  0  0  0  0  0  0  0  0  0  0
   -1.2067   -7.3287   17.7772 C   0  0  0  0  0  0  0  0  0  0  0  0
   -0.0206  -10.5585   16.6210 C   0  0  0  0  0  0  0  0  0  0  0  0
    0.3696  -12.7626   16.2169 O   0  0  0  0  0  0  0  0  0  0  0  0
   -0.6895   -9.5676   17.3297 C   0  0  0  0  0  0  0  0  0  0  0  0
    0.8388   -5.8417   27.5264 C   0  0  0  0  0  0  0  0  0  0  0  0
   -2.0709   -7.6637   18.7817 C   0  0  0  0  0  0  0  0  0  0  0  0
   -0.5279   -8.2168   17.0717 C   0  0  0  0  0  0  0  0  0  0  0  0
    6.9694   -4.0191   27.8190 C   0  0  0  0  0  0  0  0  0  0  0  0
    5.1733   -4.5469   29.8123 C   0  0  0  0  0  0  0  0  0  0  0  0
   -1.7508  -11.3016   18.6072 C   0  0  0  0  0  0  0  0  0  0  0  0
    1.7497   -5.6771   26.4971 C   0  0  0  0  0  0  0  0  0  0  0  0
   -1.5799   -9.9322   18.3468 C   0  0  0  0  0  0  0  0  0  0  0  0
   -1.0871  -12.2214   17.8851 C   0  0  0  0  0  0  0  0  0  0  0  0
   -2.2706   -8.9669   19.0691 C   0  0  0  0  0  0  0  0  0  0  0  0
    3.0279   -5.3073   26.8197 C   0  0  0  0  0  0  0  0  0  0  0  0
    7.3282   -3.8948   29.1186 C   0  0  0  0  0  0  0  0  0  0  0  0
  1  3  4  0
  1  7  4  0
  2  3  1  0
  2  6  4  0
  2 16  4  0
  3 22  4  0
  4  9  4  0
  4 10  1  0
  4 20  4  0
  5 16  4  0
  5 23  4  0
  6 15  4  0
  7 12  4  0
  8 13  4  0
  8 14  4  0
  9 11  4  0
 11 14  4  0
 11 19  4  0
 12 18  4  0
 13 21  4  0
 15 23  4  0
 17 19  4  0
 17 20  4  0
 18 22  4  0
 19 21  4  0
M  END
$$$$

 Created by Python create_sdf_string function

 23 25  0  0  0  0  0  0  0  0999 V2000
    2.4610   -5.3070   29.1240 C   0  0  0  0  0  0  0  0  0  0  0  0
    4.7710   -4.6952   28.4803 C   0  0  0  0  0  0  0  0  0  0  0  0
    3.4047   -5.1087   28.1314 C   0  0  0  0  0  0  0  0  0  0  0  0
   -0.2234  -11.8615   16.8874 C   0  0  0  0  0  0  0  0  0  0  0  0
    6.4491   -4.1532   30.1213 C   0  0  0  0  0  0  0  0  0  0  0  0
    5.7060   -4.4340   27.4975 C   0  0  0  0  0  0  0  0  0  0  0  0
    1.1818   -5.6612   28.8399 C   0  0  0  0  0  0  0  0  0  0  0  0
   -1.2067   -7.3287   17.7772 C   0  0  0  0  0  0  0  0  0  0  0  0
   -0.0206  -10.5585   16.6210 C   0  0  0  0  0  0  0  0  0  0  0  0
    0.3696  -12.7626   16.2169 O   0  0  0  0  0  0  0  0  0  0  0  0
   -0.6895   -9.5676   17.3297 C   0  0  0  0  0  0  0  0  0  0  0  0
    0.8388   -5.8417   27.5264 C   0  0  0  0  0  0  0  0  0  0  0  0
   -2.0709   -7.6637   18.7817 C   0  0  0  0  0  0  0  0  0  0  0  0
   -0.5279   -8.2168   17.0717 C   0  0  0  0  0  0  0  0  0  0  0  0
    6.9694   -4.0191   27.8190 C   0  0  0  0  0  0  0  0  0  0  0  0
    5.1733   -4.5469   29.8123 C   0  0  0  0  0  0  0  0  0  0  0  0
   -1.7508  -11.3016   18.6072 C   0  0  0  0  0  0  0  0  0  0  0  0
    1.7497   -5.6771   26.4971 C   0  0  0  0  0  0  0  0  0  0  0  0
   -1.5799   -9.9322   18.3468 C   0  0  0  0  0  0  0  0  0  0  0  0
   -1.0871  -12.2214   17.8851 C   0  0  0  0  0  0  0  0  0  0  0  0
   -2.2706   -8.9669   19.0691 C   0  0  0  0  0  0  0  0  0  0  0  0
    3.0279   -5.3073   26.8197 C   0  0  0  0  0  0  0  0  0  0  0  0
    7.3282   -3.8948   29.1186 C   0  0  0  0  0  0  0  0  0  0  0  0
  1  3  4  0
  1  7  4  0
  2  3  1  0
  2  6  4  0
  2 16  4  0
  3 22  4  0
  4  9  4  0
  4 10  1  0
  4 20  4  0
  5 16  4  0
  5 23  4  0
  6 15  4  0
  7 12  4  0
  8 13  4  0
  8 14  4  0
  9 11  4  0
 11 14  4  0
 11 19  4  0
 12 18  4  0
 13 21  4  0
 15 23  4  0
 17 19  4  0
 17 20  4  0
 18 22  4  0
 19 21  4  0
M  END
$$$$

 Created by Python create_sdf_string function

 23 25  0  0  0  0  0  0  0  0999 V2000
    2.4610   -5.3070   29.1240 C   0  0  0  0  0  0  0  0  0  0  0  0
    4.7710   -4.6952   28.4803 C   0  0  0  0  0  0  0  0  0  0  0  0
    3.4047   -5.1087   28.1314 C   0  0  0  0  0  0  0  0  0  0  0  0
   -0.2234  -11.8615   16.8874 C   0  0  0  0  0  0  0  0  0  0  0  0
    6.4491   -4.1532   30.1213 C   0  0  0  0  0  0  0  0  0  0  0  0
    5.7060   -4.4340   27.4975 C   0  0  0  0  0  0  0  0  0  0  0  0
    1.1818   -5.6612   28.8399 C   0  0  0  0  0  0  0  0  0  0  0  0
   -1.2067   -7.3287   17.7772 C   0  0  0  0  0  0  0  0  0  0  0  0
   -0.0206  -10.5585   16.6210 C   0  0  0  0  0  0  0  0  0  0  0  0
    0.3696  -12.7626   16.2169 O   0  0  0  0  0  0  0  0  0  0  0  0
   -0.6895   -9.5676   17.3297 C   0  0  0  0  0  0  0  0  0  0  0  0
    0.8388   -5.8417   27.5264 C   0  0  0  0  0  0  0  0  0  0  0  0
   -2.0709   -7.6637   18.7817 C   0  0  0  0  0  0  0  0  0  0  0  0
   -0.5279   -8.2168   17.0717 C   0  0  0  0  0  0  0  0  0  0  0  0
    6.9694   -4.0191   27.8190 C   0  0  0  0  0  0  0  0  0  0  0  0
    5.1733   -4.5469   29.8123 C   0  0  0  0  0  0  0  0  0  0  0  0
   -1.7508  -11.3016   18.6072 C   0  0  0  0  0  0  0  0  0  0  0  0
    1.7497   -5.6771   26.4971 C   0  0  0  0  0  0  0  0  0  0  0  0
   -1.5799   -9.9322   18.3468 C   0  0  0  0  0  0  0  0  0  0  0  0
   -1.0871  -12.2214   17.8851 C   0  0  0  0  0  0  0  0  0  0  0  0
   -2.2706   -8.9669   19.0691 C   0  0  0  0  0  0  0  0  0  0  0  0
    3.0279   -5.3073   26.8197 C   0  0  0  0  0  0  0  0  0  0  0  0
    7.3282   -3.8948   29.1186 C   0  0  0  0  0  0  0  0  0  0  0  0
  1  3  4  0
  1  7  4  0
  2  3  1  0
  2  6  4  0
  2 16  4  0
  3 22  4  0
  4  9  4  0
  4 10  1  0
  4 20  4  0
  5 16  4  0
  5 23  4  0
  6 15  4  0
  7 12  4  0
  8 13  4  0
  8 14  4  0
  9 11  4  0
 11 14  4  0
 11 19  4  0
 12 18  4  0
 13 21  4  0
 15 23  4  0
 17 19  4  0
 17 20  4  0
 18 22  4  0
 19 21  4  0
M  END
$$$$

 Created by Python create_sdf_string function

 23 25  0  0  0  0  0  0  0  0999 V2000
    2.4610   -5.3070   29.1240 C   0  0  0  0  0  0  0  0  0  0  0  0
    4.7710   -4.6952   28.4803 C   0  0  0  0  0  0  0  0  0  0  0  0
    3.4047   -5.1087   28.1314 C   0  0  0  0  0  0  0  0  0  0  0  0
   -0.2234  -11.8615   16.8874 C   0  0  0  0  0  0  0  0  0  0  0  0
    6.4491   -4.1532   30.1213 C   0  0  0  0  0  0  0  0  0  0  0  0
    5.7060   -4.4340   27.4975 C   0  0  0  0  0  0  0  0  0  0  0  0
    1.1818   -5.6612   28.8399 C   0  0  0  0  0  0  0  0  0  0  0  0
   -1.2067   -7.3287   17.7772 C   0  0  0  0  0  0  0  0  0  0  0  0
   -0.0206  -10.5585   16.6210 C   0  0  0  0  0  0  0  0  0  0  0  0
    0.3696  -12.7626   16.2169 O   0  0  0  0  0  0  0  0  0  0  0  0
   -0.6895   -9.5676   17.3297 C   0  0  0  0  0  0  0  0  0  0  0  0
    0.8388   -5.8417   27.5264 C   0  0  0  0  0  0  0  0  0  0  0  0
   -2.0709   -7.6637   18.7817 C   0  0  0  0  0  0  0  0  0  0  0  0
   -0.5279   -8.2168   17.0717 C   0  0  0  0  0  0  0  0  0  0  0  0
    6.9694   -4.0191   27.8190 C   0  0  0  0  0  0  0  0  0  0  0  0
    5.1733   -4.5469   29.8123 C   0  0  0  0  0  0  0  0  0  0  0  0
   -1.7508  -11.3016   18.6072 C   0  0  0  0  0  0  0  0  0  0  0  0
    1.7497   -5.6771   26.4971 C   0  0  0  0  0  0  0  0  0  0  0  0
   -1.5799   -9.9322   18.3468 C   0  0  0  0  0  0  0  0  0  0  0  0
   -1.0871  -12.2214   17.8851 C   0  0  0  0  0  0  0  0  0  0  0  0
   -2.2706   -8.9669   19.0691 C   0  0  0  0  0  0  0  0  0  0  0  0
    3.0279   -5.3073   26.8197 C   0  0  0  0  0  0  0  0  0  0  0  0
    7.3282   -3.8948   29.1186 C   0  0  0  0  0  0  0  0  0  0  0  0
  1  3  4  0
  1  7  4  0
  2  3  1  0
  2  6  4  0
  2 16  4  0
  3 22  4  0
  4  9  4  0
  4 10  1  0
  4 20  4  0
  5 16  4  0
  5 23  4  0
  6 15  4  0
  7 12  4  0
  8 13  4  0
  8 14  4  0
  9 11  4  0
 11 14  4  0
 11 19  4  0
 12 18  4  0
 13 21  4  0
 15 23  4  0
 17 19  4  0
 17 20  4  0
 18 22  4  0
 19 21  4  0
M  END
$$$$

 Created by Python create_sdf_string function

 23 25  0  0  0  0  0  0  0  0999 V2000
    2.4610   -5.3070   29.1240 C   0  0  0  0  0  0  0  0  0  0  0  0
    4.7710   -4.6952   28.4803 C   0  0  0  0  0  0  0  0  0  0  0  0
    3.4047   -5.1087   28.1314 C   0  0  0  0  0  0  0  0  0  0  0  0
   -0.2234  -11.8615   16.8874 C   0  0  0  0  0  0  0  0  0  0  0  0
    6.4491   -4.1532   30.1213 C   0  0  0  0  0  0  0  0  0  0  0  0
    5.7060   -4.4340   27.4975 C   0  0  0  0  0  0  0  0  0  0  0  0
    1.1818   -5.6612   28.8399 C   0  0  0  0  0  0  0  0  0  0  0  0
   -1.2067   -7.3287   17.7772 C   0  0  0  0  0  0  0  0  0  0  0  0
   -0.0206  -10.5585   16.6210 C   0  0  0  0  0  0  0  0  0  0  0  0
    0.3696  -12.7626   16.2169 O   0  0  0  0  0  0  0  0  0  0  0  0
   -0.6895   -9.5676   17.3297 C   0  0  0  0  0  0  0  0  0  0  0  0
    0.8388   -5.8417   27.5264 C   0  0  0  0  0  0  0  0  0  0  0  0
   -2.0709   -7.6637   18.7817 C   0  0  0  0  0  0  0  0  0  0  0  0
   -0.5279   -8.2168   17.0717 C   0  0  0  0  0  0  0  0  0  0  0  0
    6.9694   -4.0191   27.8190 C   0  0  0  0  0  0  0  0  0  0  0  0
    5.1733   -4.5469   29.8123 C   0  0  0  0  0  0  0  0  0  0  0  0
   -1.7508  -11.3016   18.6072 C   0  0  0  0  0  0  0  0  0  0  0  0
    1.7497   -5.6771   26.4971 C   0  0  0  0  0  0  0  0  0  0  0  0
   -1.5799   -9.9322   18.3468 C   0  0  0  0  0  0  0  0  0  0  0  0
   -1.0871  -12.2214   17.8851 C   0  0  0  0  0  0  0  0  0  0  0  0
   -2.2706   -8.9669   19.0691 C   0  0  0  0  0  0  0  0  0  0  0  0
    3.0279   -5.3073   26.8197 C   0  0  0  0  0  0  0  0  0  0  0  0
    7.3282   -3.8948   29.1186 C   0  0  0  0  0  0  0  0  0  0  0  0
  1  3  4  0
  1  7  4  0
  2  3  1  0
  2  6  4  0
  2 16  4  0
  3 22  4  0
  4  9  4  0
  4 10  1  0
  4 20  4  0
  5 16  4  0
  5 23  4  0
  6 15  4  0
  7 12  4  0
  8 13  4  0
  8 14  4  0
  9 11  4  0
 11 14  4  0
 11 19  4  0
 12 18  4  0
 13 21  4  0
 15 23  4  0
 17 19  4  0
 17 20  4  0
 18 22  4  0
 19 21  4  0
M  END
$$$$

 Created by Python create_sdf_string function

 23 25  0  0  0  0  0  0  0  0999 V2000
    2.4610   -5.3070   29.1240 C   0  0  0  0  0  0  0  0  0  0  0  0
    4.7710   -4.6952   28.4803 C   0  0  0  0  0  0  0  0  0  0  0  0
    3.4047   -5.1087   28.1314 C   0  0  0  0  0  0  0  0  0  0  0  0
   -0.2234  -11.8615   16.8874 C   0  0  0  0  0  0  0  0  0  0  0  0
    6.4491   -4.1532   30.1213 C   0  0  0  0  0  0  0  0  0  0  0  0
    5.7060   -4.4340   27.4975 C   0  0  0  0  0  0  0  0  0  0  0  0
    1.1818   -5.6612   28.8399 C   0  0  0  0  0  0  0  0  0  0  0  0
   -1.2067   -7.3287   17.7772 C   0  0  0  0  0  0  0  0  0  0  0  0
   -0.0206  -10.5585   16.6210 C   0  0  0  0  0  0  0  0  0  0  0  0
    0.3696  -12.7626   16.2169 O   0  0  0  0  0  0  0  0  0  0  0  0
   -0.6895   -9.5676   17.3297 C   0  0  0  0  0  0  0  0  0  0  0  0
    0.8388   -5.8417   27.5264 C   0  0  0  0  0  0  0  0  0  0  0  0
   -2.0709   -7.6637   18.7817 C   0  0  0  0  0  0  0  0  0  0  0  0
   -0.5279   -8.2168   17.0717 C   0  0  0  0  0  0  0  0  0  0  0  0
    6.9694   -4.0191   27.8190 C   0  0  0  0  0  0  0  0  0  0  0  0
    5.1733   -4.5469   29.8123 C   0  0  0  0  0  0  0  0  0  0  0  0
   -1.7508  -11.3016   18.6072 C   0  0  0  0  0  0  0  0  0  0  0  0
    1.7497   -5.6771   26.4971 C   0  0  0  0  0  0  0  0  0  0  0  0
   -1.5799   -9.9322   18.3468 C   0  0  0  0  0  0  0  0  0  0  0  0
   -1.0871  -12.2214   17.8851 C   0  0  0  0  0  0  0  0  0  0  0  0
   -2.2706   -8.9669   19.0691 C   0  0  0  0  0  0  0  0  0  0  0  0
    3.0279   -5.3073   26.8197 C   0  0  0  0  0  0  0  0  0  0  0  0
    7.3282   -3.8948   29.1186 C   0  0  0  0  0  0  0  0  0  0  0  0
  1  3  4  0
  1  7  4  0
  2  3  1  0
  2  6  4  0
  2 16  4  0
  3 22  4  0
  4  9  4  0
  4 10  1  0
  4 20  4  0
  5 16  4  0
  5 23  4  0
  6 15  4  0
  7 12  4  0
  8 13  4  0
  8 14  4  0
  9 11  4  0
 11 14  4  0
 11 19  4  0
 12 18  4  0
 13 21  4  0
 15 23  4  0
 17 19  4  0
 17 20  4  0
 18 22  4  0
 19 21  4  0
M  END
$$$$

 Created by Python create_sdf_string function

 23 25  0  0  0  0  0  0  0  0999 V2000
    2.4610   -5.3070   29.1240 C   0  0  0  0  0  0  0  0  0  0  0  0
    4.7710   -4.6952   28.4803 C   0  0  0  0  0  0  0  0  0  0  0  0
    3.4047   -5.1087   28.1314 C   0  0  0  0  0  0  0  0  0  0  0  0
   -0.2234  -11.8615   16.8874 C   0  0  0  0  0  0  0  0  0  0  0  0
    6.4491   -4.1532   30.1213 C   0  0  0  0  0  0  0  0  0  0  0  0
    5.7060   -4.4340   27.4975 C   0  0  0  0  0  0  0  0  0  0  0  0
    1.1818   -5.6612   28.8399 C   0  0  0  0  0  0  0  0  0  0  0  0
   -1.2067   -7.3287   17.7772 C   0  0  0  0  0  0  0  0  0  0  0  0
   -0.0206  -10.5585   16.6210 C   0  0  0  0  0  0  0  0  0  0  0  0
    0.3696  -12.7626   16.2169 O   0  0  0  0  0  0  0  0  0  0  0  0
   -0.6895   -9.5676   17.3297 C   0  0  0  0  0  0  0  0  0  0  0  0
    0.8388   -5.8417   27.5264 C   0  0  0  0  0  0  0  0  0  0  0  0
   -2.0709   -7.6637   18.7817 C   0  0  0  0  0  0  0  0  0  0  0  0
   -0.5279   -8.2168   17.0717 C   0  0  0  0  0  0  0  0  0  0  0  0
    6.9694   -4.0191   27.8190 C   0  0  0  0  0  0  0  0  0  0  0  0
    5.1733   -4.5469   29.8123 C   0  0  0  0  0  0  0  0  0  0  0  0
   -1.7508  -11.3016   18.6072 C   0  0  0  0  0  0  0  0  0  0  0  0
    1.7497   -5.6771   26.4971 C   0  0  0  0  0  0  0  0  0  0  0  0
   -1.5799   -9.9322   18.3468 C   0  0  0  0  0  0  0  0  0  0  0  0
   -1.0871  -12.2214   17.8851 C   0  0  0  0  0  0  0  0  0  0  0  0
   -2.2706   -8.9669   19.0691 C   0  0  0  0  0  0  0  0  0  0  0  0
    3.0279   -5.3073   26.8197 C   0  0  0  0  0  0  0  0  0  0  0  0
    7.3282   -3.8948   29.1186 C   0  0  0  0  0  0  0  0  0  0  0  0
  1  3  4  0
  1  7  4  0
  2  3  1  0
  2  6  4  0
  2 16  4  0
  3 22  4  0
  4  9  4  0
  4 10  1  0
  4 20  4  0
  5 16  4  0
  5 23  4  0
  6 15  4  0
  7 12  4  0
  8 13  4  0
  8 14  4  0
  9 11  4  0
 11 14  4  0
 11 19  4  0
 12 18  4  0
 13 21  4  0
 15 23  4  0
 17 19  4  0
 17 20  4  0
 18 22  4  0
 19 21  4  0
M  END
$$$$

 Created by Python create_sdf_string function

 23 25  0  0  0  0  0  0  0  0999 V2000
    2.4610   -5.3070   29.1240 C   0  0  0  0  0  0  0  0  0  0  0  0
    4.7710   -4.6952   28.4803 C   0  0  0  0  0  0  0  0  0  0  0  0
    3.4047   -5.1087   28.1314 C   0  0  0  0  0  0  0  0  0  0  0  0
   -0.2234  -11.8615   16.8874 C   0  0  0  0  0  0  0  0  0  0  0  0
    6.4491   -4.1532   30.1213 C   0  0  0  0  0  0  0  0  0  0  0  0
    5.7060   -4.4340   27.4975 C   0  0  0  0  0  0  0  0  0  0  0  0
    1.1818   -5.6612   28.8399 C   0  0  0  0  0  0  0  0  0  0  0  0
   -1.2067   -7.3287   17.7772 C   0  0  0  0  0  0  0  0  0  0  0  0
   -0.0206  -10.5585   16.6210 C   0  0  0  0  0  0  0  0  0  0  0  0
    0.3696  -12.7626   16.2169 O   0  0  0  0  0  0  0  0  0  0  0  0
   -0.6895   -9.5676   17.3297 C   0  0  0  0  0  0  0  0  0  0  0  0
    0.8388   -5.8417   27.5264 C   0  0  0  0  0  0  0  0  0  0  0  0
   -2.0709   -7.6637   18.7817 C   0  0  0  0  0  0  0  0  0  0  0  0
   -0.5279   -8.2168   17.0717 C   0  0  0  0  0  0  0  0  0  0  0  0
    6.9694   -4.0191   27.8190 C   0  0  0  0  0  0  0  0  0  0  0  0
    5.1733   -4.5469   29.8123 C   0  0  0  0  0  0  0  0  0  0  0  0
   -1.7508  -11.3016   18.6072 C   0  0  0  0  0  0  0  0  0  0  0  0
    1.7497   -5.6771   26.4971 C   0  0  0  0  0  0  0  0  0  0  0  0
   -1.5799   -9.9322   18.3468 C   0  0  0  0  0  0  0  0  0  0  0  0
   -1.0871  -12.2214   17.8851 C   0  0  0  0  0  0  0  0  0  0  0  0
   -2.2706   -8.9669   19.0691 C   0  0  0  0  0  0  0  0  0  0  0  0
    3.0279   -5.3073   26.8197 C   0  0  0  0  0  0  0  0  0  0  0  0
    7.3282   -3.8948   29.1186 C   0  0  0  0  0  0  0  0  0  0  0  0
  1  3  4  0
  1  7  4  0
  2  3  1  0
  2  6  4  0
  2 16  4  0
  3 22  4  0
  4  9  4  0
  4 10  1  0
  4 20  4  0
  5 16  4  0
  5 23  4  0
  6 15  4  0
  7 12  4  0
  8 13  4  0
  8 14  4  0
  9 11  4  0
 11 14  4  0
 11 19  4  0
 12 18  4  0
 13 21  4  0
 15 23  4  0
 17 19  4  0
 17 20  4  0
 18 22  4  0
 19 21  4  0
M  END
$$$$

 Created by Python create_sdf_string function

 23 25  0  0  0  0  0  0  0  0999 V2000
    2.4610   -5.3070   29.1240 C   0  0  0  0  0  0  0  0  0  0  0  0
    4.7710   -4.6952   28.4803 C   0  0  0  0  0  0  0  0  0  0  0  0
    3.4047   -5.1087   28.1314 C   0  0  0  0  0  0  0  0  0  0  0  0
   -0.2234  -11.8615   16.8874 C   0  0  0  0  0  0  0  0  0  0  0  0
    6.4491   -4.1532   30.1213 C   0  0  0  0  0  0  0  0  0  0  0  0
    5.7060   -4.4340   27.4975 C   0  0  0  0  0  0  0  0  0  0  0  0
    1.1818   -5.6612   28.8399 C   0  0  0  0  0  0  0  0  0  0  0  0
   -1.2067   -7.3287   17.7772 C   0  0  0  0  0  0  0  0  0  0  0  0
   -0.0206  -10.5585   16.6210 C   0  0  0  0  0  0  0  0  0  0  0  0
    0.3696  -12.7626   16.2169 O   0  0  0  0  0  0  0  0  0  0  0  0
   -0.6895   -9.5676   17.3297 C   0  0  0  0  0  0  0  0  0  0  0  0
    0.8388   -5.8417   27.5264 C   0  0  0  0  0  0  0  0  0  0  0  0
   -2.0709   -7.6637   18.7817 C   0  0  0  0  0  0  0  0  0  0  0  0
   -0.5279   -8.2168   17.0717 C   0  0  0  0  0  0  0  0  0  0  0  0
    6.9694   -4.0191   27.8190 C   0  0  0  0  0  0  0  0  0  0  0  0
    5.1733   -4.5469   29.8123 C   0  0  0  0  0  0  0  0  0  0  0  0
   -1.7508  -11.3016   18.6072 C   0  0  0  0  0  0  0  0  0  0  0  0
    1.7497   -5.6771   26.4971 C   0  0  0  0  0  0  0  0  0  0  0  0
   -1.5799   -9.9322   18.3468 C   0  0  0  0  0  0  0  0  0  0  0  0
   -1.0871  -12.2214   17.8851 C   0  0  0  0  0  0  0  0  0  0  0  0
   -2.2706   -8.9669   19.0691 C   0  0  0  0  0  0  0  0  0  0  0  0
    3.0279   -5.3073   26.8197 C   0  0  0  0  0  0  0  0  0  0  0  0
    7.3282   -3.8948   29.1186 C   0  0  0  0  0  0  0  0  0  0  0  0
  1  3  4  0
  1  7  4  0
  2  3  1  0
  2  6  4  0
  2 16  4  0
  3 22  4  0
  4  9  4  0
  4 10  1  0
  4 20  4  0
  5 16  4  0
  5 23  4  0
  6 15  4  0
  7 12  4  0
  8 13  4  0
  8 14  4  0
  9 11  4  0
 11 14  4  0
 11 19  4  0
 12 18  4  0
 13 21  4  0
 15 23  4  0
 17 19  4  0
 17 20  4  0
 18 22  4  0
 19 21  4  0
M  END
$$$$

 Created by Python create_sdf_string function

 23 25  0  0  0  0  0  0  0  0999 V2000
    2.4610   -5.3070   29.1240 C   0  0  0  0  0  0  0  0  0  0  0  0
    4.7710   -4.6952   28.4803 C   0  0  0  0  0  0  0  0  0  0  0  0
    3.4047   -5.1087   28.1314 C   0  0  0  0  0  0  0  0  0  0  0  0
   -0.2234  -11.8615   16.8874 C   0  0  0  0  0  0  0  0  0  0  0  0
    6.4491   -4.1532   30.1213 C   0  0  0  0  0  0  0  0  0  0  0  0
    5.7060   -4.4340   27.4975 C   0  0  0  0  0  0  0  0  0  0  0  0
    1.1818   -5.6612   28.8399 C   0  0  0  0  0  0  0  0  0  0  0  0
   -1.2067   -7.3287   17.7772 C   0  0  0  0  0  0  0  0  0  0  0  0
   -0.0206  -10.5585   16.6210 C   0  0  0  0  0  0  0  0  0  0  0  0
    0.3696  -12.7626   16.2169 O   0  0  0  0  0  0  0  0  0  0  0  0
   -0.6895   -9.5676   17.3297 C   0  0  0  0  0  0  0  0  0  0  0  0
    0.8388   -5.8417   27.5264 C   0  0  0  0  0  0  0  0  0  0  0  0
   -2.0709   -7.6637   18.7817 C   0  0  0  0  0  0  0  0  0  0  0  0
   -0.5279   -8.2168   17.0717 C   0  0  0  0  0  0  0  0  0  0  0  0
    6.9694   -4.0191   27.8190 C   0  0  0  0  0  0  0  0  0  0  0  0
    5.1733   -4.5469   29.8123 C   0  0  0  0  0  0  0  0  0  0  0  0
   -1.7508  -11.3016   18.6072 C   0  0  0  0  0  0  0  0  0  0  0  0
    1.7497   -5.6771   26.4971 C   0  0  0  0  0  0  0  0  0  0  0  0
   -1.5799   -9.9322   18.3468 C   0  0  0  0  0  0  0  0  0  0  0  0
   -1.0871  -12.2214   17.8851 C   0  0  0  0  0  0  0  0  0  0  0  0
   -2.2706   -8.9669   19.0691 C   0  0  0  0  0  0  0  0  0  0  0  0
    3.0279   -5.3073   26.8197 C   0  0  0  0  0  0  0  0  0  0  0  0
    7.3282   -3.8948   29.1186 C   0  0  0  0  0  0  0  0  0  0  0  0
  1  3  4  0
  1  7  4  0
  2  3  1  0
  2  6  4  0
  2 16  4  0
  3 22  4  0
  4  9  4  0
  4 10  1  0
  4 20  4  0
  5 16  4  0
  5 23  4  0
  6 15  4  0
  7 12  4  0
  8 13  4  0
  8 14  4  0
  9 11  4  0
 11 14  4  0
 11 19  4  0
 12 18  4  0
 13 21  4  0
 15 23  4  0
 17 19  4  0
 17 20  4  0
 18 22  4  0
 19 21  4  0
M  END
$$$$

 Created by Python create_sdf_string function

 23 25  0  0  0  0  0  0  0  0999 V2000
    2.4610   -5.3070   29.1240 C   0  0  0  0  0  0  0  0  0  0  0  0
    4.7710   -4.6952   28.4803 C   0  0  0  0  0  0  0  0  0  0  0  0
    3.4047   -5.1087   28.1314 C   0  0  0  0  0  0  0  0  0  0  0  0
   -0.2234  -11.8615   16.8874 C   0  0  0  0  0  0  0  0  0  0  0  0
    6.4491   -4.1532   30.1213 C   0  0  0  0  0  0  0  0  0  0  0  0
    5.7060   -4.4340   27.4975 C   0  0  0  0  0  0  0  0  0  0  0  0
    1.1818   -5.6612   28.8399 C   0  0  0  0  0  0  0  0  0  0  0  0
   -1.2067   -7.3287   17.7772 C   0  0  0  0  0  0  0  0  0  0  0  0
   -0.0206  -10.5585   16.6210 C   0  0  0  0  0  0  0  0  0  0  0  0
    0.3696  -12.7626   16.2169 O   0  0  0  0  0  0  0  0  0  0  0  0
   -0.6895   -9.5676   17.3297 C   0  0  0  0  0  0  0  0  0  0  0  0
    0.8388   -5.8417   27.5264 C   0  0  0  0  0  0  0  0  0  0  0  0
   -2.0709   -7.6637   18.7817 C   0  0  0  0  0  0  0  0  0  0  0  0
   -0.5279   -8.2168   17.0717 C   0  0  0  0  0  0  0  0  0  0  0  0
    6.9694   -4.0191   27.8190 C   0  0  0  0  0  0  0  0  0  0  0  0
    5.1733   -4.5469   29.8123 C   0  0  0  0  0  0  0  0  0  0  0  0
   -1.7508  -11.3016   18.6072 C   0  0  0  0  0  0  0  0  0  0  0  0
    1.7497   -5.6771   26.4971 C   0  0  0  0  0  0  0  0  0  0  0  0
   -1.5799   -9.9322   18.3468 C   0  0  0  0  0  0  0  0  0  0  0  0
   -1.0871  -12.2214   17.8851 C   0  0  0  0  0  0  0  0  0  0  0  0
   -2.2706   -8.9669   19.0691 C   0  0  0  0  0  0  0  0  0  0  0  0
    3.0279   -5.3073   26.8197 C   0  0  0  0  0  0  0  0  0  0  0  0
    7.3282   -3.8948   29.1186 C   0  0  0  0  0  0  0  0  0  0  0  0
  1  3  4  0
  1  7  4  0
  2  3  1  0
  2  6  4  0
  2 16  4  0
  3 22  4  0
  4  9  4  0
  4 10  1  0
  4 20  4  0
  5 16  4  0
  5 23  4  0
  6 15  4  0
  7 12  4  0
  8 13  4  0
  8 14  4  0
  9 11  4  0
 11 14  4  0
 11 19  4  0
 12 18  4  0
 13 21  4  0
 15 23  4  0
 17 19  4  0
 17 20  4  0
 18 22  4  0
 19 21  4  0
M  END
$$$$

 Created by Python create_sdf_string function

 23 25  0  0  0  0  0  0  0  0999 V2000
    2.4610   -5.3070   29.1240 C   0  0  0  0  0  0  0  0  0  0  0  0
    4.7710   -4.6952   28.4803 C   0  0  0  0  0  0  0  0  0  0  0  0
    3.4047   -5.1087   28.1314 C   0  0  0  0  0  0  0  0  0  0  0  0
   -0.2234  -11.8615   16.8874 C   0  0  0  0  0  0  0  0  0  0  0  0
    6.4491   -4.1532   30.1213 C   0  0  0  0  0  0  0  0  0  0  0  0
    5.7060   -4.4340   27.4975 C   0  0  0  0  0  0  0  0  0  0  0  0
    1.1818   -5.6612   28.8399 C   0  0  0  0  0  0  0  0  0  0  0  0
   -1.2067   -7.3287   17.7772 C   0  0  0  0  0  0  0  0  0  0  0  0
   -0.0206  -10.5585   16.6210 C   0  0  0  0  0  0  0  0  0  0  0  0
    0.3696  -12.7626   16.2169 O   0  0  0  0  0  0  0  0  0  0  0  0
   -0.6895   -9.5676   17.3297 C   0  0  0  0  0  0  0  0  0  0  0  0
    0.8388   -5.8417   27.5264 C   0  0  0  0  0  0  0  0  0  0  0  0
   -2.0709   -7.6637   18.7817 C   0  0  0  0  0  0  0  0  0  0  0  0
   -0.5279   -8.2168   17.0717 C   0  0  0  0  0  0  0  0  0  0  0  0
    6.9694   -4.0191   27.8190 C   0  0  0  0  0  0  0  0  0  0  0  0
    5.1733   -4.5469   29.8123 C   0  0  0  0  0  0  0  0  0  0  0  0
   -1.7508  -11.3016   18.6072 C   0  0  0  0  0  0  0  0  0  0  0  0
    1.7497   -5.6771   26.4971 C   0  0  0  0  0  0  0  0  0  0  0  0
   -1.5799   -9.9322   18.3468 C   0  0  0  0  0  0  0  0  0  0  0  0
   -1.0871  -12.2214   17.8851 C   0  0  0  0  0  0  0  0  0  0  0  0
   -2.2706   -8.9669   19.0691 C   0  0  0  0  0  0  0  0  0  0  0  0
    3.0279   -5.3073   26.8197 C   0  0  0  0  0  0  0  0  0  0  0  0
    7.3282   -3.8948   29.1186 C   0  0  0  0  0  0  0  0  0  0  0  0
  1  3  4  0
  1  7  4  0
  2  3  1  0
  2  6  4  0
  2 16  4  0
  3 22  4  0
  4  9  4  0
  4 10  1  0
  4 20  4  0
  5 16  4  0
  5 23  4  0
  6 15  4  0
  7 12  4  0
  8 13  4  0
  8 14  4  0
  9 11  4  0
 11 14  4  0
 11 19  4  0
 12 18  4  0
 13 21  4  0
 15 23  4  0
 17 19  4  0
 17 20  4  0
 18 22  4  0
 19 21  4  0
M  END
$$$$

 Created by Python create_sdf_string function

 23 25  0  0  0  0  0  0  0  0999 V2000
    2.4610   -5.3070   29.1240 C   0  0  0  0  0  0  0  0  0  0  0  0
    4.7710   -4.6952   28.4803 C   0  0  0  0  0  0  0  0  0  0  0  0
    3.4047   -5.1087   28.1314 C   0  0  0  0  0  0  0  0  0  0  0  0
   -0.2234  -11.8615   16.8874 C   0  0  0  0  0  0  0  0  0  0  0  0
    6.4491   -4.1532   30.1213 C   0  0  0  0  0  0  0  0  0  0  0  0
    5.7060   -4.4340   27.4975 C   0  0  0  0  0  0  0  0  0  0  0  0
    1.1818   -5.6612   28.8399 C   0  0  0  0  0  0  0  0  0  0  0  0
   -1.2067   -7.3287   17.7772 C   0  0  0  0  0  0  0  0  0  0  0  0
   -0.0206  -10.5585   16.6210 C   0  0  0  0  0  0  0  0  0  0  0  0
    0.3696  -12.7626   16.2169 O   0  0  0  0  0  0  0  0  0  0  0  0
   -0.6895   -9.5676   17.3297 C   0  0  0  0  0  0  0  0  0  0  0  0
    0.8388   -5.8417   27.5264 C   0  0  0  0  0  0  0  0  0  0  0  0
   -2.0709   -7.6637   18.7817 C   0  0  0  0  0  0  0  0  0  0  0  0
   -0.5279   -8.2168   17.0717 C   0  0  0  0  0  0  0  0  0  0  0  0
    6.9694   -4.0191   27.8190 C   0  0  0  0  0  0  0  0  0  0  0  0
    5.1733   -4.5469   29.8123 C   0  0  0  0  0  0  0  0  0  0  0  0
   -1.7508  -11.3016   18.6072 C   0  0  0  0  0  0  0  0  0  0  0  0
    1.7497   -5.6771   26.4971 C   0  0  0  0  0  0  0  0  0  0  0  0
   -1.5799   -9.9322   18.3468 C   0  0  0  0  0  0  0  0  0  0  0  0
   -1.0871  -12.2214   17.8851 C   0  0  0  0  0  0  0  0  0  0  0  0
   -2.2706   -8.9669   19.0691 C   0  0  0  0  0  0  0  0  0  0  0  0
    3.0279   -5.3073   26.8197 C   0  0  0  0  0  0  0  0  0  0  0  0
    7.3282   -3.8948   29.1186 C   0  0  0  0  0  0  0  0  0  0  0  0
  1  3  4  0
  1  7  4  0
  2  3  1  0
  2  6  4  0
  2 16  4  0
  3 22  4  0
  4  9  4  0
  4 10  1  0
  4 20  4  0
  5 16  4  0
  5 23  4  0
  6 15  4  0
  7 12  4  0
  8 13  4  0
  8 14  4  0
  9 11  4  0
 11 14  4  0
 11 19  4  0
 12 18  4  0
 13 21  4  0
 15 23  4  0
 17 19  4  0
 17 20  4  0
 18 22  4  0
 19 21  4  0
M  END
$$$$

 Created by Python create_sdf_string function

 23 25  0  0  0  0  0  0  0  0999 V2000
    2.4610   -5.3070   29.1240 C   0  0  0  0  0  0  0  0  0  0  0  0
    4.7710   -4.6952   28.4803 C   0  0  0  0  0  0  0  0  0  0  0  0
    3.4047   -5.1087   28.1314 C   0  0  0  0  0  0  0  0  0  0  0  0
   -0.2234  -11.8615   16.8874 C   0  0  0  0  0  0  0  0  0  0  0  0
    6.4491   -4.1532   30.1213 C   0  0  0  0  0  0  0  0  0  0  0  0
    5.7060   -4.4340   27.4975 C   0  0  0  0  0  0  0  0  0  0  0  0
    1.1818   -5.6612   28.8399 C   0  0  0  0  0  0  0  0  0  0  0  0
   -1.2067   -7.3287   17.7772 C   0  0  0  0  0  0  0  0  0  0  0  0
   -0.0206  -10.5585   16.6210 C   0  0  0  0  0  0  0  0  0  0  0  0
    0.3696  -12.7626   16.2169 O   0  0  0  0  0  0  0  0  0  0  0  0
   -0.6895   -9.5676   17.3297 C   0  0  0  0  0  0  0  0  0  0  0  0
    0.8388   -5.8417   27.5264 C   0  0  0  0  0  0  0  0  0  0  0  0
   -2.0709   -7.6637   18.7817 C   0  0  0  0  0  0  0  0  0  0  0  0
   -0.5279   -8.2168   17.0717 C   0  0  0  0  0  0  0  0  0  0  0  0
    6.9694   -4.0191   27.8190 C   0  0  0  0  0  0  0  0  0  0  0  0
    5.1733   -4.5469   29.8123 C   0  0  0  0  0  0  0  0  0  0  0  0
   -1.7508  -11.3016   18.6072 C   0  0  0  0  0  0  0  0  0  0  0  0
    1.7497   -5.6771   26.4971 C   0  0  0  0  0  0  0  0  0  0  0  0
   -1.5799   -9.9322   18.3468 C   0  0  0  0  0  0  0  0  0  0  0  0
   -1.0871  -12.2214   17.8851 C   0  0  0  0  0  0  0  0  0  0  0  0
   -2.2706   -8.9669   19.0691 C   0  0  0  0  0  0  0  0  0  0  0  0
    3.0279   -5.3073   26.8197 C   0  0  0  0  0  0  0  0  0  0  0  0
    7.3282   -3.8948   29.1186 C   0  0  0  0  0  0  0  0  0  0  0  0
  1  3  4  0
  1  7  4  0
  2  3  1  0
  2  6  4  0
  2 16  4  0
  3 22  4  0
  4  9  4  0
  4 10  1  0
  4 20  4  0
  5 16  4  0
  5 23  4  0
  6 15  4  0
  7 12  4  0
  8 13  4  0
  8 14  4  0
  9 11  4  0
 11 14  4  0
 11 19  4  0
 12 18  4  0
 13 21  4  0
 15 23  4  0
 17 19  4  0
 17 20  4  0
 18 22  4  0
 19 21  4  0
M  END
$$$$

 Created by Python create_sdf_string function

 23 25  0  0  0  0  0  0  0  0999 V2000
    2.4610   -5.3070   29.1240 C   0  0  0  0  0  0  0  0  0  0  0  0
    4.7710   -4.6952   28.4803 C   0  0  0  0  0  0  0  0  0  0  0  0
    3.4047   -5.1087   28.1314 C   0  0  0  0  0  0  0  0  0  0  0  0
   -0.2234  -11.8615   16.8874 C   0  0  0  0  0  0  0  0  0  0  0  0
    6.4491   -4.1532   30.1213 C   0  0  0  0  0  0  0  0  0  0  0  0
    5.7060   -4.4340   27.4975 C   0  0  0  0  0  0  0  0  0  0  0  0
    1.1818   -5.6612   28.8399 C   0  0  0  0  0  0  0  0  0  0  0  0
   -1.2067   -7.3287   17.7772 C   0  0  0  0  0  0  0  0  0  0  0  0
   -0.0206  -10.5585   16.6210 C   0  0  0  0  0  0  0  0  0  0  0  0
    0.3696  -12.7626   16.2169 O   0  0  0  0  0  0  0  0  0  0  0  0
   -0.6895   -9.5676   17.3297 C   0  0  0  0  0  0  0  0  0  0  0  0
    0.8388   -5.8417   27.5264 C   0  0  0  0  0  0  0  0  0  0  0  0
   -2.0709   -7.6637   18.7817 C   0  0  0  0  0  0  0  0  0  0  0  0
   -0.5279   -8.2168   17.0717 C   0  0  0  0  0  0  0  0  0  0  0  0
    6.9694   -4.0191   27.8190 C   0  0  0  0  0  0  0  0  0  0  0  0
    5.1733   -4.5469   29.8123 C   0  0  0  0  0  0  0  0  0  0  0  0
   -1.7508  -11.3016   18.6072 C   0  0  0  0  0  0  0  0  0  0  0  0
    1.7497   -5.6771   26.4971 C   0  0  0  0  0  0  0  0  0  0  0  0
   -1.5799   -9.9322   18.3468 C   0  0  0  0  0  0  0  0  0  0  0  0
   -1.0871  -12.2214   17.8851 C   0  0  0  0  0  0  0  0  0  0  0  0
   -2.2706   -8.9669   19.0691 C   0  0  0  0  0  0  0  0  0  0  0  0
    3.0279   -5.3073   26.8197 C   0  0  0  0  0  0  0  0  0  0  0  0
    7.3282   -3.8948   29.1186 C   0  0  0  0  0  0  0  0  0  0  0  0
  1  3  4  0
  1  7  4  0
  2  3  1  0
  2  6  4  0
  2 16  4  0
  3 22  4  0
  4  9  4  0
  4 10  1  0
  4 20  4  0
  5 16  4  0
  5 23  4  0
  6 15  4  0
  7 12  4  0
  8 13  4  0
  8 14  4  0
  9 11  4  0
 11 14  4  0
 11 19  4  0
 12 18  4  0
 13 21  4  0
 15 23  4  0
 17 19  4  0
 17 20  4  0
 18 22  4  0
 19 21  4  0
M  END
$$$$

 Created by Python create_sdf_string function

 23 25  0  0  0  0  0  0  0  0999 V2000
    2.4610   -5.3070   29.1240 C   0  0  0  0  0  0  0  0  0  0  0  0
    4.7710   -4.6952   28.4803 C   0  0  0  0  0  0  0  0  0  0  0  0
    3.4047   -5.1087   28.1314 C   0  0  0  0  0  0  0  0  0  0  0  0
   -0.2234  -11.8615   16.8874 C   0  0  0  0  0  0  0  0  0  0  0  0
    6.4491   -4.1532   30.1213 C   0  0  0  0  0  0  0  0  0  0  0  0
    5.7060   -4.4340   27.4975 C   0  0  0  0  0  0  0  0  0  0  0  0
    1.1818   -5.6612   28.8399 C   0  0  0  0  0  0  0  0  0  0  0  0
   -1.2067   -7.3287   17.7772 C   0  0  0  0  0  0  0  0  0  0  0  0
   -0.0206  -10.5585   16.6210 C   0  0  0  0  0  0  0  0  0  0  0  0
    0.3696  -12.7626   16.2169 O   0  0  0  0  0  0  0  0  0  0  0  0
   -0.6895   -9.5676   17.3297 C   0  0  0  0  0  0  0  0  0  0  0  0
    0.8388   -5.8417   27.5264 C   0  0  0  0  0  0  0  0  0  0  0  0
   -2.0709   -7.6637   18.7817 C   0  0  0  0  0  0  0  0  0  0  0  0
   -0.5279   -8.2168   17.0717 C   0  0  0  0  0  0  0  0  0  0  0  0
    6.9694   -4.0191   27.8190 C   0  0  0  0  0  0  0  0  0  0  0  0
    5.1733   -4.5469   29.8123 C   0  0  0  0  0  0  0  0  0  0  0  0
   -1.7508  -11.3016   18.6072 C   0  0  0  0  0  0  0  0  0  0  0  0
    1.7497   -5.6771   26.4971 C   0  0  0  0  0  0  0  0  0  0  0  0
   -1.5799   -9.9322   18.3468 C   0  0  0  0  0  0  0  0  0  0  0  0
   -1.0871  -12.2214   17.8851 C   0  0  0  0  0  0  0  0  0  0  0  0
   -2.2706   -8.9669   19.0691 C   0  0  0  0  0  0  0  0  0  0  0  0
    3.0279   -5.3073   26.8197 C   0  0  0  0  0  0  0  0  0  0  0  0
    7.3282   -3.8948   29.1186 C   0  0  0  0  0  0  0  0  0  0  0  0
  1  3  4  0
  1  7  4  0
  2  3  1  0
  2  6  4  0
  2 16  4  0
  3 22  4  0
  4  9  4  0
  4 10  1  0
  4 20  4  0
  5 16  4  0
  5 23  4  0
  6 15  4  0
  7 12  4  0
  8 13  4  0
  8 14  4  0
  9 11  4  0
 11 14  4  0
 11 19  4  0
 12 18  4  0
 13 21  4  0
 15 23  4  0
 17 19  4  0
 17 20  4  0
 18 22  4  0
 19 21  4  0
M  END
$$$$

 Created by Python create_sdf_string function

 23 25  0  0  0  0  0  0  0  0999 V2000
    2.4610   -5.3070   29.1240 C   0  0  0  0  0  0  0  0  0  0  0  0
    4.7710   -4.6952   28.4803 C   0  0  0  0  0  0  0  0  0  0  0  0
    3.4047   -5.1087   28.1314 C   0  0  0  0  0  0  0  0  0  0  0  0
   -0.2234  -11.8615   16.8874 C   0  0  0  0  0  0  0  0  0  0  0  0
    6.4491   -4.1532   30.1213 C   0  0  0  0  0  0  0  0  0  0  0  0
    5.7060   -4.4340   27.4975 C   0  0  0  0  0  0  0  0  0  0  0  0
    1.1818   -5.6612   28.8399 C   0  0  0  0  0  0  0  0  0  0  0  0
   -1.2067   -7.3287   17.7772 C   0  0  0  0  0  0  0  0  0  0  0  0
   -0.0206  -10.5585   16.6210 C   0  0  0  0  0  0  0  0  0  0  0  0
    0.3696  -12.7626   16.2169 O   0  0  0  0  0  0  0  0  0  0  0  0
   -0.6895   -9.5676   17.3297 C   0  0  0  0  0  0  0  0  0  0  0  0
    0.8388   -5.8417   27.5264 C   0  0  0  0  0  0  0  0  0  0  0  0
   -2.0709   -7.6637   18.7817 C   0  0  0  0  0  0  0  0  0  0  0  0
   -0.5279   -8.2168   17.0717 C   0  0  0  0  0  0  0  0  0  0  0  0
    6.9694   -4.0191   27.8190 C   0  0  0  0  0  0  0  0  0  0  0  0
    5.1733   -4.5469   29.8123 C   0  0  0  0  0  0  0  0  0  0  0  0
   -1.7508  -11.3016   18.6072 C   0  0  0  0  0  0  0  0  0  0  0  0
    1.7497   -5.6771   26.4971 C   0  0  0  0  0  0  0  0  0  0  0  0
   -1.5799   -9.9322   18.3468 C   0  0  0  0  0  0  0  0  0  0  0  0
   -1.0871  -12.2214   17.8851 C   0  0  0  0  0  0  0  0  0  0  0  0
   -2.2706   -8.9669   19.0691 C   0  0  0  0  0  0  0  0  0  0  0  0
    3.0279   -5.3073   26.8197 C   0  0  0  0  0  0  0  0  0  0  0  0
    7.3282   -3.8948   29.1186 C   0  0  0  0  0  0  0  0  0  0  0  0
  1  3  4  0
  1  7  4  0
  2  3  1  0
  2  6  4  0
  2 16  4  0
  3 22  4  0
  4  9  4  0
  4 10  1  0
  4 20  4  0
  5 16  4  0
  5 23  4  0
  6 15  4  0
  7 12  4  0
  8 13  4  0
  8 14  4  0
  9 11  4  0
 11 14  4  0
 11 19  4  0
 12 18  4  0
 13 21  4  0
 15 23  4  0
 17 19  4  0
 17 20  4  0
 18 22  4  0
 19 21  4  0
M  END
$$$$

 Created by Python create_sdf_string function

 23 25  0  0  0  0  0  0  0  0999 V2000
    2.4610   -5.3070   29.1240 C   0  0  0  0  0  0  0  0  0  0  0  0
    4.7710   -4.6952   28.4803 C   0  0  0  0  0  0  0  0  0  0  0  0
    3.4047   -5.1087   28.1314 C   0  0  0  0  0  0  0  0  0  0  0  0
   -0.2234  -11.8615   16.8874 C   0  0  0  0  0  0  0  0  0  0  0  0
    6.4491   -4.1532   30.1213 C   0  0  0  0  0  0  0  0  0  0  0  0
    5.7060   -4.4340   27.4975 C   0  0  0  0  0  0  0  0  0  0  0  0
    1.1818   -5.6612   28.8399 C   0  0  0  0  0  0  0  0  0  0  0  0
   -1.2067   -7.3287   17.7772 C   0  0  0  0  0  0  0  0  0  0  0  0
   -0.0206  -10.5585   16.6210 C   0  0  0  0  0  0  0  0  0  0  0  0
    0.3696  -12.7626   16.2169 O   0  0  0  0  0  0  0  0  0  0  0  0
   -0.6895   -9.5676   17.3297 C   0  0  0  0  0  0  0  0  0  0  0  0
    0.8388   -5.8417   27.5264 C   0  0  0  0  0  0  0  0  0  0  0  0
   -2.0709   -7.6637   18.7817 C   0  0  0  0  0  0  0  0  0  0  0  0
   -0.5279   -8.2168   17.0717 C   0  0  0  0  0  0  0  0  0  0  0  0
    6.9694   -4.0191   27.8190 C   0  0  0  0  0  0  0  0  0  0  0  0
    5.1733   -4.5469   29.8123 C   0  0  0  0  0  0  0  0  0  0  0  0
   -1.7508  -11.3016   18.6072 C   0  0  0  0  0  0  0  0  0  0  0  0
    1.7497   -5.6771   26.4971 C   0  0  0  0  0  0  0  0  0  0  0  0
   -1.5799   -9.9322   18.3468 C   0  0  0  0  0  0  0  0  0  0  0  0
   -1.0871  -12.2214   17.8851 C   0  0  0  0  0  0  0  0  0  0  0  0
   -2.2706   -8.9669   19.0691 C   0  0  0  0  0  0  0  0  0  0  0  0
    3.0279   -5.3073   26.8197 C   0  0  0  0  0  0  0  0  0  0  0  0
    7.3282   -3.8948   29.1186 C   0  0  0  0  0  0  0  0  0  0  0  0
  1  3  4  0
  1  7  4  0
  2  3  1  0
  2  6  4  0
  2 16  4  0
  3 22  4  0
  4  9  4  0
  4 10  1  0
  4 20  4  0
  5 16  4  0
  5 23  4  0
  6 15  4  0
  7 12  4  0
  8 13  4  0
  8 14  4  0
  9 11  4  0
 11 14  4  0
 11 19  4  0
 12 18  4  0
 13 21  4  0
 15 23  4  0
 17 19  4  0
 17 20  4  0
 18 22  4  0
 19 21  4  0
M  END
$$$$

 Created by Python create_sdf_string function

 23 25  0  0  0  0  0  0  0  0999 V2000
    2.4610   -5.3070   29.1240 C   0  0  0  0  0  0  0  0  0  0  0  0
    4.7710   -4.6952   28.4803 C   0  0  0  0  0  0  0  0  0  0  0  0
    3.4047   -5.1087   28.1314 C   0  0  0  0  0  0  0  0  0  0  0  0
   -0.2234  -11.8615   16.8874 C   0  0  0  0  0  0  0  0  0  0  0  0
    6.4491   -4.1532   30.1213 C   0  0  0  0  0  0  0  0  0  0  0  0
    5.7060   -4.4340   27.4975 C   0  0  0  0  0  0  0  0  0  0  0  0
    1.1818   -5.6612   28.8399 C   0  0  0  0  0  0  0  0  0  0  0  0
   -1.2067   -7.3287   17.7772 C   0  0  0  0  0  0  0  0  0  0  0  0
   -0.0206  -10.5585   16.6210 C   0  0  0  0  0  0  0  0  0  0  0  0
    0.3696  -12.7626   16.2169 O   0  0  0  0  0  0  0  0  0  0  0  0
   -0.6895   -9.5676   17.3297 C   0  0  0  0  0  0  0  0  0  0  0  0
    0.8388   -5.8417   27.5264 C   0  0  0  0  0  0  0  0  0  0  0  0
   -2.0709   -7.6637   18.7817 C   0  0  0  0  0  0  0  0  0  0  0  0
   -0.5279   -8.2168   17.0717 C   0  0  0  0  0  0  0  0  0  0  0  0
    6.9694   -4.0191   27.8190 C   0  0  0  0  0  0  0  0  0  0  0  0
    5.1733   -4.5469   29.8123 C   0  0  0  0  0  0  0  0  0  0  0  0
   -1.7508  -11.3016   18.6072 C   0  0  0  0  0  0  0  0  0  0  0  0
    1.7497   -5.6771   26.4971 C   0  0  0  0  0  0  0  0  0  0  0  0
   -1.5799   -9.9322   18.3468 C   0  0  0  0  0  0  0  0  0  0  0  0
   -1.0871  -12.2214   17.8851 C   0  0  0  0  0  0  0  0  0  0  0  0
   -2.2706   -8.9669   19.0691 C   0  0  0  0  0  0  0  0  0  0  0  0
    3.0279   -5.3073   26.8197 C   0  0  0  0  0  0  0  0  0  0  0  0
    7.3282   -3.8948   29.1186 C   0  0  0  0  0  0  0  0  0  0  0  0
  1  3  4  0
  1  7  4  0
  2  3  1  0
  2  6  4  0
  2 16  4  0
  3 22  4  0
  4  9  4  0
  4 10  1  0
  4 20  4  0
  5 16  4  0
  5 23  4  0
  6 15  4  0
  7 12  4  0
  8 13  4  0
  8 14  4  0
  9 11  4  0
 11 14  4  0
 11 19  4  0
 12 18  4  0
 13 21  4  0
 15 23  4  0
 17 19  4  0
 17 20  4  0
 18 22  4  0
 19 21  4  0
M  END
$$$$

 Created by Python create_sdf_string function

 23 25  0  0  0  0  0  0  0  0999 V2000
    2.4610   -5.3070   29.1240 C   0  0  0  0  0  0  0  0  0  0  0  0
    4.7710   -4.6952   28.4803 C   0  0  0  0  0  0  0  0  0  0  0  0
    3.4047   -5.1087   28.1314 C   0  0  0  0  0  0  0  0  0  0  0  0
   -0.2234  -11.8615   16.8874 C   0  0  0  0  0  0  0  0  0  0  0  0
    6.4491   -4.1532   30.1213 C   0  0  0  0  0  0  0  0  0  0  0  0
    5.7060   -4.4340   27.4975 C   0  0  0  0  0  0  0  0  0  0  0  0
    1.1818   -5.6612   28.8399 C   0  0  0  0  0  0  0  0  0  0  0  0
   -1.2067   -7.3287   17.7772 C   0  0  0  0  0  0  0  0  0  0  0  0
   -0.0206  -10.5585   16.6210 C   0  0  0  0  0  0  0  0  0  0  0  0
    0.3696  -12.7626   16.2169 O   0  0  0  0  0  0  0  0  0  0  0  0
   -0.6895   -9.5676   17.3297 C   0  0  0  0  0  0  0  0  0  0  0  0
    0.8388   -5.8417   27.5264 C   0  0  0  0  0  0  0  0  0  0  0  0
   -2.0709   -7.6637   18.7817 C   0  0  0  0  0  0  0  0  0  0  0  0
   -0.5279   -8.2168   17.0717 C   0  0  0  0  0  0  0  0  0  0  0  0
    6.9694   -4.0191   27.8190 C   0  0  0  0  0  0  0  0  0  0  0  0
    5.1733   -4.5469   29.8123 C   0  0  0  0  0  0  0  0  0  0  0  0
   -1.7508  -11.3016   18.6072 C   0  0  0  0  0  0  0  0  0  0  0  0
    1.7497   -5.6771   26.4971 C   0  0  0  0  0  0  0  0  0  0  0  0
   -1.5799   -9.9322   18.3468 C   0  0  0  0  0  0  0  0  0  0  0  0
   -1.0871  -12.2214   17.8851 C   0  0  0  0  0  0  0  0  0  0  0  0
   -2.2706   -8.9669   19.0691 C   0  0  0  0  0  0  0  0  0  0  0  0
    3.0279   -5.3073   26.8197 C   0  0  0  0  0  0  0  0  0  0  0  0
    7.3282   -3.8948   29.1186 C   0  0  0  0  0  0  0  0  0  0  0  0
  1  3  4  0
  1  7  4  0
  2  3  1  0
  2  6  4  0
  2 16  4  0
  3 22  4  0
  4  9  4  0
  4 10  1  0
  4 20  4  0
  5 16  4  0
  5 23  4  0
  6 15  4  0
  7 12  4  0
  8 13  4  0
  8 14  4  0
  9 11  4  0
 11 14  4  0
 11 19  4  0
 12 18  4  0
 13 21  4  0
 15 23  4  0
 17 19  4  0
 17 20  4  0
 18 22  4  0
 19 21  4  0
M  END
$$$$

 Created by Python create_sdf_string function

 23 25  0  0  0  0  0  0  0  0999 V2000
    2.4610   -5.3070   29.1240 C   0  0  0  0  0  0  0  0  0  0  0  0
    4.7710   -4.6952   28.4803 C   0  0  0  0  0  0  0  0  0  0  0  0
    3.4047   -5.1087   28.1314 C   0  0  0  0  0  0  0  0  0  0  0  0
   -0.2234  -11.8615   16.8874 C   0  0  0  0  0  0  0  0  0  0  0  0
    6.4491   -4.1532   30.1213 C   0  0  0  0  0  0  0  0  0  0  0  0
    5.7060   -4.4340   27.4975 C   0  0  0  0  0  0  0  0  0  0  0  0
    1.1818   -5.6612   28.8399 C   0  0  0  0  0  0  0  0  0  0  0  0
   -1.2067   -7.3287   17.7772 C   0  0  0  0  0  0  0  0  0  0  0  0
   -0.0206  -10.5585   16.6210 C   0  0  0  0  0  0  0  0  0  0  0  0
    0.3696  -12.7626   16.2169 O   0  0  0  0  0  0  0  0  0  0  0  0
   -0.6895   -9.5676   17.3297 C   0  0  0  0  0  0  0  0  0  0  0  0
    0.8388   -5.8417   27.5264 C   0  0  0  0  0  0  0  0  0  0  0  0
   -2.0709   -7.6637   18.7817 C   0  0  0  0  0  0  0  0  0  0  0  0
   -0.5279   -8.2168   17.0717 C   0  0  0  0  0  0  0  0  0  0  0  0
    6.9694   -4.0191   27.8190 C   0  0  0  0  0  0  0  0  0  0  0  0
    5.1733   -4.5469   29.8123 C   0  0  0  0  0  0  0  0  0  0  0  0
   -1.7508  -11.3016   18.6072 C   0  0  0  0  0  0  0  0  0  0  0  0
    1.7497   -5.6771   26.4971 C   0  0  0  0  0  0  0  0  0  0  0  0
   -1.5799   -9.9322   18.3468 C   0  0  0  0  0  0  0  0  0  0  0  0
   -1.0871  -12.2214   17.8851 C   0  0  0  0  0  0  0  0  0  0  0  0
   -2.2706   -8.9669   19.0691 C   0  0  0  0  0  0  0  0  0  0  0  0
    3.0279   -5.3073   26.8197 C   0  0  0  0  0  0  0  0  0  0  0  0
    7.3282   -3.8948   29.1186 C   0  0  0  0  0  0  0  0  0  0  0  0
  1  3  4  0
  1  7  4  0
  2  3  1  0
  2  6  4  0
  2 16  4  0
  3 22  4  0
  4  9  4  0
  4 10  1  0
  4 20  4  0
  5 16  4  0
  5 23  4  0
  6 15  4  0
  7 12  4  0
  8 13  4  0
  8 14  4  0
  9 11  4  0
 11 14  4  0
 11 19  4  0
 12 18  4  0
 13 21  4  0
 15 23  4  0
 17 19  4  0
 17 20  4  0
 18 22  4  0
 19 21  4  0
M  END
$$$$

 Created by Python create_sdf_string function

 23 25  0  0  0  0  0  0  0  0999 V2000
    2.4610   -5.3070   29.1240 C   0  0  0  0  0  0  0  0  0  0  0  0
    4.7710   -4.6952   28.4803 C   0  0  0  0  0  0  0  0  0  0  0  0
    3.4047   -5.1087   28.1314 C   0  0  0  0  0  0  0  0  0  0  0  0
   -0.2234  -11.8615   16.8874 C   0  0  0  0  0  0  0  0  0  0  0  0
    6.4491   -4.1532   30.1213 C   0  0  0  0  0  0  0  0  0  0  0  0
    5.7060   -4.4340   27.4975 C   0  0  0  0  0  0  0  0  0  0  0  0
    1.1818   -5.6612   28.8399 C   0  0  0  0  0  0  0  0  0  0  0  0
   -1.2067   -7.3287   17.7772 C   0  0  0  0  0  0  0  0  0  0  0  0
   -0.0206  -10.5585   16.6210 C   0  0  0  0  0  0  0  0  0  0  0  0
    0.3696  -12.7626   16.2169 O   0  0  0  0  0  0  0  0  0  0  0  0
   -0.6895   -9.5676   17.3297 C   0  0  0  0  0  0  0  0  0  0  0  0
    0.8388   -5.8417   27.5264 C   0  0  0  0  0  0  0  0  0  0  0  0
   -2.0709   -7.6637   18.7817 C   0  0  0  0  0  0  0  0  0  0  0  0
   -0.5279   -8.2168   17.0717 C   0  0  0  0  0  0  0  0  0  0  0  0
    6.9694   -4.0191   27.8190 C   0  0  0  0  0  0  0  0  0  0  0  0
    5.1733   -4.5469   29.8123 C   0  0  0  0  0  0  0  0  0  0  0  0
   -1.7508  -11.3016   18.6072 C   0  0  0  0  0  0  0  0  0  0  0  0
    1.7497   -5.6771   26.4971 C   0  0  0  0  0  0  0  0  0  0  0  0
   -1.5799   -9.9322   18.3468 C   0  0  0  0  0  0  0  0  0  0  0  0
   -1.0871  -12.2214   17.8851 C   0  0  0  0  0  0  0  0  0  0  0  0
   -2.2706   -8.9669   19.0691 C   0  0  0  0  0  0  0  0  0  0  0  0
    3.0279   -5.3073   26.8197 C   0  0  0  0  0  0  0  0  0  0  0  0
    7.3282   -3.8948   29.1186 C   0  0  0  0  0  0  0  0  0  0  0  0
  1  3  4  0
  1  7  4  0
  2  3  1  0
  2  6  4  0
  2 16  4  0
  3 22  4  0
  4  9  4  0
  4 10  1  0
  4 20  4  0
  5 16  4  0
  5 23  4  0
  6 15  4  0
  7 12  4  0
  8 13  4  0
  8 14  4  0
  9 11  4  0
 11 14  4  0
 11 19  4  0
 12 18  4  0
 13 21  4  0
 15 23  4  0
 17 19  4  0
 17 20  4  0
 18 22  4  0
 19 21  4  0
M  END
$$$$

 Created by Python create_sdf_string function

 23 25  0  0  0  0  0  0  0  0999 V2000
    2.4610   -5.3070   29.1240 C   0  0  0  0  0  0  0  0  0  0  0  0
    4.7710   -4.6952   28.4803 C   0  0  0  0  0  0  0  0  0  0  0  0
    3.4047   -5.1087   28.1314 C   0  0  0  0  0  0  0  0  0  0  0  0
   -0.2234  -11.8615   16.8874 C   0  0  0  0  0  0  0  0  0  0  0  0
    6.4491   -4.1532   30.1213 C   0  0  0  0  0  0  0  0  0  0  0  0
    5.7060   -4.4340   27.4975 C   0  0  0  0  0  0  0  0  0  0  0  0
    1.1818   -5.6612   28.8399 C   0  0  0  0  0  0  0  0  0  0  0  0
   -1.2067   -7.3287   17.7772 C   0  0  0  0  0  0  0  0  0  0  0  0
   -0.0206  -10.5585   16.6210 C   0  0  0  0  0  0  0  0  0  0  0  0
    0.3696  -12.7626   16.2169 O   0  0  0  0  0  0  0  0  0  0  0  0
   -0.6895   -9.5676   17.3297 C   0  0  0  0  0  0  0  0  0  0  0  0
    0.8388   -5.8417   27.5264 C   0  0  0  0  0  0  0  0  0  0  0  0
   -2.0709   -7.6637   18.7817 C   0  0  0  0  0  0  0  0  0  0  0  0
   -0.5279   -8.2168   17.0717 C   0  0  0  0  0  0  0  0  0  0  0  0
    6.9694   -4.0191   27.8190 C   0  0  0  0  0  0  0  0  0  0  0  0
    5.1733   -4.5469   29.8123 C   0  0  0  0  0  0  0  0  0  0  0  0
   -1.7508  -11.3016   18.6072 C   0  0  0  0  0  0  0  0  0  0  0  0
    1.7497   -5.6771   26.4971 C   0  0  0  0  0  0  0  0  0  0  0  0
   -1.5799   -9.9322   18.3468 C   0  0  0  0  0  0  0  0  0  0  0  0
   -1.0871  -12.2214   17.8851 C   0  0  0  0  0  0  0  0  0  0  0  0
   -2.2706   -8.9669   19.0691 C   0  0  0  0  0  0  0  0  0  0  0  0
    3.0279   -5.3073   26.8197 C   0  0  0  0  0  0  0  0  0  0  0  0
    7.3282   -3.8948   29.1186 C   0  0  0  0  0  0  0  0  0  0  0  0
  1  3  4  0
  1  7  4  0
  2  3  1  0
  2  6  4  0
  2 16  4  0
  3 22  4  0
  4  9  4  0
  4 10  1  0
  4 20  4  0
  5 16  4  0
  5 23  4  0
  6 15  4  0
  7 12  4  0
  8 13  4  0
  8 14  4  0
  9 11  4  0
 11 14  4  0
 11 19  4  0
 12 18  4  0
 13 21  4  0
 15 23  4  0
 17 19  4  0
 17 20  4  0
 18 22  4  0
 19 21  4  0
M  END
$$$$

 Created by Python create_sdf_string function

 23 25  0  0  0  0  0  0  0  0999 V2000
    2.4610   -5.3070   29.1240 C   0  0  0  0  0  0  0  0  0  0  0  0
    4.7710   -4.6952   28.4803 C   0  0  0  0  0  0  0  0  0  0  0  0
    3.4047   -5.1087   28.1314 C   0  0  0  0  0  0  0  0  0  0  0  0
   -0.2234  -11.8615   16.8874 C   0  0  0  0  0  0  0  0  0  0  0  0
    6.4491   -4.1532   30.1213 C   0  0  0  0  0  0  0  0  0  0  0  0
    5.7060   -4.4340   27.4975 C   0  0  0  0  0  0  0  0  0  0  0  0
    1.1818   -5.6612   28.8399 C   0  0  0  0  0  0  0  0  0  0  0  0
   -1.2067   -7.3287   17.7772 C   0  0  0  0  0  0  0  0  0  0  0  0
   -0.0206  -10.5585   16.6210 C   0  0  0  0  0  0  0  0  0  0  0  0
    0.3696  -12.7626   16.2169 O   0  0  0  0  0  0  0  0  0  0  0  0
   -0.6895   -9.5676   17.3297 C   0  0  0  0  0  0  0  0  0  0  0  0
    0.8388   -5.8417   27.5264 C   0  0  0  0  0  0  0  0  0  0  0  0
   -2.0709   -7.6637   18.7817 C   0  0  0  0  0  0  0  0  0  0  0  0
   -0.5279   -8.2168   17.0717 C   0  0  0  0  0  0  0  0  0  0  0  0
    6.9694   -4.0191   27.8190 C   0  0  0  0  0  0  0  0  0  0  0  0
    5.1733   -4.5469   29.8123 C   0  0  0  0  0  0  0  0  0  0  0  0
   -1.7508  -11.3016   18.6072 C   0  0  0  0  0  0  0  0  0  0  0  0
    1.7497   -5.6771   26.4971 C   0  0  0  0  0  0  0  0  0  0  0  0
   -1.5799   -9.9322   18.3468 C   0  0  0  0  0  0  0  0  0  0  0  0
   -1.0871  -12.2214   17.8851 C   0  0  0  0  0  0  0  0  0  0  0  0
   -2.2706   -8.9669   19.0691 C   0  0  0  0  0  0  0  0  0  0  0  0
    3.0279   -5.3073   26.8197 C   0  0  0  0  0  0  0  0  0  0  0  0
    7.3282   -3.8948   29.1186 C   0  0  0  0  0  0  0  0  0  0  0  0
  1  3  4  0
  1  7  4  0
  2  3  1  0
  2  6  4  0
  2 16  4  0
  3 22  4  0
  4  9  4  0
  4 10  1  0
  4 20  4  0
  5 16  4  0
  5 23  4  0
  6 15  4  0
  7 12  4  0
  8 13  4  0
  8 14  4  0
  9 11  4  0
 11 14  4  0
 11 19  4  0
 12 18  4  0
 13 21  4  0
 15 23  4  0
 17 19  4  0
 17 20  4  0
 18 22  4  0
 19 21  4  0
M  END
$$$$

 Created by Python create_sdf_string function

 23 25  0  0  0  0  0  0  0  0999 V2000
    2.4610   -5.3070   29.1240 C   0  0  0  0  0  0  0  0  0  0  0  0
    4.7710   -4.6952   28.4803 C   0  0  0  0  0  0  0  0  0  0  0  0
    3.4047   -5.1087   28.1314 C   0  0  0  0  0  0  0  0  0  0  0  0
   -0.2234  -11.8615   16.8874 C   0  0  0  0  0  0  0  0  0  0  0  0
    6.4491   -4.1532   30.1213 C   0  0  0  0  0  0  0  0  0  0  0  0
    5.7060   -4.4340   27.4975 C   0  0  0  0  0  0  0  0  0  0  0  0
    1.1818   -5.6612   28.8399 C   0  0  0  0  0  0  0  0  0  0  0  0
   -1.2067   -7.3287   17.7772 C   0  0  0  0  0  0  0  0  0  0  0  0
   -0.0206  -10.5585   16.6210 C   0  0  0  0  0  0  0  0  0  0  0  0
    0.3696  -12.7626   16.2169 O   0  0  0  0  0  0  0  0  0  0  0  0
   -0.6895   -9.5676   17.3297 C   0  0  0  0  0  0  0  0  0  0  0  0
    0.8388   -5.8417   27.5264 C   0  0  0  0  0  0  0  0  0  0  0  0
   -2.0709   -7.6637   18.7817 C   0  0  0  0  0  0  0  0  0  0  0  0
   -0.5279   -8.2168   17.0717 C   0  0  0  0  0  0  0  0  0  0  0  0
    6.9694   -4.0191   27.8190 C   0  0  0  0  0  0  0  0  0  0  0  0
    5.1733   -4.5469   29.8123 C   0  0  0  0  0  0  0  0  0  0  0  0
   -1.7508  -11.3016   18.6072 C   0  0  0  0  0  0  0  0  0  0  0  0
    1.7497   -5.6771   26.4971 C   0  0  0  0  0  0  0  0  0  0  0  0
   -1.5799   -9.9322   18.3468 C   0  0  0  0  0  0  0  0  0  0  0  0
   -1.0871  -12.2214   17.8851 C   0  0  0  0  0  0  0  0  0  0  0  0
   -2.2706   -8.9669   19.0691 C   0  0  0  0  0  0  0  0  0  0  0  0
    3.0279   -5.3073   26.8197 C   0  0  0  0  0  0  0  0  0  0  0  0
    7.3282   -3.8948   29.1186 C   0  0  0  0  0  0  0  0  0  0  0  0
  1  3  4  0
  1  7  4  0
  2  3  1  0
  2  6  4  0
  2 16  4  0
  3 22  4  0
  4  9  4  0
  4 10  1  0
  4 20  4  0
  5 16  4  0
  5 23  4  0
  6 15  4  0
  7 12  4  0
  8 13  4  0
  8 14  4  0
  9 11  4  0
 11 14  4  0
 11 19  4  0
 12 18  4  0
 13 21  4  0
 15 23  4  0
 17 19  4  0
 17 20  4  0
 18 22  4  0
 19 21  4  0
M  END
$$$$

 Created by Python create_sdf_string function

 23 25  0  0  0  0  0  0  0  0999 V2000
    2.4610   -5.3070   29.1240 C   0  0  0  0  0  0  0  0  0  0  0  0
    4.7710   -4.6952   28.4803 C   0  0  0  0  0  0  0  0  0  0  0  0
    3.4047   -5.1087   28.1314 C   0  0  0  0  0  0  0  0  0  0  0  0
   -0.2234  -11.8615   16.8874 C   0  0  0  0  0  0  0  0  0  0  0  0
    6.4491   -4.1532   30.1213 C   0  0  0  0  0  0  0  0  0  0  0  0
    5.7060   -4.4340   27.4975 C   0  0  0  0  0  0  0  0  0  0  0  0
    1.1818   -5.6612   28.8399 C   0  0  0  0  0  0  0  0  0  0  0  0
   -1.2067   -7.3287   17.7772 C   0  0  0  0  0  0  0  0  0  0  0  0
   -0.0206  -10.5585   16.6210 C   0  0  0  0  0  0  0  0  0  0  0  0
    0.3696  -12.7626   16.2169 O   0  0  0  0  0  0  0  0  0  0  0  0
   -0.6895   -9.5676   17.3297 C   0  0  0  0  0  0  0  0  0  0  0  0
    0.8388   -5.8417   27.5264 C   0  0  0  0  0  0  0  0  0  0  0  0
   -2.0709   -7.6637   18.7817 C   0  0  0  0  0  0  0  0  0  0  0  0
   -0.5279   -8.2168   17.0717 C   0  0  0  0  0  0  0  0  0  0  0  0
    6.9694   -4.0191   27.8190 C   0  0  0  0  0  0  0  0  0  0  0  0
    5.1733   -4.5469   29.8123 C   0  0  0  0  0  0  0  0  0  0  0  0
   -1.7508  -11.3016   18.6072 C   0  0  0  0  0  0  0  0  0  0  0  0
    1.7497   -5.6771   26.4971 C   0  0  0  0  0  0  0  0  0  0  0  0
   -1.5799   -9.9322   18.3468 C   0  0  0  0  0  0  0  0  0  0  0  0
   -1.0871  -12.2214   17.8851 C   0  0  0  0  0  0  0  0  0  0  0  0
   -2.2706   -8.9669   19.0691 C   0  0  0  0  0  0  0  0  0  0  0  0
    3.0279   -5.3073   26.8197 C   0  0  0  0  0  0  0  0  0  0  0  0
    7.3282   -3.8948   29.1186 C   0  0  0  0  0  0  0  0  0  0  0  0
  1  3  4  0
  1  7  4  0
  2  3  1  0
  2  6  4  0
  2 16  4  0
  3 22  4  0
  4  9  4  0
  4 10  1  0
  4 20  4  0
  5 16  4  0
  5 23  4  0
  6 15  4  0
  7 12  4  0
  8 13  4  0
  8 14  4  0
  9 11  4  0
 11 14  4  0
 11 19  4  0
 12 18  4  0
 13 21  4  0
 15 23  4  0
 17 19  4  0
 17 20  4  0
 18 22  4  0
 19 21  4  0
M  END
$$$$

 Created by Python create_sdf_string function

 23 25  0  0  0  0  0  0  0  0999 V2000
    2.4610   -5.3070   29.1240 C   0  0  0  0  0  0  0  0  0  0  0  0
    4.7710   -4.6952   28.4803 C   0  0  0  0  0  0  0  0  0  0  0  0
    3.4047   -5.1087   28.1314 C   0  0  0  0  0  0  0  0  0  0  0  0
   -0.2234  -11.8615   16.8874 C   0  0  0  0  0  0  0  0  0  0  0  0
    6.4491   -4.1532   30.1213 C   0  0  0  0  0  0  0  0  0  0  0  0
    5.7060   -4.4340   27.4975 C   0  0  0  0  0  0  0  0  0  0  0  0
    1.1818   -5.6612   28.8399 C   0  0  0  0  0  0  0  0  0  0  0  0
   -1.2067   -7.3287   17.7772 C   0  0  0  0  0  0  0  0  0  0  0  0
   -0.0206  -10.5585   16.6210 C   0  0  0  0  0  0  0  0  0  0  0  0
    0.3696  -12.7626   16.2169 O   0  0  0  0  0  0  0  0  0  0  0  0
   -0.6895   -9.5676   17.3297 C   0  0  0  0  0  0  0  0  0  0  0  0
    0.8388   -5.8417   27.5264 C   0  0  0  0  0  0  0  0  0  0  0  0
   -2.0709   -7.6637   18.7817 C   0  0  0  0  0  0  0  0  0  0  0  0
   -0.5279   -8.2168   17.0717 C   0  0  0  0  0  0  0  0  0  0  0  0
    6.9694   -4.0191   27.8190 C   0  0  0  0  0  0  0  0  0  0  0  0
    5.1733   -4.5469   29.8123 C   0  0  0  0  0  0  0  0  0  0  0  0
   -1.7508  -11.3016   18.6072 C   0  0  0  0  0  0  0  0  0  0  0  0
    1.7497   -5.6771   26.4971 C   0  0  0  0  0  0  0  0  0  0  0  0
   -1.5799   -9.9322   18.3468 C   0  0  0  0  0  0  0  0  0  0  0  0
   -1.0871  -12.2214   17.8851 C   0  0  0  0  0  0  0  0  0  0  0  0
   -2.2706   -8.9669   19.0691 C   0  0  0  0  0  0  0  0  0  0  0  0
    3.0279   -5.3073   26.8197 C   0  0  0  0  0  0  0  0  0  0  0  0
    7.3282   -3.8948   29.1186 C   0  0  0  0  0  0  0  0  0  0  0  0
  1  3  4  0
  1  7  4  0
  2  3  1  0
  2  6  4  0
  2 16  4  0
  3 22  4  0
  4  9  4  0
  4 10  1  0
  4 20  4  0
  5 16  4  0
  5 23  4  0
  6 15  4  0
  7 12  4  0
  8 13  4  0
  8 14  4  0
  9 11  4  0
 11 14  4  0
 11 19  4  0
 12 18  4  0
 13 21  4  0
 15 23  4  0
 17 19  4  0
 17 20  4  0
 18 22  4  0
 19 21  4  0
M  END
$$$$

 Created by Python create_sdf_string function

 23 25  0  0  0  0  0  0  0  0999 V2000
    2.4610   -5.3070   29.1240 C   0  0  0  0  0  0  0  0  0  0  0  0
    4.7710   -4.6952   28.4803 C   0  0  0  0  0  0  0  0  0  0  0  0
    3.4047   -5.1087   28.1314 C   0  0  0  0  0  0  0  0  0  0  0  0
   -0.2234  -11.8615   16.8874 C   0  0  0  0  0  0  0  0  0  0  0  0
    6.4491   -4.1532   30.1213 C   0  0  0  0  0  0  0  0  0  0  0  0
    5.7060   -4.4340   27.4975 C   0  0  0  0  0  0  0  0  0  0  0  0
    1.1818   -5.6612   28.8399 C   0  0  0  0  0  0  0  0  0  0  0  0
   -1.2067   -7.3287   17.7772 C   0  0  0  0  0  0  0  0  0  0  0  0
   -0.0206  -10.5585   16.6210 C   0  0  0  0  0  0  0  0  0  0  0  0
    0.3696  -12.7626   16.2169 O   0  0  0  0  0  0  0  0  0  0  0  0
   -0.6895   -9.5676   17.3297 C   0  0  0  0  0  0  0  0  0  0  0  0
    0.8388   -5.8417   27.5264 C   0  0  0  0  0  0  0  0  0  0  0  0
   -2.0709   -7.6637   18.7817 C   0  0  0  0  0  0  0  0  0  0  0  0
   -0.5279   -8.2168   17.0717 C   0  0  0  0  0  0  0  0  0  0  0  0
    6.9694   -4.0191   27.8190 C   0  0  0  0  0  0  0  0  0  0  0  0
    5.1733   -4.5469   29.8123 C   0  0  0  0  0  0  0  0  0  0  0  0
   -1.7508  -11.3016   18.6072 C   0  0  0  0  0  0  0  0  0  0  0  0
    1.7497   -5.6771   26.4971 C   0  0  0  0  0  0  0  0  0  0  0  0
   -1.5799   -9.9322   18.3468 C   0  0  0  0  0  0  0  0  0  0  0  0
   -1.0871  -12.2214   17.8851 C   0  0  0  0  0  0  0  0  0  0  0  0
   -2.2706   -8.9669   19.0691 C   0  0  0  0  0  0  0  0  0  0  0  0
    3.0279   -5.3073   26.8197 C   0  0  0  0  0  0  0  0  0  0  0  0
    7.3282   -3.8948   29.1186 C   0  0  0  0  0  0  0  0  0  0  0  0
  1  3  4  0
  1  7  4  0
  2  3  1  0
  2  6  4  0
  2 16  4  0
  3 22  4  0
  4  9  4  0
  4 10  1  0
  4 20  4  0
  5 16  4  0
  5 23  4  0
  6 15  4  0
  7 12  4  0
  8 13  4  0
  8 14  4  0
  9 11  4  0
 11 14  4  0
 11 19  4  0
 12 18  4  0
 13 21  4  0
 15 23  4  0
 17 19  4  0
 17 20  4  0
 18 22  4  0
 19 21  4  0
M  END
$$$$

 Created by Python create_sdf_string function

 23 25  0  0  0  0  0  0  0  0999 V2000
    2.4610   -5.3070   29.1240 C   0  0  0  0  0  0  0  0  0  0  0  0
    4.7710   -4.6952   28.4803 C   0  0  0  0  0  0  0  0  0  0  0  0
    3.4047   -5.1087   28.1314 C   0  0  0  0  0  0  0  0  0  0  0  0
   -0.2234  -11.8615   16.8874 C   0  0  0  0  0  0  0  0  0  0  0  0
    6.4491   -4.1532   30.1213 C   0  0  0  0  0  0  0  0  0  0  0  0
    5.7060   -4.4340   27.4975 C   0  0  0  0  0  0  0  0  0  0  0  0
    1.1818   -5.6612   28.8399 C   0  0  0  0  0  0  0  0  0  0  0  0
   -1.2067   -7.3287   17.7772 C   0  0  0  0  0  0  0  0  0  0  0  0
   -0.0206  -10.5585   16.6210 C   0  0  0  0  0  0  0  0  0  0  0  0
    0.3696  -12.7626   16.2169 O   0  0  0  0  0  0  0  0  0  0  0  0
   -0.6895   -9.5676   17.3297 C   0  0  0  0  0  0  0  0  0  0  0  0
    0.8388   -5.8417   27.5264 C   0  0  0  0  0  0  0  0  0  0  0  0
   -2.0709   -7.6637   18.7817 C   0  0  0  0  0  0  0  0  0  0  0  0
   -0.5279   -8.2168   17.0717 C   0  0  0  0  0  0  0  0  0  0  0  0
    6.9694   -4.0191   27.8190 C   0  0  0  0  0  0  0  0  0  0  0  0
    5.1733   -4.5469   29.8123 C   0  0  0  0  0  0  0  0  0  0  0  0
   -1.7508  -11.3016   18.6072 C   0  0  0  0  0  0  0  0  0  0  0  0
    1.7497   -5.6771   26.4971 C   0  0  0  0  0  0  0  0  0  0  0  0
   -1.5799   -9.9322   18.3468 C   0  0  0  0  0  0  0  0  0  0  0  0
   -1.0871  -12.2214   17.8851 C   0  0  0  0  0  0  0  0  0  0  0  0
   -2.2706   -8.9669   19.0691 C   0  0  0  0  0  0  0  0  0  0  0  0
    3.0279   -5.3073   26.8197 C   0  0  0  0  0  0  0  0  0  0  0  0
    7.3282   -3.8948   29.1186 C   0  0  0  0  0  0  0  0  0  0  0  0
  1  3  4  0
  1  7  4  0
  2  3  1  0
  2  6  4  0
  2 16  4  0
  3 22  4  0
  4  9  4  0
  4 10  1  0
  4 20  4  0
  5 16  4  0
  5 23  4  0
  6 15  4  0
  7 12  4  0
  8 13  4  0
  8 14  4  0
  9 11  4  0
 11 14  4  0
 11 19  4  0
 12 18  4  0
 13 21  4  0
 15 23  4  0
 17 19  4  0
 17 20  4  0
 18 22  4  0
 19 21  4  0
M  END
$$$$

 Created by Python create_sdf_string function

 23 25  0  0  0  0  0  0  0  0999 V2000
    2.4610   -5.3070   29.1240 C   0  0  0  0  0  0  0  0  0  0  0  0
    4.7710   -4.6952   28.4803 C   0  0  0  0  0  0  0  0  0  0  0  0
    3.4047   -5.1087   28.1314 C   0  0  0  0  0  0  0  0  0  0  0  0
   -0.2234  -11.8615   16.8874 C   0  0  0  0  0  0  0  0  0  0  0  0
    6.4491   -4.1532   30.1213 C   0  0  0  0  0  0  0  0  0  0  0  0
    5.7060   -4.4340   27.4975 C   0  0  0  0  0  0  0  0  0  0  0  0
    1.1818   -5.6612   28.8399 C   0  0  0  0  0  0  0  0  0  0  0  0
   -1.2067   -7.3287   17.7772 C   0  0  0  0  0  0  0  0  0  0  0  0
   -0.0206  -10.5585   16.6210 C   0  0  0  0  0  0  0  0  0  0  0  0
    0.3696  -12.7626   16.2169 O   0  0  0  0  0  0  0  0  0  0  0  0
   -0.6895   -9.5676   17.3297 C   0  0  0  0  0  0  0  0  0  0  0  0
    0.8388   -5.8417   27.5264 C   0  0  0  0  0  0  0  0  0  0  0  0
   -2.0709   -7.6637   18.7817 C   0  0  0  0  0  0  0  0  0  0  0  0
   -0.5279   -8.2168   17.0717 C   0  0  0  0  0  0  0  0  0  0  0  0
    6.9694   -4.0191   27.8190 C   0  0  0  0  0  0  0  0  0  0  0  0
    5.1733   -4.5469   29.8123 C   0  0  0  0  0  0  0  0  0  0  0  0
   -1.7508  -11.3016   18.6072 C   0  0  0  0  0  0  0  0  0  0  0  0
    1.7497   -5.6771   26.4971 C   0  0  0  0  0  0  0  0  0  0  0  0
   -1.5799   -9.9322   18.3468 C   0  0  0  0  0  0  0  0  0  0  0  0
   -1.0871  -12.2214   17.8851 C   0  0  0  0  0  0  0  0  0  0  0  0
   -2.2706   -8.9669   19.0691 C   0  0  0  0  0  0  0  0  0  0  0  0
    3.0279   -5.3073   26.8197 C   0  0  0  0  0  0  0  0  0  0  0  0
    7.3282   -3.8948   29.1186 C   0  0  0  0  0  0  0  0  0  0  0  0
  1  3  4  0
  1  7  4  0
  2  3  1  0
  2  6  4  0
  2 16  4  0
  3 22  4  0
  4  9  4  0
  4 10  1  0
  4 20  4  0
  5 16  4  0
  5 23  4  0
  6 15  4  0
  7 12  4  0
  8 13  4  0
  8 14  4  0
  9 11  4  0
 11 14  4  0
 11 19  4  0
 12 18  4  0
 13 21  4  0
 15 23  4  0
 17 19  4  0
 17 20  4  0
 18 22  4  0
 19 21  4  0
M  END
$$$$

 Created by Python create_sdf_string function

 23 25  0  0  0  0  0  0  0  0999 V2000
    2.4610   -5.3070   29.1240 C   0  0  0  0  0  0  0  0  0  0  0  0
    4.7710   -4.6952   28.4803 C   0  0  0  0  0  0  0  0  0  0  0  0
    3.4047   -5.1087   28.1314 C   0  0  0  0  0  0  0  0  0  0  0  0
   -0.2234  -11.8615   16.8874 C   0  0  0  0  0  0  0  0  0  0  0  0
    6.4491   -4.1532   30.1213 C   0  0  0  0  0  0  0  0  0  0  0  0
    5.7060   -4.4340   27.4975 C   0  0  0  0  0  0  0  0  0  0  0  0
    1.1818   -5.6612   28.8399 C   0  0  0  0  0  0  0  0  0  0  0  0
   -1.2067   -7.3287   17.7772 C   0  0  0  0  0  0  0  0  0  0  0  0
   -0.0206  -10.5585   16.6210 C   0  0  0  0  0  0  0  0  0  0  0  0
    0.3696  -12.7626   16.2169 O   0  0  0  0  0  0  0  0  0  0  0  0
   -0.6895   -9.5676   17.3297 C   0  0  0  0  0  0  0  0  0  0  0  0
    0.8388   -5.8417   27.5264 C   0  0  0  0  0  0  0  0  0  0  0  0
   -2.0709   -7.6637   18.7817 C   0  0  0  0  0  0  0  0  0  0  0  0
   -0.5279   -8.2168   17.0717 C   0  0  0  0  0  0  0  0  0  0  0  0
    6.9694   -4.0191   27.8190 C   0  0  0  0  0  0  0  0  0  0  0  0
    5.1733   -4.5469   29.8123 C   0  0  0  0  0  0  0  0  0  0  0  0
   -1.7508  -11.3016   18.6072 C   0  0  0  0  0  0  0  0  0  0  0  0
    1.7497   -5.6771   26.4971 C   0  0  0  0  0  0  0  0  0  0  0  0
   -1.5799   -9.9322   18.3468 C   0  0  0  0  0  0  0  0  0  0  0  0
   -1.0871  -12.2214   17.8851 C   0  0  0  0  0  0  0  0  0  0  0  0
   -2.2706   -8.9669   19.0691 C   0  0  0  0  0  0  0  0  0  0  0  0
    3.0279   -5.3073   26.8197 C   0  0  0  0  0  0  0  0  0  0  0  0
    7.3282   -3.8948   29.1186 C   0  0  0  0  0  0  0  0  0  0  0  0
  1  3  4  0
  1  7  4  0
  2  3  1  0
  2  6  4  0
  2 16  4  0
  3 22  4  0
  4  9  4  0
  4 10  1  0
  4 20  4  0
  5 16  4  0
  5 23  4  0
  6 15  4  0
  7 12  4  0
  8 13  4  0
  8 14  4  0
  9 11  4  0
 11 14  4  0
 11 19  4  0
 12 18  4  0
 13 21  4  0
 15 23  4  0
 17 19  4  0
 17 20  4  0
 18 22  4  0
 19 21  4  0
M  END
$$$$

 Created by Python create_sdf_string function

 23 25  0  0  0  0  0  0  0  0999 V2000
    2.4610   -5.3070   29.1240 C   0  0  0  0  0  0  0  0  0  0  0  0
    4.7710   -4.6952   28.4803 C   0  0  0  0  0  0  0  0  0  0  0  0
    3.4047   -5.1087   28.1314 C   0  0  0  0  0  0  0  0  0  0  0  0
   -0.2234  -11.8615   16.8874 C   0  0  0  0  0  0  0  0  0  0  0  0
    6.4491   -4.1532   30.1213 C   0  0  0  0  0  0  0  0  0  0  0  0
    5.7060   -4.4340   27.4975 C   0  0  0  0  0  0  0  0  0  0  0  0
    1.1818   -5.6612   28.8399 C   0  0  0  0  0  0  0  0  0  0  0  0
   -1.2067   -7.3287   17.7772 C   0  0  0  0  0  0  0  0  0  0  0  0
   -0.0206  -10.5585   16.6210 C   0  0  0  0  0  0  0  0  0  0  0  0
    0.3696  -12.7626   16.2169 O   0  0  0  0  0  0  0  0  0  0  0  0
   -0.6895   -9.5676   17.3297 C   0  0  0  0  0  0  0  0  0  0  0  0
    0.8388   -5.8417   27.5264 C   0  0  0  0  0  0  0  0  0  0  0  0
   -2.0709   -7.6637   18.7817 C   0  0  0  0  0  0  0  0  0  0  0  0
   -0.5279   -8.2168   17.0717 C   0  0  0  0  0  0  0  0  0  0  0  0
    6.9694   -4.0191   27.8190 C   0  0  0  0  0  0  0  0  0  0  0  0
    5.1733   -4.5469   29.8123 C   0  0  0  0  0  0  0  0  0  0  0  0
   -1.7508  -11.3016   18.6072 C   0  0  0  0  0  0  0  0  0  0  0  0
    1.7497   -5.6771   26.4971 C   0  0  0  0  0  0  0  0  0  0  0  0
   -1.5799   -9.9322   18.3468 C   0  0  0  0  0  0  0  0  0  0  0  0
   -1.0871  -12.2214   17.8851 C   0  0  0  0  0  0  0  0  0  0  0  0
   -2.2706   -8.9669   19.0691 C   0  0  0  0  0  0  0  0  0  0  0  0
    3.0279   -5.3073   26.8197 C   0  0  0  0  0  0  0  0  0  0  0  0
    7.3282   -3.8948   29.1186 C   0  0  0  0  0  0  0  0  0  0  0  0
  1  3  4  0
  1  7  4  0
  2  3  1  0
  2  6  4  0
  2 16  4  0
  3 22  4  0
  4  9  4  0
  4 10  1  0
  4 20  4  0
  5 16  4  0
  5 23  4  0
  6 15  4  0
  7 12  4  0
  8 13  4  0
  8 14  4  0
  9 11  4  0
 11 14  4  0
 11 19  4  0
 12 18  4  0
 13 21  4  0
 15 23  4  0
 17 19  4  0
 17 20  4  0
 18 22  4  0
 19 21  4  0
M  END
$$$$

 Created by Python create_sdf_string function

 23 25  0  0  0  0  0  0  0  0999 V2000
    2.4610   -5.3070   29.1240 C   0  0  0  0  0  0  0  0  0  0  0  0
    4.7710   -4.6952   28.4803 C   0  0  0  0  0  0  0  0  0  0  0  0
    3.4047   -5.1087   28.1314 C   0  0  0  0  0  0  0  0  0  0  0  0
   -0.2234  -11.8615   16.8874 C   0  0  0  0  0  0  0  0  0  0  0  0
    6.4491   -4.1532   30.1213 C   0  0  0  0  0  0  0  0  0  0  0  0
    5.7060   -4.4340   27.4975 C   0  0  0  0  0  0  0  0  0  0  0  0
    1.1818   -5.6612   28.8399 C   0  0  0  0  0  0  0  0  0  0  0  0
   -1.2067   -7.3287   17.7772 C   0  0  0  0  0  0  0  0  0  0  0  0
   -0.0206  -10.5585   16.6210 C   0  0  0  0  0  0  0  0  0  0  0  0
    0.3696  -12.7626   16.2169 O   0  0  0  0  0  0  0  0  0  0  0  0
   -0.6895   -9.5676   17.3297 C   0  0  0  0  0  0  0  0  0  0  0  0
    0.8388   -5.8417   27.5264 C   0  0  0  0  0  0  0  0  0  0  0  0
   -2.0709   -7.6637   18.7817 C   0  0  0  0  0  0  0  0  0  0  0  0
   -0.5279   -8.2168   17.0717 C   0  0  0  0  0  0  0  0  0  0  0  0
    6.9694   -4.0191   27.8190 C   0  0  0  0  0  0  0  0  0  0  0  0
    5.1733   -4.5469   29.8123 C   0  0  0  0  0  0  0  0  0  0  0  0
   -1.7508  -11.3016   18.6072 C   0  0  0  0  0  0  0  0  0  0  0  0
    1.7497   -5.6771   26.4971 C   0  0  0  0  0  0  0  0  0  0  0  0
   -1.5799   -9.9322   18.3468 C   0  0  0  0  0  0  0  0  0  0  0  0
   -1.0871  -12.2214   17.8851 C   0  0  0  0  0  0  0  0  0  0  0  0
   -2.2706   -8.9669   19.0691 C   0  0  0  0  0  0  0  0  0  0  0  0
    3.0279   -5.3073   26.8197 C   0  0  0  0  0  0  0  0  0  0  0  0
    7.3282   -3.8948   29.1186 C   0  0  0  0  0  0  0  0  0  0  0  0
  1  3  4  0
  1  7  4  0
  2  3  1  0
  2  6  4  0
  2 16  4  0
  3 22  4  0
  4  9  4  0
  4 10  1  0
  4 20  4  0
  5 16  4  0
  5 23  4  0
  6 15  4  0
  7 12  4  0
  8 13  4  0
  8 14  4  0
  9 11  4  0
 11 14  4  0
 11 19  4  0
 12 18  4  0
 13 21  4  0
 15 23  4  0
 17 19  4  0
 17 20  4  0
 18 22  4  0
 19 21  4  0
M  END
$$$$

 Created by Python create_sdf_string function

 23 25  0  0  0  0  0  0  0  0999 V2000
    2.4610   -5.3070   29.1240 C   0  0  0  0  0  0  0  0  0  0  0  0
    4.7710   -4.6952   28.4803 C   0  0  0  0  0  0  0  0  0  0  0  0
    3.4047   -5.1087   28.1314 C   0  0  0  0  0  0  0  0  0  0  0  0
   -0.2234  -11.8615   16.8874 C   0  0  0  0  0  0  0  0  0  0  0  0
    6.4491   -4.1532   30.1213 C   0  0  0  0  0  0  0  0  0  0  0  0
    5.7060   -4.4340   27.4975 C   0  0  0  0  0  0  0  0  0  0  0  0
    1.1818   -5.6612   28.8399 C   0  0  0  0  0  0  0  0  0  0  0  0
   -1.2067   -7.3287   17.7772 C   0  0  0  0  0  0  0  0  0  0  0  0
   -0.0206  -10.5585   16.6210 C   0  0  0  0  0  0  0  0  0  0  0  0
    0.3696  -12.7626   16.2169 O   0  0  0  0  0  0  0  0  0  0  0  0
   -0.6895   -9.5676   17.3297 C   0  0  0  0  0  0  0  0  0  0  0  0
    0.8388   -5.8417   27.5264 C   0  0  0  0  0  0  0  0  0  0  0  0
   -2.0709   -7.6637   18.7817 C   0  0  0  0  0  0  0  0  0  0  0  0
   -0.5279   -8.2168   17.0717 C   0  0  0  0  0  0  0  0  0  0  0  0
    6.9694   -4.0191   27.8190 C   0  0  0  0  0  0  0  0  0  0  0  0
    5.1733   -4.5469   29.8123 C   0  0  0  0  0  0  0  0  0  0  0  0
   -1.7508  -11.3016   18.6072 C   0  0  0  0  0  0  0  0  0  0  0  0
    1.7497   -5.6771   26.4971 C   0  0  0  0  0  0  0  0  0  0  0  0
   -1.5799   -9.9322   18.3468 C   0  0  0  0  0  0  0  0  0  0  0  0
   -1.0871  -12.2214   17.8851 C   0  0  0  0  0  0  0  0  0  0  0  0
   -2.2706   -8.9669   19.0691 C   0  0  0  0  0  0  0  0  0  0  0  0
    3.0279   -5.3073   26.8197 C   0  0  0  0  0  0  0  0  0  0  0  0
    7.3282   -3.8948   29.1186 C   0  0  0  0  0  0  0  0  0  0  0  0
  1  3  4  0
  1  7  4  0
  2  3  1  0
  2  6  4  0
  2 16  4  0
  3 22  4  0
  4  9  4  0
  4 10  1  0
  4 20  4  0
  5 16  4  0
  5 23  4  0
  6 15  4  0
  7 12  4  0
  8 13  4  0
  8 14  4  0
  9 11  4  0
 11 14  4  0
 11 19  4  0
 12 18  4  0
 13 21  4  0
 15 23  4  0
 17 19  4  0
 17 20  4  0
 18 22  4  0
 19 21  4  0
M  END
$$$$

 Created by Python create_sdf_string function

 23 25  0  0  0  0  0  0  0  0999 V2000
    2.4610   -5.3070   29.1240 C   0  0  0  0  0  0  0  0  0  0  0  0
    4.7710   -4.6952   28.4803 C   0  0  0  0  0  0  0  0  0  0  0  0
    3.4047   -5.1087   28.1314 C   0  0  0  0  0  0  0  0  0  0  0  0
   -0.2234  -11.8615   16.8874 C   0  0  0  0  0  0  0  0  0  0  0  0
    6.4491   -4.1532   30.1213 C   0  0  0  0  0  0  0  0  0  0  0  0
    5.7060   -4.4340   27.4975 C   0  0  0  0  0  0  0  0  0  0  0  0
    1.1818   -5.6612   28.8399 C   0  0  0  0  0  0  0  0  0  0  0  0
   -1.2067   -7.3287   17.7772 C   0  0  0  0  0  0  0  0  0  0  0  0
   -0.0206  -10.5585   16.6210 C   0  0  0  0  0  0  0  0  0  0  0  0
    0.3696  -12.7626   16.2169 O   0  0  0  0  0  0  0  0  0  0  0  0
   -0.6895   -9.5676   17.3297 C   0  0  0  0  0  0  0  0  0  0  0  0
    0.8388   -5.8417   27.5264 C   0  0  0  0  0  0  0  0  0  0  0  0
   -2.0709   -7.6637   18.7817 C   0  0  0  0  0  0  0  0  0  0  0  0
   -0.5279   -8.2168   17.0717 C   0  0  0  0  0  0  0  0  0  0  0  0
    6.9694   -4.0191   27.8190 C   0  0  0  0  0  0  0  0  0  0  0  0
    5.1733   -4.5469   29.8123 C   0  0  0  0  0  0  0  0  0  0  0  0
   -1.7508  -11.3016   18.6072 C   0  0  0  0  0  0  0  0  0  0  0  0
    1.7497   -5.6771   26.4971 C   0  0  0  0  0  0  0  0  0  0  0  0
   -1.5799   -9.9322   18.3468 C   0  0  0  0  0  0  0  0  0  0  0  0
   -1.0871  -12.2214   17.8851 C   0  0  0  0  0  0  0  0  0  0  0  0
   -2.2706   -8.9669   19.0691 C   0  0  0  0  0  0  0  0  0  0  0  0
    3.0279   -5.3073   26.8197 C   0  0  0  0  0  0  0  0  0  0  0  0
    7.3282   -3.8948   29.1186 C   0  0  0  0  0  0  0  0  0  0  0  0
  1  3  4  0
  1  7  4  0
  2  3  1  0
  2  6  4  0
  2 16  4  0
  3 22  4  0
  4  9  4  0
  4 10  1  0
  4 20  4  0
  5 16  4  0
  5 23  4  0
  6 15  4  0
  7 12  4  0
  8 13  4  0
  8 14  4  0
  9 11  4  0
 11 14  4  0
 11 19  4  0
 12 18  4  0
 13 21  4  0
 15 23  4  0
 17 19  4  0
 17 20  4  0
 18 22  4  0
 19 21  4  0
M  END
$$$$

 Created by Python create_sdf_string function

 23 25  0  0  0  0  0  0  0  0999 V2000
    2.4610   -5.3070   29.1240 C   0  0  0  0  0  0  0  0  0  0  0  0
    4.7710   -4.6952   28.4803 C   0  0  0  0  0  0  0  0  0  0  0  0
    3.4047   -5.1087   28.1314 C   0  0  0  0  0  0  0  0  0  0  0  0
   -0.2234  -11.8615   16.8874 C   0  0  0  0  0  0  0  0  0  0  0  0
    6.4491   -4.1532   30.1213 C   0  0  0  0  0  0  0  0  0  0  0  0
    5.7060   -4.4340   27.4975 C   0  0  0  0  0  0  0  0  0  0  0  0
    1.1818   -5.6612   28.8399 C   0  0  0  0  0  0  0  0  0  0  0  0
   -1.2067   -7.3287   17.7772 C   0  0  0  0  0  0  0  0  0  0  0  0
   -0.0206  -10.5585   16.6210 C   0  0  0  0  0  0  0  0  0  0  0  0
    0.3696  -12.7626   16.2169 O   0  0  0  0  0  0  0  0  0  0  0  0
   -0.6895   -9.5676   17.3297 C   0  0  0  0  0  0  0  0  0  0  0  0
    0.8388   -5.8417   27.5264 C   0  0  0  0  0  0  0  0  0  0  0  0
   -2.0709   -7.6637   18.7817 C   0  0  0  0  0  0  0  0  0  0  0  0
   -0.5279   -8.2168   17.0717 C   0  0  0  0  0  0  0  0  0  0  0  0
    6.9694   -4.0191   27.8190 C   0  0  0  0  0  0  0  0  0  0  0  0
    5.1733   -4.5469   29.8123 C   0  0  0  0  0  0  0  0  0  0  0  0
   -1.7508  -11.3016   18.6072 C   0  0  0  0  0  0  0  0  0  0  0  0
    1.7497   -5.6771   26.4971 C   0  0  0  0  0  0  0  0  0  0  0  0
   -1.5799   -9.9322   18.3468 C   0  0  0  0  0  0  0  0  0  0  0  0
   -1.0871  -12.2214   17.8851 C   0  0  0  0  0  0  0  0  0  0  0  0
   -2.2706   -8.9669   19.0691 C   0  0  0  0  0  0  0  0  0  0  0  0
    3.0279   -5.3073   26.8197 C   0  0  0  0  0  0  0  0  0  0  0  0
    7.3282   -3.8948   29.1186 C   0  0  0  0  0  0  0  0  0  0  0  0
  1  3  4  0
  1  7  4  0
  2  3  1  0
  2  6  4  0
  2 16  4  0
  3 22  4  0
  4  9  4  0
  4 10  1  0
  4 20  4  0
  5 16  4  0
  5 23  4  0
  6 15  4  0
  7 12  4  0
  8 13  4  0
  8 14  4  0
  9 11  4  0
 11 14  4  0
 11 19  4  0
 12 18  4  0
 13 21  4  0
 15 23  4  0
 17 19  4  0
 17 20  4  0
 18 22  4  0
 19 21  4  0
M  END
$$$$

 Created by Python create_sdf_string function

 23 25  0  0  0  0  0  0  0  0999 V2000
    2.4610   -5.3070   29.1240 C   0  0  0  0  0  0  0  0  0  0  0  0
    4.7710   -4.6952   28.4803 C   0  0  0  0  0  0  0  0  0  0  0  0
    3.4047   -5.1087   28.1314 C   0  0  0  0  0  0  0  0  0  0  0  0
   -0.2234  -11.8615   16.8874 C   0  0  0  0  0  0  0  0  0  0  0  0
    6.4491   -4.1532   30.1213 C   0  0  0  0  0  0  0  0  0  0  0  0
    5.7060   -4.4340   27.4975 C   0  0  0  0  0  0  0  0  0  0  0  0
    1.1818   -5.6612   28.8399 C   0  0  0  0  0  0  0  0  0  0  0  0
   -1.2067   -7.3287   17.7772 C   0  0  0  0  0  0  0  0  0  0  0  0
   -0.0206  -10.5585   16.6210 C   0  0  0  0  0  0  0  0  0  0  0  0
    0.3696  -12.7626   16.2169 O   0  0  0  0  0  0  0  0  0  0  0  0
   -0.6895   -9.5676   17.3297 C   0  0  0  0  0  0  0  0  0  0  0  0
    0.8388   -5.8417   27.5264 C   0  0  0  0  0  0  0  0  0  0  0  0
   -2.0709   -7.6637   18.7817 C   0  0  0  0  0  0  0  0  0  0  0  0
   -0.5279   -8.2168   17.0717 C   0  0  0  0  0  0  0  0  0  0  0  0
    6.9694   -4.0191   27.8190 C   0  0  0  0  0  0  0  0  0  0  0  0
    5.1733   -4.5469   29.8123 C   0  0  0  0  0  0  0  0  0  0  0  0
   -1.7508  -11.3016   18.6072 C   0  0  0  0  0  0  0  0  0  0  0  0
    1.7497   -5.6771   26.4971 C   0  0  0  0  0  0  0  0  0  0  0  0
   -1.5799   -9.9322   18.3468 C   0  0  0  0  0  0  0  0  0  0  0  0
   -1.0871  -12.2214   17.8851 C   0  0  0  0  0  0  0  0  0  0  0  0
   -2.2706   -8.9669   19.0691 C   0  0  0  0  0  0  0  0  0  0  0  0
    3.0279   -5.3073   26.8197 C   0  0  0  0  0  0  0  0  0  0  0  0
    7.3282   -3.8948   29.1186 C   0  0  0  0  0  0  0  0  0  0  0  0
  1  3  4  0
  1  7  4  0
  2  3  1  0
  2  6  4  0
  2 16  4  0
  3 22  4  0
  4  9  4  0
  4 10  1  0
  4 20  4  0
  5 16  4  0
  5 23  4  0
  6 15  4  0
  7 12  4  0
  8 13  4  0
  8 14  4  0
  9 11  4  0
 11 14  4  0
 11 19  4  0
 12 18  4  0
 13 21  4  0
 15 23  4  0
 17 19  4  0
 17 20  4  0
 18 22  4  0
 19 21  4  0
M  END
$$$$

 Created by Python create_sdf_string function

 23 25  0  0  0  0  0  0  0  0999 V2000
    2.4610   -5.3070   29.1240 C   0  0  0  0  0  0  0  0  0  0  0  0
    4.7710   -4.6952   28.4803 C   0  0  0  0  0  0  0  0  0  0  0  0
    3.4047   -5.1087   28.1314 C   0  0  0  0  0  0  0  0  0  0  0  0
   -0.2234  -11.8615   16.8874 C   0  0  0  0  0  0  0  0  0  0  0  0
    6.4491   -4.1532   30.1213 C   0  0  0  0  0  0  0  0  0  0  0  0
    5.7060   -4.4340   27.4975 C   0  0  0  0  0  0  0  0  0  0  0  0
    1.1818   -5.6612   28.8399 C   0  0  0  0  0  0  0  0  0  0  0  0
   -1.2067   -7.3287   17.7772 C   0  0  0  0  0  0  0  0  0  0  0  0
   -0.0206  -10.5585   16.6210 C   0  0  0  0  0  0  0  0  0  0  0  0
    0.3696  -12.7626   16.2169 O   0  0  0  0  0  0  0  0  0  0  0  0
   -0.6895   -9.5676   17.3297 C   0  0  0  0  0  0  0  0  0  0  0  0
    0.8388   -5.8417   27.5264 C   0  0  0  0  0  0  0  0  0  0  0  0
   -2.0709   -7.6637   18.7817 C   0  0  0  0  0  0  0  0  0  0  0  0
   -0.5279   -8.2168   17.0717 C   0  0  0  0  0  0  0  0  0  0  0  0
    6.9694   -4.0191   27.8190 C   0  0  0  0  0  0  0  0  0  0  0  0
    5.1733   -4.5469   29.8123 C   0  0  0  0  0  0  0  0  0  0  0  0
   -1.7508  -11.3016   18.6072 C   0  0  0  0  0  0  0  0  0  0  0  0
    1.7497   -5.6771   26.4971 C   0  0  0  0  0  0  0  0  0  0  0  0
   -1.5799   -9.9322   18.3468 C   0  0  0  0  0  0  0  0  0  0  0  0
   -1.0871  -12.2214   17.8851 C   0  0  0  0  0  0  0  0  0  0  0  0
   -2.2706   -8.9669   19.0691 C   0  0  0  0  0  0  0  0  0  0  0  0
    3.0279   -5.3073   26.8197 C   0  0  0  0  0  0  0  0  0  0  0  0
    7.3282   -3.8948   29.1186 C   0  0  0  0  0  0  0  0  0  0  0  0
  1  3  4  0
  1  7  4  0
  2  3  1  0
  2  6  4  0
  2 16  4  0
  3 22  4  0
  4  9  4  0
  4 10  1  0
  4 20  4  0
  5 16  4  0
  5 23  4  0
  6 15  4  0
  7 12  4  0
  8 13  4  0
  8 14  4  0
  9 11  4  0
 11 14  4  0
 11 19  4  0
 12 18  4  0
 13 21  4  0
 15 23  4  0
 17 19  4  0
 17 20  4  0
 18 22  4  0
 19 21  4  0
M  END
$$$$

 Created by Python create_sdf_string function

 23 25  0  0  0  0  0  0  0  0999 V2000
    2.4610   -5.3070   29.1240 C   0  0  0  0  0  0  0  0  0  0  0  0
    4.7710   -4.6952   28.4803 C   0  0  0  0  0  0  0  0  0  0  0  0
    3.4047   -5.1087   28.1314 C   0  0  0  0  0  0  0  0  0  0  0  0
   -0.2234  -11.8615   16.8874 C   0  0  0  0  0  0  0  0  0  0  0  0
    6.4491   -4.1532   30.1213 C   0  0  0  0  0  0  0  0  0  0  0  0
    5.7060   -4.4340   27.4975 C   0  0  0  0  0  0  0  0  0  0  0  0
    1.1818   -5.6612   28.8399 C   0  0  0  0  0  0  0  0  0  0  0  0
   -1.2067   -7.3287   17.7772 C   0  0  0  0  0  0  0  0  0  0  0  0
   -0.0206  -10.5585   16.6210 C   0  0  0  0  0  0  0  0  0  0  0  0
    0.3696  -12.7626   16.2169 O   0  0  0  0  0  0  0  0  0  0  0  0
   -0.6895   -9.5676   17.3297 C   0  0  0  0  0  0  0  0  0  0  0  0
    0.8388   -5.8417   27.5264 C   0  0  0  0  0  0  0  0  0  0  0  0
   -2.0709   -7.6637   18.7817 C   0  0  0  0  0  0  0  0  0  0  0  0
   -0.5279   -8.2168   17.0717 C   0  0  0  0  0  0  0  0  0  0  0  0
    6.9694   -4.0191   27.8190 C   0  0  0  0  0  0  0  0  0  0  0  0
    5.1733   -4.5469   29.8123 C   0  0  0  0  0  0  0  0  0  0  0  0
   -1.7508  -11.3016   18.6072 C   0  0  0  0  0  0  0  0  0  0  0  0
    1.7497   -5.6771   26.4971 C   0  0  0  0  0  0  0  0  0  0  0  0
   -1.5799   -9.9322   18.3468 C   0  0  0  0  0  0  0  0  0  0  0  0
   -1.0871  -12.2214   17.8851 C   0  0  0  0  0  0  0  0  0  0  0  0
   -2.2706   -8.9669   19.0691 C   0  0  0  0  0  0  0  0  0  0  0  0
    3.0279   -5.3073   26.8197 C   0  0  0  0  0  0  0  0  0  0  0  0
    7.3282   -3.8948   29.1186 C   0  0  0  0  0  0  0  0  0  0  0  0
  1  3  4  0
  1  7  4  0
  2  3  1  0
  2  6  4  0
  2 16  4  0
  3 22  4  0
  4  9  4  0
  4 10  1  0
  4 20  4  0
  5 16  4  0
  5 23  4  0
  6 15  4  0
  7 12  4  0
  8 13  4  0
  8 14  4  0
  9 11  4  0
 11 14  4  0
 11 19  4  0
 12 18  4  0
 13 21  4  0
 15 23  4  0
 17 19  4  0
 17 20  4  0
 18 22  4  0
 19 21  4  0
M  END
$$$$

 Created by Python create_sdf_string function

 23 25  0  0  0  0  0  0  0  0999 V2000
    2.4610   -5.3070   29.1240 C   0  0  0  0  0  0  0  0  0  0  0  0
    4.7710   -4.6952   28.4803 C   0  0  0  0  0  0  0  0  0  0  0  0
    3.4047   -5.1087   28.1314 C   0  0  0  0  0  0  0  0  0  0  0  0
   -0.2234  -11.8615   16.8874 C   0  0  0  0  0  0  0  0  0  0  0  0
    6.4491   -4.1532   30.1213 C   0  0  0  0  0  0  0  0  0  0  0  0
    5.7060   -4.4340   27.4975 C   0  0  0  0  0  0  0  0  0  0  0  0
    1.1818   -5.6612   28.8399 C   0  0  0  0  0  0  0  0  0  0  0  0
   -1.2067   -7.3287   17.7772 C   0  0  0  0  0  0  0  0  0  0  0  0
   -0.0206  -10.5585   16.6210 C   0  0  0  0  0  0  0  0  0  0  0  0
    0.3696  -12.7626   16.2169 O   0  0  0  0  0  0  0  0  0  0  0  0
   -0.6895   -9.5676   17.3297 C   0  0  0  0  0  0  0  0  0  0  0  0
    0.8388   -5.8417   27.5264 C   0  0  0  0  0  0  0  0  0  0  0  0
   -2.0709   -7.6637   18.7817 C   0  0  0  0  0  0  0  0  0  0  0  0
   -0.5279   -8.2168   17.0717 C   0  0  0  0  0  0  0  0  0  0  0  0
    6.9694   -4.0191   27.8190 C   0  0  0  0  0  0  0  0  0  0  0  0
    5.1733   -4.5469   29.8123 C   0  0  0  0  0  0  0  0  0  0  0  0
   -1.7508  -11.3016   18.6072 C   0  0  0  0  0  0  0  0  0  0  0  0
    1.7497   -5.6771   26.4971 C   0  0  0  0  0  0  0  0  0  0  0  0
   -1.5799   -9.9322   18.3468 C   0  0  0  0  0  0  0  0  0  0  0  0
   -1.0871  -12.2214   17.8851 C   0  0  0  0  0  0  0  0  0  0  0  0
   -2.2706   -8.9669   19.0691 C   0  0  0  0  0  0  0  0  0  0  0  0
    3.0279   -5.3073   26.8197 C   0  0  0  0  0  0  0  0  0  0  0  0
    7.3282   -3.8948   29.1186 C   0  0  0  0  0  0  0  0  0  0  0  0
  1  3  4  0
  1  7  4  0
  2  3  1  0
  2  6  4  0
  2 16  4  0
  3 22  4  0
  4  9  4  0
  4 10  1  0
  4 20  4  0
  5 16  4  0
  5 23  4  0
  6 15  4  0
  7 12  4  0
  8 13  4  0
  8 14  4  0
  9 11  4  0
 11 14  4  0
 11 19  4  0
 12 18  4  0
 13 21  4  0
 15 23  4  0
 17 19  4  0
 17 20  4  0
 18 22  4  0
 19 21  4  0
M  END
$$$$

 Created by Python create_sdf_string function

 23 25  0  0  0  0  0  0  0  0999 V2000
    2.4610   -5.3070   29.1240 C   0  0  0  0  0  0  0  0  0  0  0  0
    4.7710   -4.6952   28.4803 C   0  0  0  0  0  0  0  0  0  0  0  0
    3.4047   -5.1087   28.1314 C   0  0  0  0  0  0  0  0  0  0  0  0
   -0.2234  -11.8615   16.8874 C   0  0  0  0  0  0  0  0  0  0  0  0
    6.4491   -4.1532   30.1213 C   0  0  0  0  0  0  0  0  0  0  0  0
    5.7060   -4.4340   27.4975 C   0  0  0  0  0  0  0  0  0  0  0  0
    1.1818   -5.6612   28.8399 C   0  0  0  0  0  0  0  0  0  0  0  0
   -1.2067   -7.3287   17.7772 C   0  0  0  0  0  0  0  0  0  0  0  0
   -0.0206  -10.5585   16.6210 C   0  0  0  0  0  0  0  0  0  0  0  0
    0.3696  -12.7626   16.2169 O   0  0  0  0  0  0  0  0  0  0  0  0
   -0.6895   -9.5676   17.3297 C   0  0  0  0  0  0  0  0  0  0  0  0
    0.8388   -5.8417   27.5264 C   0  0  0  0  0  0  0  0  0  0  0  0
   -2.0709   -7.6637   18.7817 C   0  0  0  0  0  0  0  0  0  0  0  0
   -0.5279   -8.2168   17.0717 C   0  0  0  0  0  0  0  0  0  0  0  0
    6.9694   -4.0191   27.8190 C   0  0  0  0  0  0  0  0  0  0  0  0
    5.1733   -4.5469   29.8123 C   0  0  0  0  0  0  0  0  0  0  0  0
   -1.7508  -11.3016   18.6072 C   0  0  0  0  0  0  0  0  0  0  0  0
    1.7497   -5.6771   26.4971 C   0  0  0  0  0  0  0  0  0  0  0  0
   -1.5799   -9.9322   18.3468 C   0  0  0  0  0  0  0  0  0  0  0  0
   -1.0871  -12.2214   17.8851 C   0  0  0  0  0  0  0  0  0  0  0  0
   -2.2706   -8.9669   19.0691 C   0  0  0  0  0  0  0  0  0  0  0  0
    3.0279   -5.3073   26.8197 C   0  0  0  0  0  0  0  0  0  0  0  0
    7.3282   -3.8948   29.1186 C   0  0  0  0  0  0  0  0  0  0  0  0
  1  3  4  0
  1  7  4  0
  2  3  1  0
  2  6  4  0
  2 16  4  0
  3 22  4  0
  4  9  4  0
  4 10  1  0
  4 20  4  0
  5 16  4  0
  5 23  4  0
  6 15  4  0
  7 12  4  0
  8 13  4  0
  8 14  4  0
  9 11  4  0
 11 14  4  0
 11 19  4  0
 12 18  4  0
 13 21  4  0
 15 23  4  0
 17 19  4  0
 17 20  4  0
 18 22  4  0
 19 21  4  0
M  END
$$$$

 Created by Python create_sdf_string function

 23 25  0  0  0  0  0  0  0  0999 V2000
    2.4610   -5.3070   29.1240 C   0  0  0  0  0  0  0  0  0  0  0  0
    4.7710   -4.6952   28.4803 C   0  0  0  0  0  0  0  0  0  0  0  0
    3.4047   -5.1087   28.1314 C   0  0  0  0  0  0  0  0  0  0  0  0
   -0.2234  -11.8615   16.8874 C   0  0  0  0  0  0  0  0  0  0  0  0
    6.4491   -4.1532   30.1213 C   0  0  0  0  0  0  0  0  0  0  0  0
    5.7060   -4.4340   27.4975 C   0  0  0  0  0  0  0  0  0  0  0  0
    1.1818   -5.6612   28.8399 C   0  0  0  0  0  0  0  0  0  0  0  0
   -1.2067   -7.3287   17.7772 C   0  0  0  0  0  0  0  0  0  0  0  0
   -0.0206  -10.5585   16.6210 C   0  0  0  0  0  0  0  0  0  0  0  0
    0.3696  -12.7626   16.2169 O   0  0  0  0  0  0  0  0  0  0  0  0
   -0.6895   -9.5676   17.3297 C   0  0  0  0  0  0  0  0  0  0  0  0
    0.8388   -5.8417   27.5264 C   0  0  0  0  0  0  0  0  0  0  0  0
   -2.0709   -7.6637   18.7817 C   0  0  0  0  0  0  0  0  0  0  0  0
   -0.5279   -8.2168   17.0717 C   0  0  0  0  0  0  0  0  0  0  0  0
    6.9694   -4.0191   27.8190 C   0  0  0  0  0  0  0  0  0  0  0  0
    5.1733   -4.5469   29.8123 C   0  0  0  0  0  0  0  0  0  0  0  0
   -1.7508  -11.3016   18.6072 C   0  0  0  0  0  0  0  0  0  0  0  0
    1.7497   -5.6771   26.4971 C   0  0  0  0  0  0  0  0  0  0  0  0
   -1.5799   -9.9322   18.3468 C   0  0  0  0  0  0  0  0  0  0  0  0
   -1.0871  -12.2214   17.8851 C   0  0  0  0  0  0  0  0  0  0  0  0
   -2.2706   -8.9669   19.0691 C   0  0  0  0  0  0  0  0  0  0  0  0
    3.0279   -5.3073   26.8197 C   0  0  0  0  0  0  0  0  0  0  0  0
    7.3282   -3.8948   29.1186 C   0  0  0  0  0  0  0  0  0  0  0  0
  1  3  4  0
  1  7  4  0
  2  3  1  0
  2  6  4  0
  2 16  4  0
  3 22  4  0
  4  9  4  0
  4 10  1  0
  4 20  4  0
  5 16  4  0
  5 23  4  0
  6 15  4  0
  7 12  4  0
  8 13  4  0
  8 14  4  0
  9 11  4  0
 11 14  4  0
 11 19  4  0
 12 18  4  0
 13 21  4  0
 15 23  4  0
 17 19  4  0
 17 20  4  0
 18 22  4  0
 19 21  4  0
M  END
$$$$

 Created by Python create_sdf_string function

 23 25  0  0  0  0  0  0  0  0999 V2000
    2.4610   -5.3070   29.1240 C   0  0  0  0  0  0  0  0  0  0  0  0
    4.7710   -4.6952   28.4803 C   0  0  0  0  0  0  0  0  0  0  0  0
    3.4047   -5.1087   28.1314 C   0  0  0  0  0  0  0  0  0  0  0  0
   -0.2234  -11.8615   16.8874 C   0  0  0  0  0  0  0  0  0  0  0  0
    6.4491   -4.1532   30.1213 C   0  0  0  0  0  0  0  0  0  0  0  0
    5.7060   -4.4340   27.4975 C   0  0  0  0  0  0  0  0  0  0  0  0
    1.1818   -5.6612   28.8399 C   0  0  0  0  0  0  0  0  0  0  0  0
   -1.2067   -7.3287   17.7772 C   0  0  0  0  0  0  0  0  0  0  0  0
   -0.0206  -10.5585   16.6210 C   0  0  0  0  0  0  0  0  0  0  0  0
    0.3696  -12.7626   16.2169 O   0  0  0  0  0  0  0  0  0  0  0  0
   -0.6895   -9.5676   17.3297 C   0  0  0  0  0  0  0  0  0  0  0  0
    0.8388   -5.8417   27.5264 C   0  0  0  0  0  0  0  0  0  0  0  0
   -2.0709   -7.6637   18.7817 C   0  0  0  0  0  0  0  0  0  0  0  0
   -0.5279   -8.2168   17.0717 C   0  0  0  0  0  0  0  0  0  0  0  0
    6.9694   -4.0191   27.8190 C   0  0  0  0  0  0  0  0  0  0  0  0
    5.1733   -4.5469   29.8123 C   0  0  0  0  0  0  0  0  0  0  0  0
   -1.7508  -11.3016   18.6072 C   0  0  0  0  0  0  0  0  0  0  0  0
    1.7497   -5.6771   26.4971 C   0  0  0  0  0  0  0  0  0  0  0  0
   -1.5799   -9.9322   18.3468 C   0  0  0  0  0  0  0  0  0  0  0  0
   -1.0871  -12.2214   17.8851 C   0  0  0  0  0  0  0  0  0  0  0  0
   -2.2706   -8.9669   19.0691 C   0  0  0  0  0  0  0  0  0  0  0  0
    3.0279   -5.3073   26.8197 C   0  0  0  0  0  0  0  0  0  0  0  0
    7.3282   -3.8948   29.1186 C   0  0  0  0  0  0  0  0  0  0  0  0
  1  3  4  0
  1  7  4  0
  2  3  1  0
  2  6  4  0
  2 16  4  0
  3 22  4  0
  4  9  4  0
  4 10  1  0
  4 20  4  0
  5 16  4  0
  5 23  4  0
  6 15  4  0
  7 12  4  0
  8 13  4  0
  8 14  4  0
  9 11  4  0
 11 14  4  0
 11 19  4  0
 12 18  4  0
 13 21  4  0
 15 23  4  0
 17 19  4  0
 17 20  4  0
 18 22  4  0
 19 21  4  0
M  END
$$$$

 Created by Python create_sdf_string function

 23 25  0  0  0  0  0  0  0  0999 V2000
    2.4610   -5.3070   29.1240 C   0  0  0  0  0  0  0  0  0  0  0  0
    4.7710   -4.6952   28.4803 C   0  0  0  0  0  0  0  0  0  0  0  0
    3.4047   -5.1087   28.1314 C   0  0  0  0  0  0  0  0  0  0  0  0
   -0.2234  -11.8615   16.8874 C   0  0  0  0  0  0  0  0  0  0  0  0
    6.4491   -4.1532   30.1213 C   0  0  0  0  0  0  0  0  0  0  0  0
    5.7060   -4.4340   27.4975 C   0  0  0  0  0  0  0  0  0  0  0  0
    1.1818   -5.6612   28.8399 C   0  0  0  0  0  0  0  0  0  0  0  0
   -1.2067   -7.3287   17.7772 C   0  0  0  0  0  0  0  0  0  0  0  0
   -0.0206  -10.5585   16.6210 C   0  0  0  0  0  0  0  0  0  0  0  0
    0.3696  -12.7626   16.2169 O   0  0  0  0  0  0  0  0  0  0  0  0
   -0.6895   -9.5676   17.3297 C   0  0  0  0  0  0  0  0  0  0  0  0
    0.8388   -5.8417   27.5264 C   0  0  0  0  0  0  0  0  0  0  0  0
   -2.0709   -7.6637   18.7817 C   0  0  0  0  0  0  0  0  0  0  0  0
   -0.5279   -8.2168   17.0717 C   0  0  0  0  0  0  0  0  0  0  0  0
    6.9694   -4.0191   27.8190 C   0  0  0  0  0  0  0  0  0  0  0  0
    5.1733   -4.5469   29.8123 C   0  0  0  0  0  0  0  0  0  0  0  0
   -1.7508  -11.3016   18.6072 C   0  0  0  0  0  0  0  0  0  0  0  0
    1.7497   -5.6771   26.4971 C   0  0  0  0  0  0  0  0  0  0  0  0
   -1.5799   -9.9322   18.3468 C   0  0  0  0  0  0  0  0  0  0  0  0
   -1.0871  -12.2214   17.8851 C   0  0  0  0  0  0  0  0  0  0  0  0
   -2.2706   -8.9669   19.0691 C   0  0  0  0  0  0  0  0  0  0  0  0
    3.0279   -5.3073   26.8197 C   0  0  0  0  0  0  0  0  0  0  0  0
    7.3282   -3.8948   29.1186 C   0  0  0  0  0  0  0  0  0  0  0  0
  1  3  4  0
  1  7  4  0
  2  3  1  0
  2  6  4  0
  2 16  4  0
  3 22  4  0
  4  9  4  0
  4 10  1  0
  4 20  4  0
  5 16  4  0
  5 23  4  0
  6 15  4  0
  7 12  4  0
  8 13  4  0
  8 14  4  0
  9 11  4  0
 11 14  4  0
 11 19  4  0
 12 18  4  0
 13 21  4  0
 15 23  4  0
 17 19  4  0
 17 20  4  0
 18 22  4  0
 19 21  4  0
M  END
$$$$

 Created by Python create_sdf_string function

 23 25  0  0  0  0  0  0  0  0999 V2000
    2.4610   -5.3070   29.1240 C   0  0  0  0  0  0  0  0  0  0  0  0
    4.7710   -4.6952   28.4803 C   0  0  0  0  0  0  0  0  0  0  0  0
    3.4047   -5.1087   28.1314 C   0  0  0  0  0  0  0  0  0  0  0  0
   -0.2234  -11.8615   16.8874 C   0  0  0  0  0  0  0  0  0  0  0  0
    6.4491   -4.1532   30.1213 C   0  0  0  0  0  0  0  0  0  0  0  0
    5.7060   -4.4340   27.4975 C   0  0  0  0  0  0  0  0  0  0  0  0
    1.1818   -5.6612   28.8399 C   0  0  0  0  0  0  0  0  0  0  0  0
   -1.2067   -7.3287   17.7772 C   0  0  0  0  0  0  0  0  0  0  0  0
   -0.0206  -10.5585   16.6210 C   0  0  0  0  0  0  0  0  0  0  0  0
    0.3696  -12.7626   16.2169 O   0  0  0  0  0  0  0  0  0  0  0  0
   -0.6895   -9.5676   17.3297 C   0  0  0  0  0  0  0  0  0  0  0  0
    0.8388   -5.8417   27.5264 C   0  0  0  0  0  0  0  0  0  0  0  0
   -2.0709   -7.6637   18.7817 C   0  0  0  0  0  0  0  0  0  0  0  0
   -0.5279   -8.2168   17.0717 C   0  0  0  0  0  0  0  0  0  0  0  0
    6.9694   -4.0191   27.8190 C   0  0  0  0  0  0  0  0  0  0  0  0
    5.1733   -4.5469   29.8123 C   0  0  0  0  0  0  0  0  0  0  0  0
   -1.7508  -11.3016   18.6072 C   0  0  0  0  0  0  0  0  0  0  0  0
    1.7497   -5.6771   26.4971 C   0  0  0  0  0  0  0  0  0  0  0  0
   -1.5799   -9.9322   18.3468 C   0  0  0  0  0  0  0  0  0  0  0  0
   -1.0871  -12.2214   17.8851 C   0  0  0  0  0  0  0  0  0  0  0  0
   -2.2706   -8.9669   19.0691 C   0  0  0  0  0  0  0  0  0  0  0  0
    3.0279   -5.3073   26.8197 C   0  0  0  0  0  0  0  0  0  0  0  0
    7.3282   -3.8948   29.1186 C   0  0  0  0  0  0  0  0  0  0  0  0
  1  3  4  0
  1  7  4  0
  2  3  1  0
  2  6  4  0
  2 16  4  0
  3 22  4  0
  4  9  4  0
  4 10  1  0
  4 20  4  0
  5 16  4  0
  5 23  4  0
  6 15  4  0
  7 12  4  0
  8 13  4  0
  8 14  4  0
  9 11  4  0
 11 14  4  0
 11 19  4  0
 12 18  4  0
 13 21  4  0
 15 23  4  0
 17 19  4  0
 17 20  4  0
 18 22  4  0
 19 21  4  0
M  END
$$$$

 Created by Python create_sdf_string function

 23 25  0  0  0  0  0  0  0  0999 V2000
    2.4610   -5.3070   29.1240 C   0  0  0  0  0  0  0  0  0  0  0  0
    4.7710   -4.6952   28.4803 C   0  0  0  0  0  0  0  0  0  0  0  0
    3.4047   -5.1087   28.1314 C   0  0  0  0  0  0  0  0  0  0  0  0
   -0.2234  -11.8615   16.8874 C   0  0  0  0  0  0  0  0  0  0  0  0
    6.4491   -4.1532   30.1213 C   0  0  0  0  0  0  0  0  0  0  0  0
    5.7060   -4.4340   27.4975 C   0  0  0  0  0  0  0  0  0  0  0  0
    1.1818   -5.6612   28.8399 C   0  0  0  0  0  0  0  0  0  0  0  0
   -1.2067   -7.3287   17.7772 C   0  0  0  0  0  0  0  0  0  0  0  0
   -0.0206  -10.5585   16.6210 C   0  0  0  0  0  0  0  0  0  0  0  0
    0.3696  -12.7626   16.2169 O   0  0  0  0  0  0  0  0  0  0  0  0
   -0.6895   -9.5676   17.3297 C   0  0  0  0  0  0  0  0  0  0  0  0
    0.8388   -5.8417   27.5264 C   0  0  0  0  0  0  0  0  0  0  0  0
   -2.0709   -7.6637   18.7817 C   0  0  0  0  0  0  0  0  0  0  0  0
   -0.5279   -8.2168   17.0717 C   0  0  0  0  0  0  0  0  0  0  0  0
    6.9694   -4.0191   27.8190 C   0  0  0  0  0  0  0  0  0  0  0  0
    5.1733   -4.5469   29.8123 C   0  0  0  0  0  0  0  0  0  0  0  0
   -1.7508  -11.3016   18.6072 C   0  0  0  0  0  0  0  0  0  0  0  0
    1.7497   -5.6771   26.4971 C   0  0  0  0  0  0  0  0  0  0  0  0
   -1.5799   -9.9322   18.3468 C   0  0  0  0  0  0  0  0  0  0  0  0
   -1.0871  -12.2214   17.8851 C   0  0  0  0  0  0  0  0  0  0  0  0
   -2.2706   -8.9669   19.0691 C   0  0  0  0  0  0  0  0  0  0  0  0
    3.0279   -5.3073   26.8197 C   0  0  0  0  0  0  0  0  0  0  0  0
    7.3282   -3.8948   29.1186 C   0  0  0  0  0  0  0  0  0  0  0  0
  1  3  4  0
  1  7  4  0
  2  3  1  0
  2  6  4  0
  2 16  4  0
  3 22  4  0
  4  9  4  0
  4 10  1  0
  4 20  4  0
  5 16  4  0
  5 23  4  0
  6 15  4  0
  7 12  4  0
  8 13  4  0
  8 14  4  0
  9 11  4  0
 11 14  4  0
 11 19  4  0
 12 18  4  0
 13 21  4  0
 15 23  4  0
 17 19  4  0
 17 20  4  0
 18 22  4  0
 19 21  4  0
M  END
$$$$

 Created by Python create_sdf_string function

 23 25  0  0  0  0  0  0  0  0999 V2000
    2.4610   -5.3070   29.1240 C   0  0  0  0  0  0  0  0  0  0  0  0
    4.7710   -4.6952   28.4803 C   0  0  0  0  0  0  0  0  0  0  0  0
    3.4047   -5.1087   28.1314 C   0  0  0  0  0  0  0  0  0  0  0  0
   -0.2234  -11.8615   16.8874 C   0  0  0  0  0  0  0  0  0  0  0  0
    6.4491   -4.1532   30.1213 C   0  0  0  0  0  0  0  0  0  0  0  0
    5.7060   -4.4340   27.4975 C   0  0  0  0  0  0  0  0  0  0  0  0
    1.1818   -5.6612   28.8399 C   0  0  0  0  0  0  0  0  0  0  0  0
   -1.2067   -7.3287   17.7772 C   0  0  0  0  0  0  0  0  0  0  0  0
   -0.0206  -10.5585   16.6210 C   0  0  0  0  0  0  0  0  0  0  0  0
    0.3696  -12.7626   16.2169 O   0  0  0  0  0  0  0  0  0  0  0  0
   -0.6895   -9.5676   17.3297 C   0  0  0  0  0  0  0  0  0  0  0  0
    0.8388   -5.8417   27.5264 C   0  0  0  0  0  0  0  0  0  0  0  0
   -2.0709   -7.6637   18.7817 C   0  0  0  0  0  0  0  0  0  0  0  0
   -0.5279   -8.2168   17.0717 C   0  0  0  0  0  0  0  0  0  0  0  0
    6.9694   -4.0191   27.8190 C   0  0  0  0  0  0  0  0  0  0  0  0
    5.1733   -4.5469   29.8123 C   0  0  0  0  0  0  0  0  0  0  0  0
   -1.7508  -11.3016   18.6072 C   0  0  0  0  0  0  0  0  0  0  0  0
    1.7497   -5.6771   26.4971 C   0  0  0  0  0  0  0  0  0  0  0  0
   -1.5799   -9.9322   18.3468 C   0  0  0  0  0  0  0  0  0  0  0  0
   -1.0871  -12.2214   17.8851 C   0  0  0  0  0  0  0  0  0  0  0  0
   -2.2706   -8.9669   19.0691 C   0  0  0  0  0  0  0  0  0  0  0  0
    3.0279   -5.3073   26.8197 C   0  0  0  0  0  0  0  0  0  0  0  0
    7.3282   -3.8948   29.1186 C   0  0  0  0  0  0  0  0  0  0  0  0
  1  3  4  0
  1  7  4  0
  2  3  1  0
  2  6  4  0
  2 16  4  0
  3 22  4  0
  4  9  4  0
  4 10  1  0
  4 20  4  0
  5 16  4  0
  5 23  4  0
  6 15  4  0
  7 12  4  0
  8 13  4  0
  8 14  4  0
  9 11  4  0
 11 14  4  0
 11 19  4  0
 12 18  4  0
 13 21  4  0
 15 23  4  0
 17 19  4  0
 17 20  4  0
 18 22  4  0
 19 21  4  0
M  END
$$$$

 Created by Python create_sdf_string function

 23 25  0  0  0  0  0  0  0  0999 V2000
    2.4610   -5.3070   29.1240 C   0  0  0  0  0  0  0  0  0  0  0  0
    4.7710   -4.6952   28.4803 C   0  0  0  0  0  0  0  0  0  0  0  0
    3.4047   -5.1087   28.1314 C   0  0  0  0  0  0  0  0  0  0  0  0
   -0.2234  -11.8615   16.8874 C   0  0  0  0  0  0  0  0  0  0  0  0
    6.4491   -4.1532   30.1213 C   0  0  0  0  0  0  0  0  0  0  0  0
    5.7060   -4.4340   27.4975 C   0  0  0  0  0  0  0  0  0  0  0  0
    1.1818   -5.6612   28.8399 C   0  0  0  0  0  0  0  0  0  0  0  0
   -1.2067   -7.3287   17.7772 C   0  0  0  0  0  0  0  0  0  0  0  0
   -0.0206  -10.5585   16.6210 C   0  0  0  0  0  0  0  0  0  0  0  0
    0.3696  -12.7626   16.2169 O   0  0  0  0  0  0  0  0  0  0  0  0
   -0.6895   -9.5676   17.3297 C   0  0  0  0  0  0  0  0  0  0  0  0
    0.8388   -5.8417   27.5264 C   0  0  0  0  0  0  0  0  0  0  0  0
   -2.0709   -7.6637   18.7817 C   0  0  0  0  0  0  0  0  0  0  0  0
   -0.5279   -8.2168   17.0717 C   0  0  0  0  0  0  0  0  0  0  0  0
    6.9694   -4.0191   27.8190 C   0  0  0  0  0  0  0  0  0  0  0  0
    5.1733   -4.5469   29.8123 C   0  0  0  0  0  0  0  0  0  0  0  0
   -1.7508  -11.3016   18.6072 C   0  0  0  0  0  0  0  0  0  0  0  0
    1.7497   -5.6771   26.4971 C   0  0  0  0  0  0  0  0  0  0  0  0
   -1.5799   -9.9322   18.3468 C   0  0  0  0  0  0  0  0  0  0  0  0
   -1.0871  -12.2214   17.8851 C   0  0  0  0  0  0  0  0  0  0  0  0
   -2.2706   -8.9669   19.0691 C   0  0  0  0  0  0  0  0  0  0  0  0
    3.0279   -5.3073   26.8197 C   0  0  0  0  0  0  0  0  0  0  0  0
    7.3282   -3.8948   29.1186 C   0  0  0  0  0  0  0  0  0  0  0  0
  1  3  4  0
  1  7  4  0
  2  3  1  0
  2  6  4  0
  2 16  4  0
  3 22  4  0
  4  9  4  0
  4 10  1  0
  4 20  4  0
  5 16  4  0
  5 23  4  0
  6 15  4  0
  7 12  4  0
  8 13  4  0
  8 14  4  0
  9 11  4  0
 11 14  4  0
 11 19  4  0
 12 18  4  0
 13 21  4  0
 15 23  4  0
 17 19  4  0
 17 20  4  0
 18 22  4  0
 19 21  4  0
M  END
$$$$

 Created by Python create_sdf_string function

 23 25  0  0  0  0  0  0  0  0999 V2000
    2.4610   -5.3070   29.1240 C   0  0  0  0  0  0  0  0  0  0  0  0
    4.7710   -4.6952   28.4803 C   0  0  0  0  0  0  0  0  0  0  0  0
    3.4047   -5.1087   28.1314 C   0  0  0  0  0  0  0  0  0  0  0  0
   -0.2234  -11.8615   16.8874 C   0  0  0  0  0  0  0  0  0  0  0  0
    6.4491   -4.1532   30.1213 C   0  0  0  0  0  0  0  0  0  0  0  0
    5.7060   -4.4340   27.4975 C   0  0  0  0  0  0  0  0  0  0  0  0
    1.1818   -5.6612   28.8399 C   0  0  0  0  0  0  0  0  0  0  0  0
   -1.2067   -7.3287   17.7772 C   0  0  0  0  0  0  0  0  0  0  0  0
   -0.0206  -10.5585   16.6210 C   0  0  0  0  0  0  0  0  0  0  0  0
    0.3696  -12.7626   16.2169 O   0  0  0  0  0  0  0  0  0  0  0  0
   -0.6895   -9.5676   17.3297 C   0  0  0  0  0  0  0  0  0  0  0  0
    0.8388   -5.8417   27.5264 C   0  0  0  0  0  0  0  0  0  0  0  0
   -2.0709   -7.6637   18.7817 C   0  0  0  0  0  0  0  0  0  0  0  0
   -0.5279   -8.2168   17.0717 C   0  0  0  0  0  0  0  0  0  0  0  0
    6.9694   -4.0191   27.8190 C   0  0  0  0  0  0  0  0  0  0  0  0
    5.1733   -4.5469   29.8123 C   0  0  0  0  0  0  0  0  0  0  0  0
   -1.7508  -11.3016   18.6072 C   0  0  0  0  0  0  0  0  0  0  0  0
    1.7497   -5.6771   26.4971 C   0  0  0  0  0  0  0  0  0  0  0  0
   -1.5799   -9.9322   18.3468 C   0  0  0  0  0  0  0  0  0  0  0  0
   -1.0871  -12.2214   17.8851 C   0  0  0  0  0  0  0  0  0  0  0  0
   -2.2706   -8.9669   19.0691 C   0  0  0  0  0  0  0  0  0  0  0  0
    3.0279   -5.3073   26.8197 C   0  0  0  0  0  0  0  0  0  0  0  0
    7.3282   -3.8948   29.1186 C   0  0  0  0  0  0  0  0  0  0  0  0
  1  3  4  0
  1  7  4  0
  2  3  1  0
  2  6  4  0
  2 16  4  0
  3 22  4  0
  4  9  4  0
  4 10  1  0
  4 20  4  0
  5 16  4  0
  5 23  4  0
  6 15  4  0
  7 12  4  0
  8 13  4  0
  8 14  4  0
  9 11  4  0
 11 14  4  0
 11 19  4  0
 12 18  4  0
 13 21  4  0
 15 23  4  0
 17 19  4  0
 17 20  4  0
 18 22  4  0
 19 21  4  0
M  END
$$$$

 Created by Python create_sdf_string function

 23 25  0  0  0  0  0  0  0  0999 V2000
    2.4610   -5.3070   29.1240 C   0  0  0  0  0  0  0  0  0  0  0  0
    4.7710   -4.6952   28.4803 C   0  0  0  0  0  0  0  0  0  0  0  0
    3.4047   -5.1087   28.1314 C   0  0  0  0  0  0  0  0  0  0  0  0
   -0.2234  -11.8615   16.8874 C   0  0  0  0  0  0  0  0  0  0  0  0
    6.4491   -4.1532   30.1213 C   0  0  0  0  0  0  0  0  0  0  0  0
    5.7060   -4.4340   27.4975 C   0  0  0  0  0  0  0  0  0  0  0  0
    1.1818   -5.6612   28.8399 C   0  0  0  0  0  0  0  0  0  0  0  0
   -1.2067   -7.3287   17.7772 C   0  0  0  0  0  0  0  0  0  0  0  0
   -0.0206  -10.5585   16.6210 C   0  0  0  0  0  0  0  0  0  0  0  0
    0.3696  -12.7626   16.2169 O   0  0  0  0  0  0  0  0  0  0  0  0
   -0.6895   -9.5676   17.3297 C   0  0  0  0  0  0  0  0  0  0  0  0
    0.8388   -5.8417   27.5264 C   0  0  0  0  0  0  0  0  0  0  0  0
   -2.0709   -7.6637   18.7817 C   0  0  0  0  0  0  0  0  0  0  0  0
   -0.5279   -8.2168   17.0717 C   0  0  0  0  0  0  0  0  0  0  0  0
    6.9694   -4.0191   27.8190 C   0  0  0  0  0  0  0  0  0  0  0  0
    5.1733   -4.5469   29.8123 C   0  0  0  0  0  0  0  0  0  0  0  0
   -1.7508  -11.3016   18.6072 C   0  0  0  0  0  0  0  0  0  0  0  0
    1.7497   -5.6771   26.4971 C   0  0  0  0  0  0  0  0  0  0  0  0
   -1.5799   -9.9322   18.3468 C   0  0  0  0  0  0  0  0  0  0  0  0
   -1.0871  -12.2214   17.8851 C   0  0  0  0  0  0  0  0  0  0  0  0
   -2.2706   -8.9669   19.0691 C   0  0  0  0  0  0  0  0  0  0  0  0
    3.0279   -5.3073   26.8197 C   0  0  0  0  0  0  0  0  0  0  0  0
    7.3282   -3.8948   29.1186 C   0  0  0  0  0  0  0  0  0  0  0  0
  1  3  4  0
  1  7  4  0
  2  3  1  0
  2  6  4  0
  2 16  4  0
  3 22  4  0
  4  9  4  0
  4 10  1  0
  4 20  4  0
  5 16  4  0
  5 23  4  0
  6 15  4  0
  7 12  4  0
  8 13  4  0
  8 14  4  0
  9 11  4  0
 11 14  4  0
 11 19  4  0
 12 18  4  0
 13 21  4  0
 15 23  4  0
 17 19  4  0
 17 20  4  0
 18 22  4  0
 19 21  4  0
M  END
$$$$

 Created by Python create_sdf_string function

 23 25  0  0  0  0  0  0  0  0999 V2000
    2.4610   -5.3070   29.1240 C   0  0  0  0  0  0  0  0  0  0  0  0
    4.7710   -4.6952   28.4803 C   0  0  0  0  0  0  0  0  0  0  0  0
    3.4047   -5.1087   28.1314 C   0  0  0  0  0  0  0  0  0  0  0  0
   -0.2234  -11.8615   16.8874 C   0  0  0  0  0  0  0  0  0  0  0  0
    6.4491   -4.1532   30.1213 C   0  0  0  0  0  0  0  0  0  0  0  0
    5.7060   -4.4340   27.4975 C   0  0  0  0  0  0  0  0  0  0  0  0
    1.1818   -5.6612   28.8399 C   0  0  0  0  0  0  0  0  0  0  0  0
   -1.2067   -7.3287   17.7772 C   0  0  0  0  0  0  0  0  0  0  0  0
   -0.0206  -10.5585   16.6210 C   0  0  0  0  0  0  0  0  0  0  0  0
    0.3696  -12.7626   16.2169 O   0  0  0  0  0  0  0  0  0  0  0  0
   -0.6895   -9.5676   17.3297 C   0  0  0  0  0  0  0  0  0  0  0  0
    0.8388   -5.8417   27.5264 C   0  0  0  0  0  0  0  0  0  0  0  0
   -2.0709   -7.6637   18.7817 C   0  0  0  0  0  0  0  0  0  0  0  0
   -0.5279   -8.2168   17.0717 C   0  0  0  0  0  0  0  0  0  0  0  0
    6.9694   -4.0191   27.8190 C   0  0  0  0  0  0  0  0  0  0  0  0
    5.1733   -4.5469   29.8123 C   0  0  0  0  0  0  0  0  0  0  0  0
   -1.7508  -11.3016   18.6072 C   0  0  0  0  0  0  0  0  0  0  0  0
    1.7497   -5.6771   26.4971 C   0  0  0  0  0  0  0  0  0  0  0  0
   -1.5799   -9.9322   18.3468 C   0  0  0  0  0  0  0  0  0  0  0  0
   -1.0871  -12.2214   17.8851 C   0  0  0  0  0  0  0  0  0  0  0  0
   -2.2706   -8.9669   19.0691 C   0  0  0  0  0  0  0  0  0  0  0  0
    3.0279   -5.3073   26.8197 C   0  0  0  0  0  0  0  0  0  0  0  0
    7.3282   -3.8948   29.1186 C   0  0  0  0  0  0  0  0  0  0  0  0
  1  3  4  0
  1  7  4  0
  2  3  1  0
  2  6  4  0
  2 16  4  0
  3 22  4  0
  4  9  4  0
  4 10  1  0
  4 20  4  0
  5 16  4  0
  5 23  4  0
  6 15  4  0
  7 12  4  0
  8 13  4  0
  8 14  4  0
  9 11  4  0
 11 14  4  0
 11 19  4  0
 12 18  4  0
 13 21  4  0
 15 23  4  0
 17 19  4  0
 17 20  4  0
 18 22  4  0
 19 21  4  0
M  END
$$$$

 Created by Python create_sdf_string function

 23 25  0  0  0  0  0  0  0  0999 V2000
    2.4610   -5.3070   29.1240 C   0  0  0  0  0  0  0  0  0  0  0  0
    4.7710   -4.6952   28.4803 C   0  0  0  0  0  0  0  0  0  0  0  0
    3.4047   -5.1087   28.1314 C   0  0  0  0  0  0  0  0  0  0  0  0
   -0.2234  -11.8615   16.8874 C   0  0  0  0  0  0  0  0  0  0  0  0
    6.4491   -4.1532   30.1213 C   0  0  0  0  0  0  0  0  0  0  0  0
    5.7060   -4.4340   27.4975 C   0  0  0  0  0  0  0  0  0  0  0  0
    1.1818   -5.6612   28.8399 C   0  0  0  0  0  0  0  0  0  0  0  0
   -1.2067   -7.3287   17.7772 C   0  0  0  0  0  0  0  0  0  0  0  0
   -0.0206  -10.5585   16.6210 C   0  0  0  0  0  0  0  0  0  0  0  0
    0.3696  -12.7626   16.2169 O   0  0  0  0  0  0  0  0  0  0  0  0
   -0.6895   -9.5676   17.3297 C   0  0  0  0  0  0  0  0  0  0  0  0
    0.8388   -5.8417   27.5264 C   0  0  0  0  0  0  0  0  0  0  0  0
   -2.0709   -7.6637   18.7817 C   0  0  0  0  0  0  0  0  0  0  0  0
   -0.5279   -8.2168   17.0717 C   0  0  0  0  0  0  0  0  0  0  0  0
    6.9694   -4.0191   27.8190 C   0  0  0  0  0  0  0  0  0  0  0  0
    5.1733   -4.5469   29.8123 C   0  0  0  0  0  0  0  0  0  0  0  0
   -1.7508  -11.3016   18.6072 C   0  0  0  0  0  0  0  0  0  0  0  0
    1.7497   -5.6771   26.4971 C   0  0  0  0  0  0  0  0  0  0  0  0
   -1.5799   -9.9322   18.3468 C   0  0  0  0  0  0  0  0  0  0  0  0
   -1.0871  -12.2214   17.8851 C   0  0  0  0  0  0  0  0  0  0  0  0
   -2.2706   -8.9669   19.0691 C   0  0  0  0  0  0  0  0  0  0  0  0
    3.0279   -5.3073   26.8197 C   0  0  0  0  0  0  0  0  0  0  0  0
    7.3282   -3.8948   29.1186 C   0  0  0  0  0  0  0  0  0  0  0  0
  1  3  4  0
  1  7  4  0
  2  3  1  0
  2  6  4  0
  2 16  4  0
  3 22  4  0
  4  9  4  0
  4 10  1  0
  4 20  4  0
  5 16  4  0
  5 23  4  0
  6 15  4  0
  7 12  4  0
  8 13  4  0
  8 14  4  0
  9 11  4  0
 11 14  4  0
 11 19  4  0
 12 18  4  0
 13 21  4  0
 15 23  4  0
 17 19  4  0
 17 20  4  0
 18 22  4  0
 19 21  4  0
M  END
$$$$

 Created by Python create_sdf_string function

 23 25  0  0  0  0  0  0  0  0999 V2000
    2.4610   -5.3070   29.1240 C   0  0  0  0  0  0  0  0  0  0  0  0
    4.7710   -4.6952   28.4803 C   0  0  0  0  0  0  0  0  0  0  0  0
    3.4047   -5.1087   28.1314 C   0  0  0  0  0  0  0  0  0  0  0  0
   -0.2234  -11.8615   16.8874 C   0  0  0  0  0  0  0  0  0  0  0  0
    6.4491   -4.1532   30.1213 C   0  0  0  0  0  0  0  0  0  0  0  0
    5.7060   -4.4340   27.4975 C   0  0  0  0  0  0  0  0  0  0  0  0
    1.1818   -5.6612   28.8399 C   0  0  0  0  0  0  0  0  0  0  0  0
   -1.2067   -7.3287   17.7772 C   0  0  0  0  0  0  0  0  0  0  0  0
   -0.0206  -10.5585   16.6210 C   0  0  0  0  0  0  0  0  0  0  0  0
    0.3696  -12.7626   16.2169 O   0  0  0  0  0  0  0  0  0  0  0  0
   -0.6895   -9.5676   17.3297 C   0  0  0  0  0  0  0  0  0  0  0  0
    0.8388   -5.8417   27.5264 C   0  0  0  0  0  0  0  0  0  0  0  0
   -2.0709   -7.6637   18.7817 C   0  0  0  0  0  0  0  0  0  0  0  0
   -0.5279   -8.2168   17.0717 C   0  0  0  0  0  0  0  0  0  0  0  0
    6.9694   -4.0191   27.8190 C   0  0  0  0  0  0  0  0  0  0  0  0
    5.1733   -4.5469   29.8123 C   0  0  0  0  0  0  0  0  0  0  0  0
   -1.7508  -11.3016   18.6072 C   0  0  0  0  0  0  0  0  0  0  0  0
    1.7497   -5.6771   26.4971 C   0  0  0  0  0  0  0  0  0  0  0  0
   -1.5799   -9.9322   18.3468 C   0  0  0  0  0  0  0  0  0  0  0  0
   -1.0871  -12.2214   17.8851 C   0  0  0  0  0  0  0  0  0  0  0  0
   -2.2706   -8.9669   19.0691 C   0  0  0  0  0  0  0  0  0  0  0  0
    3.0279   -5.3073   26.8197 C   0  0  0  0  0  0  0  0  0  0  0  0
    7.3282   -3.8948   29.1186 C   0  0  0  0  0  0  0  0  0  0  0  0
  1  3  4  0
  1  7  4  0
  2  3  1  0
  2  6  4  0
  2 16  4  0
  3 22  4  0
  4  9  4  0
  4 10  1  0
  4 20  4  0
  5 16  4  0
  5 23  4  0
  6 15  4  0
  7 12  4  0
  8 13  4  0
  8 14  4  0
  9 11  4  0
 11 14  4  0
 11 19  4  0
 12 18  4  0
 13 21  4  0
 15 23  4  0
 17 19  4  0
 17 20  4  0
 18 22  4  0
 19 21  4  0
M  END
$$$$

 Created by Python create_sdf_string function

 23 25  0  0  0  0  0  0  0  0999 V2000
    2.4610   -5.3070   29.1240 C   0  0  0  0  0  0  0  0  0  0  0  0
    4.7710   -4.6952   28.4803 C   0  0  0  0  0  0  0  0  0  0  0  0
    3.4047   -5.1087   28.1314 C   0  0  0  0  0  0  0  0  0  0  0  0
   -0.2234  -11.8615   16.8874 C   0  0  0  0  0  0  0  0  0  0  0  0
    6.4491   -4.1532   30.1213 C   0  0  0  0  0  0  0  0  0  0  0  0
    5.7060   -4.4340   27.4975 C   0  0  0  0  0  0  0  0  0  0  0  0
    1.1818   -5.6612   28.8399 C   0  0  0  0  0  0  0  0  0  0  0  0
   -1.2067   -7.3287   17.7772 C   0  0  0  0  0  0  0  0  0  0  0  0
   -0.0206  -10.5585   16.6210 C   0  0  0  0  0  0  0  0  0  0  0  0
    0.3696  -12.7626   16.2169 O   0  0  0  0  0  0  0  0  0  0  0  0
   -0.6895   -9.5676   17.3297 C   0  0  0  0  0  0  0  0  0  0  0  0
    0.8388   -5.8417   27.5264 C   0  0  0  0  0  0  0  0  0  0  0  0
   -2.0709   -7.6637   18.7817 C   0  0  0  0  0  0  0  0  0  0  0  0
   -0.5279   -8.2168   17.0717 C   0  0  0  0  0  0  0  0  0  0  0  0
    6.9694   -4.0191   27.8190 C   0  0  0  0  0  0  0  0  0  0  0  0
    5.1733   -4.5469   29.8123 C   0  0  0  0  0  0  0  0  0  0  0  0
   -1.7508  -11.3016   18.6072 C   0  0  0  0  0  0  0  0  0  0  0  0
    1.7497   -5.6771   26.4971 C   0  0  0  0  0  0  0  0  0  0  0  0
   -1.5799   -9.9322   18.3468 C   0  0  0  0  0  0  0  0  0  0  0  0
   -1.0871  -12.2214   17.8851 C   0  0  0  0  0  0  0  0  0  0  0  0
   -2.2706   -8.9669   19.0691 C   0  0  0  0  0  0  0  0  0  0  0  0
    3.0279   -5.3073   26.8197 C   0  0  0  0  0  0  0  0  0  0  0  0
    7.3282   -3.8948   29.1186 C   0  0  0  0  0  0  0  0  0  0  0  0
  1  3  4  0
  1  7  4  0
  2  3  1  0
  2  6  4  0
  2 16  4  0
  3 22  4  0
  4  9  4  0
  4 10  1  0
  4 20  4  0
  5 16  4  0
  5 23  4  0
  6 15  4  0
  7 12  4  0
  8 13  4  0
  8 14  4  0
  9 11  4  0
 11 14  4  0
 11 19  4  0
 12 18  4  0
 13 21  4  0
 15 23  4  0
 17 19  4  0
 17 20  4  0
 18 22  4  0
 19 21  4  0
M  END
$$$$

 Created by Python create_sdf_string function

 23 25  0  0  0  0  0  0  0  0999 V2000
    2.4610   -5.3070   29.1240 C   0  0  0  0  0  0  0  0  0  0  0  0
    4.7710   -4.6952   28.4803 C   0  0  0  0  0  0  0  0  0  0  0  0
    3.4047   -5.1087   28.1314 C   0  0  0  0  0  0  0  0  0  0  0  0
   -0.2234  -11.8615   16.8874 C   0  0  0  0  0  0  0  0  0  0  0  0
    6.4491   -4.1532   30.1213 C   0  0  0  0  0  0  0  0  0  0  0  0
    5.7060   -4.4340   27.4975 C   0  0  0  0  0  0  0  0  0  0  0  0
    1.1818   -5.6612   28.8399 C   0  0  0  0  0  0  0  0  0  0  0  0
   -1.2067   -7.3287   17.7772 C   0  0  0  0  0  0  0  0  0  0  0  0
   -0.0206  -10.5585   16.6210 C   0  0  0  0  0  0  0  0  0  0  0  0
    0.3696  -12.7626   16.2169 O   0  0  0  0  0  0  0  0  0  0  0  0
   -0.6895   -9.5676   17.3297 C   0  0  0  0  0  0  0  0  0  0  0  0
    0.8388   -5.8417   27.5264 C   0  0  0  0  0  0  0  0  0  0  0  0
   -2.0709   -7.6637   18.7817 C   0  0  0  0  0  0  0  0  0  0  0  0
   -0.5279   -8.2168   17.0717 C   0  0  0  0  0  0  0  0  0  0  0  0
    6.9694   -4.0191   27.8190 C   0  0  0  0  0  0  0  0  0  0  0  0
    5.1733   -4.5469   29.8123 C   0  0  0  0  0  0  0  0  0  0  0  0
   -1.7508  -11.3016   18.6072 C   0  0  0  0  0  0  0  0  0  0  0  0
    1.7497   -5.6771   26.4971 C   0  0  0  0  0  0  0  0  0  0  0  0
   -1.5799   -9.9322   18.3468 C   0  0  0  0  0  0  0  0  0  0  0  0
   -1.0871  -12.2214   17.8851 C   0  0  0  0  0  0  0  0  0  0  0  0
   -2.2706   -8.9669   19.0691 C   0  0  0  0  0  0  0  0  0  0  0  0
    3.0279   -5.3073   26.8197 C   0  0  0  0  0  0  0  0  0  0  0  0
    7.3282   -3.8948   29.1186 C   0  0  0  0  0  0  0  0  0  0  0  0
  1  3  4  0
  1  7  4  0
  2  3  1  0
  2  6  4  0
  2 16  4  0
  3 22  4  0
  4  9  4  0
  4 10  1  0
  4 20  4  0
  5 16  4  0
  5 23  4  0
  6 15  4  0
  7 12  4  0
  8 13  4  0
  8 14  4  0
  9 11  4  0
 11 14  4  0
 11 19  4  0
 12 18  4  0
 13 21  4  0
 15 23  4  0
 17 19  4  0
 17 20  4  0
 18 22  4  0
 19 21  4  0
M  END
$$$$

 Created by Python create_sdf_string function

 23 25  0  0  0  0  0  0  0  0999 V2000
    2.4610   -5.3070   29.1240 C   0  0  0  0  0  0  0  0  0  0  0  0
    4.7710   -4.6952   28.4803 C   0  0  0  0  0  0  0  0  0  0  0  0
    3.4047   -5.1087   28.1314 C   0  0  0  0  0  0  0  0  0  0  0  0
   -0.2234  -11.8615   16.8874 C   0  0  0  0  0  0  0  0  0  0  0  0
    6.4491   -4.1532   30.1213 C   0  0  0  0  0  0  0  0  0  0  0  0
    5.7060   -4.4340   27.4975 C   0  0  0  0  0  0  0  0  0  0  0  0
    1.1818   -5.6612   28.8399 C   0  0  0  0  0  0  0  0  0  0  0  0
   -1.2067   -7.3287   17.7772 C   0  0  0  0  0  0  0  0  0  0  0  0
   -0.0206  -10.5585   16.6210 C   0  0  0  0  0  0  0  0  0  0  0  0
    0.3696  -12.7626   16.2169 O   0  0  0  0  0  0  0  0  0  0  0  0
   -0.6895   -9.5676   17.3297 C   0  0  0  0  0  0  0  0  0  0  0  0
    0.8388   -5.8417   27.5264 C   0  0  0  0  0  0  0  0  0  0  0  0
   -2.0709   -7.6637   18.7817 C   0  0  0  0  0  0  0  0  0  0  0  0
   -0.5279   -8.2168   17.0717 C   0  0  0  0  0  0  0  0  0  0  0  0
    6.9694   -4.0191   27.8190 C   0  0  0  0  0  0  0  0  0  0  0  0
    5.1733   -4.5469   29.8123 C   0  0  0  0  0  0  0  0  0  0  0  0
   -1.7508  -11.3016   18.6072 C   0  0  0  0  0  0  0  0  0  0  0  0
    1.7497   -5.6771   26.4971 C   0  0  0  0  0  0  0  0  0  0  0  0
   -1.5799   -9.9322   18.3468 C   0  0  0  0  0  0  0  0  0  0  0  0
   -1.0871  -12.2214   17.8851 C   0  0  0  0  0  0  0  0  0  0  0  0
   -2.2706   -8.9669   19.0691 C   0  0  0  0  0  0  0  0  0  0  0  0
    3.0279   -5.3073   26.8197 C   0  0  0  0  0  0  0  0  0  0  0  0
    7.3282   -3.8948   29.1186 C   0  0  0  0  0  0  0  0  0  0  0  0
  1  3  4  0
  1  7  4  0
  2  3  1  0
  2  6  4  0
  2 16  4  0
  3 22  4  0
  4  9  4  0
  4 10  1  0
  4 20  4  0
  5 16  4  0
  5 23  4  0
  6 15  4  0
  7 12  4  0
  8 13  4  0
  8 14  4  0
  9 11  4  0
 11 14  4  0
 11 19  4  0
 12 18  4  0
 13 21  4  0
 15 23  4  0
 17 19  4  0
 17 20  4  0
 18 22  4  0
 19 21  4  0
M  END
$$$$

 Created by Python create_sdf_string function

 23 25  0  0  0  0  0  0  0  0999 V2000
    2.4610   -5.3070   29.1240 C   0  0  0  0  0  0  0  0  0  0  0  0
    4.7710   -4.6952   28.4803 C   0  0  0  0  0  0  0  0  0  0  0  0
    3.4047   -5.1087   28.1314 C   0  0  0  0  0  0  0  0  0  0  0  0
   -0.2234  -11.8615   16.8874 C   0  0  0  0  0  0  0  0  0  0  0  0
    6.4491   -4.1532   30.1213 C   0  0  0  0  0  0  0  0  0  0  0  0
    5.7060   -4.4340   27.4975 C   0  0  0  0  0  0  0  0  0  0  0  0
    1.1818   -5.6612   28.8399 C   0  0  0  0  0  0  0  0  0  0  0  0
   -1.2067   -7.3287   17.7772 C   0  0  0  0  0  0  0  0  0  0  0  0
   -0.0206  -10.5585   16.6210 C   0  0  0  0  0  0  0  0  0  0  0  0
    0.3696  -12.7626   16.2169 O   0  0  0  0  0  0  0  0  0  0  0  0
   -0.6895   -9.5676   17.3297 C   0  0  0  0  0  0  0  0  0  0  0  0
    0.8388   -5.8417   27.5264 C   0  0  0  0  0  0  0  0  0  0  0  0
   -2.0709   -7.6637   18.7817 C   0  0  0  0  0  0  0  0  0  0  0  0
   -0.5279   -8.2168   17.0717 C   0  0  0  0  0  0  0  0  0  0  0  0
    6.9694   -4.0191   27.8190 C   0  0  0  0  0  0  0  0  0  0  0  0
    5.1733   -4.5469   29.8123 C   0  0  0  0  0  0  0  0  0  0  0  0
   -1.7508  -11.3016   18.6072 C   0  0  0  0  0  0  0  0  0  0  0  0
    1.7497   -5.6771   26.4971 C   0  0  0  0  0  0  0  0  0  0  0  0
   -1.5799   -9.9322   18.3468 C   0  0  0  0  0  0  0  0  0  0  0  0
   -1.0871  -12.2214   17.8851 C   0  0  0  0  0  0  0  0  0  0  0  0
   -2.2706   -8.9669   19.0691 C   0  0  0  0  0  0  0  0  0  0  0  0
    3.0279   -5.3073   26.8197 C   0  0  0  0  0  0  0  0  0  0  0  0
    7.3282   -3.8948   29.1186 C   0  0  0  0  0  0  0  0  0  0  0  0
  1  3  4  0
  1  7  4  0
  2  3  1  0
  2  6  4  0
  2 16  4  0
  3 22  4  0
  4  9  4  0
  4 10  1  0
  4 20  4  0
  5 16  4  0
  5 23  4  0
  6 15  4  0
  7 12  4  0
  8 13  4  0
  8 14  4  0
  9 11  4  0
 11 14  4  0
 11 19  4  0
 12 18  4  0
 13 21  4  0
 15 23  4  0
 17 19  4  0
 17 20  4  0
 18 22  4  0
 19 21  4  0
M  END
$$$$

 Created by Python create_sdf_string function

 23 25  0  0  0  0  0  0  0  0999 V2000
    2.4610   -5.3070   29.1240 C   0  0  0  0  0  0  0  0  0  0  0  0
    4.7710   -4.6952   28.4803 C   0  0  0  0  0  0  0  0  0  0  0  0
    3.4047   -5.1087   28.1314 C   0  0  0  0  0  0  0  0  0  0  0  0
   -0.2234  -11.8615   16.8874 C   0  0  0  0  0  0  0  0  0  0  0  0
    6.4491   -4.1532   30.1213 C   0  0  0  0  0  0  0  0  0  0  0  0
    5.7060   -4.4340   27.4975 C   0  0  0  0  0  0  0  0  0  0  0  0
    1.1818   -5.6612   28.8399 C   0  0  0  0  0  0  0  0  0  0  0  0
   -1.2067   -7.3287   17.7772 C   0  0  0  0  0  0  0  0  0  0  0  0
   -0.0206  -10.5585   16.6210 C   0  0  0  0  0  0  0  0  0  0  0  0
    0.3696  -12.7626   16.2169 O   0  0  0  0  0  0  0  0  0  0  0  0
   -0.6895   -9.5676   17.3297 C   0  0  0  0  0  0  0  0  0  0  0  0
    0.8388   -5.8417   27.5264 C   0  0  0  0  0  0  0  0  0  0  0  0
   -2.0709   -7.6637   18.7817 C   0  0  0  0  0  0  0  0  0  0  0  0
   -0.5279   -8.2168   17.0717 C   0  0  0  0  0  0  0  0  0  0  0  0
    6.9694   -4.0191   27.8190 C   0  0  0  0  0  0  0  0  0  0  0  0
    5.1733   -4.5469   29.8123 C   0  0  0  0  0  0  0  0  0  0  0  0
   -1.7508  -11.3016   18.6072 C   0  0  0  0  0  0  0  0  0  0  0  0
    1.7497   -5.6771   26.4971 C   0  0  0  0  0  0  0  0  0  0  0  0
   -1.5799   -9.9322   18.3468 C   0  0  0  0  0  0  0  0  0  0  0  0
   -1.0871  -12.2214   17.8851 C   0  0  0  0  0  0  0  0  0  0  0  0
   -2.2706   -8.9669   19.0691 C   0  0  0  0  0  0  0  0  0  0  0  0
    3.0279   -5.3073   26.8197 C   0  0  0  0  0  0  0  0  0  0  0  0
    7.3282   -3.8948   29.1186 C   0  0  0  0  0  0  0  0  0  0  0  0
  1  3  4  0
  1  7  4  0
  2  3  1  0
  2  6  4  0
  2 16  4  0
  3 22  4  0
  4  9  4  0
  4 10  1  0
  4 20  4  0
  5 16  4  0
  5 23  4  0
  6 15  4  0
  7 12  4  0
  8 13  4  0
  8 14  4  0
  9 11  4  0
 11 14  4  0
 11 19  4  0
 12 18  4  0
 13 21  4  0
 15 23  4  0
 17 19  4  0
 17 20  4  0
 18 22  4  0
 19 21  4  0
M  END
$$$$

 Created by Python create_sdf_string function

 23 25  0  0  0  0  0  0  0  0999 V2000
    2.4610   -5.3070   29.1240 C   0  0  0  0  0  0  0  0  0  0  0  0
    4.7710   -4.6952   28.4803 C   0  0  0  0  0  0  0  0  0  0  0  0
    3.4047   -5.1087   28.1314 C   0  0  0  0  0  0  0  0  0  0  0  0
   -0.2234  -11.8615   16.8874 C   0  0  0  0  0  0  0  0  0  0  0  0
    6.4491   -4.1532   30.1213 C   0  0  0  0  0  0  0  0  0  0  0  0
    5.7060   -4.4340   27.4975 C   0  0  0  0  0  0  0  0  0  0  0  0
    1.1818   -5.6612   28.8399 C   0  0  0  0  0  0  0  0  0  0  0  0
   -1.2067   -7.3287   17.7772 C   0  0  0  0  0  0  0  0  0  0  0  0
   -0.0206  -10.5585   16.6210 C   0  0  0  0  0  0  0  0  0  0  0  0
    0.3696  -12.7626   16.2169 O   0  0  0  0  0  0  0  0  0  0  0  0
   -0.6895   -9.5676   17.3297 C   0  0  0  0  0  0  0  0  0  0  0  0
    0.8388   -5.8417   27.5264 C   0  0  0  0  0  0  0  0  0  0  0  0
   -2.0709   -7.6637   18.7817 C   0  0  0  0  0  0  0  0  0  0  0  0
   -0.5279   -8.2168   17.0717 C   0  0  0  0  0  0  0  0  0  0  0  0
    6.9694   -4.0191   27.8190 C   0  0  0  0  0  0  0  0  0  0  0  0
    5.1733   -4.5469   29.8123 C   0  0  0  0  0  0  0  0  0  0  0  0
   -1.7508  -11.3016   18.6072 C   0  0  0  0  0  0  0  0  0  0  0  0
    1.7497   -5.6771   26.4971 C   0  0  0  0  0  0  0  0  0  0  0  0
   -1.5799   -9.9322   18.3468 C   0  0  0  0  0  0  0  0  0  0  0  0
   -1.0871  -12.2214   17.8851 C   0  0  0  0  0  0  0  0  0  0  0  0
   -2.2706   -8.9669   19.0691 C   0  0  0  0  0  0  0  0  0  0  0  0
    3.0279   -5.3073   26.8197 C   0  0  0  0  0  0  0  0  0  0  0  0
    7.3282   -3.8948   29.1186 C   0  0  0  0  0  0  0  0  0  0  0  0
  1  3  4  0
  1  7  4  0
  2  3  1  0
  2  6  4  0
  2 16  4  0
  3 22  4  0
  4  9  4  0
  4 10  1  0
  4 20  4  0
  5 16  4  0
  5 23  4  0
  6 15  4  0
  7 12  4  0
  8 13  4  0
  8 14  4  0
  9 11  4  0
 11 14  4  0
 11 19  4  0
 12 18  4  0
 13 21  4  0
 15 23  4  0
 17 19  4  0
 17 20  4  0
 18 22  4  0
 19 21  4  0
M  END
$$$$

 Created by Python create_sdf_string function

 23 25  0  0  0  0  0  0  0  0999 V2000
    2.4610   -5.3070   29.1240 C   0  0  0  0  0  0  0  0  0  0  0  0
    4.7710   -4.6952   28.4803 C   0  0  0  0  0  0  0  0  0  0  0  0
    3.4047   -5.1087   28.1314 C   0  0  0  0  0  0  0  0  0  0  0  0
   -0.2234  -11.8615   16.8874 C   0  0  0  0  0  0  0  0  0  0  0  0
    6.4491   -4.1532   30.1213 C   0  0  0  0  0  0  0  0  0  0  0  0
    5.7060   -4.4340   27.4975 C   0  0  0  0  0  0  0  0  0  0  0  0
    1.1818   -5.6612   28.8399 C   0  0  0  0  0  0  0  0  0  0  0  0
   -1.2067   -7.3287   17.7772 C   0  0  0  0  0  0  0  0  0  0  0  0
   -0.0206  -10.5585   16.6210 C   0  0  0  0  0  0  0  0  0  0  0  0
    0.3696  -12.7626   16.2169 O   0  0  0  0  0  0  0  0  0  0  0  0
   -0.6895   -9.5676   17.3297 C   0  0  0  0  0  0  0  0  0  0  0  0
    0.8388   -5.8417   27.5264 C   0  0  0  0  0  0  0  0  0  0  0  0
   -2.0709   -7.6637   18.7817 C   0  0  0  0  0  0  0  0  0  0  0  0
   -0.5279   -8.2168   17.0717 C   0  0  0  0  0  0  0  0  0  0  0  0
    6.9694   -4.0191   27.8190 C   0  0  0  0  0  0  0  0  0  0  0  0
    5.1733   -4.5469   29.8123 C   0  0  0  0  0  0  0  0  0  0  0  0
   -1.7508  -11.3016   18.6072 C   0  0  0  0  0  0  0  0  0  0  0  0
    1.7497   -5.6771   26.4971 C   0  0  0  0  0  0  0  0  0  0  0  0
   -1.5799   -9.9322   18.3468 C   0  0  0  0  0  0  0  0  0  0  0  0
   -1.0871  -12.2214   17.8851 C   0  0  0  0  0  0  0  0  0  0  0  0
   -2.2706   -8.9669   19.0691 C   0  0  0  0  0  0  0  0  0  0  0  0
    3.0279   -5.3073   26.8197 C   0  0  0  0  0  0  0  0  0  0  0  0
    7.3282   -3.8948   29.1186 C   0  0  0  0  0  0  0  0  0  0  0  0
  1  3  4  0
  1  7  4  0
  2  3  1  0
  2  6  4  0
  2 16  4  0
  3 22  4  0
  4  9  4  0
  4 10  1  0
  4 20  4  0
  5 16  4  0
  5 23  4  0
  6 15  4  0
  7 12  4  0
  8 13  4  0
  8 14  4  0
  9 11  4  0
 11 14  4  0
 11 19  4  0
 12 18  4  0
 13 21  4  0
 15 23  4  0
 17 19  4  0
 17 20  4  0
 18 22  4  0
 19 21  4  0
M  END
$$$$

 Created by Python create_sdf_string function

 23 25  0  0  0  0  0  0  0  0999 V2000
    2.4610   -5.3070   29.1240 C   0  0  0  0  0  0  0  0  0  0  0  0
    4.7710   -4.6952   28.4803 C   0  0  0  0  0  0  0  0  0  0  0  0
    3.4047   -5.1087   28.1314 C   0  0  0  0  0  0  0  0  0  0  0  0
   -0.2234  -11.8615   16.8874 C   0  0  0  0  0  0  0  0  0  0  0  0
    6.4491   -4.1532   30.1213 C   0  0  0  0  0  0  0  0  0  0  0  0
    5.7060   -4.4340   27.4975 C   0  0  0  0  0  0  0  0  0  0  0  0
    1.1818   -5.6612   28.8399 C   0  0  0  0  0  0  0  0  0  0  0  0
   -1.2067   -7.3287   17.7772 C   0  0  0  0  0  0  0  0  0  0  0  0
   -0.0206  -10.5585   16.6210 C   0  0  0  0  0  0  0  0  0  0  0  0
    0.3696  -12.7626   16.2169 O   0  0  0  0  0  0  0  0  0  0  0  0
   -0.6895   -9.5676   17.3297 C   0  0  0  0  0  0  0  0  0  0  0  0
    0.8388   -5.8417   27.5264 C   0  0  0  0  0  0  0  0  0  0  0  0
   -2.0709   -7.6637   18.7817 C   0  0  0  0  0  0  0  0  0  0  0  0
   -0.5279   -8.2168   17.0717 C   0  0  0  0  0  0  0  0  0  0  0  0
    6.9694   -4.0191   27.8190 C   0  0  0  0  0  0  0  0  0  0  0  0
    5.1733   -4.5469   29.8123 C   0  0  0  0  0  0  0  0  0  0  0  0
   -1.7508  -11.3016   18.6072 C   0  0  0  0  0  0  0  0  0  0  0  0
    1.7497   -5.6771   26.4971 C   0  0  0  0  0  0  0  0  0  0  0  0
   -1.5799   -9.9322   18.3468 C   0  0  0  0  0  0  0  0  0  0  0  0
   -1.0871  -12.2214   17.8851 C   0  0  0  0  0  0  0  0  0  0  0  0
   -2.2706   -8.9669   19.0691 C   0  0  0  0  0  0  0  0  0  0  0  0
    3.0279   -5.3073   26.8197 C   0  0  0  0  0  0  0  0  0  0  0  0
    7.3282   -3.8948   29.1186 C   0  0  0  0  0  0  0  0  0  0  0  0
  1  3  4  0
  1  7  4  0
  2  3  1  0
  2  6  4  0
  2 16  4  0
  3 22  4  0
  4  9  4  0
  4 10  1  0
  4 20  4  0
  5 16  4  0
  5 23  4  0
  6 15  4  0
  7 12  4  0
  8 13  4  0
  8 14  4  0
  9 11  4  0
 11 14  4  0
 11 19  4  0
 12 18  4  0
 13 21  4  0
 15 23  4  0
 17 19  4  0
 17 20  4  0
 18 22  4  0
 19 21  4  0
M  END
$$$$

 Created by Python create_sdf_string function

 23 25  0  0  0  0  0  0  0  0999 V2000
    2.4610   -5.3070   29.1240 C   0  0  0  0  0  0  0  0  0  0  0  0
    4.7710   -4.6952   28.4803 C   0  0  0  0  0  0  0  0  0  0  0  0
    3.4047   -5.1087   28.1314 C   0  0  0  0  0  0  0  0  0  0  0  0
   -0.2234  -11.8615   16.8874 C   0  0  0  0  0  0  0  0  0  0  0  0
    6.4491   -4.1532   30.1213 C   0  0  0  0  0  0  0  0  0  0  0  0
    5.7060   -4.4340   27.4975 C   0  0  0  0  0  0  0  0  0  0  0  0
    1.1818   -5.6612   28.8399 C   0  0  0  0  0  0  0  0  0  0  0  0
   -1.2067   -7.3287   17.7772 C   0  0  0  0  0  0  0  0  0  0  0  0
   -0.0206  -10.5585   16.6210 C   0  0  0  0  0  0  0  0  0  0  0  0
    0.3696  -12.7626   16.2169 O   0  0  0  0  0  0  0  0  0  0  0  0
   -0.6895   -9.5676   17.3297 C   0  0  0  0  0  0  0  0  0  0  0  0
    0.8388   -5.8417   27.5264 C   0  0  0  0  0  0  0  0  0  0  0  0
   -2.0709   -7.6637   18.7817 C   0  0  0  0  0  0  0  0  0  0  0  0
   -0.5279   -8.2168   17.0717 C   0  0  0  0  0  0  0  0  0  0  0  0
    6.9694   -4.0191   27.8190 C   0  0  0  0  0  0  0  0  0  0  0  0
    5.1733   -4.5469   29.8123 C   0  0  0  0  0  0  0  0  0  0  0  0
   -1.7508  -11.3016   18.6072 C   0  0  0  0  0  0  0  0  0  0  0  0
    1.7497   -5.6771   26.4971 C   0  0  0  0  0  0  0  0  0  0  0  0
   -1.5799   -9.9322   18.3468 C   0  0  0  0  0  0  0  0  0  0  0  0
   -1.0871  -12.2214   17.8851 C   0  0  0  0  0  0  0  0  0  0  0  0
   -2.2706   -8.9669   19.0691 C   0  0  0  0  0  0  0  0  0  0  0  0
    3.0279   -5.3073   26.8197 C   0  0  0  0  0  0  0  0  0  0  0  0
    7.3282   -3.8948   29.1186 C   0  0  0  0  0  0  0  0  0  0  0  0
  1  3  4  0
  1  7  4  0
  2  3  1  0
  2  6  4  0
  2 16  4  0
  3 22  4  0
  4  9  4  0
  4 10  1  0
  4 20  4  0
  5 16  4  0
  5 23  4  0
  6 15  4  0
  7 12  4  0
  8 13  4  0
  8 14  4  0
  9 11  4  0
 11 14  4  0
 11 19  4  0
 12 18  4  0
 13 21  4  0
 15 23  4  0
 17 19  4  0
 17 20  4  0
 18 22  4  0
 19 21  4  0
M  END
$$$$

 Created by Python create_sdf_string function

 23 25  0  0  0  0  0  0  0  0999 V2000
    2.4610   -5.3070   29.1240 C   0  0  0  0  0  0  0  0  0  0  0  0
    4.7710   -4.6952   28.4803 C   0  0  0  0  0  0  0  0  0  0  0  0
    3.4047   -5.1087   28.1314 C   0  0  0  0  0  0  0  0  0  0  0  0
   -0.2234  -11.8615   16.8874 C   0  0  0  0  0  0  0  0  0  0  0  0
    6.4491   -4.1532   30.1213 C   0  0  0  0  0  0  0  0  0  0  0  0
    5.7060   -4.4340   27.4975 C   0  0  0  0  0  0  0  0  0  0  0  0
    1.1818   -5.6612   28.8399 C   0  0  0  0  0  0  0  0  0  0  0  0
   -1.2067   -7.3287   17.7772 C   0  0  0  0  0  0  0  0  0  0  0  0
   -0.0206  -10.5585   16.6210 C   0  0  0  0  0  0  0  0  0  0  0  0
    0.3696  -12.7626   16.2169 O   0  0  0  0  0  0  0  0  0  0  0  0
   -0.6895   -9.5676   17.3297 C   0  0  0  0  0  0  0  0  0  0  0  0
    0.8388   -5.8417   27.5264 C   0  0  0  0  0  0  0  0  0  0  0  0
   -2.0709   -7.6637   18.7817 C   0  0  0  0  0  0  0  0  0  0  0  0
   -0.5279   -8.2168   17.0717 C   0  0  0  0  0  0  0  0  0  0  0  0
    6.9694   -4.0191   27.8190 C   0  0  0  0  0  0  0  0  0  0  0  0
    5.1733   -4.5469   29.8123 C   0  0  0  0  0  0  0  0  0  0  0  0
   -1.7508  -11.3016   18.6072 C   0  0  0  0  0  0  0  0  0  0  0  0
    1.7497   -5.6771   26.4971 C   0  0  0  0  0  0  0  0  0  0  0  0
   -1.5799   -9.9322   18.3468 C   0  0  0  0  0  0  0  0  0  0  0  0
   -1.0871  -12.2214   17.8851 C   0  0  0  0  0  0  0  0  0  0  0  0
   -2.2706   -8.9669   19.0691 C   0  0  0  0  0  0  0  0  0  0  0  0
    3.0279   -5.3073   26.8197 C   0  0  0  0  0  0  0  0  0  0  0  0
    7.3282   -3.8948   29.1186 C   0  0  0  0  0  0  0  0  0  0  0  0
  1  3  4  0
  1  7  4  0
  2  3  1  0
  2  6  4  0
  2 16  4  0
  3 22  4  0
  4  9  4  0
  4 10  1  0
  4 20  4  0
  5 16  4  0
  5 23  4  0
  6 15  4  0
  7 12  4  0
  8 13  4  0
  8 14  4  0
  9 11  4  0
 11 14  4  0
 11 19  4  0
 12 18  4  0
 13 21  4  0
 15 23  4  0
 17 19  4  0
 17 20  4  0
 18 22  4  0
 19 21  4  0
M  END
$$$$

 Created by Python create_sdf_string function

 23 25  0  0  0  0  0  0  0  0999 V2000
    2.4610   -5.3070   29.1240 C   0  0  0  0  0  0  0  0  0  0  0  0
    4.7710   -4.6952   28.4803 C   0  0  0  0  0  0  0  0  0  0  0  0
    3.4047   -5.1087   28.1314 C   0  0  0  0  0  0  0  0  0  0  0  0
   -0.2234  -11.8615   16.8874 C   0  0  0  0  0  0  0  0  0  0  0  0
    6.4491   -4.1532   30.1213 C   0  0  0  0  0  0  0  0  0  0  0  0
    5.7060   -4.4340   27.4975 C   0  0  0  0  0  0  0  0  0  0  0  0
    1.1818   -5.6612   28.8399 C   0  0  0  0  0  0  0  0  0  0  0  0
   -1.2067   -7.3287   17.7772 C   0  0  0  0  0  0  0  0  0  0  0  0
   -0.0206  -10.5585   16.6210 C   0  0  0  0  0  0  0  0  0  0  0  0
    0.3696  -12.7626   16.2169 O   0  0  0  0  0  0  0  0  0  0  0  0
   -0.6895   -9.5676   17.3297 C   0  0  0  0  0  0  0  0  0  0  0  0
    0.8388   -5.8417   27.5264 C   0  0  0  0  0  0  0  0  0  0  0  0
   -2.0709   -7.6637   18.7817 C   0  0  0  0  0  0  0  0  0  0  0  0
   -0.5279   -8.2168   17.0717 C   0  0  0  0  0  0  0  0  0  0  0  0
    6.9694   -4.0191   27.8190 C   0  0  0  0  0  0  0  0  0  0  0  0
    5.1733   -4.5469   29.8123 C   0  0  0  0  0  0  0  0  0  0  0  0
   -1.7508  -11.3016   18.6072 C   0  0  0  0  0  0  0  0  0  0  0  0
    1.7497   -5.6771   26.4971 C   0  0  0  0  0  0  0  0  0  0  0  0
   -1.5799   -9.9322   18.3468 C   0  0  0  0  0  0  0  0  0  0  0  0
   -1.0871  -12.2214   17.8851 C   0  0  0  0  0  0  0  0  0  0  0  0
   -2.2706   -8.9669   19.0691 C   0  0  0  0  0  0  0  0  0  0  0  0
    3.0279   -5.3073   26.8197 C   0  0  0  0  0  0  0  0  0  0  0  0
    7.3282   -3.8948   29.1186 C   0  0  0  0  0  0  0  0  0  0  0  0
  1  3  4  0
  1  7  4  0
  2  3  1  0
  2  6  4  0
  2 16  4  0
  3 22  4  0
  4  9  4  0
  4 10  1  0
  4 20  4  0
  5 16  4  0
  5 23  4  0
  6 15  4  0
  7 12  4  0
  8 13  4  0
  8 14  4  0
  9 11  4  0
 11 14  4  0
 11 19  4  0
 12 18  4  0
 13 21  4  0
 15 23  4  0
 17 19  4  0
 17 20  4  0
 18 22  4  0
 19 21  4  0
M  END
$$$$

 Created by Python create_sdf_string function

 23 25  0  0  0  0  0  0  0  0999 V2000
    2.4610   -5.3070   29.1240 C   0  0  0  0  0  0  0  0  0  0  0  0
    4.7710   -4.6952   28.4803 C   0  0  0  0  0  0  0  0  0  0  0  0
    3.4047   -5.1087   28.1314 C   0  0  0  0  0  0  0  0  0  0  0  0
   -0.2234  -11.8615   16.8874 C   0  0  0  0  0  0  0  0  0  0  0  0
    6.4491   -4.1532   30.1213 C   0  0  0  0  0  0  0  0  0  0  0  0
    5.7060   -4.4340   27.4975 C   0  0  0  0  0  0  0  0  0  0  0  0
    1.1818   -5.6612   28.8399 C   0  0  0  0  0  0  0  0  0  0  0  0
   -1.2067   -7.3287   17.7772 C   0  0  0  0  0  0  0  0  0  0  0  0
   -0.0206  -10.5585   16.6210 C   0  0  0  0  0  0  0  0  0  0  0  0
    0.3696  -12.7626   16.2169 O   0  0  0  0  0  0  0  0  0  0  0  0
   -0.6895   -9.5676   17.3297 C   0  0  0  0  0  0  0  0  0  0  0  0
    0.8388   -5.8417   27.5264 C   0  0  0  0  0  0  0  0  0  0  0  0
   -2.0709   -7.6637   18.7817 C   0  0  0  0  0  0  0  0  0  0  0  0
   -0.5279   -8.2168   17.0717 C   0  0  0  0  0  0  0  0  0  0  0  0
    6.9694   -4.0191   27.8190 C   0  0  0  0  0  0  0  0  0  0  0  0
    5.1733   -4.5469   29.8123 C   0  0  0  0  0  0  0  0  0  0  0  0
   -1.7508  -11.3016   18.6072 C   0  0  0  0  0  0  0  0  0  0  0  0
    1.7497   -5.6771   26.4971 C   0  0  0  0  0  0  0  0  0  0  0  0
   -1.5799   -9.9322   18.3468 C   0  0  0  0  0  0  0  0  0  0  0  0
   -1.0871  -12.2214   17.8851 C   0  0  0  0  0  0  0  0  0  0  0  0
   -2.2706   -8.9669   19.0691 C   0  0  0  0  0  0  0  0  0  0  0  0
    3.0279   -5.3073   26.8197 C   0  0  0  0  0  0  0  0  0  0  0  0
    7.3282   -3.8948   29.1186 C   0  0  0  0  0  0  0  0  0  0  0  0
  1  3  4  0
  1  7  4  0
  2  3  1  0
  2  6  4  0
  2 16  4  0
  3 22  4  0
  4  9  4  0
  4 10  1  0
  4 20  4  0
  5 16  4  0
  5 23  4  0
  6 15  4  0
  7 12  4  0
  8 13  4  0
  8 14  4  0
  9 11  4  0
 11 14  4  0
 11 19  4  0
 12 18  4  0
 13 21  4  0
 15 23  4  0
 17 19  4  0
 17 20  4  0
 18 22  4  0
 19 21  4  0
M  END
$$$$

 Created by Python create_sdf_string function

 23 25  0  0  0  0  0  0  0  0999 V2000
    2.4610   -5.3070   29.1240 C   0  0  0  0  0  0  0  0  0  0  0  0
    4.7710   -4.6952   28.4803 C   0  0  0  0  0  0  0  0  0  0  0  0
    3.4047   -5.1087   28.1314 C   0  0  0  0  0  0  0  0  0  0  0  0
   -0.2234  -11.8615   16.8874 C   0  0  0  0  0  0  0  0  0  0  0  0
    6.4491   -4.1532   30.1213 C   0  0  0  0  0  0  0  0  0  0  0  0
    5.7060   -4.4340   27.4975 C   0  0  0  0  0  0  0  0  0  0  0  0
    1.1818   -5.6612   28.8399 C   0  0  0  0  0  0  0  0  0  0  0  0
   -1.2067   -7.3287   17.7772 C   0  0  0  0  0  0  0  0  0  0  0  0
   -0.0206  -10.5585   16.6210 C   0  0  0  0  0  0  0  0  0  0  0  0
    0.3696  -12.7626   16.2169 O   0  0  0  0  0  0  0  0  0  0  0  0
   -0.6895   -9.5676   17.3297 C   0  0  0  0  0  0  0  0  0  0  0  0
    0.8388   -5.8417   27.5264 C   0  0  0  0  0  0  0  0  0  0  0  0
   -2.0709   -7.6637   18.7817 C   0  0  0  0  0  0  0  0  0  0  0  0
   -0.5279   -8.2168   17.0717 C   0  0  0  0  0  0  0  0  0  0  0  0
    6.9694   -4.0191   27.8190 C   0  0  0  0  0  0  0  0  0  0  0  0
    5.1733   -4.5469   29.8123 C   0  0  0  0  0  0  0  0  0  0  0  0
   -1.7508  -11.3016   18.6072 C   0  0  0  0  0  0  0  0  0  0  0  0
    1.7497   -5.6771   26.4971 C   0  0  0  0  0  0  0  0  0  0  0  0
   -1.5799   -9.9322   18.3468 C   0  0  0  0  0  0  0  0  0  0  0  0
   -1.0871  -12.2214   17.8851 C   0  0  0  0  0  0  0  0  0  0  0  0
   -2.2706   -8.9669   19.0691 C   0  0  0  0  0  0  0  0  0  0  0  0
    3.0279   -5.3073   26.8197 C   0  0  0  0  0  0  0  0  0  0  0  0
    7.3282   -3.8948   29.1186 C   0  0  0  0  0  0  0  0  0  0  0  0
  1  3  4  0
  1  7  4  0
  2  3  1  0
  2  6  4  0
  2 16  4  0
  3 22  4  0
  4  9  4  0
  4 10  1  0
  4 20  4  0
  5 16  4  0
  5 23  4  0
  6 15  4  0
  7 12  4  0
  8 13  4  0
  8 14  4  0
  9 11  4  0
 11 14  4  0
 11 19  4  0
 12 18  4  0
 13 21  4  0
 15 23  4  0
 17 19  4  0
 17 20  4  0
 18 22  4  0
 19 21  4  0
M  END
$$$$

 Created by Python create_sdf_string function

 23 25  0  0  0  0  0  0  0  0999 V2000
    2.4610   -5.3070   29.1240 C   0  0  0  0  0  0  0  0  0  0  0  0
    4.7710   -4.6952   28.4803 C   0  0  0  0  0  0  0  0  0  0  0  0
    3.4047   -5.1087   28.1314 C   0  0  0  0  0  0  0  0  0  0  0  0
   -0.2234  -11.8615   16.8874 C   0  0  0  0  0  0  0  0  0  0  0  0
    6.4491   -4.1532   30.1213 C   0  0  0  0  0  0  0  0  0  0  0  0
    5.7060   -4.4340   27.4975 C   0  0  0  0  0  0  0  0  0  0  0  0
    1.1818   -5.6612   28.8399 C   0  0  0  0  0  0  0  0  0  0  0  0
   -1.2067   -7.3287   17.7772 C   0  0  0  0  0  0  0  0  0  0  0  0
   -0.0206  -10.5585   16.6210 C   0  0  0  0  0  0  0  0  0  0  0  0
    0.3696  -12.7626   16.2169 O   0  0  0  0  0  0  0  0  0  0  0  0
   -0.6895   -9.5676   17.3297 C   0  0  0  0  0  0  0  0  0  0  0  0
    0.8388   -5.8417   27.5264 C   0  0  0  0  0  0  0  0  0  0  0  0
   -2.0709   -7.6637   18.7817 C   0  0  0  0  0  0  0  0  0  0  0  0
   -0.5279   -8.2168   17.0717 C   0  0  0  0  0  0  0  0  0  0  0  0
    6.9694   -4.0191   27.8190 C   0  0  0  0  0  0  0  0  0  0  0  0
    5.1733   -4.5469   29.8123 C   0  0  0  0  0  0  0  0  0  0  0  0
   -1.7508  -11.3016   18.6072 C   0  0  0  0  0  0  0  0  0  0  0  0
    1.7497   -5.6771   26.4971 C   0  0  0  0  0  0  0  0  0  0  0  0
   -1.5799   -9.9322   18.3468 C   0  0  0  0  0  0  0  0  0  0  0  0
   -1.0871  -12.2214   17.8851 C   0  0  0  0  0  0  0  0  0  0  0  0
   -2.2706   -8.9669   19.0691 C   0  0  0  0  0  0  0  0  0  0  0  0
    3.0279   -5.3073   26.8197 C   0  0  0  0  0  0  0  0  0  0  0  0
    7.3282   -3.8948   29.1186 C   0  0  0  0  0  0  0  0  0  0  0  0
  1  3  4  0
  1  7  4  0
  2  3  1  0
  2  6  4  0
  2 16  4  0
  3 22  4  0
  4  9  4  0
  4 10  1  0
  4 20  4  0
  5 16  4  0
  5 23  4  0
  6 15  4  0
  7 12  4  0
  8 13  4  0
  8 14  4  0
  9 11  4  0
 11 14  4  0
 11 19  4  0
 12 18  4  0
 13 21  4  0
 15 23  4  0
 17 19  4  0
 17 20  4  0
 18 22  4  0
 19 21  4  0
M  END
$$$$

 Created by Python create_sdf_string function

 23 25  0  0  0  0  0  0  0  0999 V2000
    2.4610   -5.3070   29.1240 C   0  0  0  0  0  0  0  0  0  0  0  0
    4.7710   -4.6952   28.4803 C   0  0  0  0  0  0  0  0  0  0  0  0
    3.4047   -5.1087   28.1314 C   0  0  0  0  0  0  0  0  0  0  0  0
   -0.2234  -11.8615   16.8874 C   0  0  0  0  0  0  0  0  0  0  0  0
    6.4491   -4.1532   30.1213 C   0  0  0  0  0  0  0  0  0  0  0  0
    5.7060   -4.4340   27.4975 C   0  0  0  0  0  0  0  0  0  0  0  0
    1.1818   -5.6612   28.8399 C   0  0  0  0  0  0  0  0  0  0  0  0
   -1.2067   -7.3287   17.7772 C   0  0  0  0  0  0  0  0  0  0  0  0
   -0.0206  -10.5585   16.6210 C   0  0  0  0  0  0  0  0  0  0  0  0
    0.3696  -12.7626   16.2169 O   0  0  0  0  0  0  0  0  0  0  0  0
   -0.6895   -9.5676   17.3297 C   0  0  0  0  0  0  0  0  0  0  0  0
    0.8388   -5.8417   27.5264 C   0  0  0  0  0  0  0  0  0  0  0  0
   -2.0709   -7.6637   18.7817 C   0  0  0  0  0  0  0  0  0  0  0  0
   -0.5279   -8.2168   17.0717 C   0  0  0  0  0  0  0  0  0  0  0  0
    6.9694   -4.0191   27.8190 C   0  0  0  0  0  0  0  0  0  0  0  0
    5.1733   -4.5469   29.8123 C   0  0  0  0  0  0  0  0  0  0  0  0
   -1.7508  -11.3016   18.6072 C   0  0  0  0  0  0  0  0  0  0  0  0
    1.7497   -5.6771   26.4971 C   0  0  0  0  0  0  0  0  0  0  0  0
   -1.5799   -9.9322   18.3468 C   0  0  0  0  0  0  0  0  0  0  0  0
   -1.0871  -12.2214   17.8851 C   0  0  0  0  0  0  0  0  0  0  0  0
   -2.2706   -8.9669   19.0691 C   0  0  0  0  0  0  0  0  0  0  0  0
    3.0279   -5.3073   26.8197 C   0  0  0  0  0  0  0  0  0  0  0  0
    7.3282   -3.8948   29.1186 C   0  0  0  0  0  0  0  0  0  0  0  0
  1  3  4  0
  1  7  4  0
  2  3  1  0
  2  6  4  0
  2 16  4  0
  3 22  4  0
  4  9  4  0
  4 10  1  0
  4 20  4  0
  5 16  4  0
  5 23  4  0
  6 15  4  0
  7 12  4  0
  8 13  4  0
  8 14  4  0
  9 11  4  0
 11 14  4  0
 11 19  4  0
 12 18  4  0
 13 21  4  0
 15 23  4  0
 17 19  4  0
 17 20  4  0
 18 22  4  0
 19 21  4  0
M  END
$$$$

 Created by Python create_sdf_string function

 23 25  0  0  0  0  0  0  0  0999 V2000
    2.4610   -5.3070   29.1240 C   0  0  0  0  0  0  0  0  0  0  0  0
    4.7710   -4.6952   28.4803 C   0  0  0  0  0  0  0  0  0  0  0  0
    3.4047   -5.1087   28.1314 C   0  0  0  0  0  0  0  0  0  0  0  0
   -0.2234  -11.8615   16.8874 C   0  0  0  0  0  0  0  0  0  0  0  0
    6.4491   -4.1532   30.1213 C   0  0  0  0  0  0  0  0  0  0  0  0
    5.7060   -4.4340   27.4975 C   0  0  0  0  0  0  0  0  0  0  0  0
    1.1818   -5.6612   28.8399 C   0  0  0  0  0  0  0  0  0  0  0  0
   -1.2067   -7.3287   17.7772 C   0  0  0  0  0  0  0  0  0  0  0  0
   -0.0206  -10.5585   16.6210 C   0  0  0  0  0  0  0  0  0  0  0  0
    0.3696  -12.7626   16.2169 O   0  0  0  0  0  0  0  0  0  0  0  0
   -0.6895   -9.5676   17.3297 C   0  0  0  0  0  0  0  0  0  0  0  0
    0.8388   -5.8417   27.5264 C   0  0  0  0  0  0  0  0  0  0  0  0
   -2.0709   -7.6637   18.7817 C   0  0  0  0  0  0  0  0  0  0  0  0
   -0.5279   -8.2168   17.0717 C   0  0  0  0  0  0  0  0  0  0  0  0
    6.9694   -4.0191   27.8190 C   0  0  0  0  0  0  0  0  0  0  0  0
    5.1733   -4.5469   29.8123 C   0  0  0  0  0  0  0  0  0  0  0  0
   -1.7508  -11.3016   18.6072 C   0  0  0  0  0  0  0  0  0  0  0  0
    1.7497   -5.6771   26.4971 C   0  0  0  0  0  0  0  0  0  0  0  0
   -1.5799   -9.9322   18.3468 C   0  0  0  0  0  0  0  0  0  0  0  0
   -1.0871  -12.2214   17.8851 C   0  0  0  0  0  0  0  0  0  0  0  0
   -2.2706   -8.9669   19.0691 C   0  0  0  0  0  0  0  0  0  0  0  0
    3.0279   -5.3073   26.8197 C   0  0  0  0  0  0  0  0  0  0  0  0
    7.3282   -3.8948   29.1186 C   0  0  0  0  0  0  0  0  0  0  0  0
  1  3  4  0
  1  7  4  0
  2  3  1  0
  2  6  4  0
  2 16  4  0
  3 22  4  0
  4  9  4  0
  4 10  1  0
  4 20  4  0
  5 16  4  0
  5 23  4  0
  6 15  4  0
  7 12  4  0
  8 13  4  0
  8 14  4  0
  9 11  4  0
 11 14  4  0
 11 19  4  0
 12 18  4  0
 13 21  4  0
 15 23  4  0
 17 19  4  0
 17 20  4  0
 18 22  4  0
 19 21  4  0
M  END
$$$$

 Created by Python create_sdf_string function

 23 25  0  0  0  0  0  0  0  0999 V2000
    2.4610   -5.3070   29.1240 C   0  0  0  0  0  0  0  0  0  0  0  0
    4.7710   -4.6952   28.4803 C   0  0  0  0  0  0  0  0  0  0  0  0
    3.4047   -5.1087   28.1314 C   0  0  0  0  0  0  0  0  0  0  0  0
   -0.2234  -11.8615   16.8874 C   0  0  0  0  0  0  0  0  0  0  0  0
    6.4491   -4.1532   30.1213 C   0  0  0  0  0  0  0  0  0  0  0  0
    5.7060   -4.4340   27.4975 C   0  0  0  0  0  0  0  0  0  0  0  0
    1.1818   -5.6612   28.8399 C   0  0  0  0  0  0  0  0  0  0  0  0
   -1.2067   -7.3287   17.7772 C   0  0  0  0  0  0  0  0  0  0  0  0
   -0.0206  -10.5585   16.6210 C   0  0  0  0  0  0  0  0  0  0  0  0
    0.3696  -12.7626   16.2169 O   0  0  0  0  0  0  0  0  0  0  0  0
   -0.6895   -9.5676   17.3297 C   0  0  0  0  0  0  0  0  0  0  0  0
    0.8388   -5.8417   27.5264 C   0  0  0  0  0  0  0  0  0  0  0  0
   -2.0709   -7.6637   18.7817 C   0  0  0  0  0  0  0  0  0  0  0  0
   -0.5279   -8.2168   17.0717 C   0  0  0  0  0  0  0  0  0  0  0  0
    6.9694   -4.0191   27.8190 C   0  0  0  0  0  0  0  0  0  0  0  0
    5.1733   -4.5469   29.8123 C   0  0  0  0  0  0  0  0  0  0  0  0
   -1.7508  -11.3016   18.6072 C   0  0  0  0  0  0  0  0  0  0  0  0
    1.7497   -5.6771   26.4971 C   0  0  0  0  0  0  0  0  0  0  0  0
   -1.5799   -9.9322   18.3468 C   0  0  0  0  0  0  0  0  0  0  0  0
   -1.0871  -12.2214   17.8851 C   0  0  0  0  0  0  0  0  0  0  0  0
   -2.2706   -8.9669   19.0691 C   0  0  0  0  0  0  0  0  0  0  0  0
    3.0279   -5.3073   26.8197 C   0  0  0  0  0  0  0  0  0  0  0  0
    7.3282   -3.8948   29.1186 C   0  0  0  0  0  0  0  0  0  0  0  0
  1  3  4  0
  1  7  4  0
  2  3  1  0
  2  6  4  0
  2 16  4  0
  3 22  4  0
  4  9  4  0
  4 10  1  0
  4 20  4  0
  5 16  4  0
  5 23  4  0
  6 15  4  0
  7 12  4  0
  8 13  4  0
  8 14  4  0
  9 11  4  0
 11 14  4  0
 11 19  4  0
 12 18  4  0
 13 21  4  0
 15 23  4  0
 17 19  4  0
 17 20  4  0
 18 22  4  0
 19 21  4  0
M  END
$$$$

 Created by Python create_sdf_string function

 23 25  0  0  0  0  0  0  0  0999 V2000
    2.4610   -5.3070   29.1240 C   0  0  0  0  0  0  0  0  0  0  0  0
    4.7710   -4.6952   28.4803 C   0  0  0  0  0  0  0  0  0  0  0  0
    3.4047   -5.1087   28.1314 C   0  0  0  0  0  0  0  0  0  0  0  0
   -0.2234  -11.8615   16.8874 C   0  0  0  0  0  0  0  0  0  0  0  0
    6.4491   -4.1532   30.1213 C   0  0  0  0  0  0  0  0  0  0  0  0
    5.7060   -4.4340   27.4975 C   0  0  0  0  0  0  0  0  0  0  0  0
    1.1818   -5.6612   28.8399 C   0  0  0  0  0  0  0  0  0  0  0  0
   -1.2067   -7.3287   17.7772 C   0  0  0  0  0  0  0  0  0  0  0  0
   -0.0206  -10.5585   16.6210 C   0  0  0  0  0  0  0  0  0  0  0  0
    0.3696  -12.7626   16.2169 O   0  0  0  0  0  0  0  0  0  0  0  0
   -0.6895   -9.5676   17.3297 C   0  0  0  0  0  0  0  0  0  0  0  0
    0.8388   -5.8417   27.5264 C   0  0  0  0  0  0  0  0  0  0  0  0
   -2.0709   -7.6637   18.7817 C   0  0  0  0  0  0  0  0  0  0  0  0
   -0.5279   -8.2168   17.0717 C   0  0  0  0  0  0  0  0  0  0  0  0
    6.9694   -4.0191   27.8190 C   0  0  0  0  0  0  0  0  0  0  0  0
    5.1733   -4.5469   29.8123 C   0  0  0  0  0  0  0  0  0  0  0  0
   -1.7508  -11.3016   18.6072 C   0  0  0  0  0  0  0  0  0  0  0  0
    1.7497   -5.6771   26.4971 C   0  0  0  0  0  0  0  0  0  0  0  0
   -1.5799   -9.9322   18.3468 C   0  0  0  0  0  0  0  0  0  0  0  0
   -1.0871  -12.2214   17.8851 C   0  0  0  0  0  0  0  0  0  0  0  0
   -2.2706   -8.9669   19.0691 C   0  0  0  0  0  0  0  0  0  0  0  0
    3.0279   -5.3073   26.8197 C   0  0  0  0  0  0  0  0  0  0  0  0
    7.3282   -3.8948   29.1186 C   0  0  0  0  0  0  0  0  0  0  0  0
  1  3  4  0
  1  7  4  0
  2  3  1  0
  2  6  4  0
  2 16  4  0
  3 22  4  0
  4  9  4  0
  4 10  1  0
  4 20  4  0
  5 16  4  0
  5 23  4  0
  6 15  4  0
  7 12  4  0
  8 13  4  0
  8 14  4  0
  9 11  4  0
 11 14  4  0
 11 19  4  0
 12 18  4  0
 13 21  4  0
 15 23  4  0
 17 19  4  0
 17 20  4  0
 18 22  4  0
 19 21  4  0
M  END
$$$$

 Created by Python create_sdf_string function

 23 25  0  0  0  0  0  0  0  0999 V2000
    2.4610   -5.3070   29.1240 C   0  0  0  0  0  0  0  0  0  0  0  0
    4.7710   -4.6952   28.4803 C   0  0  0  0  0  0  0  0  0  0  0  0
    3.4047   -5.1087   28.1314 C   0  0  0  0  0  0  0  0  0  0  0  0
   -0.2234  -11.8615   16.8874 C   0  0  0  0  0  0  0  0  0  0  0  0
    6.4491   -4.1532   30.1213 C   0  0  0  0  0  0  0  0  0  0  0  0
    5.7060   -4.4340   27.4975 C   0  0  0  0  0  0  0  0  0  0  0  0
    1.1818   -5.6612   28.8399 C   0  0  0  0  0  0  0  0  0  0  0  0
   -1.2067   -7.3287   17.7772 C   0  0  0  0  0  0  0  0  0  0  0  0
   -0.0206  -10.5585   16.6210 C   0  0  0  0  0  0  0  0  0  0  0  0
    0.3696  -12.7626   16.2169 O   0  0  0  0  0  0  0  0  0  0  0  0
   -0.6895   -9.5676   17.3297 C   0  0  0  0  0  0  0  0  0  0  0  0
    0.8388   -5.8417   27.5264 C   0  0  0  0  0  0  0  0  0  0  0  0
   -2.0709   -7.6637   18.7817 C   0  0  0  0  0  0  0  0  0  0  0  0
   -0.5279   -8.2168   17.0717 C   0  0  0  0  0  0  0  0  0  0  0  0
    6.9694   -4.0191   27.8190 C   0  0  0  0  0  0  0  0  0  0  0  0
    5.1733   -4.5469   29.8123 C   0  0  0  0  0  0  0  0  0  0  0  0
   -1.7508  -11.3016   18.6072 C   0  0  0  0  0  0  0  0  0  0  0  0
    1.7497   -5.6771   26.4971 C   0  0  0  0  0  0  0  0  0  0  0  0
   -1.5799   -9.9322   18.3468 C   0  0  0  0  0  0  0  0  0  0  0  0
   -1.0871  -12.2214   17.8851 C   0  0  0  0  0  0  0  0  0  0  0  0
   -2.2706   -8.9669   19.0691 C   0  0  0  0  0  0  0  0  0  0  0  0
    3.0279   -5.3073   26.8197 C   0  0  0  0  0  0  0  0  0  0  0  0
    7.3282   -3.8948   29.1186 C   0  0  0  0  0  0  0  0  0  0  0  0
  1  3  4  0
  1  7  4  0
  2  3  1  0
  2  6  4  0
  2 16  4  0
  3 22  4  0
  4  9  4  0
  4 10  1  0
  4 20  4  0
  5 16  4  0
  5 23  4  0
  6 15  4  0
  7 12  4  0
  8 13  4  0
  8 14  4  0
  9 11  4  0
 11 14  4  0
 11 19  4  0
 12 18  4  0
 13 21  4  0
 15 23  4  0
 17 19  4  0
 17 20  4  0
 18 22  4  0
 19 21  4  0
M  END
$$$$

 Created by Python create_sdf_string function

 23 25  0  0  0  0  0  0  0  0999 V2000
    2.4610   -5.3070   29.1240 C   0  0  0  0  0  0  0  0  0  0  0  0
    4.7710   -4.6952   28.4803 C   0  0  0  0  0  0  0  0  0  0  0  0
    3.4047   -5.1087   28.1314 C   0  0  0  0  0  0  0  0  0  0  0  0
   -0.2234  -11.8615   16.8874 C   0  0  0  0  0  0  0  0  0  0  0  0
    6.4491   -4.1532   30.1213 C   0  0  0  0  0  0  0  0  0  0  0  0
    5.7060   -4.4340   27.4975 C   0  0  0  0  0  0  0  0  0  0  0  0
    1.1818   -5.6612   28.8399 C   0  0  0  0  0  0  0  0  0  0  0  0
   -1.2067   -7.3287   17.7772 C   0  0  0  0  0  0  0  0  0  0  0  0
   -0.0206  -10.5585   16.6210 C   0  0  0  0  0  0  0  0  0  0  0  0
    0.3696  -12.7626   16.2169 O   0  0  0  0  0  0  0  0  0  0  0  0
   -0.6895   -9.5676   17.3297 C   0  0  0  0  0  0  0  0  0  0  0  0
    0.8388   -5.8417   27.5264 C   0  0  0  0  0  0  0  0  0  0  0  0
   -2.0709   -7.6637   18.7817 C   0  0  0  0  0  0  0  0  0  0  0  0
   -0.5279   -8.2168   17.0717 C   0  0  0  0  0  0  0  0  0  0  0  0
    6.9694   -4.0191   27.8190 C   0  0  0  0  0  0  0  0  0  0  0  0
    5.1733   -4.5469   29.8123 C   0  0  0  0  0  0  0  0  0  0  0  0
   -1.7508  -11.3016   18.6072 C   0  0  0  0  0  0  0  0  0  0  0  0
    1.7497   -5.6771   26.4971 C   0  0  0  0  0  0  0  0  0  0  0  0
   -1.5799   -9.9322   18.3468 C   0  0  0  0  0  0  0  0  0  0  0  0
   -1.0871  -12.2214   17.8851 C   0  0  0  0  0  0  0  0  0  0  0  0
   -2.2706   -8.9669   19.0691 C   0  0  0  0  0  0  0  0  0  0  0  0
    3.0279   -5.3073   26.8197 C   0  0  0  0  0  0  0  0  0  0  0  0
    7.3282   -3.8948   29.1186 C   0  0  0  0  0  0  0  0  0  0  0  0
  1  3  4  0
  1  7  4  0
  2  3  1  0
  2  6  4  0
  2 16  4  0
  3 22  4  0
  4  9  4  0
  4 10  1  0
  4 20  4  0
  5 16  4  0
  5 23  4  0
  6 15  4  0
  7 12  4  0
  8 13  4  0
  8 14  4  0
  9 11  4  0
 11 14  4  0
 11 19  4  0
 12 18  4  0
 13 21  4  0
 15 23  4  0
 17 19  4  0
 17 20  4  0
 18 22  4  0
 19 21  4  0
M  END
$$$$

 Created by Python create_sdf_string function

 23 25  0  0  0  0  0  0  0  0999 V2000
    2.4610   -5.3070   29.1240 C   0  0  0  0  0  0  0  0  0  0  0  0
    4.7710   -4.6952   28.4803 C   0  0  0  0  0  0  0  0  0  0  0  0
    3.4047   -5.1087   28.1314 C   0  0  0  0  0  0  0  0  0  0  0  0
   -0.2234  -11.8615   16.8874 C   0  0  0  0  0  0  0  0  0  0  0  0
    6.4491   -4.1532   30.1213 C   0  0  0  0  0  0  0  0  0  0  0  0
    5.7060   -4.4340   27.4975 C   0  0  0  0  0  0  0  0  0  0  0  0
    1.1818   -5.6612   28.8399 C   0  0  0  0  0  0  0  0  0  0  0  0
   -1.2067   -7.3287   17.7772 C   0  0  0  0  0  0  0  0  0  0  0  0
   -0.0206  -10.5585   16.6210 C   0  0  0  0  0  0  0  0  0  0  0  0
    0.3696  -12.7626   16.2169 O   0  0  0  0  0  0  0  0  0  0  0  0
   -0.6895   -9.5676   17.3297 C   0  0  0  0  0  0  0  0  0  0  0  0
    0.8388   -5.8417   27.5264 C   0  0  0  0  0  0  0  0  0  0  0  0
   -2.0709   -7.6637   18.7817 C   0  0  0  0  0  0  0  0  0  0  0  0
   -0.5279   -8.2168   17.0717 C   0  0  0  0  0  0  0  0  0  0  0  0
    6.9694   -4.0191   27.8190 C   0  0  0  0  0  0  0  0  0  0  0  0
    5.1733   -4.5469   29.8123 C   0  0  0  0  0  0  0  0  0  0  0  0
   -1.7508  -11.3016   18.6072 C   0  0  0  0  0  0  0  0  0  0  0  0
    1.7497   -5.6771   26.4971 C   0  0  0  0  0  0  0  0  0  0  0  0
   -1.5799   -9.9322   18.3468 C   0  0  0  0  0  0  0  0  0  0  0  0
   -1.0871  -12.2214   17.8851 C   0  0  0  0  0  0  0  0  0  0  0  0
   -2.2706   -8.9669   19.0691 C   0  0  0  0  0  0  0  0  0  0  0  0
    3.0279   -5.3073   26.8197 C   0  0  0  0  0  0  0  0  0  0  0  0
    7.3282   -3.8948   29.1186 C   0  0  0  0  0  0  0  0  0  0  0  0
  1  3  4  0
  1  7  4  0
  2  3  1  0
  2  6  4  0
  2 16  4  0
  3 22  4  0
  4  9  4  0
  4 10  1  0
  4 20  4  0
  5 16  4  0
  5 23  4  0
  6 15  4  0
  7 12  4  0
  8 13  4  0
  8 14  4  0
  9 11  4  0
 11 14  4  0
 11 19  4  0
 12 18  4  0
 13 21  4  0
 15 23  4  0
 17 19  4  0
 17 20  4  0
 18 22  4  0
 19 21  4  0
M  END
$$$$

 Created by Python create_sdf_string function

 23 25  0  0  0  0  0  0  0  0999 V2000
    2.4610   -5.3070   29.1240 C   0  0  0  0  0  0  0  0  0  0  0  0
    4.7710   -4.6952   28.4803 C   0  0  0  0  0  0  0  0  0  0  0  0
    3.4047   -5.1087   28.1314 C   0  0  0  0  0  0  0  0  0  0  0  0
   -0.2234  -11.8615   16.8874 C   0  0  0  0  0  0  0  0  0  0  0  0
    6.4491   -4.1532   30.1213 C   0  0  0  0  0  0  0  0  0  0  0  0
    5.7060   -4.4340   27.4975 C   0  0  0  0  0  0  0  0  0  0  0  0
    1.1818   -5.6612   28.8399 C   0  0  0  0  0  0  0  0  0  0  0  0
   -1.2067   -7.3287   17.7772 C   0  0  0  0  0  0  0  0  0  0  0  0
   -0.0206  -10.5585   16.6210 C   0  0  0  0  0  0  0  0  0  0  0  0
    0.3696  -12.7626   16.2169 O   0  0  0  0  0  0  0  0  0  0  0  0
   -0.6895   -9.5676   17.3297 C   0  0  0  0  0  0  0  0  0  0  0  0
    0.8388   -5.8417   27.5264 C   0  0  0  0  0  0  0  0  0  0  0  0
   -2.0709   -7.6637   18.7817 C   0  0  0  0  0  0  0  0  0  0  0  0
   -0.5279   -8.2168   17.0717 C   0  0  0  0  0  0  0  0  0  0  0  0
    6.9694   -4.0191   27.8190 C   0  0  0  0  0  0  0  0  0  0  0  0
    5.1733   -4.5469   29.8123 C   0  0  0  0  0  0  0  0  0  0  0  0
   -1.7508  -11.3016   18.6072 C   0  0  0  0  0  0  0  0  0  0  0  0
    1.7497   -5.6771   26.4971 C   0  0  0  0  0  0  0  0  0  0  0  0
   -1.5799   -9.9322   18.3468 C   0  0  0  0  0  0  0  0  0  0  0  0
   -1.0871  -12.2214   17.8851 C   0  0  0  0  0  0  0  0  0  0  0  0
   -2.2706   -8.9669   19.0691 C   0  0  0  0  0  0  0  0  0  0  0  0
    3.0279   -5.3073   26.8197 C   0  0  0  0  0  0  0  0  0  0  0  0
    7.3282   -3.8948   29.1186 C   0  0  0  0  0  0  0  0  0  0  0  0
  1  3  4  0
  1  7  4  0
  2  3  1  0
  2  6  4  0
  2 16  4  0
  3 22  4  0
  4  9  4  0
  4 10  1  0
  4 20  4  0
  5 16  4  0
  5 23  4  0
  6 15  4  0
  7 12  4  0
  8 13  4  0
  8 14  4  0
  9 11  4  0
 11 14  4  0
 11 19  4  0
 12 18  4  0
 13 21  4  0
 15 23  4  0
 17 19  4  0
 17 20  4  0
 18 22  4  0
 19 21  4  0
M  END
$$$$

 Created by Python create_sdf_string function

 23 25  0  0  0  0  0  0  0  0999 V2000
    2.4610   -5.3070   29.1240 C   0  0  0  0  0  0  0  0  0  0  0  0
    4.7710   -4.6952   28.4803 C   0  0  0  0  0  0  0  0  0  0  0  0
    3.4047   -5.1087   28.1314 C   0  0  0  0  0  0  0  0  0  0  0  0
   -0.2234  -11.8615   16.8874 C   0  0  0  0  0  0  0  0  0  0  0  0
    6.4491   -4.1532   30.1213 C   0  0  0  0  0  0  0  0  0  0  0  0
    5.7060   -4.4340   27.4975 C   0  0  0  0  0  0  0  0  0  0  0  0
    1.1818   -5.6612   28.8399 C   0  0  0  0  0  0  0  0  0  0  0  0
   -1.2067   -7.3287   17.7772 C   0  0  0  0  0  0  0  0  0  0  0  0
   -0.0206  -10.5585   16.6210 C   0  0  0  0  0  0  0  0  0  0  0  0
    0.3696  -12.7626   16.2169 O   0  0  0  0  0  0  0  0  0  0  0  0
   -0.6895   -9.5676   17.3297 C   0  0  0  0  0  0  0  0  0  0  0  0
    0.8388   -5.8417   27.5264 C   0  0  0  0  0  0  0  0  0  0  0  0
   -2.0709   -7.6637   18.7817 C   0  0  0  0  0  0  0  0  0  0  0  0
   -0.5279   -8.2168   17.0717 C   0  0  0  0  0  0  0  0  0  0  0  0
    6.9694   -4.0191   27.8190 C   0  0  0  0  0  0  0  0  0  0  0  0
    5.1733   -4.5469   29.8123 C   0  0  0  0  0  0  0  0  0  0  0  0
   -1.7508  -11.3016   18.6072 C   0  0  0  0  0  0  0  0  0  0  0  0
    1.7497   -5.6771   26.4971 C   0  0  0  0  0  0  0  0  0  0  0  0
   -1.5799   -9.9322   18.3468 C   0  0  0  0  0  0  0  0  0  0  0  0
   -1.0871  -12.2214   17.8851 C   0  0  0  0  0  0  0  0  0  0  0  0
   -2.2706   -8.9669   19.0691 C   0  0  0  0  0  0  0  0  0  0  0  0
    3.0279   -5.3073   26.8197 C   0  0  0  0  0  0  0  0  0  0  0  0
    7.3282   -3.8948   29.1186 C   0  0  0  0  0  0  0  0  0  0  0  0
  1  3  4  0
  1  7  4  0
  2  3  1  0
  2  6  4  0
  2 16  4  0
  3 22  4  0
  4  9  4  0
  4 10  1  0
  4 20  4  0
  5 16  4  0
  5 23  4  0
  6 15  4  0
  7 12  4  0
  8 13  4  0
  8 14  4  0
  9 11  4  0
 11 14  4  0
 11 19  4  0
 12 18  4  0
 13 21  4  0
 15 23  4  0
 17 19  4  0
 17 20  4  0
 18 22  4  0
 19 21  4  0
M  END
$$$$

 Created by Python create_sdf_string function

 23 25  0  0  0  0  0  0  0  0999 V2000
    2.4610   -5.3070   29.1240 C   0  0  0  0  0  0  0  0  0  0  0  0
    4.7710   -4.6952   28.4803 C   0  0  0  0  0  0  0  0  0  0  0  0
    3.4047   -5.1087   28.1314 C   0  0  0  0  0  0  0  0  0  0  0  0
   -0.2234  -11.8615   16.8874 C   0  0  0  0  0  0  0  0  0  0  0  0
    6.4491   -4.1532   30.1213 C   0  0  0  0  0  0  0  0  0  0  0  0
    5.7060   -4.4340   27.4975 C   0  0  0  0  0  0  0  0  0  0  0  0
    1.1818   -5.6612   28.8399 C   0  0  0  0  0  0  0  0  0  0  0  0
   -1.2067   -7.3287   17.7772 C   0  0  0  0  0  0  0  0  0  0  0  0
   -0.0206  -10.5585   16.6210 C   0  0  0  0  0  0  0  0  0  0  0  0
    0.3696  -12.7626   16.2169 O   0  0  0  0  0  0  0  0  0  0  0  0
   -0.6895   -9.5676   17.3297 C   0  0  0  0  0  0  0  0  0  0  0  0
    0.8388   -5.8417   27.5264 C   0  0  0  0  0  0  0  0  0  0  0  0
   -2.0709   -7.6637   18.7817 C   0  0  0  0  0  0  0  0  0  0  0  0
   -0.5279   -8.2168   17.0717 C   0  0  0  0  0  0  0  0  0  0  0  0
    6.9694   -4.0191   27.8190 C   0  0  0  0  0  0  0  0  0  0  0  0
    5.1733   -4.5469   29.8123 C   0  0  0  0  0  0  0  0  0  0  0  0
   -1.7508  -11.3016   18.6072 C   0  0  0  0  0  0  0  0  0  0  0  0
    1.7497   -5.6771   26.4971 C   0  0  0  0  0  0  0  0  0  0  0  0
   -1.5799   -9.9322   18.3468 C   0  0  0  0  0  0  0  0  0  0  0  0
   -1.0871  -12.2214   17.8851 C   0  0  0  0  0  0  0  0  0  0  0  0
   -2.2706   -8.9669   19.0691 C   0  0  0  0  0  0  0  0  0  0  0  0
    3.0279   -5.3073   26.8197 C   0  0  0  0  0  0  0  0  0  0  0  0
    7.3282   -3.8948   29.1186 C   0  0  0  0  0  0  0  0  0  0  0  0
  1  3  4  0
  1  7  4  0
  2  3  1  0
  2  6  4  0
  2 16  4  0
  3 22  4  0
  4  9  4  0
  4 10  1  0
  4 20  4  0
  5 16  4  0
  5 23  4  0
  6 15  4  0
  7 12  4  0
  8 13  4  0
  8 14  4  0
  9 11  4  0
 11 14  4  0
 11 19  4  0
 12 18  4  0
 13 21  4  0
 15 23  4  0
 17 19  4  0
 17 20  4  0
 18 22  4  0
 19 21  4  0
M  END
$$$$

 Created by Python create_sdf_string function

 23 25  0  0  0  0  0  0  0  0999 V2000
    2.4610   -5.3070   29.1240 C   0  0  0  0  0  0  0  0  0  0  0  0
    4.7710   -4.6952   28.4803 C   0  0  0  0  0  0  0  0  0  0  0  0
    3.4047   -5.1087   28.1314 C   0  0  0  0  0  0  0  0  0  0  0  0
   -0.2234  -11.8615   16.8874 C   0  0  0  0  0  0  0  0  0  0  0  0
    6.4491   -4.1532   30.1213 C   0  0  0  0  0  0  0  0  0  0  0  0
    5.7060   -4.4340   27.4975 C   0  0  0  0  0  0  0  0  0  0  0  0
    1.1818   -5.6612   28.8399 C   0  0  0  0  0  0  0  0  0  0  0  0
   -1.2067   -7.3287   17.7772 C   0  0  0  0  0  0  0  0  0  0  0  0
   -0.0206  -10.5585   16.6210 C   0  0  0  0  0  0  0  0  0  0  0  0
    0.3696  -12.7626   16.2169 O   0  0  0  0  0  0  0  0  0  0  0  0
   -0.6895   -9.5676   17.3297 C   0  0  0  0  0  0  0  0  0  0  0  0
    0.8388   -5.8417   27.5264 C   0  0  0  0  0  0  0  0  0  0  0  0
   -2.0709   -7.6637   18.7817 C   0  0  0  0  0  0  0  0  0  0  0  0
   -0.5279   -8.2168   17.0717 C   0  0  0  0  0  0  0  0  0  0  0  0
    6.9694   -4.0191   27.8190 C   0  0  0  0  0  0  0  0  0  0  0  0
    5.1733   -4.5469   29.8123 C   0  0  0  0  0  0  0  0  0  0  0  0
   -1.7508  -11.3016   18.6072 C   0  0  0  0  0  0  0  0  0  0  0  0
    1.7497   -5.6771   26.4971 C   0  0  0  0  0  0  0  0  0  0  0  0
   -1.5799   -9.9322   18.3468 C   0  0  0  0  0  0  0  0  0  0  0  0
   -1.0871  -12.2214   17.8851 C   0  0  0  0  0  0  0  0  0  0  0  0
   -2.2706   -8.9669   19.0691 C   0  0  0  0  0  0  0  0  0  0  0  0
    3.0279   -5.3073   26.8197 C   0  0  0  0  0  0  0  0  0  0  0  0
    7.3282   -3.8948   29.1186 C   0  0  0  0  0  0  0  0  0  0  0  0
  1  3  4  0
  1  7  4  0
  2  3  1  0
  2  6  4  0
  2 16  4  0
  3 22  4  0
  4  9  4  0
  4 10  1  0
  4 20  4  0
  5 16  4  0
  5 23  4  0
  6 15  4  0
  7 12  4  0
  8 13  4  0
  8 14  4  0
  9 11  4  0
 11 14  4  0
 11 19  4  0
 12 18  4  0
 13 21  4  0
 15 23  4  0
 17 19  4  0
 17 20  4  0
 18 22  4  0
 19 21  4  0
M  END
$$$$

 Created by Python create_sdf_string function

 23 25  0  0  0  0  0  0  0  0999 V2000
    2.4610   -5.3070   29.1240 C   0  0  0  0  0  0  0  0  0  0  0  0
    4.7710   -4.6952   28.4803 C   0  0  0  0  0  0  0  0  0  0  0  0
    3.4047   -5.1087   28.1314 C   0  0  0  0  0  0  0  0  0  0  0  0
   -0.2234  -11.8615   16.8874 C   0  0  0  0  0  0  0  0  0  0  0  0
    6.4491   -4.1532   30.1213 C   0  0  0  0  0  0  0  0  0  0  0  0
    5.7060   -4.4340   27.4975 C   0  0  0  0  0  0  0  0  0  0  0  0
    1.1818   -5.6612   28.8399 C   0  0  0  0  0  0  0  0  0  0  0  0
   -1.2067   -7.3287   17.7772 C   0  0  0  0  0  0  0  0  0  0  0  0
   -0.0206  -10.5585   16.6210 C   0  0  0  0  0  0  0  0  0  0  0  0
    0.3696  -12.7626   16.2169 O   0  0  0  0  0  0  0  0  0  0  0  0
   -0.6895   -9.5676   17.3297 C   0  0  0  0  0  0  0  0  0  0  0  0
    0.8388   -5.8417   27.5264 C   0  0  0  0  0  0  0  0  0  0  0  0
   -2.0709   -7.6637   18.7817 C   0  0  0  0  0  0  0  0  0  0  0  0
   -0.5279   -8.2168   17.0717 C   0  0  0  0  0  0  0  0  0  0  0  0
    6.9694   -4.0191   27.8190 C   0  0  0  0  0  0  0  0  0  0  0  0
    5.1733   -4.5469   29.8123 C   0  0  0  0  0  0  0  0  0  0  0  0
   -1.7508  -11.3016   18.6072 C   0  0  0  0  0  0  0  0  0  0  0  0
    1.7497   -5.6771   26.4971 C   0  0  0  0  0  0  0  0  0  0  0  0
   -1.5799   -9.9322   18.3468 C   0  0  0  0  0  0  0  0  0  0  0  0
   -1.0871  -12.2214   17.8851 C   0  0  0  0  0  0  0  0  0  0  0  0
   -2.2706   -8.9669   19.0691 C   0  0  0  0  0  0  0  0  0  0  0  0
    3.0279   -5.3073   26.8197 C   0  0  0  0  0  0  0  0  0  0  0  0
    7.3282   -3.8948   29.1186 C   0  0  0  0  0  0  0  0  0  0  0  0
  1  3  4  0
  1  7  4  0
  2  3  1  0
  2  6  4  0
  2 16  4  0
  3 22  4  0
  4  9  4  0
  4 10  1  0
  4 20  4  0
  5 16  4  0
  5 23  4  0
  6 15  4  0
  7 12  4  0
  8 13  4  0
  8 14  4  0
  9 11  4  0
 11 14  4  0
 11 19  4  0
 12 18  4  0
 13 21  4  0
 15 23  4  0
 17 19  4  0
 17 20  4  0
 18 22  4  0
 19 21  4  0
M  END
$$$$

 Created by Python create_sdf_string function

 23 25  0  0  0  0  0  0  0  0999 V2000
    2.4610   -5.3070   29.1240 C   0  0  0  0  0  0  0  0  0  0  0  0
    4.7710   -4.6952   28.4803 C   0  0  0  0  0  0  0  0  0  0  0  0
    3.4047   -5.1087   28.1314 C   0  0  0  0  0  0  0  0  0  0  0  0
   -0.2234  -11.8615   16.8874 C   0  0  0  0  0  0  0  0  0  0  0  0
    6.4491   -4.1532   30.1213 C   0  0  0  0  0  0  0  0  0  0  0  0
    5.7060   -4.4340   27.4975 C   0  0  0  0  0  0  0  0  0  0  0  0
    1.1818   -5.6612   28.8399 C   0  0  0  0  0  0  0  0  0  0  0  0
   -1.2067   -7.3287   17.7772 C   0  0  0  0  0  0  0  0  0  0  0  0
   -0.0206  -10.5585   16.6210 C   0  0  0  0  0  0  0  0  0  0  0  0
    0.3696  -12.7626   16.2169 O   0  0  0  0  0  0  0  0  0  0  0  0
   -0.6895   -9.5676   17.3297 C   0  0  0  0  0  0  0  0  0  0  0  0
    0.8388   -5.8417   27.5264 C   0  0  0  0  0  0  0  0  0  0  0  0
   -2.0709   -7.6637   18.7817 C   0  0  0  0  0  0  0  0  0  0  0  0
   -0.5279   -8.2168   17.0717 C   0  0  0  0  0  0  0  0  0  0  0  0
    6.9694   -4.0191   27.8190 C   0  0  0  0  0  0  0  0  0  0  0  0
    5.1733   -4.5469   29.8123 C   0  0  0  0  0  0  0  0  0  0  0  0
   -1.7508  -11.3016   18.6072 C   0  0  0  0  0  0  0  0  0  0  0  0
    1.7497   -5.6771   26.4971 C   0  0  0  0  0  0  0  0  0  0  0  0
   -1.5799   -9.9322   18.3468 C   0  0  0  0  0  0  0  0  0  0  0  0
   -1.0871  -12.2214   17.8851 C   0  0  0  0  0  0  0  0  0  0  0  0
   -2.2706   -8.9669   19.0691 C   0  0  0  0  0  0  0  0  0  0  0  0
    3.0279   -5.3073   26.8197 C   0  0  0  0  0  0  0  0  0  0  0  0
    7.3282   -3.8948   29.1186 C   0  0  0  0  0  0  0  0  0  0  0  0
  1  3  4  0
  1  7  4  0
  2  3  1  0
  2  6  4  0
  2 16  4  0
  3 22  4  0
  4  9  4  0
  4 10  1  0
  4 20  4  0
  5 16  4  0
  5 23  4  0
  6 15  4  0
  7 12  4  0
  8 13  4  0
  8 14  4  0
  9 11  4  0
 11 14  4  0
 11 19  4  0
 12 18  4  0
 13 21  4  0
 15 23  4  0
 17 19  4  0
 17 20  4  0
 18 22  4  0
 19 21  4  0
M  END
$$$$

 Created by Python create_sdf_string function

 23 25  0  0  0  0  0  0  0  0999 V2000
    2.4610   -5.3070   29.1240 C   0  0  0  0  0  0  0  0  0  0  0  0
    4.7710   -4.6952   28.4803 C   0  0  0  0  0  0  0  0  0  0  0  0
    3.4047   -5.1087   28.1314 C   0  0  0  0  0  0  0  0  0  0  0  0
   -0.2234  -11.8615   16.8874 C   0  0  0  0  0  0  0  0  0  0  0  0
    6.4491   -4.1532   30.1213 C   0  0  0  0  0  0  0  0  0  0  0  0
    5.7060   -4.4340   27.4975 C   0  0  0  0  0  0  0  0  0  0  0  0
    1.1818   -5.6612   28.8399 C   0  0  0  0  0  0  0  0  0  0  0  0
   -1.2067   -7.3287   17.7772 C   0  0  0  0  0  0  0  0  0  0  0  0
   -0.0206  -10.5585   16.6210 C   0  0  0  0  0  0  0  0  0  0  0  0
    0.3696  -12.7626   16.2169 O   0  0  0  0  0  0  0  0  0  0  0  0
   -0.6895   -9.5676   17.3297 C   0  0  0  0  0  0  0  0  0  0  0  0
    0.8388   -5.8417   27.5264 C   0  0  0  0  0  0  0  0  0  0  0  0
   -2.0709   -7.6637   18.7817 C   0  0  0  0  0  0  0  0  0  0  0  0
   -0.5279   -8.2168   17.0717 C   0  0  0  0  0  0  0  0  0  0  0  0
    6.9694   -4.0191   27.8190 C   0  0  0  0  0  0  0  0  0  0  0  0
    5.1733   -4.5469   29.8123 C   0  0  0  0  0  0  0  0  0  0  0  0
   -1.7508  -11.3016   18.6072 C   0  0  0  0  0  0  0  0  0  0  0  0
    1.7497   -5.6771   26.4971 C   0  0  0  0  0  0  0  0  0  0  0  0
   -1.5799   -9.9322   18.3468 C   0  0  0  0  0  0  0  0  0  0  0  0
   -1.0871  -12.2214   17.8851 C   0  0  0  0  0  0  0  0  0  0  0  0
   -2.2706   -8.9669   19.0691 C   0  0  0  0  0  0  0  0  0  0  0  0
    3.0279   -5.3073   26.8197 C   0  0  0  0  0  0  0  0  0  0  0  0
    7.3282   -3.8948   29.1186 C   0  0  0  0  0  0  0  0  0  0  0  0
  1  3  4  0
  1  7  4  0
  2  3  1  0
  2  6  4  0
  2 16  4  0
  3 22  4  0
  4  9  4  0
  4 10  1  0
  4 20  4  0
  5 16  4  0
  5 23  4  0
  6 15  4  0
  7 12  4  0
  8 13  4  0
  8 14  4  0
  9 11  4  0
 11 14  4  0
 11 19  4  0
 12 18  4  0
 13 21  4  0
 15 23  4  0
 17 19  4  0
 17 20  4  0
 18 22  4  0
 19 21  4  0
M  END
$$$$

 Created by Python create_sdf_string function

 23 25  0  0  0  0  0  0  0  0999 V2000
    2.4610   -5.3070   29.1240 C   0  0  0  0  0  0  0  0  0  0  0  0
    4.7710   -4.6952   28.4803 C   0  0  0  0  0  0  0  0  0  0  0  0
    3.4047   -5.1087   28.1314 C   0  0  0  0  0  0  0  0  0  0  0  0
   -0.2234  -11.8615   16.8874 C   0  0  0  0  0  0  0  0  0  0  0  0
    6.4491   -4.1532   30.1213 C   0  0  0  0  0  0  0  0  0  0  0  0
    5.7060   -4.4340   27.4975 C   0  0  0  0  0  0  0  0  0  0  0  0
    1.1818   -5.6612   28.8399 C   0  0  0  0  0  0  0  0  0  0  0  0
   -1.2067   -7.3287   17.7772 C   0  0  0  0  0  0  0  0  0  0  0  0
   -0.0206  -10.5585   16.6210 C   0  0  0  0  0  0  0  0  0  0  0  0
    0.3696  -12.7626   16.2169 O   0  0  0  0  0  0  0  0  0  0  0  0
   -0.6895   -9.5676   17.3297 C   0  0  0  0  0  0  0  0  0  0  0  0
    0.8388   -5.8417   27.5264 C   0  0  0  0  0  0  0  0  0  0  0  0
   -2.0709   -7.6637   18.7817 C   0  0  0  0  0  0  0  0  0  0  0  0
   -0.5279   -8.2168   17.0717 C   0  0  0  0  0  0  0  0  0  0  0  0
    6.9694   -4.0191   27.8190 C   0  0  0  0  0  0  0  0  0  0  0  0
    5.1733   -4.5469   29.8123 C   0  0  0  0  0  0  0  0  0  0  0  0
   -1.7508  -11.3016   18.6072 C   0  0  0  0  0  0  0  0  0  0  0  0
    1.7497   -5.6771   26.4971 C   0  0  0  0  0  0  0  0  0  0  0  0
   -1.5799   -9.9322   18.3468 C   0  0  0  0  0  0  0  0  0  0  0  0
   -1.0871  -12.2214   17.8851 C   0  0  0  0  0  0  0  0  0  0  0  0
   -2.2706   -8.9669   19.0691 C   0  0  0  0  0  0  0  0  0  0  0  0
    3.0279   -5.3073   26.8197 C   0  0  0  0  0  0  0  0  0  0  0  0
    7.3282   -3.8948   29.1186 C   0  0  0  0  0  0  0  0  0  0  0  0
  1  3  4  0
  1  7  4  0
  2  3  1  0
  2  6  4  0
  2 16  4  0
  3 22  4  0
  4  9  4  0
  4 10  1  0
  4 20  4  0
  5 16  4  0
  5 23  4  0
  6 15  4  0
  7 12  4  0
  8 13  4  0
  8 14  4  0
  9 11  4  0
 11 14  4  0
 11 19  4  0
 12 18  4  0
 13 21  4  0
 15 23  4  0
 17 19  4  0
 17 20  4  0
 18 22  4  0
 19 21  4  0
M  END
$$$$

 Created by Python create_sdf_string function

 23 25  0  0  0  0  0  0  0  0999 V2000
    2.4610   -5.3070   29.1240 C   0  0  0  0  0  0  0  0  0  0  0  0
    4.7710   -4.6952   28.4803 C   0  0  0  0  0  0  0  0  0  0  0  0
    3.4047   -5.1087   28.1314 C   0  0  0  0  0  0  0  0  0  0  0  0
   -0.2234  -11.8615   16.8874 C   0  0  0  0  0  0  0  0  0  0  0  0
    6.4491   -4.1532   30.1213 C   0  0  0  0  0  0  0  0  0  0  0  0
    5.7060   -4.4340   27.4975 C   0  0  0  0  0  0  0  0  0  0  0  0
    1.1818   -5.6612   28.8399 C   0  0  0  0  0  0  0  0  0  0  0  0
   -1.2067   -7.3287   17.7772 C   0  0  0  0  0  0  0  0  0  0  0  0
   -0.0206  -10.5585   16.6210 C   0  0  0  0  0  0  0  0  0  0  0  0
    0.3696  -12.7626   16.2169 O   0  0  0  0  0  0  0  0  0  0  0  0
   -0.6895   -9.5676   17.3297 C   0  0  0  0  0  0  0  0  0  0  0  0
    0.8388   -5.8417   27.5264 C   0  0  0  0  0  0  0  0  0  0  0  0
   -2.0709   -7.6637   18.7817 C   0  0  0  0  0  0  0  0  0  0  0  0
   -0.5279   -8.2168   17.0717 C   0  0  0  0  0  0  0  0  0  0  0  0
    6.9694   -4.0191   27.8190 C   0  0  0  0  0  0  0  0  0  0  0  0
    5.1733   -4.5469   29.8123 C   0  0  0  0  0  0  0  0  0  0  0  0
   -1.7508  -11.3016   18.6072 C   0  0  0  0  0  0  0  0  0  0  0  0
    1.7497   -5.6771   26.4971 C   0  0  0  0  0  0  0  0  0  0  0  0
   -1.5799   -9.9322   18.3468 C   0  0  0  0  0  0  0  0  0  0  0  0
   -1.0871  -12.2214   17.8851 C   0  0  0  0  0  0  0  0  0  0  0  0
   -2.2706   -8.9669   19.0691 C   0  0  0  0  0  0  0  0  0  0  0  0
    3.0279   -5.3073   26.8197 C   0  0  0  0  0  0  0  0  0  0  0  0
    7.3282   -3.8948   29.1186 C   0  0  0  0  0  0  0  0  0  0  0  0
  1  3  4  0
  1  7  4  0
  2  3  1  0
  2  6  4  0
  2 16  4  0
  3 22  4  0
  4  9  4  0
  4 10  1  0
  4 20  4  0
  5 16  4  0
  5 23  4  0
  6 15  4  0
  7 12  4  0
  8 13  4  0
  8 14  4  0
  9 11  4  0
 11 14  4  0
 11 19  4  0
 12 18  4  0
 13 21  4  0
 15 23  4  0
 17 19  4  0
 17 20  4  0
 18 22  4  0
 19 21  4  0
M  END
$$$$

 Created by Python create_sdf_string function

 23 25  0  0  0  0  0  0  0  0999 V2000
    2.4610   -5.3070   29.1240 C   0  0  0  0  0  0  0  0  0  0  0  0
    4.7710   -4.6952   28.4803 C   0  0  0  0  0  0  0  0  0  0  0  0
    3.4047   -5.1087   28.1314 C   0  0  0  0  0  0  0  0  0  0  0  0
   -0.2234  -11.8615   16.8874 C   0  0  0  0  0  0  0  0  0  0  0  0
    6.4491   -4.1532   30.1213 C   0  0  0  0  0  0  0  0  0  0  0  0
    5.7060   -4.4340   27.4975 C   0  0  0  0  0  0  0  0  0  0  0  0
    1.1818   -5.6612   28.8399 C   0  0  0  0  0  0  0  0  0  0  0  0
   -1.2067   -7.3287   17.7772 C   0  0  0  0  0  0  0  0  0  0  0  0
   -0.0206  -10.5585   16.6210 C   0  0  0  0  0  0  0  0  0  0  0  0
    0.3696  -12.7626   16.2169 O   0  0  0  0  0  0  0  0  0  0  0  0
   -0.6895   -9.5676   17.3297 C   0  0  0  0  0  0  0  0  0  0  0  0
    0.8388   -5.8417   27.5264 C   0  0  0  0  0  0  0  0  0  0  0  0
   -2.0709   -7.6637   18.7817 C   0  0  0  0  0  0  0  0  0  0  0  0
   -0.5279   -8.2168   17.0717 C   0  0  0  0  0  0  0  0  0  0  0  0
    6.9694   -4.0191   27.8190 C   0  0  0  0  0  0  0  0  0  0  0  0
    5.1733   -4.5469   29.8123 C   0  0  0  0  0  0  0  0  0  0  0  0
   -1.7508  -11.3016   18.6072 C   0  0  0  0  0  0  0  0  0  0  0  0
    1.7497   -5.6771   26.4971 C   0  0  0  0  0  0  0  0  0  0  0  0
   -1.5799   -9.9322   18.3468 C   0  0  0  0  0  0  0  0  0  0  0  0
   -1.0871  -12.2214   17.8851 C   0  0  0  0  0  0  0  0  0  0  0  0
   -2.2706   -8.9669   19.0691 C   0  0  0  0  0  0  0  0  0  0  0  0
    3.0279   -5.3073   26.8197 C   0  0  0  0  0  0  0  0  0  0  0  0
    7.3282   -3.8948   29.1186 C   0  0  0  0  0  0  0  0  0  0  0  0
  1  3  4  0
  1  7  4  0
  2  3  1  0
  2  6  4  0
  2 16  4  0
  3 22  4  0
  4  9  4  0
  4 10  1  0
  4 20  4  0
  5 16  4  0
  5 23  4  0
  6 15  4  0
  7 12  4  0
  8 13  4  0
  8 14  4  0
  9 11  4  0
 11 14  4  0
 11 19  4  0
 12 18  4  0
 13 21  4  0
 15 23  4  0
 17 19  4  0
 17 20  4  0
 18 22  4  0
 19 21  4  0
M  END
$$$$

 Created by Python create_sdf_string function

 23 25  0  0  0  0  0  0  0  0999 V2000
    2.4610   -5.3070   29.1240 C   0  0  0  0  0  0  0  0  0  0  0  0
    4.7710   -4.6952   28.4803 C   0  0  0  0  0  0  0  0  0  0  0  0
    3.4047   -5.1087   28.1314 C   0  0  0  0  0  0  0  0  0  0  0  0
   -0.2234  -11.8615   16.8874 C   0  0  0  0  0  0  0  0  0  0  0  0
    6.4491   -4.1532   30.1213 C   0  0  0  0  0  0  0  0  0  0  0  0
    5.7060   -4.4340   27.4975 C   0  0  0  0  0  0  0  0  0  0  0  0
    1.1818   -5.6612   28.8399 C   0  0  0  0  0  0  0  0  0  0  0  0
   -1.2067   -7.3287   17.7772 C   0  0  0  0  0  0  0  0  0  0  0  0
   -0.0206  -10.5585   16.6210 C   0  0  0  0  0  0  0  0  0  0  0  0
    0.3696  -12.7626   16.2169 O   0  0  0  0  0  0  0  0  0  0  0  0
   -0.6895   -9.5676   17.3297 C   0  0  0  0  0  0  0  0  0  0  0  0
    0.8388   -5.8417   27.5264 C   0  0  0  0  0  0  0  0  0  0  0  0
   -2.0709   -7.6637   18.7817 C   0  0  0  0  0  0  0  0  0  0  0  0
   -0.5279   -8.2168   17.0717 C   0  0  0  0  0  0  0  0  0  0  0  0
    6.9694   -4.0191   27.8190 C   0  0  0  0  0  0  0  0  0  0  0  0
    5.1733   -4.5469   29.8123 C   0  0  0  0  0  0  0  0  0  0  0  0
   -1.7508  -11.3016   18.6072 C   0  0  0  0  0  0  0  0  0  0  0  0
    1.7497   -5.6771   26.4971 C   0  0  0  0  0  0  0  0  0  0  0  0
   -1.5799   -9.9322   18.3468 C   0  0  0  0  0  0  0  0  0  0  0  0
   -1.0871  -12.2214   17.8851 C   0  0  0  0  0  0  0  0  0  0  0  0
   -2.2706   -8.9669   19.0691 C   0  0  0  0  0  0  0  0  0  0  0  0
    3.0279   -5.3073   26.8197 C   0  0  0  0  0  0  0  0  0  0  0  0
    7.3282   -3.8948   29.1186 C   0  0  0  0  0  0  0  0  0  0  0  0
  1  3  4  0
  1  7  4  0
  2  3  1  0
  2  6  4  0
  2 16  4  0
  3 22  4  0
  4  9  4  0
  4 10  1  0
  4 20  4  0
  5 16  4  0
  5 23  4  0
  6 15  4  0
  7 12  4  0
  8 13  4  0
  8 14  4  0
  9 11  4  0
 11 14  4  0
 11 19  4  0
 12 18  4  0
 13 21  4  0
 15 23  4  0
 17 19  4  0
 17 20  4  0
 18 22  4  0
 19 21  4  0
M  END
$$$$

 Created by Python create_sdf_string function

 23 25  0  0  0  0  0  0  0  0999 V2000
    2.4610   -5.3070   29.1240 C   0  0  0  0  0  0  0  0  0  0  0  0
    4.7710   -4.6952   28.4803 C   0  0  0  0  0  0  0  0  0  0  0  0
    3.4047   -5.1087   28.1314 C   0  0  0  0  0  0  0  0  0  0  0  0
   -0.2234  -11.8615   16.8874 C   0  0  0  0  0  0  0  0  0  0  0  0
    6.4491   -4.1532   30.1213 C   0  0  0  0  0  0  0  0  0  0  0  0
    5.7060   -4.4340   27.4975 C   0  0  0  0  0  0  0  0  0  0  0  0
    1.1818   -5.6612   28.8399 C   0  0  0  0  0  0  0  0  0  0  0  0
   -1.2067   -7.3287   17.7772 C   0  0  0  0  0  0  0  0  0  0  0  0
   -0.0206  -10.5585   16.6210 C   0  0  0  0  0  0  0  0  0  0  0  0
    0.3696  -12.7626   16.2169 O   0  0  0  0  0  0  0  0  0  0  0  0
   -0.6895   -9.5676   17.3297 C   0  0  0  0  0  0  0  0  0  0  0  0
    0.8388   -5.8417   27.5264 C   0  0  0  0  0  0  0  0  0  0  0  0
   -2.0709   -7.6637   18.7817 C   0  0  0  0  0  0  0  0  0  0  0  0
   -0.5279   -8.2168   17.0717 C   0  0  0  0  0  0  0  0  0  0  0  0
    6.9694   -4.0191   27.8190 C   0  0  0  0  0  0  0  0  0  0  0  0
    5.1733   -4.5469   29.8123 C   0  0  0  0  0  0  0  0  0  0  0  0
   -1.7508  -11.3016   18.6072 C   0  0  0  0  0  0  0  0  0  0  0  0
    1.7497   -5.6771   26.4971 C   0  0  0  0  0  0  0  0  0  0  0  0
   -1.5799   -9.9322   18.3468 C   0  0  0  0  0  0  0  0  0  0  0  0
   -1.0871  -12.2214   17.8851 C   0  0  0  0  0  0  0  0  0  0  0  0
   -2.2706   -8.9669   19.0691 C   0  0  0  0  0  0  0  0  0  0  0  0
    3.0279   -5.3073   26.8197 C   0  0  0  0  0  0  0  0  0  0  0  0
    7.3282   -3.8948   29.1186 C   0  0  0  0  0  0  0  0  0  0  0  0
  1  3  4  0
  1  7  4  0
  2  3  1  0
  2  6  4  0
  2 16  4  0
  3 22  4  0
  4  9  4  0
  4 10  1  0
  4 20  4  0
  5 16  4  0
  5 23  4  0
  6 15  4  0
  7 12  4  0
  8 13  4  0
  8 14  4  0
  9 11  4  0
 11 14  4  0
 11 19  4  0
 12 18  4  0
 13 21  4  0
 15 23  4  0
 17 19  4  0
 17 20  4  0
 18 22  4  0
 19 21  4  0
M  END
$$$$

 Created by Python create_sdf_string function

 23 25  0  0  0  0  0  0  0  0999 V2000
    2.4610   -5.3070   29.1240 C   0  0  0  0  0  0  0  0  0  0  0  0
    4.7710   -4.6952   28.4803 C   0  0  0  0  0  0  0  0  0  0  0  0
    3.4047   -5.1087   28.1314 C   0  0  0  0  0  0  0  0  0  0  0  0
   -0.2234  -11.8615   16.8874 C   0  0  0  0  0  0  0  0  0  0  0  0
    6.4491   -4.1532   30.1213 C   0  0  0  0  0  0  0  0  0  0  0  0
    5.7060   -4.4340   27.4975 C   0  0  0  0  0  0  0  0  0  0  0  0
    1.1818   -5.6612   28.8399 C   0  0  0  0  0  0  0  0  0  0  0  0
   -1.2067   -7.3287   17.7772 C   0  0  0  0  0  0  0  0  0  0  0  0
   -0.0206  -10.5585   16.6210 C   0  0  0  0  0  0  0  0  0  0  0  0
    0.3696  -12.7626   16.2169 O   0  0  0  0  0  0  0  0  0  0  0  0
   -0.6895   -9.5676   17.3297 C   0  0  0  0  0  0  0  0  0  0  0  0
    0.8388   -5.8417   27.5264 C   0  0  0  0  0  0  0  0  0  0  0  0
   -2.0709   -7.6637   18.7817 C   0  0  0  0  0  0  0  0  0  0  0  0
   -0.5279   -8.2168   17.0717 C   0  0  0  0  0  0  0  0  0  0  0  0
    6.9694   -4.0191   27.8190 C   0  0  0  0  0  0  0  0  0  0  0  0
    5.1733   -4.5469   29.8123 C   0  0  0  0  0  0  0  0  0  0  0  0
   -1.7508  -11.3016   18.6072 C   0  0  0  0  0  0  0  0  0  0  0  0
    1.7497   -5.6771   26.4971 C   0  0  0  0  0  0  0  0  0  0  0  0
   -1.5799   -9.9322   18.3468 C   0  0  0  0  0  0  0  0  0  0  0  0
   -1.0871  -12.2214   17.8851 C   0  0  0  0  0  0  0  0  0  0  0  0
   -2.2706   -8.9669   19.0691 C   0  0  0  0  0  0  0  0  0  0  0  0
    3.0279   -5.3073   26.8197 C   0  0  0  0  0  0  0  0  0  0  0  0
    7.3282   -3.8948   29.1186 C   0  0  0  0  0  0  0  0  0  0  0  0
  1  3  4  0
  1  7  4  0
  2  3  1  0
  2  6  4  0
  2 16  4  0
  3 22  4  0
  4  9  4  0
  4 10  1  0
  4 20  4  0
  5 16  4  0
  5 23  4  0
  6 15  4  0
  7 12  4  0
  8 13  4  0
  8 14  4  0
  9 11  4  0
 11 14  4  0
 11 19  4  0
 12 18  4  0
 13 21  4  0
 15 23  4  0
 17 19  4  0
 17 20  4  0
 18 22  4  0
 19 21  4  0
M  END
$$$$

 Created by Python create_sdf_string function

 23 25  0  0  0  0  0  0  0  0999 V2000
    2.4610   -5.3070   29.1240 C   0  0  0  0  0  0  0  0  0  0  0  0
    4.7710   -4.6952   28.4803 C   0  0  0  0  0  0  0  0  0  0  0  0
    3.4047   -5.1087   28.1314 C   0  0  0  0  0  0  0  0  0  0  0  0
   -0.2234  -11.8615   16.8874 C   0  0  0  0  0  0  0  0  0  0  0  0
    6.4491   -4.1532   30.1213 C   0  0  0  0  0  0  0  0  0  0  0  0
    5.7060   -4.4340   27.4975 C   0  0  0  0  0  0  0  0  0  0  0  0
    1.1818   -5.6612   28.8399 C   0  0  0  0  0  0  0  0  0  0  0  0
   -1.2067   -7.3287   17.7772 C   0  0  0  0  0  0  0  0  0  0  0  0
   -0.0206  -10.5585   16.6210 C   0  0  0  0  0  0  0  0  0  0  0  0
    0.3696  -12.7626   16.2169 O   0  0  0  0  0  0  0  0  0  0  0  0
   -0.6895   -9.5676   17.3297 C   0  0  0  0  0  0  0  0  0  0  0  0
    0.8388   -5.8417   27.5264 C   0  0  0  0  0  0  0  0  0  0  0  0
   -2.0709   -7.6637   18.7817 C   0  0  0  0  0  0  0  0  0  0  0  0
   -0.5279   -8.2168   17.0717 C   0  0  0  0  0  0  0  0  0  0  0  0
    6.9694   -4.0191   27.8190 C   0  0  0  0  0  0  0  0  0  0  0  0
    5.1733   -4.5469   29.8123 C   0  0  0  0  0  0  0  0  0  0  0  0
   -1.7508  -11.3016   18.6072 C   0  0  0  0  0  0  0  0  0  0  0  0
    1.7497   -5.6771   26.4971 C   0  0  0  0  0  0  0  0  0  0  0  0
   -1.5799   -9.9322   18.3468 C   0  0  0  0  0  0  0  0  0  0  0  0
   -1.0871  -12.2214   17.8851 C   0  0  0  0  0  0  0  0  0  0  0  0
   -2.2706   -8.9669   19.0691 C   0  0  0  0  0  0  0  0  0  0  0  0
    3.0279   -5.3073   26.8197 C   0  0  0  0  0  0  0  0  0  0  0  0
    7.3282   -3.8948   29.1186 C   0  0  0  0  0  0  0  0  0  0  0  0
  1  3  4  0
  1  7  4  0
  2  3  1  0
  2  6  4  0
  2 16  4  0
  3 22  4  0
  4  9  4  0
  4 10  1  0
  4 20  4  0
  5 16  4  0
  5 23  4  0
  6 15  4  0
  7 12  4  0
  8 13  4  0
  8 14  4  0
  9 11  4  0
 11 14  4  0
 11 19  4  0
 12 18  4  0
 13 21  4  0
 15 23  4  0
 17 19  4  0
 17 20  4  0
 18 22  4  0
 19 21  4  0
M  END
$$$$

 Created by Python create_sdf_string function

 23 25  0  0  0  0  0  0  0  0999 V2000
    2.4610   -5.3070   29.1240 C   0  0  0  0  0  0  0  0  0  0  0  0
    4.7710   -4.6952   28.4803 C   0  0  0  0  0  0  0  0  0  0  0  0
    3.4047   -5.1087   28.1314 C   0  0  0  0  0  0  0  0  0  0  0  0
   -0.2234  -11.8615   16.8874 C   0  0  0  0  0  0  0  0  0  0  0  0
    6.4491   -4.1532   30.1213 C   0  0  0  0  0  0  0  0  0  0  0  0
    5.7060   -4.4340   27.4975 C   0  0  0  0  0  0  0  0  0  0  0  0
    1.1818   -5.6612   28.8399 C   0  0  0  0  0  0  0  0  0  0  0  0
   -1.2067   -7.3287   17.7772 C   0  0  0  0  0  0  0  0  0  0  0  0
   -0.0206  -10.5585   16.6210 C   0  0  0  0  0  0  0  0  0  0  0  0
    0.3696  -12.7626   16.2169 O   0  0  0  0  0  0  0  0  0  0  0  0
   -0.6895   -9.5676   17.3297 C   0  0  0  0  0  0  0  0  0  0  0  0
    0.8388   -5.8417   27.5264 C   0  0  0  0  0  0  0  0  0  0  0  0
   -2.0709   -7.6637   18.7817 C   0  0  0  0  0  0  0  0  0  0  0  0
   -0.5279   -8.2168   17.0717 C   0  0  0  0  0  0  0  0  0  0  0  0
    6.9694   -4.0191   27.8190 C   0  0  0  0  0  0  0  0  0  0  0  0
    5.1733   -4.5469   29.8123 C   0  0  0  0  0  0  0  0  0  0  0  0
   -1.7508  -11.3016   18.6072 C   0  0  0  0  0  0  0  0  0  0  0  0
    1.7497   -5.6771   26.4971 C   0  0  0  0  0  0  0  0  0  0  0  0
   -1.5799   -9.9322   18.3468 C   0  0  0  0  0  0  0  0  0  0  0  0
   -1.0871  -12.2214   17.8851 C   0  0  0  0  0  0  0  0  0  0  0  0
   -2.2706   -8.9669   19.0691 C   0  0  0  0  0  0  0  0  0  0  0  0
    3.0279   -5.3073   26.8197 C   0  0  0  0  0  0  0  0  0  0  0  0
    7.3282   -3.8948   29.1186 C   0  0  0  0  0  0  0  0  0  0  0  0
  1  3  4  0
  1  7  4  0
  2  3  1  0
  2  6  4  0
  2 16  4  0
  3 22  4  0
  4  9  4  0
  4 10  1  0
  4 20  4  0
  5 16  4  0
  5 23  4  0
  6 15  4  0
  7 12  4  0
  8 13  4  0
  8 14  4  0
  9 11  4  0
 11 14  4  0
 11 19  4  0
 12 18  4  0
 13 21  4  0
 15 23  4  0
 17 19  4  0
 17 20  4  0
 18 22  4  0
 19 21  4  0
M  END
$$$$

 Created by Python create_sdf_string function

 23 25  0  0  0  0  0  0  0  0999 V2000
    2.4610   -5.3070   29.1240 C   0  0  0  0  0  0  0  0  0  0  0  0
    4.7710   -4.6952   28.4803 C   0  0  0  0  0  0  0  0  0  0  0  0
    3.4047   -5.1087   28.1314 C   0  0  0  0  0  0  0  0  0  0  0  0
   -0.2234  -11.8615   16.8874 C   0  0  0  0  0  0  0  0  0  0  0  0
    6.4491   -4.1532   30.1213 C   0  0  0  0  0  0  0  0  0  0  0  0
    5.7060   -4.4340   27.4975 C   0  0  0  0  0  0  0  0  0  0  0  0
    1.1818   -5.6612   28.8399 C   0  0  0  0  0  0  0  0  0  0  0  0
   -1.2067   -7.3287   17.7772 C   0  0  0  0  0  0  0  0  0  0  0  0
   -0.0206  -10.5585   16.6210 C   0  0  0  0  0  0  0  0  0  0  0  0
    0.3696  -12.7626   16.2169 O   0  0  0  0  0  0  0  0  0  0  0  0
   -0.6895   -9.5676   17.3297 C   0  0  0  0  0  0  0  0  0  0  0  0
    0.8388   -5.8417   27.5264 C   0  0  0  0  0  0  0  0  0  0  0  0
   -2.0709   -7.6637   18.7817 C   0  0  0  0  0  0  0  0  0  0  0  0
   -0.5279   -8.2168   17.0717 C   0  0  0  0  0  0  0  0  0  0  0  0
    6.9694   -4.0191   27.8190 C   0  0  0  0  0  0  0  0  0  0  0  0
    5.1733   -4.5469   29.8123 C   0  0  0  0  0  0  0  0  0  0  0  0
   -1.7508  -11.3016   18.6072 C   0  0  0  0  0  0  0  0  0  0  0  0
    1.7497   -5.6771   26.4971 C   0  0  0  0  0  0  0  0  0  0  0  0
   -1.5799   -9.9322   18.3468 C   0  0  0  0  0  0  0  0  0  0  0  0
   -1.0871  -12.2214   17.8851 C   0  0  0  0  0  0  0  0  0  0  0  0
   -2.2706   -8.9669   19.0691 C   0  0  0  0  0  0  0  0  0  0  0  0
    3.0279   -5.3073   26.8197 C   0  0  0  0  0  0  0  0  0  0  0  0
    7.3282   -3.8948   29.1186 C   0  0  0  0  0  0  0  0  0  0  0  0
  1  3  4  0
  1  7  4  0
  2  3  1  0
  2  6  4  0
  2 16  4  0
  3 22  4  0
  4  9  4  0
  4 10  1  0
  4 20  4  0
  5 16  4  0
  5 23  4  0
  6 15  4  0
  7 12  4  0
  8 13  4  0
  8 14  4  0
  9 11  4  0
 11 14  4  0
 11 19  4  0
 12 18  4  0
 13 21  4  0
 15 23  4  0
 17 19  4  0
 17 20  4  0
 18 22  4  0
 19 21  4  0
M  END
$$$$

 Created by Python create_sdf_string function

 23 25  0  0  0  0  0  0  0  0999 V2000
    2.4610   -5.3070   29.1240 C   0  0  0  0  0  0  0  0  0  0  0  0
    4.7710   -4.6952   28.4803 C   0  0  0  0  0  0  0  0  0  0  0  0
    3.4047   -5.1087   28.1314 C   0  0  0  0  0  0  0  0  0  0  0  0
   -0.2234  -11.8615   16.8874 C   0  0  0  0  0  0  0  0  0  0  0  0
    6.4491   -4.1532   30.1213 C   0  0  0  0  0  0  0  0  0  0  0  0
    5.7060   -4.4340   27.4975 C   0  0  0  0  0  0  0  0  0  0  0  0
    1.1818   -5.6612   28.8399 C   0  0  0  0  0  0  0  0  0  0  0  0
   -1.2067   -7.3287   17.7772 C   0  0  0  0  0  0  0  0  0  0  0  0
   -0.0206  -10.5585   16.6210 C   0  0  0  0  0  0  0  0  0  0  0  0
    0.3696  -12.7626   16.2169 O   0  0  0  0  0  0  0  0  0  0  0  0
   -0.6895   -9.5676   17.3297 C   0  0  0  0  0  0  0  0  0  0  0  0
    0.8388   -5.8417   27.5264 C   0  0  0  0  0  0  0  0  0  0  0  0
   -2.0709   -7.6637   18.7817 C   0  0  0  0  0  0  0  0  0  0  0  0
   -0.5279   -8.2168   17.0717 C   0  0  0  0  0  0  0  0  0  0  0  0
    6.9694   -4.0191   27.8190 C   0  0  0  0  0  0  0  0  0  0  0  0
    5.1733   -4.5469   29.8123 C   0  0  0  0  0  0  0  0  0  0  0  0
   -1.7508  -11.3016   18.6072 C   0  0  0  0  0  0  0  0  0  0  0  0
    1.7497   -5.6771   26.4971 C   0  0  0  0  0  0  0  0  0  0  0  0
   -1.5799   -9.9322   18.3468 C   0  0  0  0  0  0  0  0  0  0  0  0
   -1.0871  -12.2214   17.8851 C   0  0  0  0  0  0  0  0  0  0  0  0
   -2.2706   -8.9669   19.0691 C   0  0  0  0  0  0  0  0  0  0  0  0
    3.0279   -5.3073   26.8197 C   0  0  0  0  0  0  0  0  0  0  0  0
    7.3282   -3.8948   29.1186 C   0  0  0  0  0  0  0  0  0  0  0  0
  1  3  4  0
  1  7  4  0
  2  3  1  0
  2  6  4  0
  2 16  4  0
  3 22  4  0
  4  9  4  0
  4 10  1  0
  4 20  4  0
  5 16  4  0
  5 23  4  0
  6 15  4  0
  7 12  4  0
  8 13  4  0
  8 14  4  0
  9 11  4  0
 11 14  4  0
 11 19  4  0
 12 18  4  0
 13 21  4  0
 15 23  4  0
 17 19  4  0
 17 20  4  0
 18 22  4  0
 19 21  4  0
M  END
$$$$

 Created by Python create_sdf_string function

 23 25  0  0  0  0  0  0  0  0999 V2000
    2.4610   -5.3070   29.1240 C   0  0  0  0  0  0  0  0  0  0  0  0
    4.7710   -4.6952   28.4803 C   0  0  0  0  0  0  0  0  0  0  0  0
    3.4047   -5.1087   28.1314 C   0  0  0  0  0  0  0  0  0  0  0  0
   -0.2234  -11.8615   16.8874 C   0  0  0  0  0  0  0  0  0  0  0  0
    6.4491   -4.1532   30.1213 C   0  0  0  0  0  0  0  0  0  0  0  0
    5.7060   -4.4340   27.4975 C   0  0  0  0  0  0  0  0  0  0  0  0
    1.1818   -5.6612   28.8399 C   0  0  0  0  0  0  0  0  0  0  0  0
   -1.2067   -7.3287   17.7772 C   0  0  0  0  0  0  0  0  0  0  0  0
   -0.0206  -10.5585   16.6210 C   0  0  0  0  0  0  0  0  0  0  0  0
    0.3696  -12.7626   16.2169 O   0  0  0  0  0  0  0  0  0  0  0  0
   -0.6895   -9.5676   17.3297 C   0  0  0  0  0  0  0  0  0  0  0  0
    0.8388   -5.8417   27.5264 C   0  0  0  0  0  0  0  0  0  0  0  0
   -2.0709   -7.6637   18.7817 C   0  0  0  0  0  0  0  0  0  0  0  0
   -0.5279   -8.2168   17.0717 C   0  0  0  0  0  0  0  0  0  0  0  0
    6.9694   -4.0191   27.8190 C   0  0  0  0  0  0  0  0  0  0  0  0
    5.1733   -4.5469   29.8123 C   0  0  0  0  0  0  0  0  0  0  0  0
   -1.7508  -11.3016   18.6072 C   0  0  0  0  0  0  0  0  0  0  0  0
    1.7497   -5.6771   26.4971 C   0  0  0  0  0  0  0  0  0  0  0  0
   -1.5799   -9.9322   18.3468 C   0  0  0  0  0  0  0  0  0  0  0  0
   -1.0871  -12.2214   17.8851 C   0  0  0  0  0  0  0  0  0  0  0  0
   -2.2706   -8.9669   19.0691 C   0  0  0  0  0  0  0  0  0  0  0  0
    3.0279   -5.3073   26.8197 C   0  0  0  0  0  0  0  0  0  0  0  0
    7.3282   -3.8948   29.1186 C   0  0  0  0  0  0  0  0  0  0  0  0
  1  3  4  0
  1  7  4  0
  2  3  1  0
  2  6  4  0
  2 16  4  0
  3 22  4  0
  4  9  4  0
  4 10  1  0
  4 20  4  0
  5 16  4  0
  5 23  4  0
  6 15  4  0
  7 12  4  0
  8 13  4  0
  8 14  4  0
  9 11  4  0
 11 14  4  0
 11 19  4  0
 12 18  4  0
 13 21  4  0
 15 23  4  0
 17 19  4  0
 17 20  4  0
 18 22  4  0
 19 21  4  0
M  END
$$$$

 Created by Python create_sdf_string function

 23 25  0  0  0  0  0  0  0  0999 V2000
    2.4610   -5.3070   29.1240 C   0  0  0  0  0  0  0  0  0  0  0  0
    4.7710   -4.6952   28.4803 C   0  0  0  0  0  0  0  0  0  0  0  0
    3.4047   -5.1087   28.1314 C   0  0  0  0  0  0  0  0  0  0  0  0
   -0.2234  -11.8615   16.8874 C   0  0  0  0  0  0  0  0  0  0  0  0
    6.4491   -4.1532   30.1213 C   0  0  0  0  0  0  0  0  0  0  0  0
    5.7060   -4.4340   27.4975 C   0  0  0  0  0  0  0  0  0  0  0  0
    1.1818   -5.6612   28.8399 C   0  0  0  0  0  0  0  0  0  0  0  0
   -1.2067   -7.3287   17.7772 C   0  0  0  0  0  0  0  0  0  0  0  0
   -0.0206  -10.5585   16.6210 C   0  0  0  0  0  0  0  0  0  0  0  0
    0.3696  -12.7626   16.2169 O   0  0  0  0  0  0  0  0  0  0  0  0
   -0.6895   -9.5676   17.3297 C   0  0  0  0  0  0  0  0  0  0  0  0
    0.8388   -5.8417   27.5264 C   0  0  0  0  0  0  0  0  0  0  0  0
   -2.0709   -7.6637   18.7817 C   0  0  0  0  0  0  0  0  0  0  0  0
   -0.5279   -8.2168   17.0717 C   0  0  0  0  0  0  0  0  0  0  0  0
    6.9694   -4.0191   27.8190 C   0  0  0  0  0  0  0  0  0  0  0  0
    5.1733   -4.5469   29.8123 C   0  0  0  0  0  0  0  0  0  0  0  0
   -1.7508  -11.3016   18.6072 C   0  0  0  0  0  0  0  0  0  0  0  0
    1.7497   -5.6771   26.4971 C   0  0  0  0  0  0  0  0  0  0  0  0
   -1.5799   -9.9322   18.3468 C   0  0  0  0  0  0  0  0  0  0  0  0
   -1.0871  -12.2214   17.8851 C   0  0  0  0  0  0  0  0  0  0  0  0
   -2.2706   -8.9669   19.0691 C   0  0  0  0  0  0  0  0  0  0  0  0
    3.0279   -5.3073   26.8197 C   0  0  0  0  0  0  0  0  0  0  0  0
    7.3282   -3.8948   29.1186 C   0  0  0  0  0  0  0  0  0  0  0  0
  1  3  4  0
  1  7  4  0
  2  3  1  0
  2  6  4  0
  2 16  4  0
  3 22  4  0
  4  9  4  0
  4 10  1  0
  4 20  4  0
  5 16  4  0
  5 23  4  0
  6 15  4  0
  7 12  4  0
  8 13  4  0
  8 14  4  0
  9 11  4  0
 11 14  4  0
 11 19  4  0
 12 18  4  0
 13 21  4  0
 15 23  4  0
 17 19  4  0
 17 20  4  0
 18 22  4  0
 19 21  4  0
M  END
$$$$

 Created by Python create_sdf_string function

 23 25  0  0  0  0  0  0  0  0999 V2000
    2.4610   -5.3070   29.1240 C   0  0  0  0  0  0  0  0  0  0  0  0
    4.7710   -4.6952   28.4803 C   0  0  0  0  0  0  0  0  0  0  0  0
    3.4047   -5.1087   28.1314 C   0  0  0  0  0  0  0  0  0  0  0  0
   -0.2234  -11.8615   16.8874 C   0  0  0  0  0  0  0  0  0  0  0  0
    6.4491   -4.1532   30.1213 C   0  0  0  0  0  0  0  0  0  0  0  0
    5.7060   -4.4340   27.4975 C   0  0  0  0  0  0  0  0  0  0  0  0
    1.1818   -5.6612   28.8399 C   0  0  0  0  0  0  0  0  0  0  0  0
   -1.2067   -7.3287   17.7772 C   0  0  0  0  0  0  0  0  0  0  0  0
   -0.0206  -10.5585   16.6210 C   0  0  0  0  0  0  0  0  0  0  0  0
    0.3696  -12.7626   16.2169 O   0  0  0  0  0  0  0  0  0  0  0  0
   -0.6895   -9.5676   17.3297 C   0  0  0  0  0  0  0  0  0  0  0  0
    0.8388   -5.8417   27.5264 C   0  0  0  0  0  0  0  0  0  0  0  0
   -2.0709   -7.6637   18.7817 C   0  0  0  0  0  0  0  0  0  0  0  0
   -0.5279   -8.2168   17.0717 C   0  0  0  0  0  0  0  0  0  0  0  0
    6.9694   -4.0191   27.8190 C   0  0  0  0  0  0  0  0  0  0  0  0
    5.1733   -4.5469   29.8123 C   0  0  0  0  0  0  0  0  0  0  0  0
   -1.7508  -11.3016   18.6072 C   0  0  0  0  0  0  0  0  0  0  0  0
    1.7497   -5.6771   26.4971 C   0  0  0  0  0  0  0  0  0  0  0  0
   -1.5799   -9.9322   18.3468 C   0  0  0  0  0  0  0  0  0  0  0  0
   -1.0871  -12.2214   17.8851 C   0  0  0  0  0  0  0  0  0  0  0  0
   -2.2706   -8.9669   19.0691 C   0  0  0  0  0  0  0  0  0  0  0  0
    3.0279   -5.3073   26.8197 C   0  0  0  0  0  0  0  0  0  0  0  0
    7.3282   -3.8948   29.1186 C   0  0  0  0  0  0  0  0  0  0  0  0
  1  3  4  0
  1  7  4  0
  2  3  1  0
  2  6  4  0
  2 16  4  0
  3 22  4  0
  4  9  4  0
  4 10  1  0
  4 20  4  0
  5 16  4  0
  5 23  4  0
  6 15  4  0
  7 12  4  0
  8 13  4  0
  8 14  4  0
  9 11  4  0
 11 14  4  0
 11 19  4  0
 12 18  4  0
 13 21  4  0
 15 23  4  0
 17 19  4  0
 17 20  4  0
 18 22  4  0
 19 21  4  0
M  END
$$$$

 Created by Python create_sdf_string function

 23 25  0  0  0  0  0  0  0  0999 V2000
    2.4610   -5.3070   29.1240 C   0  0  0  0  0  0  0  0  0  0  0  0
    4.7710   -4.6952   28.4803 C   0  0  0  0  0  0  0  0  0  0  0  0
    3.4047   -5.1087   28.1314 C   0  0  0  0  0  0  0  0  0  0  0  0
   -0.2234  -11.8615   16.8874 C   0  0  0  0  0  0  0  0  0  0  0  0
    6.4491   -4.1532   30.1213 C   0  0  0  0  0  0  0  0  0  0  0  0
    5.7060   -4.4340   27.4975 C   0  0  0  0  0  0  0  0  0  0  0  0
    1.1818   -5.6612   28.8399 C   0  0  0  0  0  0  0  0  0  0  0  0
   -1.2067   -7.3287   17.7772 C   0  0  0  0  0  0  0  0  0  0  0  0
   -0.0206  -10.5585   16.6210 C   0  0  0  0  0  0  0  0  0  0  0  0
    0.3696  -12.7626   16.2169 O   0  0  0  0  0  0  0  0  0  0  0  0
   -0.6895   -9.5676   17.3297 C   0  0  0  0  0  0  0  0  0  0  0  0
    0.8388   -5.8417   27.5264 C   0  0  0  0  0  0  0  0  0  0  0  0
   -2.0709   -7.6637   18.7817 C   0  0  0  0  0  0  0  0  0  0  0  0
   -0.5279   -8.2168   17.0717 C   0  0  0  0  0  0  0  0  0  0  0  0
    6.9694   -4.0191   27.8190 C   0  0  0  0  0  0  0  0  0  0  0  0
    5.1733   -4.5469   29.8123 C   0  0  0  0  0  0  0  0  0  0  0  0
   -1.7508  -11.3016   18.6072 C   0  0  0  0  0  0  0  0  0  0  0  0
    1.7497   -5.6771   26.4971 C   0  0  0  0  0  0  0  0  0  0  0  0
   -1.5799   -9.9322   18.3468 C   0  0  0  0  0  0  0  0  0  0  0  0
   -1.0871  -12.2214   17.8851 C   0  0  0  0  0  0  0  0  0  0  0  0
   -2.2706   -8.9669   19.0691 C   0  0  0  0  0  0  0  0  0  0  0  0
    3.0279   -5.3073   26.8197 C   0  0  0  0  0  0  0  0  0  0  0  0
    7.3282   -3.8948   29.1186 C   0  0  0  0  0  0  0  0  0  0  0  0
  1  3  4  0
  1  7  4  0
  2  3  1  0
  2  6  4  0
  2 16  4  0
  3 22  4  0
  4  9  4  0
  4 10  1  0
  4 20  4  0
  5 16  4  0
  5 23  4  0
  6 15  4  0
  7 12  4  0
  8 13  4  0
  8 14  4  0
  9 11  4  0
 11 14  4  0
 11 19  4  0
 12 18  4  0
 13 21  4  0
 15 23  4  0
 17 19  4  0
 17 20  4  0
 18 22  4  0
 19 21  4  0
M  END
$$$$

 Created by Python create_sdf_string function

 23 25  0  0  0  0  0  0  0  0999 V2000
    2.4610   -5.3070   29.1240 C   0  0  0  0  0  0  0  0  0  0  0  0
    4.7710   -4.6952   28.4803 C   0  0  0  0  0  0  0  0  0  0  0  0
    3.4047   -5.1087   28.1314 C   0  0  0  0  0  0  0  0  0  0  0  0
   -0.2234  -11.8615   16.8874 C   0  0  0  0  0  0  0  0  0  0  0  0
    6.4491   -4.1532   30.1213 C   0  0  0  0  0  0  0  0  0  0  0  0
    5.7060   -4.4340   27.4975 C   0  0  0  0  0  0  0  0  0  0  0  0
    1.1818   -5.6612   28.8399 C   0  0  0  0  0  0  0  0  0  0  0  0
   -1.2067   -7.3287   17.7772 C   0  0  0  0  0  0  0  0  0  0  0  0
   -0.0206  -10.5585   16.6210 C   0  0  0  0  0  0  0  0  0  0  0  0
    0.3696  -12.7626   16.2169 O   0  0  0  0  0  0  0  0  0  0  0  0
   -0.6895   -9.5676   17.3297 C   0  0  0  0  0  0  0  0  0  0  0  0
    0.8388   -5.8417   27.5264 C   0  0  0  0  0  0  0  0  0  0  0  0
   -2.0709   -7.6637   18.7817 C   0  0  0  0  0  0  0  0  0  0  0  0
   -0.5279   -8.2168   17.0717 C   0  0  0  0  0  0  0  0  0  0  0  0
    6.9694   -4.0191   27.8190 C   0  0  0  0  0  0  0  0  0  0  0  0
    5.1733   -4.5469   29.8123 C   0  0  0  0  0  0  0  0  0  0  0  0
   -1.7508  -11.3016   18.6072 C   0  0  0  0  0  0  0  0  0  0  0  0
    1.7497   -5.6771   26.4971 C   0  0  0  0  0  0  0  0  0  0  0  0
   -1.5799   -9.9322   18.3468 C   0  0  0  0  0  0  0  0  0  0  0  0
   -1.0871  -12.2214   17.8851 C   0  0  0  0  0  0  0  0  0  0  0  0
   -2.2706   -8.9669   19.0691 C   0  0  0  0  0  0  0  0  0  0  0  0
    3.0279   -5.3073   26.8197 C   0  0  0  0  0  0  0  0  0  0  0  0
    7.3282   -3.8948   29.1186 C   0  0  0  0  0  0  0  0  0  0  0  0
  1  3  4  0
  1  7  4  0
  2  3  1  0
  2  6  4  0
  2 16  4  0
  3 22  4  0
  4  9  4  0
  4 10  1  0
  4 20  4  0
  5 16  4  0
  5 23  4  0
  6 15  4  0
  7 12  4  0
  8 13  4  0
  8 14  4  0
  9 11  4  0
 11 14  4  0
 11 19  4  0
 12 18  4  0
 13 21  4  0
 15 23  4  0
 17 19  4  0
 17 20  4  0
 18 22  4  0
 19 21  4  0
M  END
$$$$

 Created by Python create_sdf_string function

 23 25  0  0  0  0  0  0  0  0999 V2000
    2.4610   -5.3070   29.1240 C   0  0  0  0  0  0  0  0  0  0  0  0
    4.7710   -4.6952   28.4803 C   0  0  0  0  0  0  0  0  0  0  0  0
    3.4047   -5.1087   28.1314 C   0  0  0  0  0  0  0  0  0  0  0  0
   -0.2234  -11.8615   16.8874 C   0  0  0  0  0  0  0  0  0  0  0  0
    6.4491   -4.1532   30.1213 C   0  0  0  0  0  0  0  0  0  0  0  0
    5.7060   -4.4340   27.4975 C   0  0  0  0  0  0  0  0  0  0  0  0
    1.1818   -5.6612   28.8399 C   0  0  0  0  0  0  0  0  0  0  0  0
   -1.2067   -7.3287   17.7772 C   0  0  0  0  0  0  0  0  0  0  0  0
   -0.0206  -10.5585   16.6210 C   0  0  0  0  0  0  0  0  0  0  0  0
    0.3696  -12.7626   16.2169 O   0  0  0  0  0  0  0  0  0  0  0  0
   -0.6895   -9.5676   17.3297 C   0  0  0  0  0  0  0  0  0  0  0  0
    0.8388   -5.8417   27.5264 C   0  0  0  0  0  0  0  0  0  0  0  0
   -2.0709   -7.6637   18.7817 C   0  0  0  0  0  0  0  0  0  0  0  0
   -0.5279   -8.2168   17.0717 C   0  0  0  0  0  0  0  0  0  0  0  0
    6.9694   -4.0191   27.8190 C   0  0  0  0  0  0  0  0  0  0  0  0
    5.1733   -4.5469   29.8123 C   0  0  0  0  0  0  0  0  0  0  0  0
   -1.7508  -11.3016   18.6072 C   0  0  0  0  0  0  0  0  0  0  0  0
    1.7497   -5.6771   26.4971 C   0  0  0  0  0  0  0  0  0  0  0  0
   -1.5799   -9.9322   18.3468 C   0  0  0  0  0  0  0  0  0  0  0  0
   -1.0871  -12.2214   17.8851 C   0  0  0  0  0  0  0  0  0  0  0  0
   -2.2706   -8.9669   19.0691 C   0  0  0  0  0  0  0  0  0  0  0  0
    3.0279   -5.3073   26.8197 C   0  0  0  0  0  0  0  0  0  0  0  0
    7.3282   -3.8948   29.1186 C   0  0  0  0  0  0  0  0  0  0  0  0
  1  3  4  0
  1  7  4  0
  2  3  1  0
  2  6  4  0
  2 16  4  0
  3 22  4  0
  4  9  4  0
  4 10  1  0
  4 20  4  0
  5 16  4  0
  5 23  4  0
  6 15  4  0
  7 12  4  0
  8 13  4  0
  8 14  4  0
  9 11  4  0
 11 14  4  0
 11 19  4  0
 12 18  4  0
 13 21  4  0
 15 23  4  0
 17 19  4  0
 17 20  4  0
 18 22  4  0
 19 21  4  0
M  END
$$$$

 Created by Python create_sdf_string function

 23 25  0  0  0  0  0  0  0  0999 V2000
    2.4610   -5.3070   29.1240 C   0  0  0  0  0  0  0  0  0  0  0  0
    4.7710   -4.6952   28.4803 C   0  0  0  0  0  0  0  0  0  0  0  0
    3.4047   -5.1087   28.1314 C   0  0  0  0  0  0  0  0  0  0  0  0
   -0.2234  -11.8615   16.8874 C   0  0  0  0  0  0  0  0  0  0  0  0
    6.4491   -4.1532   30.1213 C   0  0  0  0  0  0  0  0  0  0  0  0
    5.7060   -4.4340   27.4975 C   0  0  0  0  0  0  0  0  0  0  0  0
    1.1818   -5.6612   28.8399 C   0  0  0  0  0  0  0  0  0  0  0  0
   -1.2067   -7.3287   17.7772 C   0  0  0  0  0  0  0  0  0  0  0  0
   -0.0206  -10.5585   16.6210 C   0  0  0  0  0  0  0  0  0  0  0  0
    0.3696  -12.7626   16.2169 O   0  0  0  0  0  0  0  0  0  0  0  0
   -0.6895   -9.5676   17.3297 C   0  0  0  0  0  0  0  0  0  0  0  0
    0.8388   -5.8417   27.5264 C   0  0  0  0  0  0  0  0  0  0  0  0
   -2.0709   -7.6637   18.7817 C   0  0  0  0  0  0  0  0  0  0  0  0
   -0.5279   -8.2168   17.0717 C   0  0  0  0  0  0  0  0  0  0  0  0
    6.9694   -4.0191   27.8190 C   0  0  0  0  0  0  0  0  0  0  0  0
    5.1733   -4.5469   29.8123 C   0  0  0  0  0  0  0  0  0  0  0  0
   -1.7508  -11.3016   18.6072 C   0  0  0  0  0  0  0  0  0  0  0  0
    1.7497   -5.6771   26.4971 C   0  0  0  0  0  0  0  0  0  0  0  0
   -1.5799   -9.9322   18.3468 C   0  0  0  0  0  0  0  0  0  0  0  0
   -1.0871  -12.2214   17.8851 C   0  0  0  0  0  0  0  0  0  0  0  0
   -2.2706   -8.9669   19.0691 C   0  0  0  0  0  0  0  0  0  0  0  0
    3.0279   -5.3073   26.8197 C   0  0  0  0  0  0  0  0  0  0  0  0
    7.3282   -3.8948   29.1186 C   0  0  0  0  0  0  0  0  0  0  0  0
  1  3  4  0
  1  7  4  0
  2  3  1  0
  2  6  4  0
  2 16  4  0
  3 22  4  0
  4  9  4  0
  4 10  1  0
  4 20  4  0
  5 16  4  0
  5 23  4  0
  6 15  4  0
  7 12  4  0
  8 13  4  0
  8 14  4  0
  9 11  4  0
 11 14  4  0
 11 19  4  0
 12 18  4  0
 13 21  4  0
 15 23  4  0
 17 19  4  0
 17 20  4  0
 18 22  4  0
 19 21  4  0
M  END
$$$$

 Created by Python create_sdf_string function

 23 25  0  0  0  0  0  0  0  0999 V2000
    2.4610   -5.3070   29.1240 C   0  0  0  0  0  0  0  0  0  0  0  0
    4.7710   -4.6952   28.4803 C   0  0  0  0  0  0  0  0  0  0  0  0
    3.4047   -5.1087   28.1314 C   0  0  0  0  0  0  0  0  0  0  0  0
   -0.2234  -11.8615   16.8874 C   0  0  0  0  0  0  0  0  0  0  0  0
    6.4491   -4.1532   30.1213 C   0  0  0  0  0  0  0  0  0  0  0  0
    5.7060   -4.4340   27.4975 C   0  0  0  0  0  0  0  0  0  0  0  0
    1.1818   -5.6612   28.8399 C   0  0  0  0  0  0  0  0  0  0  0  0
   -1.2067   -7.3287   17.7772 C   0  0  0  0  0  0  0  0  0  0  0  0
   -0.0206  -10.5585   16.6210 C   0  0  0  0  0  0  0  0  0  0  0  0
    0.3696  -12.7626   16.2169 O   0  0  0  0  0  0  0  0  0  0  0  0
   -0.6895   -9.5676   17.3297 C   0  0  0  0  0  0  0  0  0  0  0  0
    0.8388   -5.8417   27.5264 C   0  0  0  0  0  0  0  0  0  0  0  0
   -2.0709   -7.6637   18.7817 C   0  0  0  0  0  0  0  0  0  0  0  0
   -0.5279   -8.2168   17.0717 C   0  0  0  0  0  0  0  0  0  0  0  0
    6.9694   -4.0191   27.8190 C   0  0  0  0  0  0  0  0  0  0  0  0
    5.1733   -4.5469   29.8123 C   0  0  0  0  0  0  0  0  0  0  0  0
   -1.7508  -11.3016   18.6072 C   0  0  0  0  0  0  0  0  0  0  0  0
    1.7497   -5.6771   26.4971 C   0  0  0  0  0  0  0  0  0  0  0  0
   -1.5799   -9.9322   18.3468 C   0  0  0  0  0  0  0  0  0  0  0  0
   -1.0871  -12.2214   17.8851 C   0  0  0  0  0  0  0  0  0  0  0  0
   -2.2706   -8.9669   19.0691 C   0  0  0  0  0  0  0  0  0  0  0  0
    3.0279   -5.3073   26.8197 C   0  0  0  0  0  0  0  0  0  0  0  0
    7.3282   -3.8948   29.1186 C   0  0  0  0  0  0  0  0  0  0  0  0
  1  3  4  0
  1  7  4  0
  2  3  1  0
  2  6  4  0
  2 16  4  0
  3 22  4  0
  4  9  4  0
  4 10  1  0
  4 20  4  0
  5 16  4  0
  5 23  4  0
  6 15  4  0
  7 12  4  0
  8 13  4  0
  8 14  4  0
  9 11  4  0
 11 14  4  0
 11 19  4  0
 12 18  4  0
 13 21  4  0
 15 23  4  0
 17 19  4  0
 17 20  4  0
 18 22  4  0
 19 21  4  0
M  END
$$$$

 Created by Python create_sdf_string function

 23 25  0  0  0  0  0  0  0  0999 V2000
    2.4610   -5.3070   29.1240 C   0  0  0  0  0  0  0  0  0  0  0  0
    4.7710   -4.6952   28.4803 C   0  0  0  0  0  0  0  0  0  0  0  0
    3.4047   -5.1087   28.1314 C   0  0  0  0  0  0  0  0  0  0  0  0
   -0.2234  -11.8615   16.8874 C   0  0  0  0  0  0  0  0  0  0  0  0
    6.4491   -4.1532   30.1213 C   0  0  0  0  0  0  0  0  0  0  0  0
    5.7060   -4.4340   27.4975 C   0  0  0  0  0  0  0  0  0  0  0  0
    1.1818   -5.6612   28.8399 C   0  0  0  0  0  0  0  0  0  0  0  0
   -1.2067   -7.3287   17.7772 C   0  0  0  0  0  0  0  0  0  0  0  0
   -0.0206  -10.5585   16.6210 C   0  0  0  0  0  0  0  0  0  0  0  0
    0.3696  -12.7626   16.2169 O   0  0  0  0  0  0  0  0  0  0  0  0
   -0.6895   -9.5676   17.3297 C   0  0  0  0  0  0  0  0  0  0  0  0
    0.8388   -5.8417   27.5264 C   0  0  0  0  0  0  0  0  0  0  0  0
   -2.0709   -7.6637   18.7817 C   0  0  0  0  0  0  0  0  0  0  0  0
   -0.5279   -8.2168   17.0717 C   0  0  0  0  0  0  0  0  0  0  0  0
    6.9694   -4.0191   27.8190 C   0  0  0  0  0  0  0  0  0  0  0  0
    5.1733   -4.5469   29.8123 C   0  0  0  0  0  0  0  0  0  0  0  0
   -1.7508  -11.3016   18.6072 C   0  0  0  0  0  0  0  0  0  0  0  0
    1.7497   -5.6771   26.4971 C   0  0  0  0  0  0  0  0  0  0  0  0
   -1.5799   -9.9322   18.3468 C   0  0  0  0  0  0  0  0  0  0  0  0
   -1.0871  -12.2214   17.8851 C   0  0  0  0  0  0  0  0  0  0  0  0
   -2.2706   -8.9669   19.0691 C   0  0  0  0  0  0  0  0  0  0  0  0
    3.0279   -5.3073   26.8197 C   0  0  0  0  0  0  0  0  0  0  0  0
    7.3282   -3.8948   29.1186 C   0  0  0  0  0  0  0  0  0  0  0  0
  1  3  4  0
  1  7  4  0
  2  3  1  0
  2  6  4  0
  2 16  4  0
  3 22  4  0
  4  9  4  0
  4 10  1  0
  4 20  4  0
  5 16  4  0
  5 23  4  0
  6 15  4  0
  7 12  4  0
  8 13  4  0
  8 14  4  0
  9 11  4  0
 11 14  4  0
 11 19  4  0
 12 18  4  0
 13 21  4  0
 15 23  4  0
 17 19  4  0
 17 20  4  0
 18 22  4  0
 19 21  4  0
M  END
$$$$

 Created by Python create_sdf_string function

 23 25  0  0  0  0  0  0  0  0999 V2000
    2.4610   -5.3070   29.1240 C   0  0  0  0  0  0  0  0  0  0  0  0
    4.7710   -4.6952   28.4803 C   0  0  0  0  0  0  0  0  0  0  0  0
    3.4047   -5.1087   28.1314 C   0  0  0  0  0  0  0  0  0  0  0  0
   -0.2234  -11.8615   16.8874 C   0  0  0  0  0  0  0  0  0  0  0  0
    6.4491   -4.1532   30.1213 C   0  0  0  0  0  0  0  0  0  0  0  0
    5.7060   -4.4340   27.4975 C   0  0  0  0  0  0  0  0  0  0  0  0
    1.1818   -5.6612   28.8399 C   0  0  0  0  0  0  0  0  0  0  0  0
   -1.2067   -7.3287   17.7772 C   0  0  0  0  0  0  0  0  0  0  0  0
   -0.0206  -10.5585   16.6210 C   0  0  0  0  0  0  0  0  0  0  0  0
    0.3696  -12.7626   16.2169 O   0  0  0  0  0  0  0  0  0  0  0  0
   -0.6895   -9.5676   17.3297 C   0  0  0  0  0  0  0  0  0  0  0  0
    0.8388   -5.8417   27.5264 C   0  0  0  0  0  0  0  0  0  0  0  0
   -2.0709   -7.6637   18.7817 C   0  0  0  0  0  0  0  0  0  0  0  0
   -0.5279   -8.2168   17.0717 C   0  0  0  0  0  0  0  0  0  0  0  0
    6.9694   -4.0191   27.8190 C   0  0  0  0  0  0  0  0  0  0  0  0
    5.1733   -4.5469   29.8123 C   0  0  0  0  0  0  0  0  0  0  0  0
   -1.7508  -11.3016   18.6072 C   0  0  0  0  0  0  0  0  0  0  0  0
    1.7497   -5.6771   26.4971 C   0  0  0  0  0  0  0  0  0  0  0  0
   -1.5799   -9.9322   18.3468 C   0  0  0  0  0  0  0  0  0  0  0  0
   -1.0871  -12.2214   17.8851 C   0  0  0  0  0  0  0  0  0  0  0  0
   -2.2706   -8.9669   19.0691 C   0  0  0  0  0  0  0  0  0  0  0  0
    3.0279   -5.3073   26.8197 C   0  0  0  0  0  0  0  0  0  0  0  0
    7.3282   -3.8948   29.1186 C   0  0  0  0  0  0  0  0  0  0  0  0
  1  3  4  0
  1  7  4  0
  2  3  1  0
  2  6  4  0
  2 16  4  0
  3 22  4  0
  4  9  4  0
  4 10  1  0
  4 20  4  0
  5 16  4  0
  5 23  4  0
  6 15  4  0
  7 12  4  0
  8 13  4  0
  8 14  4  0
  9 11  4  0
 11 14  4  0
 11 19  4  0
 12 18  4  0
 13 21  4  0
 15 23  4  0
 17 19  4  0
 17 20  4  0
 18 22  4  0
 19 21  4  0
M  END
$$$$

 Created by Python create_sdf_string function

 23 25  0  0  0  0  0  0  0  0999 V2000
    2.4610   -5.3070   29.1240 C   0  0  0  0  0  0  0  0  0  0  0  0
    4.7710   -4.6952   28.4803 C   0  0  0  0  0  0  0  0  0  0  0  0
    3.4047   -5.1087   28.1314 C   0  0  0  0  0  0  0  0  0  0  0  0
   -0.2234  -11.8615   16.8874 C   0  0  0  0  0  0  0  0  0  0  0  0
    6.4491   -4.1532   30.1213 C   0  0  0  0  0  0  0  0  0  0  0  0
    5.7060   -4.4340   27.4975 C   0  0  0  0  0  0  0  0  0  0  0  0
    1.1818   -5.6612   28.8399 C   0  0  0  0  0  0  0  0  0  0  0  0
   -1.2067   -7.3287   17.7772 C   0  0  0  0  0  0  0  0  0  0  0  0
   -0.0206  -10.5585   16.6210 C   0  0  0  0  0  0  0  0  0  0  0  0
    0.3696  -12.7626   16.2169 O   0  0  0  0  0  0  0  0  0  0  0  0
   -0.6895   -9.5676   17.3297 C   0  0  0  0  0  0  0  0  0  0  0  0
    0.8388   -5.8417   27.5264 C   0  0  0  0  0  0  0  0  0  0  0  0
   -2.0709   -7.6637   18.7817 C   0  0  0  0  0  0  0  0  0  0  0  0
   -0.5279   -8.2168   17.0717 C   0  0  0  0  0  0  0  0  0  0  0  0
    6.9694   -4.0191   27.8190 C   0  0  0  0  0  0  0  0  0  0  0  0
    5.1733   -4.5469   29.8123 C   0  0  0  0  0  0  0  0  0  0  0  0
   -1.7508  -11.3016   18.6072 C   0  0  0  0  0  0  0  0  0  0  0  0
    1.7497   -5.6771   26.4971 C   0  0  0  0  0  0  0  0  0  0  0  0
   -1.5799   -9.9322   18.3468 C   0  0  0  0  0  0  0  0  0  0  0  0
   -1.0871  -12.2214   17.8851 C   0  0  0  0  0  0  0  0  0  0  0  0
   -2.2706   -8.9669   19.0691 C   0  0  0  0  0  0  0  0  0  0  0  0
    3.0279   -5.3073   26.8197 C   0  0  0  0  0  0  0  0  0  0  0  0
    7.3282   -3.8948   29.1186 C   0  0  0  0  0  0  0  0  0  0  0  0
  1  3  4  0
  1  7  4  0
  2  3  1  0
  2  6  4  0
  2 16  4  0
  3 22  4  0
  4  9  4  0
  4 10  1  0
  4 20  4  0
  5 16  4  0
  5 23  4  0
  6 15  4  0
  7 12  4  0
  8 13  4  0
  8 14  4  0
  9 11  4  0
 11 14  4  0
 11 19  4  0
 12 18  4  0
 13 21  4  0
 15 23  4  0
 17 19  4  0
 17 20  4  0
 18 22  4  0
 19 21  4  0
M  END
$$$$

 Created by Python create_sdf_string function

 23 25  0  0  0  0  0  0  0  0999 V2000
    2.4610   -5.3070   29.1240 C   0  0  0  0  0  0  0  0  0  0  0  0
    4.7710   -4.6952   28.4803 C   0  0  0  0  0  0  0  0  0  0  0  0
    3.4047   -5.1087   28.1314 C   0  0  0  0  0  0  0  0  0  0  0  0
   -0.2234  -11.8615   16.8874 C   0  0  0  0  0  0  0  0  0  0  0  0
    6.4491   -4.1532   30.1213 C   0  0  0  0  0  0  0  0  0  0  0  0
    5.7060   -4.4340   27.4975 C   0  0  0  0  0  0  0  0  0  0  0  0
    1.1818   -5.6612   28.8399 C   0  0  0  0  0  0  0  0  0  0  0  0
   -1.2067   -7.3287   17.7772 C   0  0  0  0  0  0  0  0  0  0  0  0
   -0.0206  -10.5585   16.6210 C   0  0  0  0  0  0  0  0  0  0  0  0
    0.3696  -12.7626   16.2169 O   0  0  0  0  0  0  0  0  0  0  0  0
   -0.6895   -9.5676   17.3297 C   0  0  0  0  0  0  0  0  0  0  0  0
    0.8388   -5.8417   27.5264 C   0  0  0  0  0  0  0  0  0  0  0  0
   -2.0709   -7.6637   18.7817 C   0  0  0  0  0  0  0  0  0  0  0  0
   -0.5279   -8.2168   17.0717 C   0  0  0  0  0  0  0  0  0  0  0  0
    6.9694   -4.0191   27.8190 C   0  0  0  0  0  0  0  0  0  0  0  0
    5.1733   -4.5469   29.8123 C   0  0  0  0  0  0  0  0  0  0  0  0
   -1.7508  -11.3016   18.6072 C   0  0  0  0  0  0  0  0  0  0  0  0
    1.7497   -5.6771   26.4971 C   0  0  0  0  0  0  0  0  0  0  0  0
   -1.5799   -9.9322   18.3468 C   0  0  0  0  0  0  0  0  0  0  0  0
   -1.0871  -12.2214   17.8851 C   0  0  0  0  0  0  0  0  0  0  0  0
   -2.2706   -8.9669   19.0691 C   0  0  0  0  0  0  0  0  0  0  0  0
    3.0279   -5.3073   26.8197 C   0  0  0  0  0  0  0  0  0  0  0  0
    7.3282   -3.8948   29.1186 C   0  0  0  0  0  0  0  0  0  0  0  0
  1  3  4  0
  1  7  4  0
  2  3  1  0
  2  6  4  0
  2 16  4  0
  3 22  4  0
  4  9  4  0
  4 10  1  0
  4 20  4  0
  5 16  4  0
  5 23  4  0
  6 15  4  0
  7 12  4  0
  8 13  4  0
  8 14  4  0
  9 11  4  0
 11 14  4  0
 11 19  4  0
 12 18  4  0
 13 21  4  0
 15 23  4  0
 17 19  4  0
 17 20  4  0
 18 22  4  0
 19 21  4  0
M  END
$$$$

 Created by Python create_sdf_string function

 23 25  0  0  0  0  0  0  0  0999 V2000
    2.4610   -5.3070   29.1240 C   0  0  0  0  0  0  0  0  0  0  0  0
    4.7710   -4.6952   28.4803 C   0  0  0  0  0  0  0  0  0  0  0  0
    3.4047   -5.1087   28.1314 C   0  0  0  0  0  0  0  0  0  0  0  0
   -0.2234  -11.8615   16.8874 C   0  0  0  0  0  0  0  0  0  0  0  0
    6.4491   -4.1532   30.1213 C   0  0  0  0  0  0  0  0  0  0  0  0
    5.7060   -4.4340   27.4975 C   0  0  0  0  0  0  0  0  0  0  0  0
    1.1818   -5.6612   28.8399 C   0  0  0  0  0  0  0  0  0  0  0  0
   -1.2067   -7.3287   17.7772 C   0  0  0  0  0  0  0  0  0  0  0  0
   -0.0206  -10.5585   16.6210 C   0  0  0  0  0  0  0  0  0  0  0  0
    0.3696  -12.7626   16.2169 O   0  0  0  0  0  0  0  0  0  0  0  0
   -0.6895   -9.5676   17.3297 C   0  0  0  0  0  0  0  0  0  0  0  0
    0.8388   -5.8417   27.5264 C   0  0  0  0  0  0  0  0  0  0  0  0
   -2.0709   -7.6637   18.7817 C   0  0  0  0  0  0  0  0  0  0  0  0
   -0.5279   -8.2168   17.0717 C   0  0  0  0  0  0  0  0  0  0  0  0
    6.9694   -4.0191   27.8190 C   0  0  0  0  0  0  0  0  0  0  0  0
    5.1733   -4.5469   29.8123 C   0  0  0  0  0  0  0  0  0  0  0  0
   -1.7508  -11.3016   18.6072 C   0  0  0  0  0  0  0  0  0  0  0  0
    1.7497   -5.6771   26.4971 C   0  0  0  0  0  0  0  0  0  0  0  0
   -1.5799   -9.9322   18.3468 C   0  0  0  0  0  0  0  0  0  0  0  0
   -1.0871  -12.2214   17.8851 C   0  0  0  0  0  0  0  0  0  0  0  0
   -2.2706   -8.9669   19.0691 C   0  0  0  0  0  0  0  0  0  0  0  0
    3.0279   -5.3073   26.8197 C   0  0  0  0  0  0  0  0  0  0  0  0
    7.3282   -3.8948   29.1186 C   0  0  0  0  0  0  0  0  0  0  0  0
  1  3  4  0
  1  7  4  0
  2  3  1  0
  2  6  4  0
  2 16  4  0
  3 22  4  0
  4  9  4  0
  4 10  1  0
  4 20  4  0
  5 16  4  0
  5 23  4  0
  6 15  4  0
  7 12  4  0
  8 13  4  0
  8 14  4  0
  9 11  4  0
 11 14  4  0
 11 19  4  0
 12 18  4  0
 13 21  4  0
 15 23  4  0
 17 19  4  0
 17 20  4  0
 18 22  4  0
 19 21  4  0
M  END
$$$$

 Created by Python create_sdf_string function

 23 25  0  0  0  0  0  0  0  0999 V2000
    2.4610   -5.3070   29.1240 C   0  0  0  0  0  0  0  0  0  0  0  0
    4.7710   -4.6952   28.4803 C   0  0  0  0  0  0  0  0  0  0  0  0
    3.4047   -5.1087   28.1314 C   0  0  0  0  0  0  0  0  0  0  0  0
   -0.2234  -11.8615   16.8874 C   0  0  0  0  0  0  0  0  0  0  0  0
    6.4491   -4.1532   30.1213 C   0  0  0  0  0  0  0  0  0  0  0  0
    5.7060   -4.4340   27.4975 C   0  0  0  0  0  0  0  0  0  0  0  0
    1.1818   -5.6612   28.8399 C   0  0  0  0  0  0  0  0  0  0  0  0
   -1.2067   -7.3287   17.7772 C   0  0  0  0  0  0  0  0  0  0  0  0
   -0.0206  -10.5585   16.6210 C   0  0  0  0  0  0  0  0  0  0  0  0
    0.3696  -12.7626   16.2169 O   0  0  0  0  0  0  0  0  0  0  0  0
   -0.6895   -9.5676   17.3297 C   0  0  0  0  0  0  0  0  0  0  0  0
    0.8388   -5.8417   27.5264 C   0  0  0  0  0  0  0  0  0  0  0  0
   -2.0709   -7.6637   18.7817 C   0  0  0  0  0  0  0  0  0  0  0  0
   -0.5279   -8.2168   17.0717 C   0  0  0  0  0  0  0  0  0  0  0  0
    6.9694   -4.0191   27.8190 C   0  0  0  0  0  0  0  0  0  0  0  0
    5.1733   -4.5469   29.8123 C   0  0  0  0  0  0  0  0  0  0  0  0
   -1.7508  -11.3016   18.6072 C   0  0  0  0  0  0  0  0  0  0  0  0
    1.7497   -5.6771   26.4971 C   0  0  0  0  0  0  0  0  0  0  0  0
   -1.5799   -9.9322   18.3468 C   0  0  0  0  0  0  0  0  0  0  0  0
   -1.0871  -12.2214   17.8851 C   0  0  0  0  0  0  0  0  0  0  0  0
   -2.2706   -8.9669   19.0691 C   0  0  0  0  0  0  0  0  0  0  0  0
    3.0279   -5.3073   26.8197 C   0  0  0  0  0  0  0  0  0  0  0  0
    7.3282   -3.8948   29.1186 C   0  0  0  0  0  0  0  0  0  0  0  0
  1  3  4  0
  1  7  4  0
  2  3  1  0
  2  6  4  0
  2 16  4  0
  3 22  4  0
  4  9  4  0
  4 10  1  0
  4 20  4  0
  5 16  4  0
  5 23  4  0
  6 15  4  0
  7 12  4  0
  8 13  4  0
  8 14  4  0
  9 11  4  0
 11 14  4  0
 11 19  4  0
 12 18  4  0
 13 21  4  0
 15 23  4  0
 17 19  4  0
 17 20  4  0
 18 22  4  0
 19 21  4  0
M  END
$$$$

 Created by Python create_sdf_string function

 23 25  0  0  0  0  0  0  0  0999 V2000
    2.4610   -5.3070   29.1240 C   0  0  0  0  0  0  0  0  0  0  0  0
    4.7710   -4.6952   28.4803 C   0  0  0  0  0  0  0  0  0  0  0  0
    3.4047   -5.1087   28.1314 C   0  0  0  0  0  0  0  0  0  0  0  0
   -0.2234  -11.8615   16.8874 C   0  0  0  0  0  0  0  0  0  0  0  0
    6.4491   -4.1532   30.1213 C   0  0  0  0  0  0  0  0  0  0  0  0
    5.7060   -4.4340   27.4975 C   0  0  0  0  0  0  0  0  0  0  0  0
    1.1818   -5.6612   28.8399 C   0  0  0  0  0  0  0  0  0  0  0  0
   -1.2067   -7.3287   17.7772 C   0  0  0  0  0  0  0  0  0  0  0  0
   -0.0206  -10.5585   16.6210 C   0  0  0  0  0  0  0  0  0  0  0  0
    0.3696  -12.7626   16.2169 O   0  0  0  0  0  0  0  0  0  0  0  0
   -0.6895   -9.5676   17.3297 C   0  0  0  0  0  0  0  0  0  0  0  0
    0.8388   -5.8417   27.5264 C   0  0  0  0  0  0  0  0  0  0  0  0
   -2.0709   -7.6637   18.7817 C   0  0  0  0  0  0  0  0  0  0  0  0
   -0.5279   -8.2168   17.0717 C   0  0  0  0  0  0  0  0  0  0  0  0
    6.9694   -4.0191   27.8190 C   0  0  0  0  0  0  0  0  0  0  0  0
    5.1733   -4.5469   29.8123 C   0  0  0  0  0  0  0  0  0  0  0  0
   -1.7508  -11.3016   18.6072 C   0  0  0  0  0  0  0  0  0  0  0  0
    1.7497   -5.6771   26.4971 C   0  0  0  0  0  0  0  0  0  0  0  0
   -1.5799   -9.9322   18.3468 C   0  0  0  0  0  0  0  0  0  0  0  0
   -1.0871  -12.2214   17.8851 C   0  0  0  0  0  0  0  0  0  0  0  0
   -2.2706   -8.9669   19.0691 C   0  0  0  0  0  0  0  0  0  0  0  0
    3.0279   -5.3073   26.8197 C   0  0  0  0  0  0  0  0  0  0  0  0
    7.3282   -3.8948   29.1186 C   0  0  0  0  0  0  0  0  0  0  0  0
  1  3  4  0
  1  7  4  0
  2  3  1  0
  2  6  4  0
  2 16  4  0
  3 22  4  0
  4  9  4  0
  4 10  1  0
  4 20  4  0
  5 16  4  0
  5 23  4  0
  6 15  4  0
  7 12  4  0
  8 13  4  0
  8 14  4  0
  9 11  4  0
 11 14  4  0
 11 19  4  0
 12 18  4  0
 13 21  4  0
 15 23  4  0
 17 19  4  0
 17 20  4  0
 18 22  4  0
 19 21  4  0
M  END
$$$$

 Created by Python create_sdf_string function

 23 25  0  0  0  0  0  0  0  0999 V2000
    2.4610   -5.3070   29.1240 C   0  0  0  0  0  0  0  0  0  0  0  0
    4.7710   -4.6952   28.4803 C   0  0  0  0  0  0  0  0  0  0  0  0
    3.4047   -5.1087   28.1314 C   0  0  0  0  0  0  0  0  0  0  0  0
   -0.2234  -11.8615   16.8874 C   0  0  0  0  0  0  0  0  0  0  0  0
    6.4491   -4.1532   30.1213 C   0  0  0  0  0  0  0  0  0  0  0  0
    5.7060   -4.4340   27.4975 C   0  0  0  0  0  0  0  0  0  0  0  0
    1.1818   -5.6612   28.8399 C   0  0  0  0  0  0  0  0  0  0  0  0
   -1.2067   -7.3287   17.7772 C   0  0  0  0  0  0  0  0  0  0  0  0
   -0.0206  -10.5585   16.6210 C   0  0  0  0  0  0  0  0  0  0  0  0
    0.3696  -12.7626   16.2169 O   0  0  0  0  0  0  0  0  0  0  0  0
   -0.6895   -9.5676   17.3297 C   0  0  0  0  0  0  0  0  0  0  0  0
    0.8388   -5.8417   27.5264 C   0  0  0  0  0  0  0  0  0  0  0  0
   -2.0709   -7.6637   18.7817 C   0  0  0  0  0  0  0  0  0  0  0  0
   -0.5279   -8.2168   17.0717 C   0  0  0  0  0  0  0  0  0  0  0  0
    6.9694   -4.0191   27.8190 C   0  0  0  0  0  0  0  0  0  0  0  0
    5.1733   -4.5469   29.8123 C   0  0  0  0  0  0  0  0  0  0  0  0
   -1.7508  -11.3016   18.6072 C   0  0  0  0  0  0  0  0  0  0  0  0
    1.7497   -5.6771   26.4971 C   0  0  0  0  0  0  0  0  0  0  0  0
   -1.5799   -9.9322   18.3468 C   0  0  0  0  0  0  0  0  0  0  0  0
   -1.0871  -12.2214   17.8851 C   0  0  0  0  0  0  0  0  0  0  0  0
   -2.2706   -8.9669   19.0691 C   0  0  0  0  0  0  0  0  0  0  0  0
    3.0279   -5.3073   26.8197 C   0  0  0  0  0  0  0  0  0  0  0  0
    7.3282   -3.8948   29.1186 C   0  0  0  0  0  0  0  0  0  0  0  0
  1  3  4  0
  1  7  4  0
  2  3  1  0
  2  6  4  0
  2 16  4  0
  3 22  4  0
  4  9  4  0
  4 10  1  0
  4 20  4  0
  5 16  4  0
  5 23  4  0
  6 15  4  0
  7 12  4  0
  8 13  4  0
  8 14  4  0
  9 11  4  0
 11 14  4  0
 11 19  4  0
 12 18  4  0
 13 21  4  0
 15 23  4  0
 17 19  4  0
 17 20  4  0
 18 22  4  0
 19 21  4  0
M  END
$$$$

 Created by Python create_sdf_string function

 23 25  0  0  0  0  0  0  0  0999 V2000
    2.4610   -5.3070   29.1240 C   0  0  0  0  0  0  0  0  0  0  0  0
    4.7710   -4.6952   28.4803 C   0  0  0  0  0  0  0  0  0  0  0  0
    3.4047   -5.1087   28.1314 C   0  0  0  0  0  0  0  0  0  0  0  0
   -0.2234  -11.8615   16.8874 C   0  0  0  0  0  0  0  0  0  0  0  0
    6.4491   -4.1532   30.1213 C   0  0  0  0  0  0  0  0  0  0  0  0
    5.7060   -4.4340   27.4975 C   0  0  0  0  0  0  0  0  0  0  0  0
    1.1818   -5.6612   28.8399 C   0  0  0  0  0  0  0  0  0  0  0  0
   -1.2067   -7.3287   17.7772 C   0  0  0  0  0  0  0  0  0  0  0  0
   -0.0206  -10.5585   16.6210 C   0  0  0  0  0  0  0  0  0  0  0  0
    0.3696  -12.7626   16.2169 O   0  0  0  0  0  0  0  0  0  0  0  0
   -0.6895   -9.5676   17.3297 C   0  0  0  0  0  0  0  0  0  0  0  0
    0.8388   -5.8417   27.5264 C   0  0  0  0  0  0  0  0  0  0  0  0
   -2.0709   -7.6637   18.7817 C   0  0  0  0  0  0  0  0  0  0  0  0
   -0.5279   -8.2168   17.0717 C   0  0  0  0  0  0  0  0  0  0  0  0
    6.9694   -4.0191   27.8190 C   0  0  0  0  0  0  0  0  0  0  0  0
    5.1733   -4.5469   29.8123 C   0  0  0  0  0  0  0  0  0  0  0  0
   -1.7508  -11.3016   18.6072 C   0  0  0  0  0  0  0  0  0  0  0  0
    1.7497   -5.6771   26.4971 C   0  0  0  0  0  0  0  0  0  0  0  0
   -1.5799   -9.9322   18.3468 C   0  0  0  0  0  0  0  0  0  0  0  0
   -1.0871  -12.2214   17.8851 C   0  0  0  0  0  0  0  0  0  0  0  0
   -2.2706   -8.9669   19.0691 C   0  0  0  0  0  0  0  0  0  0  0  0
    3.0279   -5.3073   26.8197 C   0  0  0  0  0  0  0  0  0  0  0  0
    7.3282   -3.8948   29.1186 C   0  0  0  0  0  0  0  0  0  0  0  0
  1  3  4  0
  1  7  4  0
  2  3  1  0
  2  6  4  0
  2 16  4  0
  3 22  4  0
  4  9  4  0
  4 10  1  0
  4 20  4  0
  5 16  4  0
  5 23  4  0
  6 15  4  0
  7 12  4  0
  8 13  4  0
  8 14  4  0
  9 11  4  0
 11 14  4  0
 11 19  4  0
 12 18  4  0
 13 21  4  0
 15 23  4  0
 17 19  4  0
 17 20  4  0
 18 22  4  0
 19 21  4  0
M  END
$$$$

 Created by Python create_sdf_string function

 23 25  0  0  0  0  0  0  0  0999 V2000
    2.4610   -5.3070   29.1240 C   0  0  0  0  0  0  0  0  0  0  0  0
    4.7710   -4.6952   28.4803 C   0  0  0  0  0  0  0  0  0  0  0  0
    3.4047   -5.1087   28.1314 C   0  0  0  0  0  0  0  0  0  0  0  0
   -0.2234  -11.8615   16.8874 C   0  0  0  0  0  0  0  0  0  0  0  0
    6.4491   -4.1532   30.1213 C   0  0  0  0  0  0  0  0  0  0  0  0
    5.7060   -4.4340   27.4975 C   0  0  0  0  0  0  0  0  0  0  0  0
    1.1818   -5.6612   28.8399 C   0  0  0  0  0  0  0  0  0  0  0  0
   -1.2067   -7.3287   17.7772 C   0  0  0  0  0  0  0  0  0  0  0  0
   -0.0206  -10.5585   16.6210 C   0  0  0  0  0  0  0  0  0  0  0  0
    0.3696  -12.7626   16.2169 O   0  0  0  0  0  0  0  0  0  0  0  0
   -0.6895   -9.5676   17.3297 C   0  0  0  0  0  0  0  0  0  0  0  0
    0.8388   -5.8417   27.5264 C   0  0  0  0  0  0  0  0  0  0  0  0
   -2.0709   -7.6637   18.7817 C   0  0  0  0  0  0  0  0  0  0  0  0
   -0.5279   -8.2168   17.0717 C   0  0  0  0  0  0  0  0  0  0  0  0
    6.9694   -4.0191   27.8190 C   0  0  0  0  0  0  0  0  0  0  0  0
    5.1733   -4.5469   29.8123 C   0  0  0  0  0  0  0  0  0  0  0  0
   -1.7508  -11.3016   18.6072 C   0  0  0  0  0  0  0  0  0  0  0  0
    1.7497   -5.6771   26.4971 C   0  0  0  0  0  0  0  0  0  0  0  0
   -1.5799   -9.9322   18.3468 C   0  0  0  0  0  0  0  0  0  0  0  0
   -1.0871  -12.2214   17.8851 C   0  0  0  0  0  0  0  0  0  0  0  0
   -2.2706   -8.9669   19.0691 C   0  0  0  0  0  0  0  0  0  0  0  0
    3.0279   -5.3073   26.8197 C   0  0  0  0  0  0  0  0  0  0  0  0
    7.3282   -3.8948   29.1186 C   0  0  0  0  0  0  0  0  0  0  0  0
  1  3  4  0
  1  7  4  0
  2  3  1  0
  2  6  4  0
  2 16  4  0
  3 22  4  0
  4  9  4  0
  4 10  1  0
  4 20  4  0
  5 16  4  0
  5 23  4  0
  6 15  4  0
  7 12  4  0
  8 13  4  0
  8 14  4  0
  9 11  4  0
 11 14  4  0
 11 19  4  0
 12 18  4  0
 13 21  4  0
 15 23  4  0
 17 19  4  0
 17 20  4  0
 18 22  4  0
 19 21  4  0
M  END
$$$$

 Created by Python create_sdf_string function

 23 25  0  0  0  0  0  0  0  0999 V2000
    2.4610   -5.3070   29.1240 C   0  0  0  0  0  0  0  0  0  0  0  0
    4.7710   -4.6952   28.4803 C   0  0  0  0  0  0  0  0  0  0  0  0
    3.4047   -5.1087   28.1314 C   0  0  0  0  0  0  0  0  0  0  0  0
   -0.2234  -11.8615   16.8874 C   0  0  0  0  0  0  0  0  0  0  0  0
    6.4491   -4.1532   30.1213 C   0  0  0  0  0  0  0  0  0  0  0  0
    5.7060   -4.4340   27.4975 C   0  0  0  0  0  0  0  0  0  0  0  0
    1.1818   -5.6612   28.8399 C   0  0  0  0  0  0  0  0  0  0  0  0
   -1.2067   -7.3287   17.7772 C   0  0  0  0  0  0  0  0  0  0  0  0
   -0.0206  -10.5585   16.6210 C   0  0  0  0  0  0  0  0  0  0  0  0
    0.3696  -12.7626   16.2169 O   0  0  0  0  0  0  0  0  0  0  0  0
   -0.6895   -9.5676   17.3297 C   0  0  0  0  0  0  0  0  0  0  0  0
    0.8388   -5.8417   27.5264 C   0  0  0  0  0  0  0  0  0  0  0  0
   -2.0709   -7.6637   18.7817 C   0  0  0  0  0  0  0  0  0  0  0  0
   -0.5279   -8.2168   17.0717 C   0  0  0  0  0  0  0  0  0  0  0  0
    6.9694   -4.0191   27.8190 C   0  0  0  0  0  0  0  0  0  0  0  0
    5.1733   -4.5469   29.8123 C   0  0  0  0  0  0  0  0  0  0  0  0
   -1.7508  -11.3016   18.6072 C   0  0  0  0  0  0  0  0  0  0  0  0
    1.7497   -5.6771   26.4971 C   0  0  0  0  0  0  0  0  0  0  0  0
   -1.5799   -9.9322   18.3468 C   0  0  0  0  0  0  0  0  0  0  0  0
   -1.0871  -12.2214   17.8851 C   0  0  0  0  0  0  0  0  0  0  0  0
   -2.2706   -8.9669   19.0691 C   0  0  0  0  0  0  0  0  0  0  0  0
    3.0279   -5.3073   26.8197 C   0  0  0  0  0  0  0  0  0  0  0  0
    7.3282   -3.8948   29.1186 C   0  0  0  0  0  0  0  0  0  0  0  0
  1  3  4  0
  1  7  4  0
  2  3  1  0
  2  6  4  0
  2 16  4  0
  3 22  4  0
  4  9  4  0
  4 10  1  0
  4 20  4  0
  5 16  4  0
  5 23  4  0
  6 15  4  0
  7 12  4  0
  8 13  4  0
  8 14  4  0
  9 11  4  0
 11 14  4  0
 11 19  4  0
 12 18  4  0
 13 21  4  0
 15 23  4  0
 17 19  4  0
 17 20  4  0
 18 22  4  0
 19 21  4  0
M  END
$$$$

 Created by Python create_sdf_string function

 23 25  0  0  0  0  0  0  0  0999 V2000
    2.4610   -5.3070   29.1240 C   0  0  0  0  0  0  0  0  0  0  0  0
    4.7710   -4.6952   28.4803 C   0  0  0  0  0  0  0  0  0  0  0  0
    3.4047   -5.1087   28.1314 C   0  0  0  0  0  0  0  0  0  0  0  0
   -0.2234  -11.8615   16.8874 C   0  0  0  0  0  0  0  0  0  0  0  0
    6.4491   -4.1532   30.1213 C   0  0  0  0  0  0  0  0  0  0  0  0
    5.7060   -4.4340   27.4975 C   0  0  0  0  0  0  0  0  0  0  0  0
    1.1818   -5.6612   28.8399 C   0  0  0  0  0  0  0  0  0  0  0  0
   -1.2067   -7.3287   17.7772 C   0  0  0  0  0  0  0  0  0  0  0  0
   -0.0206  -10.5585   16.6210 C   0  0  0  0  0  0  0  0  0  0  0  0
    0.3696  -12.7626   16.2169 O   0  0  0  0  0  0  0  0  0  0  0  0
   -0.6895   -9.5676   17.3297 C   0  0  0  0  0  0  0  0  0  0  0  0
    0.8388   -5.8417   27.5264 C   0  0  0  0  0  0  0  0  0  0  0  0
   -2.0709   -7.6637   18.7817 C   0  0  0  0  0  0  0  0  0  0  0  0
   -0.5279   -8.2168   17.0717 C   0  0  0  0  0  0  0  0  0  0  0  0
    6.9694   -4.0191   27.8190 C   0  0  0  0  0  0  0  0  0  0  0  0
    5.1733   -4.5469   29.8123 C   0  0  0  0  0  0  0  0  0  0  0  0
   -1.7508  -11.3016   18.6072 C   0  0  0  0  0  0  0  0  0  0  0  0
    1.7497   -5.6771   26.4971 C   0  0  0  0  0  0  0  0  0  0  0  0
   -1.5799   -9.9322   18.3468 C   0  0  0  0  0  0  0  0  0  0  0  0
   -1.0871  -12.2214   17.8851 C   0  0  0  0  0  0  0  0  0  0  0  0
   -2.2706   -8.9669   19.0691 C   0  0  0  0  0  0  0  0  0  0  0  0
    3.0279   -5.3073   26.8197 C   0  0  0  0  0  0  0  0  0  0  0  0
    7.3282   -3.8948   29.1186 C   0  0  0  0  0  0  0  0  0  0  0  0
  1  3  4  0
  1  7  4  0
  2  3  1  0
  2  6  4  0
  2 16  4  0
  3 22  4  0
  4  9  4  0
  4 10  1  0
  4 20  4  0
  5 16  4  0
  5 23  4  0
  6 15  4  0
  7 12  4  0
  8 13  4  0
  8 14  4  0
  9 11  4  0
 11 14  4  0
 11 19  4  0
 12 18  4  0
 13 21  4  0
 15 23  4  0
 17 19  4  0
 17 20  4  0
 18 22  4  0
 19 21  4  0
M  END
$$$$

 Created by Python create_sdf_string function

 23 25  0  0  0  0  0  0  0  0999 V2000
    2.4610   -5.3070   29.1240 C   0  0  0  0  0  0  0  0  0  0  0  0
    4.7710   -4.6952   28.4803 C   0  0  0  0  0  0  0  0  0  0  0  0
    3.4047   -5.1087   28.1314 C   0  0  0  0  0  0  0  0  0  0  0  0
   -0.2234  -11.8615   16.8874 C   0  0  0  0  0  0  0  0  0  0  0  0
    6.4491   -4.1532   30.1213 C   0  0  0  0  0  0  0  0  0  0  0  0
    5.7060   -4.4340   27.4975 C   0  0  0  0  0  0  0  0  0  0  0  0
    1.1818   -5.6612   28.8399 C   0  0  0  0  0  0  0  0  0  0  0  0
   -1.2067   -7.3287   17.7772 C   0  0  0  0  0  0  0  0  0  0  0  0
   -0.0206  -10.5585   16.6210 C   0  0  0  0  0  0  0  0  0  0  0  0
    0.3696  -12.7626   16.2169 O   0  0  0  0  0  0  0  0  0  0  0  0
   -0.6895   -9.5676   17.3297 C   0  0  0  0  0  0  0  0  0  0  0  0
    0.8388   -5.8417   27.5264 C   0  0  0  0  0  0  0  0  0  0  0  0
   -2.0709   -7.6637   18.7817 C   0  0  0  0  0  0  0  0  0  0  0  0
   -0.5279   -8.2168   17.0717 C   0  0  0  0  0  0  0  0  0  0  0  0
    6.9694   -4.0191   27.8190 C   0  0  0  0  0  0  0  0  0  0  0  0
    5.1733   -4.5469   29.8123 C   0  0  0  0  0  0  0  0  0  0  0  0
   -1.7508  -11.3016   18.6072 C   0  0  0  0  0  0  0  0  0  0  0  0
    1.7497   -5.6771   26.4971 C   0  0  0  0  0  0  0  0  0  0  0  0
   -1.5799   -9.9322   18.3468 C   0  0  0  0  0  0  0  0  0  0  0  0
   -1.0871  -12.2214   17.8851 C   0  0  0  0  0  0  0  0  0  0  0  0
   -2.2706   -8.9669   19.0691 C   0  0  0  0  0  0  0  0  0  0  0  0
    3.0279   -5.3073   26.8197 C   0  0  0  0  0  0  0  0  0  0  0  0
    7.3282   -3.8948   29.1186 C   0  0  0  0  0  0  0  0  0  0  0  0
  1  3  4  0
  1  7  4  0
  2  3  1  0
  2  6  4  0
  2 16  4  0
  3 22  4  0
  4  9  4  0
  4 10  1  0
  4 20  4  0
  5 16  4  0
  5 23  4  0
  6 15  4  0
  7 12  4  0
  8 13  4  0
  8 14  4  0
  9 11  4  0
 11 14  4  0
 11 19  4  0
 12 18  4  0
 13 21  4  0
 15 23  4  0
 17 19  4  0
 17 20  4  0
 18 22  4  0
 19 21  4  0
M  END
$$$$

 Created by Python create_sdf_string function

 23 25  0  0  0  0  0  0  0  0999 V2000
    2.4610   -5.3070   29.1240 C   0  0  0  0  0  0  0  0  0  0  0  0
    4.7710   -4.6952   28.4803 C   0  0  0  0  0  0  0  0  0  0  0  0
    3.4047   -5.1087   28.1314 C   0  0  0  0  0  0  0  0  0  0  0  0
   -0.2234  -11.8615   16.8874 C   0  0  0  0  0  0  0  0  0  0  0  0
    6.4491   -4.1532   30.1213 C   0  0  0  0  0  0  0  0  0  0  0  0
    5.7060   -4.4340   27.4975 C   0  0  0  0  0  0  0  0  0  0  0  0
    1.1818   -5.6612   28.8399 C   0  0  0  0  0  0  0  0  0  0  0  0
   -1.2067   -7.3287   17.7772 C   0  0  0  0  0  0  0  0  0  0  0  0
   -0.0206  -10.5585   16.6210 C   0  0  0  0  0  0  0  0  0  0  0  0
    0.3696  -12.7626   16.2169 O   0  0  0  0  0  0  0  0  0  0  0  0
   -0.6895   -9.5676   17.3297 C   0  0  0  0  0  0  0  0  0  0  0  0
    0.8388   -5.8417   27.5264 C   0  0  0  0  0  0  0  0  0  0  0  0
   -2.0709   -7.6637   18.7817 C   0  0  0  0  0  0  0  0  0  0  0  0
   -0.5279   -8.2168   17.0717 C   0  0  0  0  0  0  0  0  0  0  0  0
    6.9694   -4.0191   27.8190 C   0  0  0  0  0  0  0  0  0  0  0  0
    5.1733   -4.5469   29.8123 C   0  0  0  0  0  0  0  0  0  0  0  0
   -1.7508  -11.3016   18.6072 C   0  0  0  0  0  0  0  0  0  0  0  0
    1.7497   -5.6771   26.4971 C   0  0  0  0  0  0  0  0  0  0  0  0
   -1.5799   -9.9322   18.3468 C   0  0  0  0  0  0  0  0  0  0  0  0
   -1.0871  -12.2214   17.8851 C   0  0  0  0  0  0  0  0  0  0  0  0
   -2.2706   -8.9669   19.0691 C   0  0  0  0  0  0  0  0  0  0  0  0
    3.0279   -5.3073   26.8197 C   0  0  0  0  0  0  0  0  0  0  0  0
    7.3282   -3.8948   29.1186 C   0  0  0  0  0  0  0  0  0  0  0  0
  1  3  4  0
  1  7  4  0
  2  3  1  0
  2  6  4  0
  2 16  4  0
  3 22  4  0
  4  9  4  0
  4 10  1  0
  4 20  4  0
  5 16  4  0
  5 23  4  0
  6 15  4  0
  7 12  4  0
  8 13  4  0
  8 14  4  0
  9 11  4  0
 11 14  4  0
 11 19  4  0
 12 18  4  0
 13 21  4  0
 15 23  4  0
 17 19  4  0
 17 20  4  0
 18 22  4  0
 19 21  4  0
M  END
$$$$

 Created by Python create_sdf_string function

 23 25  0  0  0  0  0  0  0  0999 V2000
    2.4610   -5.3070   29.1240 C   0  0  0  0  0  0  0  0  0  0  0  0
    4.7710   -4.6952   28.4803 C   0  0  0  0  0  0  0  0  0  0  0  0
    3.4047   -5.1087   28.1314 C   0  0  0  0  0  0  0  0  0  0  0  0
   -0.2234  -11.8615   16.8874 C   0  0  0  0  0  0  0  0  0  0  0  0
    6.4491   -4.1532   30.1213 C   0  0  0  0  0  0  0  0  0  0  0  0
    5.7060   -4.4340   27.4975 C   0  0  0  0  0  0  0  0  0  0  0  0
    1.1818   -5.6612   28.8399 C   0  0  0  0  0  0  0  0  0  0  0  0
   -1.2067   -7.3287   17.7772 C   0  0  0  0  0  0  0  0  0  0  0  0
   -0.0206  -10.5585   16.6210 C   0  0  0  0  0  0  0  0  0  0  0  0
    0.3696  -12.7626   16.2169 O   0  0  0  0  0  0  0  0  0  0  0  0
   -0.6895   -9.5676   17.3297 C   0  0  0  0  0  0  0  0  0  0  0  0
    0.8388   -5.8417   27.5264 C   0  0  0  0  0  0  0  0  0  0  0  0
   -2.0709   -7.6637   18.7817 C   0  0  0  0  0  0  0  0  0  0  0  0
   -0.5279   -8.2168   17.0717 C   0  0  0  0  0  0  0  0  0  0  0  0
    6.9694   -4.0191   27.8190 C   0  0  0  0  0  0  0  0  0  0  0  0
    5.1733   -4.5469   29.8123 C   0  0  0  0  0  0  0  0  0  0  0  0
   -1.7508  -11.3016   18.6072 C   0  0  0  0  0  0  0  0  0  0  0  0
    1.7497   -5.6771   26.4971 C   0  0  0  0  0  0  0  0  0  0  0  0
   -1.5799   -9.9322   18.3468 C   0  0  0  0  0  0  0  0  0  0  0  0
   -1.0871  -12.2214   17.8851 C   0  0  0  0  0  0  0  0  0  0  0  0
   -2.2706   -8.9669   19.0691 C   0  0  0  0  0  0  0  0  0  0  0  0
    3.0279   -5.3073   26.8197 C   0  0  0  0  0  0  0  0  0  0  0  0
    7.3282   -3.8948   29.1186 C   0  0  0  0  0  0  0  0  0  0  0  0
  1  3  4  0
  1  7  4  0
  2  3  1  0
  2  6  4  0
  2 16  4  0
  3 22  4  0
  4  9  4  0
  4 10  1  0
  4 20  4  0
  5 16  4  0
  5 23  4  0
  6 15  4  0
  7 12  4  0
  8 13  4  0
  8 14  4  0
  9 11  4  0
 11 14  4  0
 11 19  4  0
 12 18  4  0
 13 21  4  0
 15 23  4  0
 17 19  4  0
 17 20  4  0
 18 22  4  0
 19 21  4  0
M  END
$$$$

 Created by Python create_sdf_string function

 23 25  0  0  0  0  0  0  0  0999 V2000
    2.4610   -5.3070   29.1240 C   0  0  0  0  0  0  0  0  0  0  0  0
    4.7710   -4.6952   28.4803 C   0  0  0  0  0  0  0  0  0  0  0  0
    3.4047   -5.1087   28.1314 C   0  0  0  0  0  0  0  0  0  0  0  0
   -0.2234  -11.8615   16.8874 C   0  0  0  0  0  0  0  0  0  0  0  0
    6.4491   -4.1532   30.1213 C   0  0  0  0  0  0  0  0  0  0  0  0
    5.7060   -4.4340   27.4975 C   0  0  0  0  0  0  0  0  0  0  0  0
    1.1818   -5.6612   28.8399 C   0  0  0  0  0  0  0  0  0  0  0  0
   -1.2067   -7.3287   17.7772 C   0  0  0  0  0  0  0  0  0  0  0  0
   -0.0206  -10.5585   16.6210 C   0  0  0  0  0  0  0  0  0  0  0  0
    0.3696  -12.7626   16.2169 O   0  0  0  0  0  0  0  0  0  0  0  0
   -0.6895   -9.5676   17.3297 C   0  0  0  0  0  0  0  0  0  0  0  0
    0.8388   -5.8417   27.5264 C   0  0  0  0  0  0  0  0  0  0  0  0
   -2.0709   -7.6637   18.7817 C   0  0  0  0  0  0  0  0  0  0  0  0
   -0.5279   -8.2168   17.0717 C   0  0  0  0  0  0  0  0  0  0  0  0
    6.9694   -4.0191   27.8190 C   0  0  0  0  0  0  0  0  0  0  0  0
    5.1733   -4.5469   29.8123 C   0  0  0  0  0  0  0  0  0  0  0  0
   -1.7508  -11.3016   18.6072 C   0  0  0  0  0  0  0  0  0  0  0  0
    1.7497   -5.6771   26.4971 C   0  0  0  0  0  0  0  0  0  0  0  0
   -1.5799   -9.9322   18.3468 C   0  0  0  0  0  0  0  0  0  0  0  0
   -1.0871  -12.2214   17.8851 C   0  0  0  0  0  0  0  0  0  0  0  0
   -2.2706   -8.9669   19.0691 C   0  0  0  0  0  0  0  0  0  0  0  0
    3.0279   -5.3073   26.8197 C   0  0  0  0  0  0  0  0  0  0  0  0
    7.3282   -3.8948   29.1186 C   0  0  0  0  0  0  0  0  0  0  0  0
  1  3  4  0
  1  7  4  0
  2  3  1  0
  2  6  4  0
  2 16  4  0
  3 22  4  0
  4  9  4  0
  4 10  1  0
  4 20  4  0
  5 16  4  0
  5 23  4  0
  6 15  4  0
  7 12  4  0
  8 13  4  0
  8 14  4  0
  9 11  4  0
 11 14  4  0
 11 19  4  0
 12 18  4  0
 13 21  4  0
 15 23  4  0
 17 19  4  0
 17 20  4  0
 18 22  4  0
 19 21  4  0
M  END
$$$$

 Created by Python create_sdf_string function

 23 25  0  0  0  0  0  0  0  0999 V2000
    2.4610   -5.3070   29.1240 C   0  0  0  0  0  0  0  0  0  0  0  0
    4.7710   -4.6952   28.4803 C   0  0  0  0  0  0  0  0  0  0  0  0
    3.4047   -5.1087   28.1314 C   0  0  0  0  0  0  0  0  0  0  0  0
   -0.2234  -11.8615   16.8874 C   0  0  0  0  0  0  0  0  0  0  0  0
    6.4491   -4.1532   30.1213 C   0  0  0  0  0  0  0  0  0  0  0  0
    5.7060   -4.4340   27.4975 C   0  0  0  0  0  0  0  0  0  0  0  0
    1.1818   -5.6612   28.8399 C   0  0  0  0  0  0  0  0  0  0  0  0
   -1.2067   -7.3287   17.7772 C   0  0  0  0  0  0  0  0  0  0  0  0
   -0.0206  -10.5585   16.6210 C   0  0  0  0  0  0  0  0  0  0  0  0
    0.3696  -12.7626   16.2169 O   0  0  0  0  0  0  0  0  0  0  0  0
   -0.6895   -9.5676   17.3297 C   0  0  0  0  0  0  0  0  0  0  0  0
    0.8388   -5.8417   27.5264 C   0  0  0  0  0  0  0  0  0  0  0  0
   -2.0709   -7.6637   18.7817 C   0  0  0  0  0  0  0  0  0  0  0  0
   -0.5279   -8.2168   17.0717 C   0  0  0  0  0  0  0  0  0  0  0  0
    6.9694   -4.0191   27.8190 C   0  0  0  0  0  0  0  0  0  0  0  0
    5.1733   -4.5469   29.8123 C   0  0  0  0  0  0  0  0  0  0  0  0
   -1.7508  -11.3016   18.6072 C   0  0  0  0  0  0  0  0  0  0  0  0
    1.7497   -5.6771   26.4971 C   0  0  0  0  0  0  0  0  0  0  0  0
   -1.5799   -9.9322   18.3468 C   0  0  0  0  0  0  0  0  0  0  0  0
   -1.0871  -12.2214   17.8851 C   0  0  0  0  0  0  0  0  0  0  0  0
   -2.2706   -8.9669   19.0691 C   0  0  0  0  0  0  0  0  0  0  0  0
    3.0279   -5.3073   26.8197 C   0  0  0  0  0  0  0  0  0  0  0  0
    7.3282   -3.8948   29.1186 C   0  0  0  0  0  0  0  0  0  0  0  0
  1  3  4  0
  1  7  4  0
  2  3  1  0
  2  6  4  0
  2 16  4  0
  3 22  4  0
  4  9  4  0
  4 10  1  0
  4 20  4  0
  5 16  4  0
  5 23  4  0
  6 15  4  0
  7 12  4  0
  8 13  4  0
  8 14  4  0
  9 11  4  0
 11 14  4  0
 11 19  4  0
 12 18  4  0
 13 21  4  0
 15 23  4  0
 17 19  4  0
 17 20  4  0
 18 22  4  0
 19 21  4  0
M  END
$$$$

 Created by Python create_sdf_string function

 23 25  0  0  0  0  0  0  0  0999 V2000
    2.4610   -5.3070   29.1240 C   0  0  0  0  0  0  0  0  0  0  0  0
    4.7710   -4.6952   28.4803 C   0  0  0  0  0  0  0  0  0  0  0  0
    3.4047   -5.1087   28.1314 C   0  0  0  0  0  0  0  0  0  0  0  0
   -0.2234  -11.8615   16.8874 C   0  0  0  0  0  0  0  0  0  0  0  0
    6.4491   -4.1532   30.1213 C   0  0  0  0  0  0  0  0  0  0  0  0
    5.7060   -4.4340   27.4975 C   0  0  0  0  0  0  0  0  0  0  0  0
    1.1818   -5.6612   28.8399 C   0  0  0  0  0  0  0  0  0  0  0  0
   -1.2067   -7.3287   17.7772 C   0  0  0  0  0  0  0  0  0  0  0  0
   -0.0206  -10.5585   16.6210 C   0  0  0  0  0  0  0  0  0  0  0  0
    0.3696  -12.7626   16.2169 O   0  0  0  0  0  0  0  0  0  0  0  0
   -0.6895   -9.5676   17.3297 C   0  0  0  0  0  0  0  0  0  0  0  0
    0.8388   -5.8417   27.5264 C   0  0  0  0  0  0  0  0  0  0  0  0
   -2.0709   -7.6637   18.7817 C   0  0  0  0  0  0  0  0  0  0  0  0
   -0.5279   -8.2168   17.0717 C   0  0  0  0  0  0  0  0  0  0  0  0
    6.9694   -4.0191   27.8190 C   0  0  0  0  0  0  0  0  0  0  0  0
    5.1733   -4.5469   29.8123 C   0  0  0  0  0  0  0  0  0  0  0  0
   -1.7508  -11.3016   18.6072 C   0  0  0  0  0  0  0  0  0  0  0  0
    1.7497   -5.6771   26.4971 C   0  0  0  0  0  0  0  0  0  0  0  0
   -1.5799   -9.9322   18.3468 C   0  0  0  0  0  0  0  0  0  0  0  0
   -1.0871  -12.2214   17.8851 C   0  0  0  0  0  0  0  0  0  0  0  0
   -2.2706   -8.9669   19.0691 C   0  0  0  0  0  0  0  0  0  0  0  0
    3.0279   -5.3073   26.8197 C   0  0  0  0  0  0  0  0  0  0  0  0
    7.3282   -3.8948   29.1186 C   0  0  0  0  0  0  0  0  0  0  0  0
  1  3  4  0
  1  7  4  0
  2  3  1  0
  2  6  4  0
  2 16  4  0
  3 22  4  0
  4  9  4  0
  4 10  1  0
  4 20  4  0
  5 16  4  0
  5 23  4  0
  6 15  4  0
  7 12  4  0
  8 13  4  0
  8 14  4  0
  9 11  4  0
 11 14  4  0
 11 19  4  0
 12 18  4  0
 13 21  4  0
 15 23  4  0
 17 19  4  0
 17 20  4  0
 18 22  4  0
 19 21  4  0
M  END
$$$$

 Created by Python create_sdf_string function

 23 25  0  0  0  0  0  0  0  0999 V2000
    2.4610   -5.3070   29.1240 C   0  0  0  0  0  0  0  0  0  0  0  0
    4.7710   -4.6952   28.4803 C   0  0  0  0  0  0  0  0  0  0  0  0
    3.4047   -5.1087   28.1314 C   0  0  0  0  0  0  0  0  0  0  0  0
   -0.2234  -11.8615   16.8874 C   0  0  0  0  0  0  0  0  0  0  0  0
    6.4491   -4.1532   30.1213 C   0  0  0  0  0  0  0  0  0  0  0  0
    5.7060   -4.4340   27.4975 C   0  0  0  0  0  0  0  0  0  0  0  0
    1.1818   -5.6612   28.8399 C   0  0  0  0  0  0  0  0  0  0  0  0
   -1.2067   -7.3287   17.7772 C   0  0  0  0  0  0  0  0  0  0  0  0
   -0.0206  -10.5585   16.6210 C   0  0  0  0  0  0  0  0  0  0  0  0
    0.3696  -12.7626   16.2169 O   0  0  0  0  0  0  0  0  0  0  0  0
   -0.6895   -9.5676   17.3297 C   0  0  0  0  0  0  0  0  0  0  0  0
    0.8388   -5.8417   27.5264 C   0  0  0  0  0  0  0  0  0  0  0  0
   -2.0709   -7.6637   18.7817 C   0  0  0  0  0  0  0  0  0  0  0  0
   -0.5279   -8.2168   17.0717 C   0  0  0  0  0  0  0  0  0  0  0  0
    6.9694   -4.0191   27.8190 C   0  0  0  0  0  0  0  0  0  0  0  0
    5.1733   -4.5469   29.8123 C   0  0  0  0  0  0  0  0  0  0  0  0
   -1.7508  -11.3016   18.6072 C   0  0  0  0  0  0  0  0  0  0  0  0
    1.7497   -5.6771   26.4971 C   0  0  0  0  0  0  0  0  0  0  0  0
   -1.5799   -9.9322   18.3468 C   0  0  0  0  0  0  0  0  0  0  0  0
   -1.0871  -12.2214   17.8851 C   0  0  0  0  0  0  0  0  0  0  0  0
   -2.2706   -8.9669   19.0691 C   0  0  0  0  0  0  0  0  0  0  0  0
    3.0279   -5.3073   26.8197 C   0  0  0  0  0  0  0  0  0  0  0  0
    7.3282   -3.8948   29.1186 C   0  0  0  0  0  0  0  0  0  0  0  0
  1  3  4  0
  1  7  4  0
  2  3  1  0
  2  6  4  0
  2 16  4  0
  3 22  4  0
  4  9  4  0
  4 10  1  0
  4 20  4  0
  5 16  4  0
  5 23  4  0
  6 15  4  0
  7 12  4  0
  8 13  4  0
  8 14  4  0
  9 11  4  0
 11 14  4  0
 11 19  4  0
 12 18  4  0
 13 21  4  0
 15 23  4  0
 17 19  4  0
 17 20  4  0
 18 22  4  0
 19 21  4  0
M  END
$$$$

 Created by Python create_sdf_string function

 23 25  0  0  0  0  0  0  0  0999 V2000
    2.4610   -5.3070   29.1240 C   0  0  0  0  0  0  0  0  0  0  0  0
    4.7710   -4.6952   28.4803 C   0  0  0  0  0  0  0  0  0  0  0  0
    3.4047   -5.1087   28.1314 C   0  0  0  0  0  0  0  0  0  0  0  0
   -0.2234  -11.8615   16.8874 C   0  0  0  0  0  0  0  0  0  0  0  0
    6.4491   -4.1532   30.1213 C   0  0  0  0  0  0  0  0  0  0  0  0
    5.7060   -4.4340   27.4975 C   0  0  0  0  0  0  0  0  0  0  0  0
    1.1818   -5.6612   28.8399 C   0  0  0  0  0  0  0  0  0  0  0  0
   -1.2067   -7.3287   17.7772 C   0  0  0  0  0  0  0  0  0  0  0  0
   -0.0206  -10.5585   16.6210 C   0  0  0  0  0  0  0  0  0  0  0  0
    0.3696  -12.7626   16.2169 O   0  0  0  0  0  0  0  0  0  0  0  0
   -0.6895   -9.5676   17.3297 C   0  0  0  0  0  0  0  0  0  0  0  0
    0.8388   -5.8417   27.5264 C   0  0  0  0  0  0  0  0  0  0  0  0
   -2.0709   -7.6637   18.7817 C   0  0  0  0  0  0  0  0  0  0  0  0
   -0.5279   -8.2168   17.0717 C   0  0  0  0  0  0  0  0  0  0  0  0
    6.9694   -4.0191   27.8190 C   0  0  0  0  0  0  0  0  0  0  0  0
    5.1733   -4.5469   29.8123 C   0  0  0  0  0  0  0  0  0  0  0  0
   -1.7508  -11.3016   18.6072 C   0  0  0  0  0  0  0  0  0  0  0  0
    1.7497   -5.6771   26.4971 C   0  0  0  0  0  0  0  0  0  0  0  0
   -1.5799   -9.9322   18.3468 C   0  0  0  0  0  0  0  0  0  0  0  0
   -1.0871  -12.2214   17.8851 C   0  0  0  0  0  0  0  0  0  0  0  0
   -2.2706   -8.9669   19.0691 C   0  0  0  0  0  0  0  0  0  0  0  0
    3.0279   -5.3073   26.8197 C   0  0  0  0  0  0  0  0  0  0  0  0
    7.3282   -3.8948   29.1186 C   0  0  0  0  0  0  0  0  0  0  0  0
  1  3  4  0
  1  7  4  0
  2  3  1  0
  2  6  4  0
  2 16  4  0
  3 22  4  0
  4  9  4  0
  4 10  1  0
  4 20  4  0
  5 16  4  0
  5 23  4  0
  6 15  4  0
  7 12  4  0
  8 13  4  0
  8 14  4  0
  9 11  4  0
 11 14  4  0
 11 19  4  0
 12 18  4  0
 13 21  4  0
 15 23  4  0
 17 19  4  0
 17 20  4  0
 18 22  4  0
 19 21  4  0
M  END
$$$$

 Created by Python create_sdf_string function

 23 25  0  0  0  0  0  0  0  0999 V2000
    2.4610   -5.3070   29.1240 C   0  0  0  0  0  0  0  0  0  0  0  0
    4.7710   -4.6952   28.4803 C   0  0  0  0  0  0  0  0  0  0  0  0
    3.4047   -5.1087   28.1314 C   0  0  0  0  0  0  0  0  0  0  0  0
   -0.2234  -11.8615   16.8874 C   0  0  0  0  0  0  0  0  0  0  0  0
    6.4491   -4.1532   30.1213 C   0  0  0  0  0  0  0  0  0  0  0  0
    5.7060   -4.4340   27.4975 C   0  0  0  0  0  0  0  0  0  0  0  0
    1.1818   -5.6612   28.8399 C   0  0  0  0  0  0  0  0  0  0  0  0
   -1.2067   -7.3287   17.7772 C   0  0  0  0  0  0  0  0  0  0  0  0
   -0.0206  -10.5585   16.6210 C   0  0  0  0  0  0  0  0  0  0  0  0
    0.3696  -12.7626   16.2169 O   0  0  0  0  0  0  0  0  0  0  0  0
   -0.6895   -9.5676   17.3297 C   0  0  0  0  0  0  0  0  0  0  0  0
    0.8388   -5.8417   27.5264 C   0  0  0  0  0  0  0  0  0  0  0  0
   -2.0709   -7.6637   18.7817 C   0  0  0  0  0  0  0  0  0  0  0  0
   -0.5279   -8.2168   17.0717 C   0  0  0  0  0  0  0  0  0  0  0  0
    6.9694   -4.0191   27.8190 C   0  0  0  0  0  0  0  0  0  0  0  0
    5.1733   -4.5469   29.8123 C   0  0  0  0  0  0  0  0  0  0  0  0
   -1.7508  -11.3016   18.6072 C   0  0  0  0  0  0  0  0  0  0  0  0
    1.7497   -5.6771   26.4971 C   0  0  0  0  0  0  0  0  0  0  0  0
   -1.5799   -9.9322   18.3468 C   0  0  0  0  0  0  0  0  0  0  0  0
   -1.0871  -12.2214   17.8851 C   0  0  0  0  0  0  0  0  0  0  0  0
   -2.2706   -8.9669   19.0691 C   0  0  0  0  0  0  0  0  0  0  0  0
    3.0279   -5.3073   26.8197 C   0  0  0  0  0  0  0  0  0  0  0  0
    7.3282   -3.8948   29.1186 C   0  0  0  0  0  0  0  0  0  0  0  0
  1  3  4  0
  1  7  4  0
  2  3  1  0
  2  6  4  0
  2 16  4  0
  3 22  4  0
  4  9  4  0
  4 10  1  0
  4 20  4  0
  5 16  4  0
  5 23  4  0
  6 15  4  0
  7 12  4  0
  8 13  4  0
  8 14  4  0
  9 11  4  0
 11 14  4  0
 11 19  4  0
 12 18  4  0
 13 21  4  0
 15 23  4  0
 17 19  4  0
 17 20  4  0
 18 22  4  0
 19 21  4  0
M  END
$$$$

 Created by Python create_sdf_string function

 23 25  0  0  0  0  0  0  0  0999 V2000
    2.4610   -5.3070   29.1240 C   0  0  0  0  0  0  0  0  0  0  0  0
    4.7710   -4.6952   28.4803 C   0  0  0  0  0  0  0  0  0  0  0  0
    3.4047   -5.1087   28.1314 C   0  0  0  0  0  0  0  0  0  0  0  0
   -0.2234  -11.8615   16.8874 C   0  0  0  0  0  0  0  0  0  0  0  0
    6.4491   -4.1532   30.1213 C   0  0  0  0  0  0  0  0  0  0  0  0
    5.7060   -4.4340   27.4975 C   0  0  0  0  0  0  0  0  0  0  0  0
    1.1818   -5.6612   28.8399 C   0  0  0  0  0  0  0  0  0  0  0  0
   -1.2067   -7.3287   17.7772 C   0  0  0  0  0  0  0  0  0  0  0  0
   -0.0206  -10.5585   16.6210 C   0  0  0  0  0  0  0  0  0  0  0  0
    0.3696  -12.7626   16.2169 O   0  0  0  0  0  0  0  0  0  0  0  0
   -0.6895   -9.5676   17.3297 C   0  0  0  0  0  0  0  0  0  0  0  0
    0.8388   -5.8417   27.5264 C   0  0  0  0  0  0  0  0  0  0  0  0
   -2.0709   -7.6637   18.7817 C   0  0  0  0  0  0  0  0  0  0  0  0
   -0.5279   -8.2168   17.0717 C   0  0  0  0  0  0  0  0  0  0  0  0
    6.9694   -4.0191   27.8190 C   0  0  0  0  0  0  0  0  0  0  0  0
    5.1733   -4.5469   29.8123 C   0  0  0  0  0  0  0  0  0  0  0  0
   -1.7508  -11.3016   18.6072 C   0  0  0  0  0  0  0  0  0  0  0  0
    1.7497   -5.6771   26.4971 C   0  0  0  0  0  0  0  0  0  0  0  0
   -1.5799   -9.9322   18.3468 C   0  0  0  0  0  0  0  0  0  0  0  0
   -1.0871  -12.2214   17.8851 C   0  0  0  0  0  0  0  0  0  0  0  0
   -2.2706   -8.9669   19.0691 C   0  0  0  0  0  0  0  0  0  0  0  0
    3.0279   -5.3073   26.8197 C   0  0  0  0  0  0  0  0  0  0  0  0
    7.3282   -3.8948   29.1186 C   0  0  0  0  0  0  0  0  0  0  0  0
  1  3  4  0
  1  7  4  0
  2  3  1  0
  2  6  4  0
  2 16  4  0
  3 22  4  0
  4  9  4  0
  4 10  1  0
  4 20  4  0
  5 16  4  0
  5 23  4  0
  6 15  4  0
  7 12  4  0
  8 13  4  0
  8 14  4  0
  9 11  4  0
 11 14  4  0
 11 19  4  0
 12 18  4  0
 13 21  4  0
 15 23  4  0
 17 19  4  0
 17 20  4  0
 18 22  4  0
 19 21  4  0
M  END
$$$$

 Created by Python create_sdf_string function

 23 25  0  0  0  0  0  0  0  0999 V2000
    2.4610   -5.3070   29.1240 C   0  0  0  0  0  0  0  0  0  0  0  0
    4.7710   -4.6952   28.4803 C   0  0  0  0  0  0  0  0  0  0  0  0
    3.4047   -5.1087   28.1314 C   0  0  0  0  0  0  0  0  0  0  0  0
   -0.2234  -11.8615   16.8874 C   0  0  0  0  0  0  0  0  0  0  0  0
    6.4491   -4.1532   30.1213 C   0  0  0  0  0  0  0  0  0  0  0  0
    5.7060   -4.4340   27.4975 C   0  0  0  0  0  0  0  0  0  0  0  0
    1.1818   -5.6612   28.8399 C   0  0  0  0  0  0  0  0  0  0  0  0
   -1.2067   -7.3287   17.7772 C   0  0  0  0  0  0  0  0  0  0  0  0
   -0.0206  -10.5585   16.6210 C   0  0  0  0  0  0  0  0  0  0  0  0
    0.3696  -12.7626   16.2169 O   0  0  0  0  0  0  0  0  0  0  0  0
   -0.6895   -9.5676   17.3297 C   0  0  0  0  0  0  0  0  0  0  0  0
    0.8388   -5.8417   27.5264 C   0  0  0  0  0  0  0  0  0  0  0  0
   -2.0709   -7.6637   18.7817 C   0  0  0  0  0  0  0  0  0  0  0  0
   -0.5279   -8.2168   17.0717 C   0  0  0  0  0  0  0  0  0  0  0  0
    6.9694   -4.0191   27.8190 C   0  0  0  0  0  0  0  0  0  0  0  0
    5.1733   -4.5469   29.8123 C   0  0  0  0  0  0  0  0  0  0  0  0
   -1.7508  -11.3016   18.6072 C   0  0  0  0  0  0  0  0  0  0  0  0
    1.7497   -5.6771   26.4971 C   0  0  0  0  0  0  0  0  0  0  0  0
   -1.5799   -9.9322   18.3468 C   0  0  0  0  0  0  0  0  0  0  0  0
   -1.0871  -12.2214   17.8851 C   0  0  0  0  0  0  0  0  0  0  0  0
   -2.2706   -8.9669   19.0691 C   0  0  0  0  0  0  0  0  0  0  0  0
    3.0279   -5.3073   26.8197 C   0  0  0  0  0  0  0  0  0  0  0  0
    7.3282   -3.8948   29.1186 C   0  0  0  0  0  0  0  0  0  0  0  0
  1  3  4  0
  1  7  4  0
  2  3  1  0
  2  6  4  0
  2 16  4  0
  3 22  4  0
  4  9  4  0
  4 10  1  0
  4 20  4  0
  5 16  4  0
  5 23  4  0
  6 15  4  0
  7 12  4  0
  8 13  4  0
  8 14  4  0
  9 11  4  0
 11 14  4  0
 11 19  4  0
 12 18  4  0
 13 21  4  0
 15 23  4  0
 17 19  4  0
 17 20  4  0
 18 22  4  0
 19 21  4  0
M  END
$$$$

 Created by Python create_sdf_string function

 23 25  0  0  0  0  0  0  0  0999 V2000
    2.4610   -5.3070   29.1240 C   0  0  0  0  0  0  0  0  0  0  0  0
    4.7710   -4.6952   28.4803 C   0  0  0  0  0  0  0  0  0  0  0  0
    3.4047   -5.1087   28.1314 C   0  0  0  0  0  0  0  0  0  0  0  0
   -0.2234  -11.8615   16.8874 C   0  0  0  0  0  0  0  0  0  0  0  0
    6.4491   -4.1532   30.1213 C   0  0  0  0  0  0  0  0  0  0  0  0
    5.7060   -4.4340   27.4975 C   0  0  0  0  0  0  0  0  0  0  0  0
    1.1818   -5.6612   28.8399 C   0  0  0  0  0  0  0  0  0  0  0  0
   -1.2067   -7.3287   17.7772 C   0  0  0  0  0  0  0  0  0  0  0  0
   -0.0206  -10.5585   16.6210 C   0  0  0  0  0  0  0  0  0  0  0  0
    0.3696  -12.7626   16.2169 O   0  0  0  0  0  0  0  0  0  0  0  0
   -0.6895   -9.5676   17.3297 C   0  0  0  0  0  0  0  0  0  0  0  0
    0.8388   -5.8417   27.5264 C   0  0  0  0  0  0  0  0  0  0  0  0
   -2.0709   -7.6637   18.7817 C   0  0  0  0  0  0  0  0  0  0  0  0
   -0.5279   -8.2168   17.0717 C   0  0  0  0  0  0  0  0  0  0  0  0
    6.9694   -4.0191   27.8190 C   0  0  0  0  0  0  0  0  0  0  0  0
    5.1733   -4.5469   29.8123 C   0  0  0  0  0  0  0  0  0  0  0  0
   -1.7508  -11.3016   18.6072 C   0  0  0  0  0  0  0  0  0  0  0  0
    1.7497   -5.6771   26.4971 C   0  0  0  0  0  0  0  0  0  0  0  0
   -1.5799   -9.9322   18.3468 C   0  0  0  0  0  0  0  0  0  0  0  0
   -1.0871  -12.2214   17.8851 C   0  0  0  0  0  0  0  0  0  0  0  0
   -2.2706   -8.9669   19.0691 C   0  0  0  0  0  0  0  0  0  0  0  0
    3.0279   -5.3073   26.8197 C   0  0  0  0  0  0  0  0  0  0  0  0
    7.3282   -3.8948   29.1186 C   0  0  0  0  0  0  0  0  0  0  0  0
  1  3  4  0
  1  7  4  0
  2  3  1  0
  2  6  4  0
  2 16  4  0
  3 22  4  0
  4  9  4  0
  4 10  1  0
  4 20  4  0
  5 16  4  0
  5 23  4  0
  6 15  4  0
  7 12  4  0
  8 13  4  0
  8 14  4  0
  9 11  4  0
 11 14  4  0
 11 19  4  0
 12 18  4  0
 13 21  4  0
 15 23  4  0
 17 19  4  0
 17 20  4  0
 18 22  4  0
 19 21  4  0
M  END
$$$$

 Created by Python create_sdf_string function

 23 25  0  0  0  0  0  0  0  0999 V2000
    2.4610   -5.3070   29.1240 C   0  0  0  0  0  0  0  0  0  0  0  0
    4.7710   -4.6952   28.4803 C   0  0  0  0  0  0  0  0  0  0  0  0
    3.4047   -5.1087   28.1314 C   0  0  0  0  0  0  0  0  0  0  0  0
   -0.2234  -11.8615   16.8874 C   0  0  0  0  0  0  0  0  0  0  0  0
    6.4491   -4.1532   30.1213 C   0  0  0  0  0  0  0  0  0  0  0  0
    5.7060   -4.4340   27.4975 C   0  0  0  0  0  0  0  0  0  0  0  0
    1.1818   -5.6612   28.8399 C   0  0  0  0  0  0  0  0  0  0  0  0
   -1.2067   -7.3287   17.7772 C   0  0  0  0  0  0  0  0  0  0  0  0
   -0.0206  -10.5585   16.6210 C   0  0  0  0  0  0  0  0  0  0  0  0
    0.3696  -12.7626   16.2169 O   0  0  0  0  0  0  0  0  0  0  0  0
   -0.6895   -9.5676   17.3297 C   0  0  0  0  0  0  0  0  0  0  0  0
    0.8388   -5.8417   27.5264 C   0  0  0  0  0  0  0  0  0  0  0  0
   -2.0709   -7.6637   18.7817 C   0  0  0  0  0  0  0  0  0  0  0  0
   -0.5279   -8.2168   17.0717 C   0  0  0  0  0  0  0  0  0  0  0  0
    6.9694   -4.0191   27.8190 C   0  0  0  0  0  0  0  0  0  0  0  0
    5.1733   -4.5469   29.8123 C   0  0  0  0  0  0  0  0  0  0  0  0
   -1.7508  -11.3016   18.6072 C   0  0  0  0  0  0  0  0  0  0  0  0
    1.7497   -5.6771   26.4971 C   0  0  0  0  0  0  0  0  0  0  0  0
   -1.5799   -9.9322   18.3468 C   0  0  0  0  0  0  0  0  0  0  0  0
   -1.0871  -12.2214   17.8851 C   0  0  0  0  0  0  0  0  0  0  0  0
   -2.2706   -8.9669   19.0691 C   0  0  0  0  0  0  0  0  0  0  0  0
    3.0279   -5.3073   26.8197 C   0  0  0  0  0  0  0  0  0  0  0  0
    7.3282   -3.8948   29.1186 C   0  0  0  0  0  0  0  0  0  0  0  0
  1  3  4  0
  1  7  4  0
  2  3  1  0
  2  6  4  0
  2 16  4  0
  3 22  4  0
  4  9  4  0
  4 10  1  0
  4 20  4  0
  5 16  4  0
  5 23  4  0
  6 15  4  0
  7 12  4  0
  8 13  4  0
  8 14  4  0
  9 11  4  0
 11 14  4  0
 11 19  4  0
 12 18  4  0
 13 21  4  0
 15 23  4  0
 17 19  4  0
 17 20  4  0
 18 22  4  0
 19 21  4  0
M  END
$$$$

 Created by Python create_sdf_string function

 23 25  0  0  0  0  0  0  0  0999 V2000
    2.4610   -5.3070   29.1240 C   0  0  0  0  0  0  0  0  0  0  0  0
    4.7710   -4.6952   28.4803 C   0  0  0  0  0  0  0  0  0  0  0  0
    3.4047   -5.1087   28.1314 C   0  0  0  0  0  0  0  0  0  0  0  0
   -0.2234  -11.8615   16.8874 C   0  0  0  0  0  0  0  0  0  0  0  0
    6.4491   -4.1532   30.1213 C   0  0  0  0  0  0  0  0  0  0  0  0
    5.7060   -4.4340   27.4975 C   0  0  0  0  0  0  0  0  0  0  0  0
    1.1818   -5.6612   28.8399 C   0  0  0  0  0  0  0  0  0  0  0  0
   -1.2067   -7.3287   17.7772 C   0  0  0  0  0  0  0  0  0  0  0  0
   -0.0206  -10.5585   16.6210 C   0  0  0  0  0  0  0  0  0  0  0  0
    0.3696  -12.7626   16.2169 O   0  0  0  0  0  0  0  0  0  0  0  0
   -0.6895   -9.5676   17.3297 C   0  0  0  0  0  0  0  0  0  0  0  0
    0.8388   -5.8417   27.5264 C   0  0  0  0  0  0  0  0  0  0  0  0
   -2.0709   -7.6637   18.7817 C   0  0  0  0  0  0  0  0  0  0  0  0
   -0.5279   -8.2168   17.0717 C   0  0  0  0  0  0  0  0  0  0  0  0
    6.9694   -4.0191   27.8190 C   0  0  0  0  0  0  0  0  0  0  0  0
    5.1733   -4.5469   29.8123 C   0  0  0  0  0  0  0  0  0  0  0  0
   -1.7508  -11.3016   18.6072 C   0  0  0  0  0  0  0  0  0  0  0  0
    1.7497   -5.6771   26.4971 C   0  0  0  0  0  0  0  0  0  0  0  0
   -1.5799   -9.9322   18.3468 C   0  0  0  0  0  0  0  0  0  0  0  0
   -1.0871  -12.2214   17.8851 C   0  0  0  0  0  0  0  0  0  0  0  0
   -2.2706   -8.9669   19.0691 C   0  0  0  0  0  0  0  0  0  0  0  0
    3.0279   -5.3073   26.8197 C   0  0  0  0  0  0  0  0  0  0  0  0
    7.3282   -3.8948   29.1186 C   0  0  0  0  0  0  0  0  0  0  0  0
  1  3  4  0
  1  7  4  0
  2  3  1  0
  2  6  4  0
  2 16  4  0
  3 22  4  0
  4  9  4  0
  4 10  1  0
  4 20  4  0
  5 16  4  0
  5 23  4  0
  6 15  4  0
  7 12  4  0
  8 13  4  0
  8 14  4  0
  9 11  4  0
 11 14  4  0
 11 19  4  0
 12 18  4  0
 13 21  4  0
 15 23  4  0
 17 19  4  0
 17 20  4  0
 18 22  4  0
 19 21  4  0
M  END
$$$$

 Created by Python create_sdf_string function

 23 25  0  0  0  0  0  0  0  0999 V2000
    2.4610   -5.3070   29.1240 C   0  0  0  0  0  0  0  0  0  0  0  0
    4.7710   -4.6952   28.4803 C   0  0  0  0  0  0  0  0  0  0  0  0
    3.4047   -5.1087   28.1314 C   0  0  0  0  0  0  0  0  0  0  0  0
   -0.2234  -11.8615   16.8874 C   0  0  0  0  0  0  0  0  0  0  0  0
    6.4491   -4.1532   30.1213 C   0  0  0  0  0  0  0  0  0  0  0  0
    5.7060   -4.4340   27.4975 C   0  0  0  0  0  0  0  0  0  0  0  0
    1.1818   -5.6612   28.8399 C   0  0  0  0  0  0  0  0  0  0  0  0
   -1.2067   -7.3287   17.7772 C   0  0  0  0  0  0  0  0  0  0  0  0
   -0.0206  -10.5585   16.6210 C   0  0  0  0  0  0  0  0  0  0  0  0
    0.3696  -12.7626   16.2169 O   0  0  0  0  0  0  0  0  0  0  0  0
   -0.6895   -9.5676   17.3297 C   0  0  0  0  0  0  0  0  0  0  0  0
    0.8388   -5.8417   27.5264 C   0  0  0  0  0  0  0  0  0  0  0  0
   -2.0709   -7.6637   18.7817 C   0  0  0  0  0  0  0  0  0  0  0  0
   -0.5279   -8.2168   17.0717 C   0  0  0  0  0  0  0  0  0  0  0  0
    6.9694   -4.0191   27.8190 C   0  0  0  0  0  0  0  0  0  0  0  0
    5.1733   -4.5469   29.8123 C   0  0  0  0  0  0  0  0  0  0  0  0
   -1.7508  -11.3016   18.6072 C   0  0  0  0  0  0  0  0  0  0  0  0
    1.7497   -5.6771   26.4971 C   0  0  0  0  0  0  0  0  0  0  0  0
   -1.5799   -9.9322   18.3468 C   0  0  0  0  0  0  0  0  0  0  0  0
   -1.0871  -12.2214   17.8851 C   0  0  0  0  0  0  0  0  0  0  0  0
   -2.2706   -8.9669   19.0691 C   0  0  0  0  0  0  0  0  0  0  0  0
    3.0279   -5.3073   26.8197 C   0  0  0  0  0  0  0  0  0  0  0  0
    7.3282   -3.8948   29.1186 C   0  0  0  0  0  0  0  0  0  0  0  0
  1  3  4  0
  1  7  4  0
  2  3  1  0
  2  6  4  0
  2 16  4  0
  3 22  4  0
  4  9  4  0
  4 10  1  0
  4 20  4  0
  5 16  4  0
  5 23  4  0
  6 15  4  0
  7 12  4  0
  8 13  4  0
  8 14  4  0
  9 11  4  0
 11 14  4  0
 11 19  4  0
 12 18  4  0
 13 21  4  0
 15 23  4  0
 17 19  4  0
 17 20  4  0
 18 22  4  0
 19 21  4  0
M  END
$$$$

 Created by Python create_sdf_string function

 23 25  0  0  0  0  0  0  0  0999 V2000
    2.4610   -5.3070   29.1240 C   0  0  0  0  0  0  0  0  0  0  0  0
    4.7710   -4.6952   28.4803 C   0  0  0  0  0  0  0  0  0  0  0  0
    3.4047   -5.1087   28.1314 C   0  0  0  0  0  0  0  0  0  0  0  0
   -0.2234  -11.8615   16.8874 C   0  0  0  0  0  0  0  0  0  0  0  0
    6.4491   -4.1532   30.1213 C   0  0  0  0  0  0  0  0  0  0  0  0
    5.7060   -4.4340   27.4975 C   0  0  0  0  0  0  0  0  0  0  0  0
    1.1818   -5.6612   28.8399 C   0  0  0  0  0  0  0  0  0  0  0  0
   -1.2067   -7.3287   17.7772 C   0  0  0  0  0  0  0  0  0  0  0  0
   -0.0206  -10.5585   16.6210 C   0  0  0  0  0  0  0  0  0  0  0  0
    0.3696  -12.7626   16.2169 O   0  0  0  0  0  0  0  0  0  0  0  0
   -0.6895   -9.5676   17.3297 C   0  0  0  0  0  0  0  0  0  0  0  0
    0.8388   -5.8417   27.5264 C   0  0  0  0  0  0  0  0  0  0  0  0
   -2.0709   -7.6637   18.7817 C   0  0  0  0  0  0  0  0  0  0  0  0
   -0.5279   -8.2168   17.0717 C   0  0  0  0  0  0  0  0  0  0  0  0
    6.9694   -4.0191   27.8190 C   0  0  0  0  0  0  0  0  0  0  0  0
    5.1733   -4.5469   29.8123 C   0  0  0  0  0  0  0  0  0  0  0  0
   -1.7508  -11.3016   18.6072 C   0  0  0  0  0  0  0  0  0  0  0  0
    1.7497   -5.6771   26.4971 C   0  0  0  0  0  0  0  0  0  0  0  0
   -1.5799   -9.9322   18.3468 C   0  0  0  0  0  0  0  0  0  0  0  0
   -1.0871  -12.2214   17.8851 C   0  0  0  0  0  0  0  0  0  0  0  0
   -2.2706   -8.9669   19.0691 C   0  0  0  0  0  0  0  0  0  0  0  0
    3.0279   -5.3073   26.8197 C   0  0  0  0  0  0  0  0  0  0  0  0
    7.3282   -3.8948   29.1186 C   0  0  0  0  0  0  0  0  0  0  0  0
  1  3  4  0
  1  7  4  0
  2  3  1  0
  2  6  4  0
  2 16  4  0
  3 22  4  0
  4  9  4  0
  4 10  1  0
  4 20  4  0
  5 16  4  0
  5 23  4  0
  6 15  4  0
  7 12  4  0
  8 13  4  0
  8 14  4  0
  9 11  4  0
 11 14  4  0
 11 19  4  0
 12 18  4  0
 13 21  4  0
 15 23  4  0
 17 19  4  0
 17 20  4  0
 18 22  4  0
 19 21  4  0
M  END
$$$$

 Created by Python create_sdf_string function

 23 25  0  0  0  0  0  0  0  0999 V2000
    2.4610   -5.3070   29.1240 C   0  0  0  0  0  0  0  0  0  0  0  0
    4.7710   -4.6952   28.4803 C   0  0  0  0  0  0  0  0  0  0  0  0
    3.4047   -5.1087   28.1314 C   0  0  0  0  0  0  0  0  0  0  0  0
   -0.2234  -11.8615   16.8874 C   0  0  0  0  0  0  0  0  0  0  0  0
    6.4491   -4.1532   30.1213 C   0  0  0  0  0  0  0  0  0  0  0  0
    5.7060   -4.4340   27.4975 C   0  0  0  0  0  0  0  0  0  0  0  0
    1.1818   -5.6612   28.8399 C   0  0  0  0  0  0  0  0  0  0  0  0
   -1.2067   -7.3287   17.7772 C   0  0  0  0  0  0  0  0  0  0  0  0
   -0.0206  -10.5585   16.6210 C   0  0  0  0  0  0  0  0  0  0  0  0
    0.3696  -12.7626   16.2169 O   0  0  0  0  0  0  0  0  0  0  0  0
   -0.6895   -9.5676   17.3297 C   0  0  0  0  0  0  0  0  0  0  0  0
    0.8388   -5.8417   27.5264 C   0  0  0  0  0  0  0  0  0  0  0  0
   -2.0709   -7.6637   18.7817 C   0  0  0  0  0  0  0  0  0  0  0  0
   -0.5279   -8.2168   17.0717 C   0  0  0  0  0  0  0  0  0  0  0  0
    6.9694   -4.0191   27.8190 C   0  0  0  0  0  0  0  0  0  0  0  0
    5.1733   -4.5469   29.8123 C   0  0  0  0  0  0  0  0  0  0  0  0
   -1.7508  -11.3016   18.6072 C   0  0  0  0  0  0  0  0  0  0  0  0
    1.7497   -5.6771   26.4971 C   0  0  0  0  0  0  0  0  0  0  0  0
   -1.5799   -9.9322   18.3468 C   0  0  0  0  0  0  0  0  0  0  0  0
   -1.0871  -12.2214   17.8851 C   0  0  0  0  0  0  0  0  0  0  0  0
   -2.2706   -8.9669   19.0691 C   0  0  0  0  0  0  0  0  0  0  0  0
    3.0279   -5.3073   26.8197 C   0  0  0  0  0  0  0  0  0  0  0  0
    7.3282   -3.8948   29.1186 C   0  0  0  0  0  0  0  0  0  0  0  0
  1  3  4  0
  1  7  4  0
  2  3  1  0
  2  6  4  0
  2 16  4  0
  3 22  4  0
  4  9  4  0
  4 10  1  0
  4 20  4  0
  5 16  4  0
  5 23  4  0
  6 15  4  0
  7 12  4  0
  8 13  4  0
  8 14  4  0
  9 11  4  0
 11 14  4  0
 11 19  4  0
 12 18  4  0
 13 21  4  0
 15 23  4  0
 17 19  4  0
 17 20  4  0
 18 22  4  0
 19 21  4  0
M  END
$$$$

 Created by Python create_sdf_string function

 23 25  0  0  0  0  0  0  0  0999 V2000
    2.4610   -5.3070   29.1240 C   0  0  0  0  0  0  0  0  0  0  0  0
    4.7710   -4.6952   28.4803 C   0  0  0  0  0  0  0  0  0  0  0  0
    3.4047   -5.1087   28.1314 C   0  0  0  0  0  0  0  0  0  0  0  0
   -0.2234  -11.8615   16.8874 C   0  0  0  0  0  0  0  0  0  0  0  0
    6.4491   -4.1532   30.1213 C   0  0  0  0  0  0  0  0  0  0  0  0
    5.7060   -4.4340   27.4975 C   0  0  0  0  0  0  0  0  0  0  0  0
    1.1818   -5.6612   28.8399 C   0  0  0  0  0  0  0  0  0  0  0  0
   -1.2067   -7.3287   17.7772 C   0  0  0  0  0  0  0  0  0  0  0  0
   -0.0206  -10.5585   16.6210 C   0  0  0  0  0  0  0  0  0  0  0  0
    0.3696  -12.7626   16.2169 O   0  0  0  0  0  0  0  0  0  0  0  0
   -0.6895   -9.5676   17.3297 C   0  0  0  0  0  0  0  0  0  0  0  0
    0.8388   -5.8417   27.5264 C   0  0  0  0  0  0  0  0  0  0  0  0
   -2.0709   -7.6637   18.7817 C   0  0  0  0  0  0  0  0  0  0  0  0
   -0.5279   -8.2168   17.0717 C   0  0  0  0  0  0  0  0  0  0  0  0
    6.9694   -4.0191   27.8190 C   0  0  0  0  0  0  0  0  0  0  0  0
    5.1733   -4.5469   29.8123 C   0  0  0  0  0  0  0  0  0  0  0  0
   -1.7508  -11.3016   18.6072 C   0  0  0  0  0  0  0  0  0  0  0  0
    1.7497   -5.6771   26.4971 C   0  0  0  0  0  0  0  0  0  0  0  0
   -1.5799   -9.9322   18.3468 C   0  0  0  0  0  0  0  0  0  0  0  0
   -1.0871  -12.2214   17.8851 C   0  0  0  0  0  0  0  0  0  0  0  0
   -2.2706   -8.9669   19.0691 C   0  0  0  0  0  0  0  0  0  0  0  0
    3.0279   -5.3073   26.8197 C   0  0  0  0  0  0  0  0  0  0  0  0
    7.3282   -3.8948   29.1186 C   0  0  0  0  0  0  0  0  0  0  0  0
  1  3  4  0
  1  7  4  0
  2  3  1  0
  2  6  4  0
  2 16  4  0
  3 22  4  0
  4  9  4  0
  4 10  1  0
  4 20  4  0
  5 16  4  0
  5 23  4  0
  6 15  4  0
  7 12  4  0
  8 13  4  0
  8 14  4  0
  9 11  4  0
 11 14  4  0
 11 19  4  0
 12 18  4  0
 13 21  4  0
 15 23  4  0
 17 19  4  0
 17 20  4  0
 18 22  4  0
 19 21  4  0
M  END
$$$$

 Created by Python create_sdf_string function

 23 25  0  0  0  0  0  0  0  0999 V2000
    2.4610   -5.3070   29.1240 C   0  0  0  0  0  0  0  0  0  0  0  0
    4.7710   -4.6952   28.4803 C   0  0  0  0  0  0  0  0  0  0  0  0
    3.4047   -5.1087   28.1314 C   0  0  0  0  0  0  0  0  0  0  0  0
   -0.2234  -11.8615   16.8874 C   0  0  0  0  0  0  0  0  0  0  0  0
    6.4491   -4.1532   30.1213 C   0  0  0  0  0  0  0  0  0  0  0  0
    5.7060   -4.4340   27.4975 C   0  0  0  0  0  0  0  0  0  0  0  0
    1.1818   -5.6612   28.8399 C   0  0  0  0  0  0  0  0  0  0  0  0
   -1.2067   -7.3287   17.7772 C   0  0  0  0  0  0  0  0  0  0  0  0
   -0.0206  -10.5585   16.6210 C   0  0  0  0  0  0  0  0  0  0  0  0
    0.3696  -12.7626   16.2169 O   0  0  0  0  0  0  0  0  0  0  0  0
   -0.6895   -9.5676   17.3297 C   0  0  0  0  0  0  0  0  0  0  0  0
    0.8388   -5.8417   27.5264 C   0  0  0  0  0  0  0  0  0  0  0  0
   -2.0709   -7.6637   18.7817 C   0  0  0  0  0  0  0  0  0  0  0  0
   -0.5279   -8.2168   17.0717 C   0  0  0  0  0  0  0  0  0  0  0  0
    6.9694   -4.0191   27.8190 C   0  0  0  0  0  0  0  0  0  0  0  0
    5.1733   -4.5469   29.8123 C   0  0  0  0  0  0  0  0  0  0  0  0
   -1.7508  -11.3016   18.6072 C   0  0  0  0  0  0  0  0  0  0  0  0
    1.7497   -5.6771   26.4971 C   0  0  0  0  0  0  0  0  0  0  0  0
   -1.5799   -9.9322   18.3468 C   0  0  0  0  0  0  0  0  0  0  0  0
   -1.0871  -12.2214   17.8851 C   0  0  0  0  0  0  0  0  0  0  0  0
   -2.2706   -8.9669   19.0691 C   0  0  0  0  0  0  0  0  0  0  0  0
    3.0279   -5.3073   26.8197 C   0  0  0  0  0  0  0  0  0  0  0  0
    7.3282   -3.8948   29.1186 C   0  0  0  0  0  0  0  0  0  0  0  0
  1  3  4  0
  1  7  4  0
  2  3  1  0
  2  6  4  0
  2 16  4  0
  3 22  4  0
  4  9  4  0
  4 10  1  0
  4 20  4  0
  5 16  4  0
  5 23  4  0
  6 15  4  0
  7 12  4  0
  8 13  4  0
  8 14  4  0
  9 11  4  0
 11 14  4  0
 11 19  4  0
 12 18  4  0
 13 21  4  0
 15 23  4  0
 17 19  4  0
 17 20  4  0
 18 22  4  0
 19 21  4  0
M  END
$$$$

 Created by Python create_sdf_string function

 23 25  0  0  0  0  0  0  0  0999 V2000
    2.4610   -5.3070   29.1240 C   0  0  0  0  0  0  0  0  0  0  0  0
    4.7710   -4.6952   28.4803 C   0  0  0  0  0  0  0  0  0  0  0  0
    3.4047   -5.1087   28.1314 C   0  0  0  0  0  0  0  0  0  0  0  0
   -0.2234  -11.8615   16.8874 C   0  0  0  0  0  0  0  0  0  0  0  0
    6.4491   -4.1532   30.1213 C   0  0  0  0  0  0  0  0  0  0  0  0
    5.7060   -4.4340   27.4975 C   0  0  0  0  0  0  0  0  0  0  0  0
    1.1818   -5.6612   28.8399 C   0  0  0  0  0  0  0  0  0  0  0  0
   -1.2067   -7.3287   17.7772 C   0  0  0  0  0  0  0  0  0  0  0  0
   -0.0206  -10.5585   16.6210 C   0  0  0  0  0  0  0  0  0  0  0  0
    0.3696  -12.7626   16.2169 O   0  0  0  0  0  0  0  0  0  0  0  0
   -0.6895   -9.5676   17.3297 C   0  0  0  0  0  0  0  0  0  0  0  0
    0.8388   -5.8417   27.5264 C   0  0  0  0  0  0  0  0  0  0  0  0
   -2.0709   -7.6637   18.7817 C   0  0  0  0  0  0  0  0  0  0  0  0
   -0.5279   -8.2168   17.0717 C   0  0  0  0  0  0  0  0  0  0  0  0
    6.9694   -4.0191   27.8190 C   0  0  0  0  0  0  0  0  0  0  0  0
    5.1733   -4.5469   29.8123 C   0  0  0  0  0  0  0  0  0  0  0  0
   -1.7508  -11.3016   18.6072 C   0  0  0  0  0  0  0  0  0  0  0  0
    1.7497   -5.6771   26.4971 C   0  0  0  0  0  0  0  0  0  0  0  0
   -1.5799   -9.9322   18.3468 C   0  0  0  0  0  0  0  0  0  0  0  0
   -1.0871  -12.2214   17.8851 C   0  0  0  0  0  0  0  0  0  0  0  0
   -2.2706   -8.9669   19.0691 C   0  0  0  0  0  0  0  0  0  0  0  0
    3.0279   -5.3073   26.8197 C   0  0  0  0  0  0  0  0  0  0  0  0
    7.3282   -3.8948   29.1186 C   0  0  0  0  0  0  0  0  0  0  0  0
  1  3  4  0
  1  7  4  0
  2  3  1  0
  2  6  4  0
  2 16  4  0
  3 22  4  0
  4  9  4  0
  4 10  1  0
  4 20  4  0
  5 16  4  0
  5 23  4  0
  6 15  4  0
  7 12  4  0
  8 13  4  0
  8 14  4  0
  9 11  4  0
 11 14  4  0
 11 19  4  0
 12 18  4  0
 13 21  4  0
 15 23  4  0
 17 19  4  0
 17 20  4  0
 18 22  4  0
 19 21  4  0
M  END
$$$$

 Created by Python create_sdf_string function

 23 25  0  0  0  0  0  0  0  0999 V2000
    2.4610   -5.3070   29.1240 C   0  0  0  0  0  0  0  0  0  0  0  0
    4.7710   -4.6952   28.4803 C   0  0  0  0  0  0  0  0  0  0  0  0
    3.4047   -5.1087   28.1314 C   0  0  0  0  0  0  0  0  0  0  0  0
   -0.2234  -11.8615   16.8874 C   0  0  0  0  0  0  0  0  0  0  0  0
    6.4491   -4.1532   30.1213 C   0  0  0  0  0  0  0  0  0  0  0  0
    5.7060   -4.4340   27.4975 C   0  0  0  0  0  0  0  0  0  0  0  0
    1.1818   -5.6612   28.8399 C   0  0  0  0  0  0  0  0  0  0  0  0
   -1.2067   -7.3287   17.7772 C   0  0  0  0  0  0  0  0  0  0  0  0
   -0.0206  -10.5585   16.6210 C   0  0  0  0  0  0  0  0  0  0  0  0
    0.3696  -12.7626   16.2169 O   0  0  0  0  0  0  0  0  0  0  0  0
   -0.6895   -9.5676   17.3297 C   0  0  0  0  0  0  0  0  0  0  0  0
    0.8388   -5.8417   27.5264 C   0  0  0  0  0  0  0  0  0  0  0  0
   -2.0709   -7.6637   18.7817 C   0  0  0  0  0  0  0  0  0  0  0  0
   -0.5279   -8.2168   17.0717 C   0  0  0  0  0  0  0  0  0  0  0  0
    6.9694   -4.0191   27.8190 C   0  0  0  0  0  0  0  0  0  0  0  0
    5.1733   -4.5469   29.8123 C   0  0  0  0  0  0  0  0  0  0  0  0
   -1.7508  -11.3016   18.6072 C   0  0  0  0  0  0  0  0  0  0  0  0
    1.7497   -5.6771   26.4971 C   0  0  0  0  0  0  0  0  0  0  0  0
   -1.5799   -9.9322   18.3468 C   0  0  0  0  0  0  0  0  0  0  0  0
   -1.0871  -12.2214   17.8851 C   0  0  0  0  0  0  0  0  0  0  0  0
   -2.2706   -8.9669   19.0691 C   0  0  0  0  0  0  0  0  0  0  0  0
    3.0279   -5.3073   26.8197 C   0  0  0  0  0  0  0  0  0  0  0  0
    7.3282   -3.8948   29.1186 C   0  0  0  0  0  0  0  0  0  0  0  0
  1  3  4  0
  1  7  4  0
  2  3  1  0
  2  6  4  0
  2 16  4  0
  3 22  4  0
  4  9  4  0
  4 10  1  0
  4 20  4  0
  5 16  4  0
  5 23  4  0
  6 15  4  0
  7 12  4  0
  8 13  4  0
  8 14  4  0
  9 11  4  0
 11 14  4  0
 11 19  4  0
 12 18  4  0
 13 21  4  0
 15 23  4  0
 17 19  4  0
 17 20  4  0
 18 22  4  0
 19 21  4  0
M  END
$$$$

 Created by Python create_sdf_string function

 23 25  0  0  0  0  0  0  0  0999 V2000
    2.4610   -5.3070   29.1240 C   0  0  0  0  0  0  0  0  0  0  0  0
    4.7710   -4.6952   28.4803 C   0  0  0  0  0  0  0  0  0  0  0  0
    3.4047   -5.1087   28.1314 C   0  0  0  0  0  0  0  0  0  0  0  0
   -0.2234  -11.8615   16.8874 C   0  0  0  0  0  0  0  0  0  0  0  0
    6.4491   -4.1532   30.1213 C   0  0  0  0  0  0  0  0  0  0  0  0
    5.7060   -4.4340   27.4975 C   0  0  0  0  0  0  0  0  0  0  0  0
    1.1818   -5.6612   28.8399 C   0  0  0  0  0  0  0  0  0  0  0  0
   -1.2067   -7.3287   17.7772 C   0  0  0  0  0  0  0  0  0  0  0  0
   -0.0206  -10.5585   16.6210 C   0  0  0  0  0  0  0  0  0  0  0  0
    0.3696  -12.7626   16.2169 O   0  0  0  0  0  0  0  0  0  0  0  0
   -0.6895   -9.5676   17.3297 C   0  0  0  0  0  0  0  0  0  0  0  0
    0.8388   -5.8417   27.5264 C   0  0  0  0  0  0  0  0  0  0  0  0
   -2.0709   -7.6637   18.7817 C   0  0  0  0  0  0  0  0  0  0  0  0
   -0.5279   -8.2168   17.0717 C   0  0  0  0  0  0  0  0  0  0  0  0
    6.9694   -4.0191   27.8190 C   0  0  0  0  0  0  0  0  0  0  0  0
    5.1733   -4.5469   29.8123 C   0  0  0  0  0  0  0  0  0  0  0  0
   -1.7508  -11.3016   18.6072 C   0  0  0  0  0  0  0  0  0  0  0  0
    1.7497   -5.6771   26.4971 C   0  0  0  0  0  0  0  0  0  0  0  0
   -1.5799   -9.9322   18.3468 C   0  0  0  0  0  0  0  0  0  0  0  0
   -1.0871  -12.2214   17.8851 C   0  0  0  0  0  0  0  0  0  0  0  0
   -2.2706   -8.9669   19.0691 C   0  0  0  0  0  0  0  0  0  0  0  0
    3.0279   -5.3073   26.8197 C   0  0  0  0  0  0  0  0  0  0  0  0
    7.3282   -3.8948   29.1186 C   0  0  0  0  0  0  0  0  0  0  0  0
  1  3  4  0
  1  7  4  0
  2  3  1  0
  2  6  4  0
  2 16  4  0
  3 22  4  0
  4  9  4  0
  4 10  1  0
  4 20  4  0
  5 16  4  0
  5 23  4  0
  6 15  4  0
  7 12  4  0
  8 13  4  0
  8 14  4  0
  9 11  4  0
 11 14  4  0
 11 19  4  0
 12 18  4  0
 13 21  4  0
 15 23  4  0
 17 19  4  0
 17 20  4  0
 18 22  4  0
 19 21  4  0
M  END
$$$$

 Created by Python create_sdf_string function

 23 25  0  0  0  0  0  0  0  0999 V2000
    2.4610   -5.3070   29.1240 C   0  0  0  0  0  0  0  0  0  0  0  0
    4.7710   -4.6952   28.4803 C   0  0  0  0  0  0  0  0  0  0  0  0
    3.4047   -5.1087   28.1314 C   0  0  0  0  0  0  0  0  0  0  0  0
   -0.2234  -11.8615   16.8874 C   0  0  0  0  0  0  0  0  0  0  0  0
    6.4491   -4.1532   30.1213 C   0  0  0  0  0  0  0  0  0  0  0  0
    5.7060   -4.4340   27.4975 C   0  0  0  0  0  0  0  0  0  0  0  0
    1.1818   -5.6612   28.8399 C   0  0  0  0  0  0  0  0  0  0  0  0
   -1.2067   -7.3287   17.7772 C   0  0  0  0  0  0  0  0  0  0  0  0
   -0.0206  -10.5585   16.6210 C   0  0  0  0  0  0  0  0  0  0  0  0
    0.3696  -12.7626   16.2169 O   0  0  0  0  0  0  0  0  0  0  0  0
   -0.6895   -9.5676   17.3297 C   0  0  0  0  0  0  0  0  0  0  0  0
    0.8388   -5.8417   27.5264 C   0  0  0  0  0  0  0  0  0  0  0  0
   -2.0709   -7.6637   18.7817 C   0  0  0  0  0  0  0  0  0  0  0  0
   -0.5279   -8.2168   17.0717 C   0  0  0  0  0  0  0  0  0  0  0  0
    6.9694   -4.0191   27.8190 C   0  0  0  0  0  0  0  0  0  0  0  0
    5.1733   -4.5469   29.8123 C   0  0  0  0  0  0  0  0  0  0  0  0
   -1.7508  -11.3016   18.6072 C   0  0  0  0  0  0  0  0  0  0  0  0
    1.7497   -5.6771   26.4971 C   0  0  0  0  0  0  0  0  0  0  0  0
   -1.5799   -9.9322   18.3468 C   0  0  0  0  0  0  0  0  0  0  0  0
   -1.0871  -12.2214   17.8851 C   0  0  0  0  0  0  0  0  0  0  0  0
   -2.2706   -8.9669   19.0691 C   0  0  0  0  0  0  0  0  0  0  0  0
    3.0279   -5.3073   26.8197 C   0  0  0  0  0  0  0  0  0  0  0  0
    7.3282   -3.8948   29.1186 C   0  0  0  0  0  0  0  0  0  0  0  0
  1  3  4  0
  1  7  4  0
  2  3  1  0
  2  6  4  0
  2 16  4  0
  3 22  4  0
  4  9  4  0
  4 10  1  0
  4 20  4  0
  5 16  4  0
  5 23  4  0
  6 15  4  0
  7 12  4  0
  8 13  4  0
  8 14  4  0
  9 11  4  0
 11 14  4  0
 11 19  4  0
 12 18  4  0
 13 21  4  0
 15 23  4  0
 17 19  4  0
 17 20  4  0
 18 22  4  0
 19 21  4  0
M  END
$$$$

 Created by Python create_sdf_string function

 23 25  0  0  0  0  0  0  0  0999 V2000
    2.4610   -5.3070   29.1240 C   0  0  0  0  0  0  0  0  0  0  0  0
    4.7710   -4.6952   28.4803 C   0  0  0  0  0  0  0  0  0  0  0  0
    3.4047   -5.1087   28.1314 C   0  0  0  0  0  0  0  0  0  0  0  0
   -0.2234  -11.8615   16.8874 C   0  0  0  0  0  0  0  0  0  0  0  0
    6.4491   -4.1532   30.1213 C   0  0  0  0  0  0  0  0  0  0  0  0
    5.7060   -4.4340   27.4975 C   0  0  0  0  0  0  0  0  0  0  0  0
    1.1818   -5.6612   28.8399 C   0  0  0  0  0  0  0  0  0  0  0  0
   -1.2067   -7.3287   17.7772 C   0  0  0  0  0  0  0  0  0  0  0  0
   -0.0206  -10.5585   16.6210 C   0  0  0  0  0  0  0  0  0  0  0  0
    0.3696  -12.7626   16.2169 O   0  0  0  0  0  0  0  0  0  0  0  0
   -0.6895   -9.5676   17.3297 C   0  0  0  0  0  0  0  0  0  0  0  0
    0.8388   -5.8417   27.5264 C   0  0  0  0  0  0  0  0  0  0  0  0
   -2.0709   -7.6637   18.7817 C   0  0  0  0  0  0  0  0  0  0  0  0
   -0.5279   -8.2168   17.0717 C   0  0  0  0  0  0  0  0  0  0  0  0
    6.9694   -4.0191   27.8190 C   0  0  0  0  0  0  0  0  0  0  0  0
    5.1733   -4.5469   29.8123 C   0  0  0  0  0  0  0  0  0  0  0  0
   -1.7508  -11.3016   18.6072 C   0  0  0  0  0  0  0  0  0  0  0  0
    1.7497   -5.6771   26.4971 C   0  0  0  0  0  0  0  0  0  0  0  0
   -1.5799   -9.9322   18.3468 C   0  0  0  0  0  0  0  0  0  0  0  0
   -1.0871  -12.2214   17.8851 C   0  0  0  0  0  0  0  0  0  0  0  0
   -2.2706   -8.9669   19.0691 C   0  0  0  0  0  0  0  0  0  0  0  0
    3.0279   -5.3073   26.8197 C   0  0  0  0  0  0  0  0  0  0  0  0
    7.3282   -3.8948   29.1186 C   0  0  0  0  0  0  0  0  0  0  0  0
  1  3  4  0
  1  7  4  0
  2  3  1  0
  2  6  4  0
  2 16  4  0
  3 22  4  0
  4  9  4  0
  4 10  1  0
  4 20  4  0
  5 16  4  0
  5 23  4  0
  6 15  4  0
  7 12  4  0
  8 13  4  0
  8 14  4  0
  9 11  4  0
 11 14  4  0
 11 19  4  0
 12 18  4  0
 13 21  4  0
 15 23  4  0
 17 19  4  0
 17 20  4  0
 18 22  4  0
 19 21  4  0
M  END
$$$$

 Created by Python create_sdf_string function

 23 25  0  0  0  0  0  0  0  0999 V2000
    2.4610   -5.3070   29.1240 C   0  0  0  0  0  0  0  0  0  0  0  0
    4.7710   -4.6952   28.4803 C   0  0  0  0  0  0  0  0  0  0  0  0
    3.4047   -5.1087   28.1314 C   0  0  0  0  0  0  0  0  0  0  0  0
   -0.2234  -11.8615   16.8874 C   0  0  0  0  0  0  0  0  0  0  0  0
    6.4491   -4.1532   30.1213 C   0  0  0  0  0  0  0  0  0  0  0  0
    5.7060   -4.4340   27.4975 C   0  0  0  0  0  0  0  0  0  0  0  0
    1.1818   -5.6612   28.8399 C   0  0  0  0  0  0  0  0  0  0  0  0
   -1.2067   -7.3287   17.7772 C   0  0  0  0  0  0  0  0  0  0  0  0
   -0.0206  -10.5585   16.6210 C   0  0  0  0  0  0  0  0  0  0  0  0
    0.3696  -12.7626   16.2169 O   0  0  0  0  0  0  0  0  0  0  0  0
   -0.6895   -9.5676   17.3297 C   0  0  0  0  0  0  0  0  0  0  0  0
    0.8388   -5.8417   27.5264 C   0  0  0  0  0  0  0  0  0  0  0  0
   -2.0709   -7.6637   18.7817 C   0  0  0  0  0  0  0  0  0  0  0  0
   -0.5279   -8.2168   17.0717 C   0  0  0  0  0  0  0  0  0  0  0  0
    6.9694   -4.0191   27.8190 C   0  0  0  0  0  0  0  0  0  0  0  0
    5.1733   -4.5469   29.8123 C   0  0  0  0  0  0  0  0  0  0  0  0
   -1.7508  -11.3016   18.6072 C   0  0  0  0  0  0  0  0  0  0  0  0
    1.7497   -5.6771   26.4971 C   0  0  0  0  0  0  0  0  0  0  0  0
   -1.5799   -9.9322   18.3468 C   0  0  0  0  0  0  0  0  0  0  0  0
   -1.0871  -12.2214   17.8851 C   0  0  0  0  0  0  0  0  0  0  0  0
   -2.2706   -8.9669   19.0691 C   0  0  0  0  0  0  0  0  0  0  0  0
    3.0279   -5.3073   26.8197 C   0  0  0  0  0  0  0  0  0  0  0  0
    7.3282   -3.8948   29.1186 C   0  0  0  0  0  0  0  0  0  0  0  0
  1  3  4  0
  1  7  4  0
  2  3  1  0
  2  6  4  0
  2 16  4  0
  3 22  4  0
  4  9  4  0
  4 10  1  0
  4 20  4  0
  5 16  4  0
  5 23  4  0
  6 15  4  0
  7 12  4  0
  8 13  4  0
  8 14  4  0
  9 11  4  0
 11 14  4  0
 11 19  4  0
 12 18  4  0
 13 21  4  0
 15 23  4  0
 17 19  4  0
 17 20  4  0
 18 22  4  0
 19 21  4  0
M  END
$$$$

 Created by Python create_sdf_string function

 23 25  0  0  0  0  0  0  0  0999 V2000
    2.4610   -5.3070   29.1240 C   0  0  0  0  0  0  0  0  0  0  0  0
    4.7710   -4.6952   28.4803 C   0  0  0  0  0  0  0  0  0  0  0  0
    3.4047   -5.1087   28.1314 C   0  0  0  0  0  0  0  0  0  0  0  0
   -0.2234  -11.8615   16.8874 C   0  0  0  0  0  0  0  0  0  0  0  0
    6.4491   -4.1532   30.1213 C   0  0  0  0  0  0  0  0  0  0  0  0
    5.7060   -4.4340   27.4975 C   0  0  0  0  0  0  0  0  0  0  0  0
    1.1818   -5.6612   28.8399 C   0  0  0  0  0  0  0  0  0  0  0  0
   -1.2067   -7.3287   17.7772 C   0  0  0  0  0  0  0  0  0  0  0  0
   -0.0206  -10.5585   16.6210 C   0  0  0  0  0  0  0  0  0  0  0  0
    0.3696  -12.7626   16.2169 O   0  0  0  0  0  0  0  0  0  0  0  0
   -0.6895   -9.5676   17.3297 C   0  0  0  0  0  0  0  0  0  0  0  0
    0.8388   -5.8417   27.5264 C   0  0  0  0  0  0  0  0  0  0  0  0
   -2.0709   -7.6637   18.7817 C   0  0  0  0  0  0  0  0  0  0  0  0
   -0.5279   -8.2168   17.0717 C   0  0  0  0  0  0  0  0  0  0  0  0
    6.9694   -4.0191   27.8190 C   0  0  0  0  0  0  0  0  0  0  0  0
    5.1733   -4.5469   29.8123 C   0  0  0  0  0  0  0  0  0  0  0  0
   -1.7508  -11.3016   18.6072 C   0  0  0  0  0  0  0  0  0  0  0  0
    1.7497   -5.6771   26.4971 C   0  0  0  0  0  0  0  0  0  0  0  0
   -1.5799   -9.9322   18.3468 C   0  0  0  0  0  0  0  0  0  0  0  0
   -1.0871  -12.2214   17.8851 C   0  0  0  0  0  0  0  0  0  0  0  0
   -2.2706   -8.9669   19.0691 C   0  0  0  0  0  0  0  0  0  0  0  0
    3.0279   -5.3073   26.8197 C   0  0  0  0  0  0  0  0  0  0  0  0
    7.3282   -3.8948   29.1186 C   0  0  0  0  0  0  0  0  0  0  0  0
  1  3  4  0
  1  7  4  0
  2  3  1  0
  2  6  4  0
  2 16  4  0
  3 22  4  0
  4  9  4  0
  4 10  1  0
  4 20  4  0
  5 16  4  0
  5 23  4  0
  6 15  4  0
  7 12  4  0
  8 13  4  0
  8 14  4  0
  9 11  4  0
 11 14  4  0
 11 19  4  0
 12 18  4  0
 13 21  4  0
 15 23  4  0
 17 19  4  0
 17 20  4  0
 18 22  4  0
 19 21  4  0
M  END
$$$$

 Created by Python create_sdf_string function

 23 25  0  0  0  0  0  0  0  0999 V2000
    2.4610   -5.3070   29.1240 C   0  0  0  0  0  0  0  0  0  0  0  0
    4.7710   -4.6952   28.4803 C   0  0  0  0  0  0  0  0  0  0  0  0
    3.4047   -5.1087   28.1314 C   0  0  0  0  0  0  0  0  0  0  0  0
   -0.2234  -11.8615   16.8874 C   0  0  0  0  0  0  0  0  0  0  0  0
    6.4491   -4.1532   30.1213 C   0  0  0  0  0  0  0  0  0  0  0  0
    5.7060   -4.4340   27.4975 C   0  0  0  0  0  0  0  0  0  0  0  0
    1.1818   -5.6612   28.8399 C   0  0  0  0  0  0  0  0  0  0  0  0
   -1.2067   -7.3287   17.7772 C   0  0  0  0  0  0  0  0  0  0  0  0
   -0.0206  -10.5585   16.6210 C   0  0  0  0  0  0  0  0  0  0  0  0
    0.3696  -12.7626   16.2169 O   0  0  0  0  0  0  0  0  0  0  0  0
   -0.6895   -9.5676   17.3297 C   0  0  0  0  0  0  0  0  0  0  0  0
    0.8388   -5.8417   27.5264 C   0  0  0  0  0  0  0  0  0  0  0  0
   -2.0709   -7.6637   18.7817 C   0  0  0  0  0  0  0  0  0  0  0  0
   -0.5279   -8.2168   17.0717 C   0  0  0  0  0  0  0  0  0  0  0  0
    6.9694   -4.0191   27.8190 C   0  0  0  0  0  0  0  0  0  0  0  0
    5.1733   -4.5469   29.8123 C   0  0  0  0  0  0  0  0  0  0  0  0
   -1.7508  -11.3016   18.6072 C   0  0  0  0  0  0  0  0  0  0  0  0
    1.7497   -5.6771   26.4971 C   0  0  0  0  0  0  0  0  0  0  0  0
   -1.5799   -9.9322   18.3468 C   0  0  0  0  0  0  0  0  0  0  0  0
   -1.0871  -12.2214   17.8851 C   0  0  0  0  0  0  0  0  0  0  0  0
   -2.2706   -8.9669   19.0691 C   0  0  0  0  0  0  0  0  0  0  0  0
    3.0279   -5.3073   26.8197 C   0  0  0  0  0  0  0  0  0  0  0  0
    7.3282   -3.8948   29.1186 C   0  0  0  0  0  0  0  0  0  0  0  0
  1  3  4  0
  1  7  4  0
  2  3  1  0
  2  6  4  0
  2 16  4  0
  3 22  4  0
  4  9  4  0
  4 10  1  0
  4 20  4  0
  5 16  4  0
  5 23  4  0
  6 15  4  0
  7 12  4  0
  8 13  4  0
  8 14  4  0
  9 11  4  0
 11 14  4  0
 11 19  4  0
 12 18  4  0
 13 21  4  0
 15 23  4  0
 17 19  4  0
 17 20  4  0
 18 22  4  0
 19 21  4  0
M  END
$$$$

 Created by Python create_sdf_string function

 23 25  0  0  0  0  0  0  0  0999 V2000
    2.4610   -5.3070   29.1240 C   0  0  0  0  0  0  0  0  0  0  0  0
    4.7710   -4.6952   28.4803 C   0  0  0  0  0  0  0  0  0  0  0  0
    3.4047   -5.1087   28.1314 C   0  0  0  0  0  0  0  0  0  0  0  0
   -0.2234  -11.8615   16.8874 C   0  0  0  0  0  0  0  0  0  0  0  0
    6.4491   -4.1532   30.1213 C   0  0  0  0  0  0  0  0  0  0  0  0
    5.7060   -4.4340   27.4975 C   0  0  0  0  0  0  0  0  0  0  0  0
    1.1818   -5.6612   28.8399 C   0  0  0  0  0  0  0  0  0  0  0  0
   -1.2067   -7.3287   17.7772 C   0  0  0  0  0  0  0  0  0  0  0  0
   -0.0206  -10.5585   16.6210 C   0  0  0  0  0  0  0  0  0  0  0  0
    0.3696  -12.7626   16.2169 O   0  0  0  0  0  0  0  0  0  0  0  0
   -0.6895   -9.5676   17.3297 C   0  0  0  0  0  0  0  0  0  0  0  0
    0.8388   -5.8417   27.5264 C   0  0  0  0  0  0  0  0  0  0  0  0
   -2.0709   -7.6637   18.7817 C   0  0  0  0  0  0  0  0  0  0  0  0
   -0.5279   -8.2168   17.0717 C   0  0  0  0  0  0  0  0  0  0  0  0
    6.9694   -4.0191   27.8190 C   0  0  0  0  0  0  0  0  0  0  0  0
    5.1733   -4.5469   29.8123 C   0  0  0  0  0  0  0  0  0  0  0  0
   -1.7508  -11.3016   18.6072 C   0  0  0  0  0  0  0  0  0  0  0  0
    1.7497   -5.6771   26.4971 C   0  0  0  0  0  0  0  0  0  0  0  0
   -1.5799   -9.9322   18.3468 C   0  0  0  0  0  0  0  0  0  0  0  0
   -1.0871  -12.2214   17.8851 C   0  0  0  0  0  0  0  0  0  0  0  0
   -2.2706   -8.9669   19.0691 C   0  0  0  0  0  0  0  0  0  0  0  0
    3.0279   -5.3073   26.8197 C   0  0  0  0  0  0  0  0  0  0  0  0
    7.3282   -3.8948   29.1186 C   0  0  0  0  0  0  0  0  0  0  0  0
  1  3  4  0
  1  7  4  0
  2  3  1  0
  2  6  4  0
  2 16  4  0
  3 22  4  0
  4  9  4  0
  4 10  1  0
  4 20  4  0
  5 16  4  0
  5 23  4  0
  6 15  4  0
  7 12  4  0
  8 13  4  0
  8 14  4  0
  9 11  4  0
 11 14  4  0
 11 19  4  0
 12 18  4  0
 13 21  4  0
 15 23  4  0
 17 19  4  0
 17 20  4  0
 18 22  4  0
 19 21  4  0
M  END
$$$$

 Created by Python create_sdf_string function

 23 25  0  0  0  0  0  0  0  0999 V2000
    2.4610   -5.3070   29.1240 C   0  0  0  0  0  0  0  0  0  0  0  0
    4.7710   -4.6952   28.4803 C   0  0  0  0  0  0  0  0  0  0  0  0
    3.4047   -5.1087   28.1314 C   0  0  0  0  0  0  0  0  0  0  0  0
   -0.2234  -11.8615   16.8874 C   0  0  0  0  0  0  0  0  0  0  0  0
    6.4491   -4.1532   30.1213 C   0  0  0  0  0  0  0  0  0  0  0  0
    5.7060   -4.4340   27.4975 C   0  0  0  0  0  0  0  0  0  0  0  0
    1.1818   -5.6612   28.8399 C   0  0  0  0  0  0  0  0  0  0  0  0
   -1.2067   -7.3287   17.7772 C   0  0  0  0  0  0  0  0  0  0  0  0
   -0.0206  -10.5585   16.6210 C   0  0  0  0  0  0  0  0  0  0  0  0
    0.3696  -12.7626   16.2169 O   0  0  0  0  0  0  0  0  0  0  0  0
   -0.6895   -9.5676   17.3297 C   0  0  0  0  0  0  0  0  0  0  0  0
    0.8388   -5.8417   27.5264 C   0  0  0  0  0  0  0  0  0  0  0  0
   -2.0709   -7.6637   18.7817 C   0  0  0  0  0  0  0  0  0  0  0  0
   -0.5279   -8.2168   17.0717 C   0  0  0  0  0  0  0  0  0  0  0  0
    6.9694   -4.0191   27.8190 C   0  0  0  0  0  0  0  0  0  0  0  0
    5.1733   -4.5469   29.8123 C   0  0  0  0  0  0  0  0  0  0  0  0
   -1.7508  -11.3016   18.6072 C   0  0  0  0  0  0  0  0  0  0  0  0
    1.7497   -5.6771   26.4971 C   0  0  0  0  0  0  0  0  0  0  0  0
   -1.5799   -9.9322   18.3468 C   0  0  0  0  0  0  0  0  0  0  0  0
   -1.0871  -12.2214   17.8851 C   0  0  0  0  0  0  0  0  0  0  0  0
   -2.2706   -8.9669   19.0691 C   0  0  0  0  0  0  0  0  0  0  0  0
    3.0279   -5.3073   26.8197 C   0  0  0  0  0  0  0  0  0  0  0  0
    7.3282   -3.8948   29.1186 C   0  0  0  0  0  0  0  0  0  0  0  0
  1  3  4  0
  1  7  4  0
  2  3  1  0
  2  6  4  0
  2 16  4  0
  3 22  4  0
  4  9  4  0
  4 10  1  0
  4 20  4  0
  5 16  4  0
  5 23  4  0
  6 15  4  0
  7 12  4  0
  8 13  4  0
  8 14  4  0
  9 11  4  0
 11 14  4  0
 11 19  4  0
 12 18  4  0
 13 21  4  0
 15 23  4  0
 17 19  4  0
 17 20  4  0
 18 22  4  0
 19 21  4  0
M  END
$$$$

 Created by Python create_sdf_string function

 23 25  0  0  0  0  0  0  0  0999 V2000
    2.4610   -5.3070   29.1240 C   0  0  0  0  0  0  0  0  0  0  0  0
    4.7710   -4.6952   28.4803 C   0  0  0  0  0  0  0  0  0  0  0  0
    3.4047   -5.1087   28.1314 C   0  0  0  0  0  0  0  0  0  0  0  0
   -0.2234  -11.8615   16.8874 C   0  0  0  0  0  0  0  0  0  0  0  0
    6.4491   -4.1532   30.1213 C   0  0  0  0  0  0  0  0  0  0  0  0
    5.7060   -4.4340   27.4975 C   0  0  0  0  0  0  0  0  0  0  0  0
    1.1818   -5.6612   28.8399 C   0  0  0  0  0  0  0  0  0  0  0  0
   -1.2067   -7.3287   17.7772 C   0  0  0  0  0  0  0  0  0  0  0  0
   -0.0206  -10.5585   16.6210 C   0  0  0  0  0  0  0  0  0  0  0  0
    0.3696  -12.7626   16.2169 O   0  0  0  0  0  0  0  0  0  0  0  0
   -0.6895   -9.5676   17.3297 C   0  0  0  0  0  0  0  0  0  0  0  0
    0.8388   -5.8417   27.5264 C   0  0  0  0  0  0  0  0  0  0  0  0
   -2.0709   -7.6637   18.7817 C   0  0  0  0  0  0  0  0  0  0  0  0
   -0.5279   -8.2168   17.0717 C   0  0  0  0  0  0  0  0  0  0  0  0
    6.9694   -4.0191   27.8190 C   0  0  0  0  0  0  0  0  0  0  0  0
    5.1733   -4.5469   29.8123 C   0  0  0  0  0  0  0  0  0  0  0  0
   -1.7508  -11.3016   18.6072 C   0  0  0  0  0  0  0  0  0  0  0  0
    1.7497   -5.6771   26.4971 C   0  0  0  0  0  0  0  0  0  0  0  0
   -1.5799   -9.9322   18.3468 C   0  0  0  0  0  0  0  0  0  0  0  0
   -1.0871  -12.2214   17.8851 C   0  0  0  0  0  0  0  0  0  0  0  0
   -2.2706   -8.9669   19.0691 C   0  0  0  0  0  0  0  0  0  0  0  0
    3.0279   -5.3073   26.8197 C   0  0  0  0  0  0  0  0  0  0  0  0
    7.3282   -3.8948   29.1186 C   0  0  0  0  0  0  0  0  0  0  0  0
  1  3  4  0
  1  7  4  0
  2  3  1  0
  2  6  4  0
  2 16  4  0
  3 22  4  0
  4  9  4  0
  4 10  1  0
  4 20  4  0
  5 16  4  0
  5 23  4  0
  6 15  4  0
  7 12  4  0
  8 13  4  0
  8 14  4  0
  9 11  4  0
 11 14  4  0
 11 19  4  0
 12 18  4  0
 13 21  4  0
 15 23  4  0
 17 19  4  0
 17 20  4  0
 18 22  4  0
 19 21  4  0
M  END
$$$$

 Created by Python create_sdf_string function

 23 25  0  0  0  0  0  0  0  0999 V2000
    2.4610   -5.3070   29.1240 C   0  0  0  0  0  0  0  0  0  0  0  0
    4.7710   -4.6952   28.4803 C   0  0  0  0  0  0  0  0  0  0  0  0
    3.4047   -5.1087   28.1314 C   0  0  0  0  0  0  0  0  0  0  0  0
   -0.2234  -11.8615   16.8874 C   0  0  0  0  0  0  0  0  0  0  0  0
    6.4491   -4.1532   30.1213 C   0  0  0  0  0  0  0  0  0  0  0  0
    5.7060   -4.4340   27.4975 C   0  0  0  0  0  0  0  0  0  0  0  0
    1.1818   -5.6612   28.8399 C   0  0  0  0  0  0  0  0  0  0  0  0
   -1.2067   -7.3287   17.7772 C   0  0  0  0  0  0  0  0  0  0  0  0
   -0.0206  -10.5585   16.6210 C   0  0  0  0  0  0  0  0  0  0  0  0
    0.3696  -12.7626   16.2169 O   0  0  0  0  0  0  0  0  0  0  0  0
   -0.6895   -9.5676   17.3297 C   0  0  0  0  0  0  0  0  0  0  0  0
    0.8388   -5.8417   27.5264 C   0  0  0  0  0  0  0  0  0  0  0  0
   -2.0709   -7.6637   18.7817 C   0  0  0  0  0  0  0  0  0  0  0  0
   -0.5279   -8.2168   17.0717 C   0  0  0  0  0  0  0  0  0  0  0  0
    6.9694   -4.0191   27.8190 C   0  0  0  0  0  0  0  0  0  0  0  0
    5.1733   -4.5469   29.8123 C   0  0  0  0  0  0  0  0  0  0  0  0
   -1.7508  -11.3016   18.6072 C   0  0  0  0  0  0  0  0  0  0  0  0
    1.7497   -5.6771   26.4971 C   0  0  0  0  0  0  0  0  0  0  0  0
   -1.5799   -9.9322   18.3468 C   0  0  0  0  0  0  0  0  0  0  0  0
   -1.0871  -12.2214   17.8851 C   0  0  0  0  0  0  0  0  0  0  0  0
   -2.2706   -8.9669   19.0691 C   0  0  0  0  0  0  0  0  0  0  0  0
    3.0279   -5.3073   26.8197 C   0  0  0  0  0  0  0  0  0  0  0  0
    7.3282   -3.8948   29.1186 C   0  0  0  0  0  0  0  0  0  0  0  0
  1  3  4  0
  1  7  4  0
  2  3  1  0
  2  6  4  0
  2 16  4  0
  3 22  4  0
  4  9  4  0
  4 10  1  0
  4 20  4  0
  5 16  4  0
  5 23  4  0
  6 15  4  0
  7 12  4  0
  8 13  4  0
  8 14  4  0
  9 11  4  0
 11 14  4  0
 11 19  4  0
 12 18  4  0
 13 21  4  0
 15 23  4  0
 17 19  4  0
 17 20  4  0
 18 22  4  0
 19 21  4  0
M  END
$$$$

 Created by Python create_sdf_string function

 23 25  0  0  0  0  0  0  0  0999 V2000
    2.4610   -5.3070   29.1240 C   0  0  0  0  0  0  0  0  0  0  0  0
    4.7710   -4.6952   28.4803 C   0  0  0  0  0  0  0  0  0  0  0  0
    3.4047   -5.1087   28.1314 C   0  0  0  0  0  0  0  0  0  0  0  0
   -0.2234  -11.8615   16.8874 C   0  0  0  0  0  0  0  0  0  0  0  0
    6.4491   -4.1532   30.1213 C   0  0  0  0  0  0  0  0  0  0  0  0
    5.7060   -4.4340   27.4975 C   0  0  0  0  0  0  0  0  0  0  0  0
    1.1818   -5.6612   28.8399 C   0  0  0  0  0  0  0  0  0  0  0  0
   -1.2067   -7.3287   17.7772 C   0  0  0  0  0  0  0  0  0  0  0  0
   -0.0206  -10.5585   16.6210 C   0  0  0  0  0  0  0  0  0  0  0  0
    0.3696  -12.7626   16.2169 O   0  0  0  0  0  0  0  0  0  0  0  0
   -0.6895   -9.5676   17.3297 C   0  0  0  0  0  0  0  0  0  0  0  0
    0.8388   -5.8417   27.5264 C   0  0  0  0  0  0  0  0  0  0  0  0
   -2.0709   -7.6637   18.7817 C   0  0  0  0  0  0  0  0  0  0  0  0
   -0.5279   -8.2168   17.0717 C   0  0  0  0  0  0  0  0  0  0  0  0
    6.9694   -4.0191   27.8190 C   0  0  0  0  0  0  0  0  0  0  0  0
    5.1733   -4.5469   29.8123 C   0  0  0  0  0  0  0  0  0  0  0  0
   -1.7508  -11.3016   18.6072 C   0  0  0  0  0  0  0  0  0  0  0  0
    1.7497   -5.6771   26.4971 C   0  0  0  0  0  0  0  0  0  0  0  0
   -1.5799   -9.9322   18.3468 C   0  0  0  0  0  0  0  0  0  0  0  0
   -1.0871  -12.2214   17.8851 C   0  0  0  0  0  0  0  0  0  0  0  0
   -2.2706   -8.9669   19.0691 C   0  0  0  0  0  0  0  0  0  0  0  0
    3.0279   -5.3073   26.8197 C   0  0  0  0  0  0  0  0  0  0  0  0
    7.3282   -3.8948   29.1186 C   0  0  0  0  0  0  0  0  0  0  0  0
  1  3  4  0
  1  7  4  0
  2  3  1  0
  2  6  4  0
  2 16  4  0
  3 22  4  0
  4  9  4  0
  4 10  1  0
  4 20  4  0
  5 16  4  0
  5 23  4  0
  6 15  4  0
  7 12  4  0
  8 13  4  0
  8 14  4  0
  9 11  4  0
 11 14  4  0
 11 19  4  0
 12 18  4  0
 13 21  4  0
 15 23  4  0
 17 19  4  0
 17 20  4  0
 18 22  4  0
 19 21  4  0
M  END
$$$$

 Created by Python create_sdf_string function

 23 25  0  0  0  0  0  0  0  0999 V2000
    2.4610   -5.3070   29.1240 C   0  0  0  0  0  0  0  0  0  0  0  0
    4.7710   -4.6952   28.4803 C   0  0  0  0  0  0  0  0  0  0  0  0
    3.4047   -5.1087   28.1314 C   0  0  0  0  0  0  0  0  0  0  0  0
   -0.2234  -11.8615   16.8874 C   0  0  0  0  0  0  0  0  0  0  0  0
    6.4491   -4.1532   30.1213 C   0  0  0  0  0  0  0  0  0  0  0  0
    5.7060   -4.4340   27.4975 C   0  0  0  0  0  0  0  0  0  0  0  0
    1.1818   -5.6612   28.8399 C   0  0  0  0  0  0  0  0  0  0  0  0
   -1.2067   -7.3287   17.7772 C   0  0  0  0  0  0  0  0  0  0  0  0
   -0.0206  -10.5585   16.6210 C   0  0  0  0  0  0  0  0  0  0  0  0
    0.3696  -12.7626   16.2169 O   0  0  0  0  0  0  0  0  0  0  0  0
   -0.6895   -9.5676   17.3297 C   0  0  0  0  0  0  0  0  0  0  0  0
    0.8388   -5.8417   27.5264 C   0  0  0  0  0  0  0  0  0  0  0  0
   -2.0709   -7.6637   18.7817 C   0  0  0  0  0  0  0  0  0  0  0  0
   -0.5279   -8.2168   17.0717 C   0  0  0  0  0  0  0  0  0  0  0  0
    6.9694   -4.0191   27.8190 C   0  0  0  0  0  0  0  0  0  0  0  0
    5.1733   -4.5469   29.8123 C   0  0  0  0  0  0  0  0  0  0  0  0
   -1.7508  -11.3016   18.6072 C   0  0  0  0  0  0  0  0  0  0  0  0
    1.7497   -5.6771   26.4971 C   0  0  0  0  0  0  0  0  0  0  0  0
   -1.5799   -9.9322   18.3468 C   0  0  0  0  0  0  0  0  0  0  0  0
   -1.0871  -12.2214   17.8851 C   0  0  0  0  0  0  0  0  0  0  0  0
   -2.2706   -8.9669   19.0691 C   0  0  0  0  0  0  0  0  0  0  0  0
    3.0279   -5.3073   26.8197 C   0  0  0  0  0  0  0  0  0  0  0  0
    7.3282   -3.8948   29.1186 C   0  0  0  0  0  0  0  0  0  0  0  0
  1  3  4  0
  1  7  4  0
  2  3  1  0
  2  6  4  0
  2 16  4  0
  3 22  4  0
  4  9  4  0
  4 10  1  0
  4 20  4  0
  5 16  4  0
  5 23  4  0
  6 15  4  0
  7 12  4  0
  8 13  4  0
  8 14  4  0
  9 11  4  0
 11 14  4  0
 11 19  4  0
 12 18  4  0
 13 21  4  0
 15 23  4  0
 17 19  4  0
 17 20  4  0
 18 22  4  0
 19 21  4  0
M  END
$$$$

 Created by Python create_sdf_string function

 23 25  0  0  0  0  0  0  0  0999 V2000
    2.4610   -5.3070   29.1240 C   0  0  0  0  0  0  0  0  0  0  0  0
    4.7710   -4.6952   28.4803 C   0  0  0  0  0  0  0  0  0  0  0  0
    3.4047   -5.1087   28.1314 C   0  0  0  0  0  0  0  0  0  0  0  0
   -0.2234  -11.8615   16.8874 C   0  0  0  0  0  0  0  0  0  0  0  0
    6.4491   -4.1532   30.1213 C   0  0  0  0  0  0  0  0  0  0  0  0
    5.7060   -4.4340   27.4975 C   0  0  0  0  0  0  0  0  0  0  0  0
    1.1818   -5.6612   28.8399 C   0  0  0  0  0  0  0  0  0  0  0  0
   -1.2067   -7.3287   17.7772 C   0  0  0  0  0  0  0  0  0  0  0  0
   -0.0206  -10.5585   16.6210 C   0  0  0  0  0  0  0  0  0  0  0  0
    0.3696  -12.7626   16.2169 O   0  0  0  0  0  0  0  0  0  0  0  0
   -0.6895   -9.5676   17.3297 C   0  0  0  0  0  0  0  0  0  0  0  0
    0.8388   -5.8417   27.5264 C   0  0  0  0  0  0  0  0  0  0  0  0
   -2.0709   -7.6637   18.7817 C   0  0  0  0  0  0  0  0  0  0  0  0
   -0.5279   -8.2168   17.0717 C   0  0  0  0  0  0  0  0  0  0  0  0
    6.9694   -4.0191   27.8190 C   0  0  0  0  0  0  0  0  0  0  0  0
    5.1733   -4.5469   29.8123 C   0  0  0  0  0  0  0  0  0  0  0  0
   -1.7508  -11.3016   18.6072 C   0  0  0  0  0  0  0  0  0  0  0  0
    1.7497   -5.6771   26.4971 C   0  0  0  0  0  0  0  0  0  0  0  0
   -1.5799   -9.9322   18.3468 C   0  0  0  0  0  0  0  0  0  0  0  0
   -1.0871  -12.2214   17.8851 C   0  0  0  0  0  0  0  0  0  0  0  0
   -2.2706   -8.9669   19.0691 C   0  0  0  0  0  0  0  0  0  0  0  0
    3.0279   -5.3073   26.8197 C   0  0  0  0  0  0  0  0  0  0  0  0
    7.3282   -3.8948   29.1186 C   0  0  0  0  0  0  0  0  0  0  0  0
  1  3  4  0
  1  7  4  0
  2  3  1  0
  2  6  4  0
  2 16  4  0
  3 22  4  0
  4  9  4  0
  4 10  1  0
  4 20  4  0
  5 16  4  0
  5 23  4  0
  6 15  4  0
  7 12  4  0
  8 13  4  0
  8 14  4  0
  9 11  4  0
 11 14  4  0
 11 19  4  0
 12 18  4  0
 13 21  4  0
 15 23  4  0
 17 19  4  0
 17 20  4  0
 18 22  4  0
 19 21  4  0
M  END
$$$$

 Created by Python create_sdf_string function

 23 25  0  0  0  0  0  0  0  0999 V2000
    2.4610   -5.3070   29.1240 C   0  0  0  0  0  0  0  0  0  0  0  0
    4.7710   -4.6952   28.4803 C   0  0  0  0  0  0  0  0  0  0  0  0
    3.4047   -5.1087   28.1314 C   0  0  0  0  0  0  0  0  0  0  0  0
   -0.2234  -11.8615   16.8874 C   0  0  0  0  0  0  0  0  0  0  0  0
    6.4491   -4.1532   30.1213 C   0  0  0  0  0  0  0  0  0  0  0  0
    5.7060   -4.4340   27.4975 C   0  0  0  0  0  0  0  0  0  0  0  0
    1.1818   -5.6612   28.8399 C   0  0  0  0  0  0  0  0  0  0  0  0
   -1.2067   -7.3287   17.7772 C   0  0  0  0  0  0  0  0  0  0  0  0
   -0.0206  -10.5585   16.6210 C   0  0  0  0  0  0  0  0  0  0  0  0
    0.3696  -12.7626   16.2169 O   0  0  0  0  0  0  0  0  0  0  0  0
   -0.6895   -9.5676   17.3297 C   0  0  0  0  0  0  0  0  0  0  0  0
    0.8388   -5.8417   27.5264 C   0  0  0  0  0  0  0  0  0  0  0  0
   -2.0709   -7.6637   18.7817 C   0  0  0  0  0  0  0  0  0  0  0  0
   -0.5279   -8.2168   17.0717 C   0  0  0  0  0  0  0  0  0  0  0  0
    6.9694   -4.0191   27.8190 C   0  0  0  0  0  0  0  0  0  0  0  0
    5.1733   -4.5469   29.8123 C   0  0  0  0  0  0  0  0  0  0  0  0
   -1.7508  -11.3016   18.6072 C   0  0  0  0  0  0  0  0  0  0  0  0
    1.7497   -5.6771   26.4971 C   0  0  0  0  0  0  0  0  0  0  0  0
   -1.5799   -9.9322   18.3468 C   0  0  0  0  0  0  0  0  0  0  0  0
   -1.0871  -12.2214   17.8851 C   0  0  0  0  0  0  0  0  0  0  0  0
   -2.2706   -8.9669   19.0691 C   0  0  0  0  0  0  0  0  0  0  0  0
    3.0279   -5.3073   26.8197 C   0  0  0  0  0  0  0  0  0  0  0  0
    7.3282   -3.8948   29.1186 C   0  0  0  0  0  0  0  0  0  0  0  0
  1  3  4  0
  1  7  4  0
  2  3  1  0
  2  6  4  0
  2 16  4  0
  3 22  4  0
  4  9  4  0
  4 10  1  0
  4 20  4  0
  5 16  4  0
  5 23  4  0
  6 15  4  0
  7 12  4  0
  8 13  4  0
  8 14  4  0
  9 11  4  0
 11 14  4  0
 11 19  4  0
 12 18  4  0
 13 21  4  0
 15 23  4  0
 17 19  4  0
 17 20  4  0
 18 22  4  0
 19 21  4  0
M  END
$$$$

 Created by Python create_sdf_string function

 23 25  0  0  0  0  0  0  0  0999 V2000
    2.4610   -5.3070   29.1240 C   0  0  0  0  0  0  0  0  0  0  0  0
    4.7710   -4.6952   28.4803 C   0  0  0  0  0  0  0  0  0  0  0  0
    3.4047   -5.1087   28.1314 C   0  0  0  0  0  0  0  0  0  0  0  0
   -0.2234  -11.8615   16.8874 C   0  0  0  0  0  0  0  0  0  0  0  0
    6.4491   -4.1532   30.1213 C   0  0  0  0  0  0  0  0  0  0  0  0
    5.7060   -4.4340   27.4975 C   0  0  0  0  0  0  0  0  0  0  0  0
    1.1818   -5.6612   28.8399 C   0  0  0  0  0  0  0  0  0  0  0  0
   -1.2067   -7.3287   17.7772 C   0  0  0  0  0  0  0  0  0  0  0  0
   -0.0206  -10.5585   16.6210 C   0  0  0  0  0  0  0  0  0  0  0  0
    0.3696  -12.7626   16.2169 O   0  0  0  0  0  0  0  0  0  0  0  0
   -0.6895   -9.5676   17.3297 C   0  0  0  0  0  0  0  0  0  0  0  0
    0.8388   -5.8417   27.5264 C   0  0  0  0  0  0  0  0  0  0  0  0
   -2.0709   -7.6637   18.7817 C   0  0  0  0  0  0  0  0  0  0  0  0
   -0.5279   -8.2168   17.0717 C   0  0  0  0  0  0  0  0  0  0  0  0
    6.9694   -4.0191   27.8190 C   0  0  0  0  0  0  0  0  0  0  0  0
    5.1733   -4.5469   29.8123 C   0  0  0  0  0  0  0  0  0  0  0  0
   -1.7508  -11.3016   18.6072 C   0  0  0  0  0  0  0  0  0  0  0  0
    1.7497   -5.6771   26.4971 C   0  0  0  0  0  0  0  0  0  0  0  0
   -1.5799   -9.9322   18.3468 C   0  0  0  0  0  0  0  0  0  0  0  0
   -1.0871  -12.2214   17.8851 C   0  0  0  0  0  0  0  0  0  0  0  0
   -2.2706   -8.9669   19.0691 C   0  0  0  0  0  0  0  0  0  0  0  0
    3.0279   -5.3073   26.8197 C   0  0  0  0  0  0  0  0  0  0  0  0
    7.3282   -3.8948   29.1186 C   0  0  0  0  0  0  0  0  0  0  0  0
  1  3  4  0
  1  7  4  0
  2  3  1  0
  2  6  4  0
  2 16  4  0
  3 22  4  0
  4  9  4  0
  4 10  1  0
  4 20  4  0
  5 16  4  0
  5 23  4  0
  6 15  4  0
  7 12  4  0
  8 13  4  0
  8 14  4  0
  9 11  4  0
 11 14  4  0
 11 19  4  0
 12 18  4  0
 13 21  4  0
 15 23  4  0
 17 19  4  0
 17 20  4  0
 18 22  4  0
 19 21  4  0
M  END
$$$$

 Created by Python create_sdf_string function

 23 25  0  0  0  0  0  0  0  0999 V2000
    2.4610   -5.3070   29.1240 C   0  0  0  0  0  0  0  0  0  0  0  0
    4.7710   -4.6952   28.4803 C   0  0  0  0  0  0  0  0  0  0  0  0
    3.4047   -5.1087   28.1314 C   0  0  0  0  0  0  0  0  0  0  0  0
   -0.2234  -11.8615   16.8874 C   0  0  0  0  0  0  0  0  0  0  0  0
    6.4491   -4.1532   30.1213 C   0  0  0  0  0  0  0  0  0  0  0  0
    5.7060   -4.4340   27.4975 C   0  0  0  0  0  0  0  0  0  0  0  0
    1.1818   -5.6612   28.8399 C   0  0  0  0  0  0  0  0  0  0  0  0
   -1.2067   -7.3287   17.7772 C   0  0  0  0  0  0  0  0  0  0  0  0
   -0.0206  -10.5585   16.6210 C   0  0  0  0  0  0  0  0  0  0  0  0
    0.3696  -12.7626   16.2169 O   0  0  0  0  0  0  0  0  0  0  0  0
   -0.6895   -9.5676   17.3297 C   0  0  0  0  0  0  0  0  0  0  0  0
    0.8388   -5.8417   27.5264 C   0  0  0  0  0  0  0  0  0  0  0  0
   -2.0709   -7.6637   18.7817 C   0  0  0  0  0  0  0  0  0  0  0  0
   -0.5279   -8.2168   17.0717 C   0  0  0  0  0  0  0  0  0  0  0  0
    6.9694   -4.0191   27.8190 C   0  0  0  0  0  0  0  0  0  0  0  0
    5.1733   -4.5469   29.8123 C   0  0  0  0  0  0  0  0  0  0  0  0
   -1.7508  -11.3016   18.6072 C   0  0  0  0  0  0  0  0  0  0  0  0
    1.7497   -5.6771   26.4971 C   0  0  0  0  0  0  0  0  0  0  0  0
   -1.5799   -9.9322   18.3468 C   0  0  0  0  0  0  0  0  0  0  0  0
   -1.0871  -12.2214   17.8851 C   0  0  0  0  0  0  0  0  0  0  0  0
   -2.2706   -8.9669   19.0691 C   0  0  0  0  0  0  0  0  0  0  0  0
    3.0279   -5.3073   26.8197 C   0  0  0  0  0  0  0  0  0  0  0  0
    7.3282   -3.8948   29.1186 C   0  0  0  0  0  0  0  0  0  0  0  0
  1  3  4  0
  1  7  4  0
  2  3  1  0
  2  6  4  0
  2 16  4  0
  3 22  4  0
  4  9  4  0
  4 10  1  0
  4 20  4  0
  5 16  4  0
  5 23  4  0
  6 15  4  0
  7 12  4  0
  8 13  4  0
  8 14  4  0
  9 11  4  0
 11 14  4  0
 11 19  4  0
 12 18  4  0
 13 21  4  0
 15 23  4  0
 17 19  4  0
 17 20  4  0
 18 22  4  0
 19 21  4  0
M  END
$$$$

 Created by Python create_sdf_string function

 23 25  0  0  0  0  0  0  0  0999 V2000
    2.4610   -5.3070   29.1240 C   0  0  0  0  0  0  0  0  0  0  0  0
    4.7710   -4.6952   28.4803 C   0  0  0  0  0  0  0  0  0  0  0  0
    3.4047   -5.1087   28.1314 C   0  0  0  0  0  0  0  0  0  0  0  0
   -0.2234  -11.8615   16.8874 C   0  0  0  0  0  0  0  0  0  0  0  0
    6.4491   -4.1532   30.1213 C   0  0  0  0  0  0  0  0  0  0  0  0
    5.7060   -4.4340   27.4975 C   0  0  0  0  0  0  0  0  0  0  0  0
    1.1818   -5.6612   28.8399 C   0  0  0  0  0  0  0  0  0  0  0  0
   -1.2067   -7.3287   17.7772 C   0  0  0  0  0  0  0  0  0  0  0  0
   -0.0206  -10.5585   16.6210 C   0  0  0  0  0  0  0  0  0  0  0  0
    0.3696  -12.7626   16.2169 O   0  0  0  0  0  0  0  0  0  0  0  0
   -0.6895   -9.5676   17.3297 C   0  0  0  0  0  0  0  0  0  0  0  0
    0.8388   -5.8417   27.5264 C   0  0  0  0  0  0  0  0  0  0  0  0
   -2.0709   -7.6637   18.7817 C   0  0  0  0  0  0  0  0  0  0  0  0
   -0.5279   -8.2168   17.0717 C   0  0  0  0  0  0  0  0  0  0  0  0
    6.9694   -4.0191   27.8190 C   0  0  0  0  0  0  0  0  0  0  0  0
    5.1733   -4.5469   29.8123 C   0  0  0  0  0  0  0  0  0  0  0  0
   -1.7508  -11.3016   18.6072 C   0  0  0  0  0  0  0  0  0  0  0  0
    1.7497   -5.6771   26.4971 C   0  0  0  0  0  0  0  0  0  0  0  0
   -1.5799   -9.9322   18.3468 C   0  0  0  0  0  0  0  0  0  0  0  0
   -1.0871  -12.2214   17.8851 C   0  0  0  0  0  0  0  0  0  0  0  0
   -2.2706   -8.9669   19.0691 C   0  0  0  0  0  0  0  0  0  0  0  0
    3.0279   -5.3073   26.8197 C   0  0  0  0  0  0  0  0  0  0  0  0
    7.3282   -3.8948   29.1186 C   0  0  0  0  0  0  0  0  0  0  0  0
  1  3  4  0
  1  7  4  0
  2  3  1  0
  2  6  4  0
  2 16  4  0
  3 22  4  0
  4  9  4  0
  4 10  1  0
  4 20  4  0
  5 16  4  0
  5 23  4  0
  6 15  4  0
  7 12  4  0
  8 13  4  0
  8 14  4  0
  9 11  4  0
 11 14  4  0
 11 19  4  0
 12 18  4  0
 13 21  4  0
 15 23  4  0
 17 19  4  0
 17 20  4  0
 18 22  4  0
 19 21  4  0
M  END
$$$$

 Created by Python create_sdf_string function

 23 25  0  0  0  0  0  0  0  0999 V2000
    2.4610   -5.3070   29.1240 C   0  0  0  0  0  0  0  0  0  0  0  0
    4.7710   -4.6952   28.4803 C   0  0  0  0  0  0  0  0  0  0  0  0
    3.4047   -5.1087   28.1314 C   0  0  0  0  0  0  0  0  0  0  0  0
   -0.2234  -11.8615   16.8874 C   0  0  0  0  0  0  0  0  0  0  0  0
    6.4491   -4.1532   30.1213 C   0  0  0  0  0  0  0  0  0  0  0  0
    5.7060   -4.4340   27.4975 C   0  0  0  0  0  0  0  0  0  0  0  0
    1.1818   -5.6612   28.8399 C   0  0  0  0  0  0  0  0  0  0  0  0
   -1.2067   -7.3287   17.7772 C   0  0  0  0  0  0  0  0  0  0  0  0
   -0.0206  -10.5585   16.6210 C   0  0  0  0  0  0  0  0  0  0  0  0
    0.3696  -12.7626   16.2169 O   0  0  0  0  0  0  0  0  0  0  0  0
   -0.6895   -9.5676   17.3297 C   0  0  0  0  0  0  0  0  0  0  0  0
    0.8388   -5.8417   27.5264 C   0  0  0  0  0  0  0  0  0  0  0  0
   -2.0709   -7.6637   18.7817 C   0  0  0  0  0  0  0  0  0  0  0  0
   -0.5279   -8.2168   17.0717 C   0  0  0  0  0  0  0  0  0  0  0  0
    6.9694   -4.0191   27.8190 C   0  0  0  0  0  0  0  0  0  0  0  0
    5.1733   -4.5469   29.8123 C   0  0  0  0  0  0  0  0  0  0  0  0
   -1.7508  -11.3016   18.6072 C   0  0  0  0  0  0  0  0  0  0  0  0
    1.7497   -5.6771   26.4971 C   0  0  0  0  0  0  0  0  0  0  0  0
   -1.5799   -9.9322   18.3468 C   0  0  0  0  0  0  0  0  0  0  0  0
   -1.0871  -12.2214   17.8851 C   0  0  0  0  0  0  0  0  0  0  0  0
   -2.2706   -8.9669   19.0691 C   0  0  0  0  0  0  0  0  0  0  0  0
    3.0279   -5.3073   26.8197 C   0  0  0  0  0  0  0  0  0  0  0  0
    7.3282   -3.8948   29.1186 C   0  0  0  0  0  0  0  0  0  0  0  0
  1  3  4  0
  1  7  4  0
  2  3  1  0
  2  6  4  0
  2 16  4  0
  3 22  4  0
  4  9  4  0
  4 10  1  0
  4 20  4  0
  5 16  4  0
  5 23  4  0
  6 15  4  0
  7 12  4  0
  8 13  4  0
  8 14  4  0
  9 11  4  0
 11 14  4  0
 11 19  4  0
 12 18  4  0
 13 21  4  0
 15 23  4  0
 17 19  4  0
 17 20  4  0
 18 22  4  0
 19 21  4  0
M  END
$$$$

 Created by Python create_sdf_string function

 23 25  0  0  0  0  0  0  0  0999 V2000
    2.4610   -5.3070   29.1240 C   0  0  0  0  0  0  0  0  0  0  0  0
    4.7710   -4.6952   28.4803 C   0  0  0  0  0  0  0  0  0  0  0  0
    3.4047   -5.1087   28.1314 C   0  0  0  0  0  0  0  0  0  0  0  0
   -0.2234  -11.8615   16.8874 C   0  0  0  0  0  0  0  0  0  0  0  0
    6.4491   -4.1532   30.1213 C   0  0  0  0  0  0  0  0  0  0  0  0
    5.7060   -4.4340   27.4975 C   0  0  0  0  0  0  0  0  0  0  0  0
    1.1818   -5.6612   28.8399 C   0  0  0  0  0  0  0  0  0  0  0  0
   -1.2067   -7.3287   17.7772 C   0  0  0  0  0  0  0  0  0  0  0  0
   -0.0206  -10.5585   16.6210 C   0  0  0  0  0  0  0  0  0  0  0  0
    0.3696  -12.7626   16.2169 O   0  0  0  0  0  0  0  0  0  0  0  0
   -0.6895   -9.5676   17.3297 C   0  0  0  0  0  0  0  0  0  0  0  0
    0.8388   -5.8417   27.5264 C   0  0  0  0  0  0  0  0  0  0  0  0
   -2.0709   -7.6637   18.7817 C   0  0  0  0  0  0  0  0  0  0  0  0
   -0.5279   -8.2168   17.0717 C   0  0  0  0  0  0  0  0  0  0  0  0
    6.9694   -4.0191   27.8190 C   0  0  0  0  0  0  0  0  0  0  0  0
    5.1733   -4.5469   29.8123 C   0  0  0  0  0  0  0  0  0  0  0  0
   -1.7508  -11.3016   18.6072 C   0  0  0  0  0  0  0  0  0  0  0  0
    1.7497   -5.6771   26.4971 C   0  0  0  0  0  0  0  0  0  0  0  0
   -1.5799   -9.9322   18.3468 C   0  0  0  0  0  0  0  0  0  0  0  0
   -1.0871  -12.2214   17.8851 C   0  0  0  0  0  0  0  0  0  0  0  0
   -2.2706   -8.9669   19.0691 C   0  0  0  0  0  0  0  0  0  0  0  0
    3.0279   -5.3073   26.8197 C   0  0  0  0  0  0  0  0  0  0  0  0
    7.3282   -3.8948   29.1186 C   0  0  0  0  0  0  0  0  0  0  0  0
  1  3  4  0
  1  7  4  0
  2  3  1  0
  2  6  4  0
  2 16  4  0
  3 22  4  0
  4  9  4  0
  4 10  1  0
  4 20  4  0
  5 16  4  0
  5 23  4  0
  6 15  4  0
  7 12  4  0
  8 13  4  0
  8 14  4  0
  9 11  4  0
 11 14  4  0
 11 19  4  0
 12 18  4  0
 13 21  4  0
 15 23  4  0
 17 19  4  0
 17 20  4  0
 18 22  4  0
 19 21  4  0
M  END
$$$$

 Created by Python create_sdf_string function

 23 25  0  0  0  0  0  0  0  0999 V2000
    2.4610   -5.3070   29.1240 C   0  0  0  0  0  0  0  0  0  0  0  0
    4.7710   -4.6952   28.4803 C   0  0  0  0  0  0  0  0  0  0  0  0
    3.4047   -5.1087   28.1314 C   0  0  0  0  0  0  0  0  0  0  0  0
   -0.2234  -11.8615   16.8874 C   0  0  0  0  0  0  0  0  0  0  0  0
    6.4491   -4.1532   30.1213 C   0  0  0  0  0  0  0  0  0  0  0  0
    5.7060   -4.4340   27.4975 C   0  0  0  0  0  0  0  0  0  0  0  0
    1.1818   -5.6612   28.8399 C   0  0  0  0  0  0  0  0  0  0  0  0
   -1.2067   -7.3287   17.7772 C   0  0  0  0  0  0  0  0  0  0  0  0
   -0.0206  -10.5585   16.6210 C   0  0  0  0  0  0  0  0  0  0  0  0
    0.3696  -12.7626   16.2169 O   0  0  0  0  0  0  0  0  0  0  0  0
   -0.6895   -9.5676   17.3297 C   0  0  0  0  0  0  0  0  0  0  0  0
    0.8388   -5.8417   27.5264 C   0  0  0  0  0  0  0  0  0  0  0  0
   -2.0709   -7.6637   18.7817 C   0  0  0  0  0  0  0  0  0  0  0  0
   -0.5279   -8.2168   17.0717 C   0  0  0  0  0  0  0  0  0  0  0  0
    6.9694   -4.0191   27.8190 C   0  0  0  0  0  0  0  0  0  0  0  0
    5.1733   -4.5469   29.8123 C   0  0  0  0  0  0  0  0  0  0  0  0
   -1.7508  -11.3016   18.6072 C   0  0  0  0  0  0  0  0  0  0  0  0
    1.7497   -5.6771   26.4971 C   0  0  0  0  0  0  0  0  0  0  0  0
   -1.5799   -9.9322   18.3468 C   0  0  0  0  0  0  0  0  0  0  0  0
   -1.0871  -12.2214   17.8851 C   0  0  0  0  0  0  0  0  0  0  0  0
   -2.2706   -8.9669   19.0691 C   0  0  0  0  0  0  0  0  0  0  0  0
    3.0279   -5.3073   26.8197 C   0  0  0  0  0  0  0  0  0  0  0  0
    7.3282   -3.8948   29.1186 C   0  0  0  0  0  0  0  0  0  0  0  0
  1  3  4  0
  1  7  4  0
  2  3  1  0
  2  6  4  0
  2 16  4  0
  3 22  4  0
  4  9  4  0
  4 10  1  0
  4 20  4  0
  5 16  4  0
  5 23  4  0
  6 15  4  0
  7 12  4  0
  8 13  4  0
  8 14  4  0
  9 11  4  0
 11 14  4  0
 11 19  4  0
 12 18  4  0
 13 21  4  0
 15 23  4  0
 17 19  4  0
 17 20  4  0
 18 22  4  0
 19 21  4  0
M  END
$$$$

 Created by Python create_sdf_string function

 23 25  0  0  0  0  0  0  0  0999 V2000
    2.4610   -5.3070   29.1240 C   0  0  0  0  0  0  0  0  0  0  0  0
    4.7710   -4.6952   28.4803 C   0  0  0  0  0  0  0  0  0  0  0  0
    3.4047   -5.1087   28.1314 C   0  0  0  0  0  0  0  0  0  0  0  0
   -0.2234  -11.8615   16.8874 C   0  0  0  0  0  0  0  0  0  0  0  0
    6.4491   -4.1532   30.1213 C   0  0  0  0  0  0  0  0  0  0  0  0
    5.7060   -4.4340   27.4975 C   0  0  0  0  0  0  0  0  0  0  0  0
    1.1818   -5.6612   28.8399 C   0  0  0  0  0  0  0  0  0  0  0  0
   -1.2067   -7.3287   17.7772 C   0  0  0  0  0  0  0  0  0  0  0  0
   -0.0206  -10.5585   16.6210 C   0  0  0  0  0  0  0  0  0  0  0  0
    0.3696  -12.7626   16.2169 O   0  0  0  0  0  0  0  0  0  0  0  0
   -0.6895   -9.5676   17.3297 C   0  0  0  0  0  0  0  0  0  0  0  0
    0.8388   -5.8417   27.5264 C   0  0  0  0  0  0  0  0  0  0  0  0
   -2.0709   -7.6637   18.7817 C   0  0  0  0  0  0  0  0  0  0  0  0
   -0.5279   -8.2168   17.0717 C   0  0  0  0  0  0  0  0  0  0  0  0
    6.9694   -4.0191   27.8190 C   0  0  0  0  0  0  0  0  0  0  0  0
    5.1733   -4.5469   29.8123 C   0  0  0  0  0  0  0  0  0  0  0  0
   -1.7508  -11.3016   18.6072 C   0  0  0  0  0  0  0  0  0  0  0  0
    1.7497   -5.6771   26.4971 C   0  0  0  0  0  0  0  0  0  0  0  0
   -1.5799   -9.9322   18.3468 C   0  0  0  0  0  0  0  0  0  0  0  0
   -1.0871  -12.2214   17.8851 C   0  0  0  0  0  0  0  0  0  0  0  0
   -2.2706   -8.9669   19.0691 C   0  0  0  0  0  0  0  0  0  0  0  0
    3.0279   -5.3073   26.8197 C   0  0  0  0  0  0  0  0  0  0  0  0
    7.3282   -3.8948   29.1186 C   0  0  0  0  0  0  0  0  0  0  0  0
  1  3  4  0
  1  7  4  0
  2  3  1  0
  2  6  4  0
  2 16  4  0
  3 22  4  0
  4  9  4  0
  4 10  1  0
  4 20  4  0
  5 16  4  0
  5 23  4  0
  6 15  4  0
  7 12  4  0
  8 13  4  0
  8 14  4  0
  9 11  4  0
 11 14  4  0
 11 19  4  0
 12 18  4  0
 13 21  4  0
 15 23  4  0
 17 19  4  0
 17 20  4  0
 18 22  4  0
 19 21  4  0
M  END
$$$$

 Created by Python create_sdf_string function

 23 25  0  0  0  0  0  0  0  0999 V2000
    2.4610   -5.3070   29.1240 C   0  0  0  0  0  0  0  0  0  0  0  0
    4.7710   -4.6952   28.4803 C   0  0  0  0  0  0  0  0  0  0  0  0
    3.4047   -5.1087   28.1314 C   0  0  0  0  0  0  0  0  0  0  0  0
   -0.2234  -11.8615   16.8874 C   0  0  0  0  0  0  0  0  0  0  0  0
    6.4491   -4.1532   30.1213 C   0  0  0  0  0  0  0  0  0  0  0  0
    5.7060   -4.4340   27.4975 C   0  0  0  0  0  0  0  0  0  0  0  0
    1.1818   -5.6612   28.8399 C   0  0  0  0  0  0  0  0  0  0  0  0
   -1.2067   -7.3287   17.7772 C   0  0  0  0  0  0  0  0  0  0  0  0
   -0.0206  -10.5585   16.6210 C   0  0  0  0  0  0  0  0  0  0  0  0
    0.3696  -12.7626   16.2169 O   0  0  0  0  0  0  0  0  0  0  0  0
   -0.6895   -9.5676   17.3297 C   0  0  0  0  0  0  0  0  0  0  0  0
    0.8388   -5.8417   27.5264 C   0  0  0  0  0  0  0  0  0  0  0  0
   -2.0709   -7.6637   18.7817 C   0  0  0  0  0  0  0  0  0  0  0  0
   -0.5279   -8.2168   17.0717 C   0  0  0  0  0  0  0  0  0  0  0  0
    6.9694   -4.0191   27.8190 C   0  0  0  0  0  0  0  0  0  0  0  0
    5.1733   -4.5469   29.8123 C   0  0  0  0  0  0  0  0  0  0  0  0
   -1.7508  -11.3016   18.6072 C   0  0  0  0  0  0  0  0  0  0  0  0
    1.7497   -5.6771   26.4971 C   0  0  0  0  0  0  0  0  0  0  0  0
   -1.5799   -9.9322   18.3468 C   0  0  0  0  0  0  0  0  0  0  0  0
   -1.0871  -12.2214   17.8851 C   0  0  0  0  0  0  0  0  0  0  0  0
   -2.2706   -8.9669   19.0691 C   0  0  0  0  0  0  0  0  0  0  0  0
    3.0279   -5.3073   26.8197 C   0  0  0  0  0  0  0  0  0  0  0  0
    7.3282   -3.8948   29.1186 C   0  0  0  0  0  0  0  0  0  0  0  0
  1  3  4  0
  1  7  4  0
  2  3  1  0
  2  6  4  0
  2 16  4  0
  3 22  4  0
  4  9  4  0
  4 10  1  0
  4 20  4  0
  5 16  4  0
  5 23  4  0
  6 15  4  0
  7 12  4  0
  8 13  4  0
  8 14  4  0
  9 11  4  0
 11 14  4  0
 11 19  4  0
 12 18  4  0
 13 21  4  0
 15 23  4  0
 17 19  4  0
 17 20  4  0
 18 22  4  0
 19 21  4  0
M  END
$$$$

 Created by Python create_sdf_string function

 23 25  0  0  0  0  0  0  0  0999 V2000
    2.4610   -5.3070   29.1240 C   0  0  0  0  0  0  0  0  0  0  0  0
    4.7710   -4.6952   28.4803 C   0  0  0  0  0  0  0  0  0  0  0  0
    3.4047   -5.1087   28.1314 C   0  0  0  0  0  0  0  0  0  0  0  0
   -0.2234  -11.8615   16.8874 C   0  0  0  0  0  0  0  0  0  0  0  0
    6.4491   -4.1532   30.1213 C   0  0  0  0  0  0  0  0  0  0  0  0
    5.7060   -4.4340   27.4975 C   0  0  0  0  0  0  0  0  0  0  0  0
    1.1818   -5.6612   28.8399 C   0  0  0  0  0  0  0  0  0  0  0  0
   -1.2067   -7.3287   17.7772 C   0  0  0  0  0  0  0  0  0  0  0  0
   -0.0206  -10.5585   16.6210 C   0  0  0  0  0  0  0  0  0  0  0  0
    0.3696  -12.7626   16.2169 O   0  0  0  0  0  0  0  0  0  0  0  0
   -0.6895   -9.5676   17.3297 C   0  0  0  0  0  0  0  0  0  0  0  0
    0.8388   -5.8417   27.5264 C   0  0  0  0  0  0  0  0  0  0  0  0
   -2.0709   -7.6637   18.7817 C   0  0  0  0  0  0  0  0  0  0  0  0
   -0.5279   -8.2168   17.0717 C   0  0  0  0  0  0  0  0  0  0  0  0
    6.9694   -4.0191   27.8190 C   0  0  0  0  0  0  0  0  0  0  0  0
    5.1733   -4.5469   29.8123 C   0  0  0  0  0  0  0  0  0  0  0  0
   -1.7508  -11.3016   18.6072 C   0  0  0  0  0  0  0  0  0  0  0  0
    1.7497   -5.6771   26.4971 C   0  0  0  0  0  0  0  0  0  0  0  0
   -1.5799   -9.9322   18.3468 C   0  0  0  0  0  0  0  0  0  0  0  0
   -1.0871  -12.2214   17.8851 C   0  0  0  0  0  0  0  0  0  0  0  0
   -2.2706   -8.9669   19.0691 C   0  0  0  0  0  0  0  0  0  0  0  0
    3.0279   -5.3073   26.8197 C   0  0  0  0  0  0  0  0  0  0  0  0
    7.3282   -3.8948   29.1186 C   0  0  0  0  0  0  0  0  0  0  0  0
  1  3  4  0
  1  7  4  0
  2  3  1  0
  2  6  4  0
  2 16  4  0
  3 22  4  0
  4  9  4  0
  4 10  1  0
  4 20  4  0
  5 16  4  0
  5 23  4  0
  6 15  4  0
  7 12  4  0
  8 13  4  0
  8 14  4  0
  9 11  4  0
 11 14  4  0
 11 19  4  0
 12 18  4  0
 13 21  4  0
 15 23  4  0
 17 19  4  0
 17 20  4  0
 18 22  4  0
 19 21  4  0
M  END
$$$$

 Created by Python create_sdf_string function

 23 25  0  0  0  0  0  0  0  0999 V2000
    2.4610   -5.3070   29.1240 C   0  0  0  0  0  0  0  0  0  0  0  0
    4.7710   -4.6952   28.4803 C   0  0  0  0  0  0  0  0  0  0  0  0
    3.4047   -5.1087   28.1314 C   0  0  0  0  0  0  0  0  0  0  0  0
   -0.2234  -11.8615   16.8874 C   0  0  0  0  0  0  0  0  0  0  0  0
    6.4491   -4.1532   30.1213 C   0  0  0  0  0  0  0  0  0  0  0  0
    5.7060   -4.4340   27.4975 C   0  0  0  0  0  0  0  0  0  0  0  0
    1.1818   -5.6612   28.8399 C   0  0  0  0  0  0  0  0  0  0  0  0
   -1.2067   -7.3287   17.7772 C   0  0  0  0  0  0  0  0  0  0  0  0
   -0.0206  -10.5585   16.6210 C   0  0  0  0  0  0  0  0  0  0  0  0
    0.3696  -12.7626   16.2169 O   0  0  0  0  0  0  0  0  0  0  0  0
   -0.6895   -9.5676   17.3297 C   0  0  0  0  0  0  0  0  0  0  0  0
    0.8388   -5.8417   27.5264 C   0  0  0  0  0  0  0  0  0  0  0  0
   -2.0709   -7.6637   18.7817 C   0  0  0  0  0  0  0  0  0  0  0  0
   -0.5279   -8.2168   17.0717 C   0  0  0  0  0  0  0  0  0  0  0  0
    6.9694   -4.0191   27.8190 C   0  0  0  0  0  0  0  0  0  0  0  0
    5.1733   -4.5469   29.8123 C   0  0  0  0  0  0  0  0  0  0  0  0
   -1.7508  -11.3016   18.6072 C   0  0  0  0  0  0  0  0  0  0  0  0
    1.7497   -5.6771   26.4971 C   0  0  0  0  0  0  0  0  0  0  0  0
   -1.5799   -9.9322   18.3468 C   0  0  0  0  0  0  0  0  0  0  0  0
   -1.0871  -12.2214   17.8851 C   0  0  0  0  0  0  0  0  0  0  0  0
   -2.2706   -8.9669   19.0691 C   0  0  0  0  0  0  0  0  0  0  0  0
    3.0279   -5.3073   26.8197 C   0  0  0  0  0  0  0  0  0  0  0  0
    7.3282   -3.8948   29.1186 C   0  0  0  0  0  0  0  0  0  0  0  0
  1  3  4  0
  1  7  4  0
  2  3  1  0
  2  6  4  0
  2 16  4  0
  3 22  4  0
  4  9  4  0
  4 10  1  0
  4 20  4  0
  5 16  4  0
  5 23  4  0
  6 15  4  0
  7 12  4  0
  8 13  4  0
  8 14  4  0
  9 11  4  0
 11 14  4  0
 11 19  4  0
 12 18  4  0
 13 21  4  0
 15 23  4  0
 17 19  4  0
 17 20  4  0
 18 22  4  0
 19 21  4  0
M  END
$$$$

 Created by Python create_sdf_string function

 23 25  0  0  0  0  0  0  0  0999 V2000
    2.4610   -5.3070   29.1240 C   0  0  0  0  0  0  0  0  0  0  0  0
    4.7710   -4.6952   28.4803 C   0  0  0  0  0  0  0  0  0  0  0  0
    3.4047   -5.1087   28.1314 C   0  0  0  0  0  0  0  0  0  0  0  0
   -0.2234  -11.8615   16.8874 C   0  0  0  0  0  0  0  0  0  0  0  0
    6.4491   -4.1532   30.1213 C   0  0  0  0  0  0  0  0  0  0  0  0
    5.7060   -4.4340   27.4975 C   0  0  0  0  0  0  0  0  0  0  0  0
    1.1818   -5.6612   28.8399 C   0  0  0  0  0  0  0  0  0  0  0  0
   -1.2067   -7.3287   17.7772 C   0  0  0  0  0  0  0  0  0  0  0  0
   -0.0206  -10.5585   16.6210 C   0  0  0  0  0  0  0  0  0  0  0  0
    0.3696  -12.7626   16.2169 O   0  0  0  0  0  0  0  0  0  0  0  0
   -0.6895   -9.5676   17.3297 C   0  0  0  0  0  0  0  0  0  0  0  0
    0.8388   -5.8417   27.5264 C   0  0  0  0  0  0  0  0  0  0  0  0
   -2.0709   -7.6637   18.7817 C   0  0  0  0  0  0  0  0  0  0  0  0
   -0.5279   -8.2168   17.0717 C   0  0  0  0  0  0  0  0  0  0  0  0
    6.9694   -4.0191   27.8190 C   0  0  0  0  0  0  0  0  0  0  0  0
    5.1733   -4.5469   29.8123 C   0  0  0  0  0  0  0  0  0  0  0  0
   -1.7508  -11.3016   18.6072 C   0  0  0  0  0  0  0  0  0  0  0  0
    1.7497   -5.6771   26.4971 C   0  0  0  0  0  0  0  0  0  0  0  0
   -1.5799   -9.9322   18.3468 C   0  0  0  0  0  0  0  0  0  0  0  0
   -1.0871  -12.2214   17.8851 C   0  0  0  0  0  0  0  0  0  0  0  0
   -2.2706   -8.9669   19.0691 C   0  0  0  0  0  0  0  0  0  0  0  0
    3.0279   -5.3073   26.8197 C   0  0  0  0  0  0  0  0  0  0  0  0
    7.3282   -3.8948   29.1186 C   0  0  0  0  0  0  0  0  0  0  0  0
  1  3  4  0
  1  7  4  0
  2  3  1  0
  2  6  4  0
  2 16  4  0
  3 22  4  0
  4  9  4  0
  4 10  1  0
  4 20  4  0
  5 16  4  0
  5 23  4  0
  6 15  4  0
  7 12  4  0
  8 13  4  0
  8 14  4  0
  9 11  4  0
 11 14  4  0
 11 19  4  0
 12 18  4  0
 13 21  4  0
 15 23  4  0
 17 19  4  0
 17 20  4  0
 18 22  4  0
 19 21  4  0
M  END
$$$$

 Created by Python create_sdf_string function

 23 25  0  0  0  0  0  0  0  0999 V2000
    2.4610   -5.3070   29.1240 C   0  0  0  0  0  0  0  0  0  0  0  0
    4.7710   -4.6952   28.4803 C   0  0  0  0  0  0  0  0  0  0  0  0
    3.4047   -5.1087   28.1314 C   0  0  0  0  0  0  0  0  0  0  0  0
   -0.2234  -11.8615   16.8874 C   0  0  0  0  0  0  0  0  0  0  0  0
    6.4491   -4.1532   30.1213 C   0  0  0  0  0  0  0  0  0  0  0  0
    5.7060   -4.4340   27.4975 C   0  0  0  0  0  0  0  0  0  0  0  0
    1.1818   -5.6612   28.8399 C   0  0  0  0  0  0  0  0  0  0  0  0
   -1.2067   -7.3287   17.7772 C   0  0  0  0  0  0  0  0  0  0  0  0
   -0.0206  -10.5585   16.6210 C   0  0  0  0  0  0  0  0  0  0  0  0
    0.3696  -12.7626   16.2169 O   0  0  0  0  0  0  0  0  0  0  0  0
   -0.6895   -9.5676   17.3297 C   0  0  0  0  0  0  0  0  0  0  0  0
    0.8388   -5.8417   27.5264 C   0  0  0  0  0  0  0  0  0  0  0  0
   -2.0709   -7.6637   18.7817 C   0  0  0  0  0  0  0  0  0  0  0  0
   -0.5279   -8.2168   17.0717 C   0  0  0  0  0  0  0  0  0  0  0  0
    6.9694   -4.0191   27.8190 C   0  0  0  0  0  0  0  0  0  0  0  0
    5.1733   -4.5469   29.8123 C   0  0  0  0  0  0  0  0  0  0  0  0
   -1.7508  -11.3016   18.6072 C   0  0  0  0  0  0  0  0  0  0  0  0
    1.7497   -5.6771   26.4971 C   0  0  0  0  0  0  0  0  0  0  0  0
   -1.5799   -9.9322   18.3468 C   0  0  0  0  0  0  0  0  0  0  0  0
   -1.0871  -12.2214   17.8851 C   0  0  0  0  0  0  0  0  0  0  0  0
   -2.2706   -8.9669   19.0691 C   0  0  0  0  0  0  0  0  0  0  0  0
    3.0279   -5.3073   26.8197 C   0  0  0  0  0  0  0  0  0  0  0  0
    7.3282   -3.8948   29.1186 C   0  0  0  0  0  0  0  0  0  0  0  0
  1  3  4  0
  1  7  4  0
  2  3  1  0
  2  6  4  0
  2 16  4  0
  3 22  4  0
  4  9  4  0
  4 10  1  0
  4 20  4  0
  5 16  4  0
  5 23  4  0
  6 15  4  0
  7 12  4  0
  8 13  4  0
  8 14  4  0
  9 11  4  0
 11 14  4  0
 11 19  4  0
 12 18  4  0
 13 21  4  0
 15 23  4  0
 17 19  4  0
 17 20  4  0
 18 22  4  0
 19 21  4  0
M  END
$$$$

 Created by Python create_sdf_string function

 23 25  0  0  0  0  0  0  0  0999 V2000
    2.4610   -5.3070   29.1240 C   0  0  0  0  0  0  0  0  0  0  0  0
    4.7710   -4.6952   28.4803 C   0  0  0  0  0  0  0  0  0  0  0  0
    3.4047   -5.1087   28.1314 C   0  0  0  0  0  0  0  0  0  0  0  0
   -0.2234  -11.8615   16.8874 C   0  0  0  0  0  0  0  0  0  0  0  0
    6.4491   -4.1532   30.1213 C   0  0  0  0  0  0  0  0  0  0  0  0
    5.7060   -4.4340   27.4975 C   0  0  0  0  0  0  0  0  0  0  0  0
    1.1818   -5.6612   28.8399 C   0  0  0  0  0  0  0  0  0  0  0  0
   -1.2067   -7.3287   17.7772 C   0  0  0  0  0  0  0  0  0  0  0  0
   -0.0206  -10.5585   16.6210 C   0  0  0  0  0  0  0  0  0  0  0  0
    0.3696  -12.7626   16.2169 O   0  0  0  0  0  0  0  0  0  0  0  0
   -0.6895   -9.5676   17.3297 C   0  0  0  0  0  0  0  0  0  0  0  0
    0.8388   -5.8417   27.5264 C   0  0  0  0  0  0  0  0  0  0  0  0
   -2.0709   -7.6637   18.7817 C   0  0  0  0  0  0  0  0  0  0  0  0
   -0.5279   -8.2168   17.0717 C   0  0  0  0  0  0  0  0  0  0  0  0
    6.9694   -4.0191   27.8190 C   0  0  0  0  0  0  0  0  0  0  0  0
    5.1733   -4.5469   29.8123 C   0  0  0  0  0  0  0  0  0  0  0  0
   -1.7508  -11.3016   18.6072 C   0  0  0  0  0  0  0  0  0  0  0  0
    1.7497   -5.6771   26.4971 C   0  0  0  0  0  0  0  0  0  0  0  0
   -1.5799   -9.9322   18.3468 C   0  0  0  0  0  0  0  0  0  0  0  0
   -1.0871  -12.2214   17.8851 C   0  0  0  0  0  0  0  0  0  0  0  0
   -2.2706   -8.9669   19.0691 C   0  0  0  0  0  0  0  0  0  0  0  0
    3.0279   -5.3073   26.8197 C   0  0  0  0  0  0  0  0  0  0  0  0
    7.3282   -3.8948   29.1186 C   0  0  0  0  0  0  0  0  0  0  0  0
  1  3  4  0
  1  7  4  0
  2  3  1  0
  2  6  4  0
  2 16  4  0
  3 22  4  0
  4  9  4  0
  4 10  1  0
  4 20  4  0
  5 16  4  0
  5 23  4  0
  6 15  4  0
  7 12  4  0
  8 13  4  0
  8 14  4  0
  9 11  4  0
 11 14  4  0
 11 19  4  0
 12 18  4  0
 13 21  4  0
 15 23  4  0
 17 19  4  0
 17 20  4  0
 18 22  4  0
 19 21  4  0
M  END
$$$$

 Created by Python create_sdf_string function

 23 25  0  0  0  0  0  0  0  0999 V2000
    2.4610   -5.3070   29.1240 C   0  0  0  0  0  0  0  0  0  0  0  0
    4.7710   -4.6952   28.4803 C   0  0  0  0  0  0  0  0  0  0  0  0
    3.4047   -5.1087   28.1314 C   0  0  0  0  0  0  0  0  0  0  0  0
   -0.2234  -11.8615   16.8874 C   0  0  0  0  0  0  0  0  0  0  0  0
    6.4491   -4.1532   30.1213 C   0  0  0  0  0  0  0  0  0  0  0  0
    5.7060   -4.4340   27.4975 C   0  0  0  0  0  0  0  0  0  0  0  0
    1.1818   -5.6612   28.8399 C   0  0  0  0  0  0  0  0  0  0  0  0
   -1.2067   -7.3287   17.7772 C   0  0  0  0  0  0  0  0  0  0  0  0
   -0.0206  -10.5585   16.6210 C   0  0  0  0  0  0  0  0  0  0  0  0
    0.3696  -12.7626   16.2169 O   0  0  0  0  0  0  0  0  0  0  0  0
   -0.6895   -9.5676   17.3297 C   0  0  0  0  0  0  0  0  0  0  0  0
    0.8388   -5.8417   27.5264 C   0  0  0  0  0  0  0  0  0  0  0  0
   -2.0709   -7.6637   18.7817 C   0  0  0  0  0  0  0  0  0  0  0  0
   -0.5279   -8.2168   17.0717 C   0  0  0  0  0  0  0  0  0  0  0  0
    6.9694   -4.0191   27.8190 C   0  0  0  0  0  0  0  0  0  0  0  0
    5.1733   -4.5469   29.8123 C   0  0  0  0  0  0  0  0  0  0  0  0
   -1.7508  -11.3016   18.6072 C   0  0  0  0  0  0  0  0  0  0  0  0
    1.7497   -5.6771   26.4971 C   0  0  0  0  0  0  0  0  0  0  0  0
   -1.5799   -9.9322   18.3468 C   0  0  0  0  0  0  0  0  0  0  0  0
   -1.0871  -12.2214   17.8851 C   0  0  0  0  0  0  0  0  0  0  0  0
   -2.2706   -8.9669   19.0691 C   0  0  0  0  0  0  0  0  0  0  0  0
    3.0279   -5.3073   26.8197 C   0  0  0  0  0  0  0  0  0  0  0  0
    7.3282   -3.8948   29.1186 C   0  0  0  0  0  0  0  0  0  0  0  0
  1  3  4  0
  1  7  4  0
  2  3  1  0
  2  6  4  0
  2 16  4  0
  3 22  4  0
  4  9  4  0
  4 10  1  0
  4 20  4  0
  5 16  4  0
  5 23  4  0
  6 15  4  0
  7 12  4  0
  8 13  4  0
  8 14  4  0
  9 11  4  0
 11 14  4  0
 11 19  4  0
 12 18  4  0
 13 21  4  0
 15 23  4  0
 17 19  4  0
 17 20  4  0
 18 22  4  0
 19 21  4  0
M  END
$$$$

 Created by Python create_sdf_string function

 23 25  0  0  0  0  0  0  0  0999 V2000
    2.4610   -5.3070   29.1240 C   0  0  0  0  0  0  0  0  0  0  0  0
    4.7710   -4.6952   28.4803 C   0  0  0  0  0  0  0  0  0  0  0  0
    3.4047   -5.1087   28.1314 C   0  0  0  0  0  0  0  0  0  0  0  0
   -0.2234  -11.8615   16.8874 C   0  0  0  0  0  0  0  0  0  0  0  0
    6.4491   -4.1532   30.1213 C   0  0  0  0  0  0  0  0  0  0  0  0
    5.7060   -4.4340   27.4975 C   0  0  0  0  0  0  0  0  0  0  0  0
    1.1818   -5.6612   28.8399 C   0  0  0  0  0  0  0  0  0  0  0  0
   -1.2067   -7.3287   17.7772 C   0  0  0  0  0  0  0  0  0  0  0  0
   -0.0206  -10.5585   16.6210 C   0  0  0  0  0  0  0  0  0  0  0  0
    0.3696  -12.7626   16.2169 O   0  0  0  0  0  0  0  0  0  0  0  0
   -0.6895   -9.5676   17.3297 C   0  0  0  0  0  0  0  0  0  0  0  0
    0.8388   -5.8417   27.5264 C   0  0  0  0  0  0  0  0  0  0  0  0
   -2.0709   -7.6637   18.7817 C   0  0  0  0  0  0  0  0  0  0  0  0
   -0.5279   -8.2168   17.0717 C   0  0  0  0  0  0  0  0  0  0  0  0
    6.9694   -4.0191   27.8190 C   0  0  0  0  0  0  0  0  0  0  0  0
    5.1733   -4.5469   29.8123 C   0  0  0  0  0  0  0  0  0  0  0  0
   -1.7508  -11.3016   18.6072 C   0  0  0  0  0  0  0  0  0  0  0  0
    1.7497   -5.6771   26.4971 C   0  0  0  0  0  0  0  0  0  0  0  0
   -1.5799   -9.9322   18.3468 C   0  0  0  0  0  0  0  0  0  0  0  0
   -1.0871  -12.2214   17.8851 C   0  0  0  0  0  0  0  0  0  0  0  0
   -2.2706   -8.9669   19.0691 C   0  0  0  0  0  0  0  0  0  0  0  0
    3.0279   -5.3073   26.8197 C   0  0  0  0  0  0  0  0  0  0  0  0
    7.3282   -3.8948   29.1186 C   0  0  0  0  0  0  0  0  0  0  0  0
  1  3  4  0
  1  7  4  0
  2  3  1  0
  2  6  4  0
  2 16  4  0
  3 22  4  0
  4  9  4  0
  4 10  1  0
  4 20  4  0
  5 16  4  0
  5 23  4  0
  6 15  4  0
  7 12  4  0
  8 13  4  0
  8 14  4  0
  9 11  4  0
 11 14  4  0
 11 19  4  0
 12 18  4  0
 13 21  4  0
 15 23  4  0
 17 19  4  0
 17 20  4  0
 18 22  4  0
 19 21  4  0
M  END
$$$$

 Created by Python create_sdf_string function

 23 25  0  0  0  0  0  0  0  0999 V2000
    2.4610   -5.3070   29.1240 C   0  0  0  0  0  0  0  0  0  0  0  0
    4.7710   -4.6952   28.4803 C   0  0  0  0  0  0  0  0  0  0  0  0
    3.4047   -5.1087   28.1314 C   0  0  0  0  0  0  0  0  0  0  0  0
   -0.2234  -11.8615   16.8874 C   0  0  0  0  0  0  0  0  0  0  0  0
    6.4491   -4.1532   30.1213 C   0  0  0  0  0  0  0  0  0  0  0  0
    5.7060   -4.4340   27.4975 C   0  0  0  0  0  0  0  0  0  0  0  0
    1.1818   -5.6612   28.8399 C   0  0  0  0  0  0  0  0  0  0  0  0
   -1.2067   -7.3287   17.7772 C   0  0  0  0  0  0  0  0  0  0  0  0
   -0.0206  -10.5585   16.6210 C   0  0  0  0  0  0  0  0  0  0  0  0
    0.3696  -12.7626   16.2169 O   0  0  0  0  0  0  0  0  0  0  0  0
   -0.6895   -9.5676   17.3297 C   0  0  0  0  0  0  0  0  0  0  0  0
    0.8388   -5.8417   27.5264 C   0  0  0  0  0  0  0  0  0  0  0  0
   -2.0709   -7.6637   18.7817 C   0  0  0  0  0  0  0  0  0  0  0  0
   -0.5279   -8.2168   17.0717 C   0  0  0  0  0  0  0  0  0  0  0  0
    6.9694   -4.0191   27.8190 C   0  0  0  0  0  0  0  0  0  0  0  0
    5.1733   -4.5469   29.8123 C   0  0  0  0  0  0  0  0  0  0  0  0
   -1.7508  -11.3016   18.6072 C   0  0  0  0  0  0  0  0  0  0  0  0
    1.7497   -5.6771   26.4971 C   0  0  0  0  0  0  0  0  0  0  0  0
   -1.5799   -9.9322   18.3468 C   0  0  0  0  0  0  0  0  0  0  0  0
   -1.0871  -12.2214   17.8851 C   0  0  0  0  0  0  0  0  0  0  0  0
   -2.2706   -8.9669   19.0691 C   0  0  0  0  0  0  0  0  0  0  0  0
    3.0279   -5.3073   26.8197 C   0  0  0  0  0  0  0  0  0  0  0  0
    7.3282   -3.8948   29.1186 C   0  0  0  0  0  0  0  0  0  0  0  0
  1  3  4  0
  1  7  4  0
  2  3  1  0
  2  6  4  0
  2 16  4  0
  3 22  4  0
  4  9  4  0
  4 10  1  0
  4 20  4  0
  5 16  4  0
  5 23  4  0
  6 15  4  0
  7 12  4  0
  8 13  4  0
  8 14  4  0
  9 11  4  0
 11 14  4  0
 11 19  4  0
 12 18  4  0
 13 21  4  0
 15 23  4  0
 17 19  4  0
 17 20  4  0
 18 22  4  0
 19 21  4  0
M  END
$$$$

 Created by Python create_sdf_string function

 23 25  0  0  0  0  0  0  0  0999 V2000
    2.4610   -5.3070   29.1240 C   0  0  0  0  0  0  0  0  0  0  0  0
    4.7710   -4.6952   28.4803 C   0  0  0  0  0  0  0  0  0  0  0  0
    3.4047   -5.1087   28.1314 C   0  0  0  0  0  0  0  0  0  0  0  0
   -0.2234  -11.8615   16.8874 C   0  0  0  0  0  0  0  0  0  0  0  0
    6.4491   -4.1532   30.1213 C   0  0  0  0  0  0  0  0  0  0  0  0
    5.7060   -4.4340   27.4975 C   0  0  0  0  0  0  0  0  0  0  0  0
    1.1818   -5.6612   28.8399 C   0  0  0  0  0  0  0  0  0  0  0  0
   -1.2067   -7.3287   17.7772 C   0  0  0  0  0  0  0  0  0  0  0  0
   -0.0206  -10.5585   16.6210 C   0  0  0  0  0  0  0  0  0  0  0  0
    0.3696  -12.7626   16.2169 O   0  0  0  0  0  0  0  0  0  0  0  0
   -0.6895   -9.5676   17.3297 C   0  0  0  0  0  0  0  0  0  0  0  0
    0.8388   -5.8417   27.5264 C   0  0  0  0  0  0  0  0  0  0  0  0
   -2.0709   -7.6637   18.7817 C   0  0  0  0  0  0  0  0  0  0  0  0
   -0.5279   -8.2168   17.0717 C   0  0  0  0  0  0  0  0  0  0  0  0
    6.9694   -4.0191   27.8190 C   0  0  0  0  0  0  0  0  0  0  0  0
    5.1733   -4.5469   29.8123 C   0  0  0  0  0  0  0  0  0  0  0  0
   -1.7508  -11.3016   18.6072 C   0  0  0  0  0  0  0  0  0  0  0  0
    1.7497   -5.6771   26.4971 C   0  0  0  0  0  0  0  0  0  0  0  0
   -1.5799   -9.9322   18.3468 C   0  0  0  0  0  0  0  0  0  0  0  0
   -1.0871  -12.2214   17.8851 C   0  0  0  0  0  0  0  0  0  0  0  0
   -2.2706   -8.9669   19.0691 C   0  0  0  0  0  0  0  0  0  0  0  0
    3.0279   -5.3073   26.8197 C   0  0  0  0  0  0  0  0  0  0  0  0
    7.3282   -3.8948   29.1186 C   0  0  0  0  0  0  0  0  0  0  0  0
  1  3  4  0
  1  7  4  0
  2  3  1  0
  2  6  4  0
  2 16  4  0
  3 22  4  0
  4  9  4  0
  4 10  1  0
  4 20  4  0
  5 16  4  0
  5 23  4  0
  6 15  4  0
  7 12  4  0
  8 13  4  0
  8 14  4  0
  9 11  4  0
 11 14  4  0
 11 19  4  0
 12 18  4  0
 13 21  4  0
 15 23  4  0
 17 19  4  0
 17 20  4  0
 18 22  4  0
 19 21  4  0
M  END
$$$$

 Created by Python create_sdf_string function

 23 25  0  0  0  0  0  0  0  0999 V2000
    2.4610   -5.3070   29.1240 C   0  0  0  0  0  0  0  0  0  0  0  0
    4.7710   -4.6952   28.4803 C   0  0  0  0  0  0  0  0  0  0  0  0
    3.4047   -5.1087   28.1314 C   0  0  0  0  0  0  0  0  0  0  0  0
   -0.2234  -11.8615   16.8874 C   0  0  0  0  0  0  0  0  0  0  0  0
    6.4491   -4.1532   30.1213 C   0  0  0  0  0  0  0  0  0  0  0  0
    5.7060   -4.4340   27.4975 C   0  0  0  0  0  0  0  0  0  0  0  0
    1.1818   -5.6612   28.8399 C   0  0  0  0  0  0  0  0  0  0  0  0
   -1.2067   -7.3287   17.7772 C   0  0  0  0  0  0  0  0  0  0  0  0
   -0.0206  -10.5585   16.6210 C   0  0  0  0  0  0  0  0  0  0  0  0
    0.3696  -12.7626   16.2169 O   0  0  0  0  0  0  0  0  0  0  0  0
   -0.6895   -9.5676   17.3297 C   0  0  0  0  0  0  0  0  0  0  0  0
    0.8388   -5.8417   27.5264 C   0  0  0  0  0  0  0  0  0  0  0  0
   -2.0709   -7.6637   18.7817 C   0  0  0  0  0  0  0  0  0  0  0  0
   -0.5279   -8.2168   17.0717 C   0  0  0  0  0  0  0  0  0  0  0  0
    6.9694   -4.0191   27.8190 C   0  0  0  0  0  0  0  0  0  0  0  0
    5.1733   -4.5469   29.8123 C   0  0  0  0  0  0  0  0  0  0  0  0
   -1.7508  -11.3016   18.6072 C   0  0  0  0  0  0  0  0  0  0  0  0
    1.7497   -5.6771   26.4971 C   0  0  0  0  0  0  0  0  0  0  0  0
   -1.5799   -9.9322   18.3468 C   0  0  0  0  0  0  0  0  0  0  0  0
   -1.0871  -12.2214   17.8851 C   0  0  0  0  0  0  0  0  0  0  0  0
   -2.2706   -8.9669   19.0691 C   0  0  0  0  0  0  0  0  0  0  0  0
    3.0279   -5.3073   26.8197 C   0  0  0  0  0  0  0  0  0  0  0  0
    7.3282   -3.8948   29.1186 C   0  0  0  0  0  0  0  0  0  0  0  0
  1  3  4  0
  1  7  4  0
  2  3  1  0
  2  6  4  0
  2 16  4  0
  3 22  4  0
  4  9  4  0
  4 10  1  0
  4 20  4  0
  5 16  4  0
  5 23  4  0
  6 15  4  0
  7 12  4  0
  8 13  4  0
  8 14  4  0
  9 11  4  0
 11 14  4  0
 11 19  4  0
 12 18  4  0
 13 21  4  0
 15 23  4  0
 17 19  4  0
 17 20  4  0
 18 22  4  0
 19 21  4  0
M  END
$$$$

 Created by Python create_sdf_string function

 23 25  0  0  0  0  0  0  0  0999 V2000
    2.4610   -5.3070   29.1240 C   0  0  0  0  0  0  0  0  0  0  0  0
    4.7710   -4.6952   28.4803 C   0  0  0  0  0  0  0  0  0  0  0  0
    3.4047   -5.1087   28.1314 C   0  0  0  0  0  0  0  0  0  0  0  0
   -0.2234  -11.8615   16.8874 C   0  0  0  0  0  0  0  0  0  0  0  0
    6.4491   -4.1532   30.1213 C   0  0  0  0  0  0  0  0  0  0  0  0
    5.7060   -4.4340   27.4975 C   0  0  0  0  0  0  0  0  0  0  0  0
    1.1818   -5.6612   28.8399 C   0  0  0  0  0  0  0  0  0  0  0  0
   -1.2067   -7.3287   17.7772 C   0  0  0  0  0  0  0  0  0  0  0  0
   -0.0206  -10.5585   16.6210 C   0  0  0  0  0  0  0  0  0  0  0  0
    0.3696  -12.7626   16.2169 O   0  0  0  0  0  0  0  0  0  0  0  0
   -0.6895   -9.5676   17.3297 C   0  0  0  0  0  0  0  0  0  0  0  0
    0.8388   -5.8417   27.5264 C   0  0  0  0  0  0  0  0  0  0  0  0
   -2.0709   -7.6637   18.7817 C   0  0  0  0  0  0  0  0  0  0  0  0
   -0.5279   -8.2168   17.0717 C   0  0  0  0  0  0  0  0  0  0  0  0
    6.9694   -4.0191   27.8190 C   0  0  0  0  0  0  0  0  0  0  0  0
    5.1733   -4.5469   29.8123 C   0  0  0  0  0  0  0  0  0  0  0  0
   -1.7508  -11.3016   18.6072 C   0  0  0  0  0  0  0  0  0  0  0  0
    1.7497   -5.6771   26.4971 C   0  0  0  0  0  0  0  0  0  0  0  0
   -1.5799   -9.9322   18.3468 C   0  0  0  0  0  0  0  0  0  0  0  0
   -1.0871  -12.2214   17.8851 C   0  0  0  0  0  0  0  0  0  0  0  0
   -2.2706   -8.9669   19.0691 C   0  0  0  0  0  0  0  0  0  0  0  0
    3.0279   -5.3073   26.8197 C   0  0  0  0  0  0  0  0  0  0  0  0
    7.3282   -3.8948   29.1186 C   0  0  0  0  0  0  0  0  0  0  0  0
  1  3  4  0
  1  7  4  0
  2  3  1  0
  2  6  4  0
  2 16  4  0
  3 22  4  0
  4  9  4  0
  4 10  1  0
  4 20  4  0
  5 16  4  0
  5 23  4  0
  6 15  4  0
  7 12  4  0
  8 13  4  0
  8 14  4  0
  9 11  4  0
 11 14  4  0
 11 19  4  0
 12 18  4  0
 13 21  4  0
 15 23  4  0
 17 19  4  0
 17 20  4  0
 18 22  4  0
 19 21  4  0
M  END
$$$$

 Created by Python create_sdf_string function

 23 25  0  0  0  0  0  0  0  0999 V2000
    2.4610   -5.3070   29.1240 C   0  0  0  0  0  0  0  0  0  0  0  0
    4.7710   -4.6952   28.4803 C   0  0  0  0  0  0  0  0  0  0  0  0
    3.4047   -5.1087   28.1314 C   0  0  0  0  0  0  0  0  0  0  0  0
   -0.2234  -11.8615   16.8874 C   0  0  0  0  0  0  0  0  0  0  0  0
    6.4491   -4.1532   30.1213 C   0  0  0  0  0  0  0  0  0  0  0  0
    5.7060   -4.4340   27.4975 C   0  0  0  0  0  0  0  0  0  0  0  0
    1.1818   -5.6612   28.8399 C   0  0  0  0  0  0  0  0  0  0  0  0
   -1.2067   -7.3287   17.7772 C   0  0  0  0  0  0  0  0  0  0  0  0
   -0.0206  -10.5585   16.6210 C   0  0  0  0  0  0  0  0  0  0  0  0
    0.3696  -12.7626   16.2169 O   0  0  0  0  0  0  0  0  0  0  0  0
   -0.6895   -9.5676   17.3297 C   0  0  0  0  0  0  0  0  0  0  0  0
    0.8388   -5.8417   27.5264 C   0  0  0  0  0  0  0  0  0  0  0  0
   -2.0709   -7.6637   18.7817 C   0  0  0  0  0  0  0  0  0  0  0  0
   -0.5279   -8.2168   17.0717 C   0  0  0  0  0  0  0  0  0  0  0  0
    6.9694   -4.0191   27.8190 C   0  0  0  0  0  0  0  0  0  0  0  0
    5.1733   -4.5469   29.8123 C   0  0  0  0  0  0  0  0  0  0  0  0
   -1.7508  -11.3016   18.6072 C   0  0  0  0  0  0  0  0  0  0  0  0
    1.7497   -5.6771   26.4971 C   0  0  0  0  0  0  0  0  0  0  0  0
   -1.5799   -9.9322   18.3468 C   0  0  0  0  0  0  0  0  0  0  0  0
   -1.0871  -12.2214   17.8851 C   0  0  0  0  0  0  0  0  0  0  0  0
   -2.2706   -8.9669   19.0691 C   0  0  0  0  0  0  0  0  0  0  0  0
    3.0279   -5.3073   26.8197 C   0  0  0  0  0  0  0  0  0  0  0  0
    7.3282   -3.8948   29.1186 C   0  0  0  0  0  0  0  0  0  0  0  0
  1  3  4  0
  1  7  4  0
  2  3  1  0
  2  6  4  0
  2 16  4  0
  3 22  4  0
  4  9  4  0
  4 10  1  0
  4 20  4  0
  5 16  4  0
  5 23  4  0
  6 15  4  0
  7 12  4  0
  8 13  4  0
  8 14  4  0
  9 11  4  0
 11 14  4  0
 11 19  4  0
 12 18  4  0
 13 21  4  0
 15 23  4  0
 17 19  4  0
 17 20  4  0
 18 22  4  0
 19 21  4  0
M  END
$$$$

 Created by Python create_sdf_string function

 23 25  0  0  0  0  0  0  0  0999 V2000
    2.4610   -5.3070   29.1240 C   0  0  0  0  0  0  0  0  0  0  0  0
    4.7710   -4.6952   28.4803 C   0  0  0  0  0  0  0  0  0  0  0  0
    3.4047   -5.1087   28.1314 C   0  0  0  0  0  0  0  0  0  0  0  0
   -0.2234  -11.8615   16.8874 C   0  0  0  0  0  0  0  0  0  0  0  0
    6.4491   -4.1532   30.1213 C   0  0  0  0  0  0  0  0  0  0  0  0
    5.7060   -4.4340   27.4975 C   0  0  0  0  0  0  0  0  0  0  0  0
    1.1818   -5.6612   28.8399 C   0  0  0  0  0  0  0  0  0  0  0  0
   -1.2067   -7.3287   17.7772 C   0  0  0  0  0  0  0  0  0  0  0  0
   -0.0206  -10.5585   16.6210 C   0  0  0  0  0  0  0  0  0  0  0  0
    0.3696  -12.7626   16.2169 O   0  0  0  0  0  0  0  0  0  0  0  0
   -0.6895   -9.5676   17.3297 C   0  0  0  0  0  0  0  0  0  0  0  0
    0.8388   -5.8417   27.5264 C   0  0  0  0  0  0  0  0  0  0  0  0
   -2.0709   -7.6637   18.7817 C   0  0  0  0  0  0  0  0  0  0  0  0
   -0.5279   -8.2168   17.0717 C   0  0  0  0  0  0  0  0  0  0  0  0
    6.9694   -4.0191   27.8190 C   0  0  0  0  0  0  0  0  0  0  0  0
    5.1733   -4.5469   29.8123 C   0  0  0  0  0  0  0  0  0  0  0  0
   -1.7508  -11.3016   18.6072 C   0  0  0  0  0  0  0  0  0  0  0  0
    1.7497   -5.6771   26.4971 C   0  0  0  0  0  0  0  0  0  0  0  0
   -1.5799   -9.9322   18.3468 C   0  0  0  0  0  0  0  0  0  0  0  0
   -1.0871  -12.2214   17.8851 C   0  0  0  0  0  0  0  0  0  0  0  0
   -2.2706   -8.9669   19.0691 C   0  0  0  0  0  0  0  0  0  0  0  0
    3.0279   -5.3073   26.8197 C   0  0  0  0  0  0  0  0  0  0  0  0
    7.3282   -3.8948   29.1186 C   0  0  0  0  0  0  0  0  0  0  0  0
  1  3  4  0
  1  7  4  0
  2  3  1  0
  2  6  4  0
  2 16  4  0
  3 22  4  0
  4  9  4  0
  4 10  1  0
  4 20  4  0
  5 16  4  0
  5 23  4  0
  6 15  4  0
  7 12  4  0
  8 13  4  0
  8 14  4  0
  9 11  4  0
 11 14  4  0
 11 19  4  0
 12 18  4  0
 13 21  4  0
 15 23  4  0
 17 19  4  0
 17 20  4  0
 18 22  4  0
 19 21  4  0
M  END
$$$$

 Created by Python create_sdf_string function

 23 25  0  0  0  0  0  0  0  0999 V2000
    2.4610   -5.3070   29.1240 C   0  0  0  0  0  0  0  0  0  0  0  0
    4.7710   -4.6952   28.4803 C   0  0  0  0  0  0  0  0  0  0  0  0
    3.4047   -5.1087   28.1314 C   0  0  0  0  0  0  0  0  0  0  0  0
   -0.2234  -11.8615   16.8874 C   0  0  0  0  0  0  0  0  0  0  0  0
    6.4491   -4.1532   30.1213 C   0  0  0  0  0  0  0  0  0  0  0  0
    5.7060   -4.4340   27.4975 C   0  0  0  0  0  0  0  0  0  0  0  0
    1.1818   -5.6612   28.8399 C   0  0  0  0  0  0  0  0  0  0  0  0
   -1.2067   -7.3287   17.7772 C   0  0  0  0  0  0  0  0  0  0  0  0
   -0.0206  -10.5585   16.6210 C   0  0  0  0  0  0  0  0  0  0  0  0
    0.3696  -12.7626   16.2169 O   0  0  0  0  0  0  0  0  0  0  0  0
   -0.6895   -9.5676   17.3297 C   0  0  0  0  0  0  0  0  0  0  0  0
    0.8388   -5.8417   27.5264 C   0  0  0  0  0  0  0  0  0  0  0  0
   -2.0709   -7.6637   18.7817 C   0  0  0  0  0  0  0  0  0  0  0  0
   -0.5279   -8.2168   17.0717 C   0  0  0  0  0  0  0  0  0  0  0  0
    6.9694   -4.0191   27.8190 C   0  0  0  0  0  0  0  0  0  0  0  0
    5.1733   -4.5469   29.8123 C   0  0  0  0  0  0  0  0  0  0  0  0
   -1.7508  -11.3016   18.6072 C   0  0  0  0  0  0  0  0  0  0  0  0
    1.7497   -5.6771   26.4971 C   0  0  0  0  0  0  0  0  0  0  0  0
   -1.5799   -9.9322   18.3468 C   0  0  0  0  0  0  0  0  0  0  0  0
   -1.0871  -12.2214   17.8851 C   0  0  0  0  0  0  0  0  0  0  0  0
   -2.2706   -8.9669   19.0691 C   0  0  0  0  0  0  0  0  0  0  0  0
    3.0279   -5.3073   26.8197 C   0  0  0  0  0  0  0  0  0  0  0  0
    7.3282   -3.8948   29.1186 C   0  0  0  0  0  0  0  0  0  0  0  0
  1  3  4  0
  1  7  4  0
  2  3  1  0
  2  6  4  0
  2 16  4  0
  3 22  4  0
  4  9  4  0
  4 10  1  0
  4 20  4  0
  5 16  4  0
  5 23  4  0
  6 15  4  0
  7 12  4  0
  8 13  4  0
  8 14  4  0
  9 11  4  0
 11 14  4  0
 11 19  4  0
 12 18  4  0
 13 21  4  0
 15 23  4  0
 17 19  4  0
 17 20  4  0
 18 22  4  0
 19 21  4  0
M  END
$$$$

 Created by Python create_sdf_string function

 23 25  0  0  0  0  0  0  0  0999 V2000
    2.4610   -5.3070   29.1240 C   0  0  0  0  0  0  0  0  0  0  0  0
    4.7710   -4.6952   28.4803 C   0  0  0  0  0  0  0  0  0  0  0  0
    3.4047   -5.1087   28.1314 C   0  0  0  0  0  0  0  0  0  0  0  0
   -0.2234  -11.8615   16.8874 C   0  0  0  0  0  0  0  0  0  0  0  0
    6.4491   -4.1532   30.1213 C   0  0  0  0  0  0  0  0  0  0  0  0
    5.7060   -4.4340   27.4975 C   0  0  0  0  0  0  0  0  0  0  0  0
    1.1818   -5.6612   28.8399 C   0  0  0  0  0  0  0  0  0  0  0  0
   -1.2067   -7.3287   17.7772 C   0  0  0  0  0  0  0  0  0  0  0  0
   -0.0206  -10.5585   16.6210 C   0  0  0  0  0  0  0  0  0  0  0  0
    0.3696  -12.7626   16.2169 O   0  0  0  0  0  0  0  0  0  0  0  0
   -0.6895   -9.5676   17.3297 C   0  0  0  0  0  0  0  0  0  0  0  0
    0.8388   -5.8417   27.5264 C   0  0  0  0  0  0  0  0  0  0  0  0
   -2.0709   -7.6637   18.7817 C   0  0  0  0  0  0  0  0  0  0  0  0
   -0.5279   -8.2168   17.0717 C   0  0  0  0  0  0  0  0  0  0  0  0
    6.9694   -4.0191   27.8190 C   0  0  0  0  0  0  0  0  0  0  0  0
    5.1733   -4.5469   29.8123 C   0  0  0  0  0  0  0  0  0  0  0  0
   -1.7508  -11.3016   18.6072 C   0  0  0  0  0  0  0  0  0  0  0  0
    1.7497   -5.6771   26.4971 C   0  0  0  0  0  0  0  0  0  0  0  0
   -1.5799   -9.9322   18.3468 C   0  0  0  0  0  0  0  0  0  0  0  0
   -1.0871  -12.2214   17.8851 C   0  0  0  0  0  0  0  0  0  0  0  0
   -2.2706   -8.9669   19.0691 C   0  0  0  0  0  0  0  0  0  0  0  0
    3.0279   -5.3073   26.8197 C   0  0  0  0  0  0  0  0  0  0  0  0
    7.3282   -3.8948   29.1186 C   0  0  0  0  0  0  0  0  0  0  0  0
  1  3  4  0
  1  7  4  0
  2  3  1  0
  2  6  4  0
  2 16  4  0
  3 22  4  0
  4  9  4  0
  4 10  1  0
  4 20  4  0
  5 16  4  0
  5 23  4  0
  6 15  4  0
  7 12  4  0
  8 13  4  0
  8 14  4  0
  9 11  4  0
 11 14  4  0
 11 19  4  0
 12 18  4  0
 13 21  4  0
 15 23  4  0
 17 19  4  0
 17 20  4  0
 18 22  4  0
 19 21  4  0
M  END
$$$$

 Created by Python create_sdf_string function

 23 25  0  0  0  0  0  0  0  0999 V2000
    2.4610   -5.3070   29.1240 C   0  0  0  0  0  0  0  0  0  0  0  0
    4.7710   -4.6952   28.4803 C   0  0  0  0  0  0  0  0  0  0  0  0
    3.4047   -5.1087   28.1314 C   0  0  0  0  0  0  0  0  0  0  0  0
   -0.2234  -11.8615   16.8874 C   0  0  0  0  0  0  0  0  0  0  0  0
    6.4491   -4.1532   30.1213 C   0  0  0  0  0  0  0  0  0  0  0  0
    5.7060   -4.4340   27.4975 C   0  0  0  0  0  0  0  0  0  0  0  0
    1.1818   -5.6612   28.8399 C   0  0  0  0  0  0  0  0  0  0  0  0
   -1.2067   -7.3287   17.7772 C   0  0  0  0  0  0  0  0  0  0  0  0
   -0.0206  -10.5585   16.6210 C   0  0  0  0  0  0  0  0  0  0  0  0
    0.3696  -12.7626   16.2169 O   0  0  0  0  0  0  0  0  0  0  0  0
   -0.6895   -9.5676   17.3297 C   0  0  0  0  0  0  0  0  0  0  0  0
    0.8388   -5.8417   27.5264 C   0  0  0  0  0  0  0  0  0  0  0  0
   -2.0709   -7.6637   18.7817 C   0  0  0  0  0  0  0  0  0  0  0  0
   -0.5279   -8.2168   17.0717 C   0  0  0  0  0  0  0  0  0  0  0  0
    6.9694   -4.0191   27.8190 C   0  0  0  0  0  0  0  0  0  0  0  0
    5.1733   -4.5469   29.8123 C   0  0  0  0  0  0  0  0  0  0  0  0
   -1.7508  -11.3016   18.6072 C   0  0  0  0  0  0  0  0  0  0  0  0
    1.7497   -5.6771   26.4971 C   0  0  0  0  0  0  0  0  0  0  0  0
   -1.5799   -9.9322   18.3468 C   0  0  0  0  0  0  0  0  0  0  0  0
   -1.0871  -12.2214   17.8851 C   0  0  0  0  0  0  0  0  0  0  0  0
   -2.2706   -8.9669   19.0691 C   0  0  0  0  0  0  0  0  0  0  0  0
    3.0279   -5.3073   26.8197 C   0  0  0  0  0  0  0  0  0  0  0  0
    7.3282   -3.8948   29.1186 C   0  0  0  0  0  0  0  0  0  0  0  0
  1  3  4  0
  1  7  4  0
  2  3  1  0
  2  6  4  0
  2 16  4  0
  3 22  4  0
  4  9  4  0
  4 10  1  0
  4 20  4  0
  5 16  4  0
  5 23  4  0
  6 15  4  0
  7 12  4  0
  8 13  4  0
  8 14  4  0
  9 11  4  0
 11 14  4  0
 11 19  4  0
 12 18  4  0
 13 21  4  0
 15 23  4  0
 17 19  4  0
 17 20  4  0
 18 22  4  0
 19 21  4  0
M  END
$$$$

 Created by Python create_sdf_string function

 23 25  0  0  0  0  0  0  0  0999 V2000
    2.4610   -5.3070   29.1240 C   0  0  0  0  0  0  0  0  0  0  0  0
    4.7710   -4.6952   28.4803 C   0  0  0  0  0  0  0  0  0  0  0  0
    3.4047   -5.1087   28.1314 C   0  0  0  0  0  0  0  0  0  0  0  0
   -0.2234  -11.8615   16.8874 C   0  0  0  0  0  0  0  0  0  0  0  0
    6.4491   -4.1532   30.1213 C   0  0  0  0  0  0  0  0  0  0  0  0
    5.7060   -4.4340   27.4975 C   0  0  0  0  0  0  0  0  0  0  0  0
    1.1818   -5.6612   28.8399 C   0  0  0  0  0  0  0  0  0  0  0  0
   -1.2067   -7.3287   17.7772 C   0  0  0  0  0  0  0  0  0  0  0  0
   -0.0206  -10.5585   16.6210 C   0  0  0  0  0  0  0  0  0  0  0  0
    0.3696  -12.7626   16.2169 O   0  0  0  0  0  0  0  0  0  0  0  0
   -0.6895   -9.5676   17.3297 C   0  0  0  0  0  0  0  0  0  0  0  0
    0.8388   -5.8417   27.5264 C   0  0  0  0  0  0  0  0  0  0  0  0
   -2.0709   -7.6637   18.7817 C   0  0  0  0  0  0  0  0  0  0  0  0
   -0.5279   -8.2168   17.0717 C   0  0  0  0  0  0  0  0  0  0  0  0
    6.9694   -4.0191   27.8190 C   0  0  0  0  0  0  0  0  0  0  0  0
    5.1733   -4.5469   29.8123 C   0  0  0  0  0  0  0  0  0  0  0  0
   -1.7508  -11.3016   18.6072 C   0  0  0  0  0  0  0  0  0  0  0  0
    1.7497   -5.6771   26.4971 C   0  0  0  0  0  0  0  0  0  0  0  0
   -1.5799   -9.9322   18.3468 C   0  0  0  0  0  0  0  0  0  0  0  0
   -1.0871  -12.2214   17.8851 C   0  0  0  0  0  0  0  0  0  0  0  0
   -2.2706   -8.9669   19.0691 C   0  0  0  0  0  0  0  0  0  0  0  0
    3.0279   -5.3073   26.8197 C   0  0  0  0  0  0  0  0  0  0  0  0
    7.3282   -3.8948   29.1186 C   0  0  0  0  0  0  0  0  0  0  0  0
  1  3  4  0
  1  7  4  0
  2  3  1  0
  2  6  4  0
  2 16  4  0
  3 22  4  0
  4  9  4  0
  4 10  1  0
  4 20  4  0
  5 16  4  0
  5 23  4  0
  6 15  4  0
  7 12  4  0
  8 13  4  0
  8 14  4  0
  9 11  4  0
 11 14  4  0
 11 19  4  0
 12 18  4  0
 13 21  4  0
 15 23  4  0
 17 19  4  0
 17 20  4  0
 18 22  4  0
 19 21  4  0
M  END
$$$$

 Created by Python create_sdf_string function

 23 25  0  0  0  0  0  0  0  0999 V2000
    2.4610   -5.3070   29.1240 C   0  0  0  0  0  0  0  0  0  0  0  0
    4.7710   -4.6952   28.4803 C   0  0  0  0  0  0  0  0  0  0  0  0
    3.4047   -5.1087   28.1314 C   0  0  0  0  0  0  0  0  0  0  0  0
   -0.2234  -11.8615   16.8874 C   0  0  0  0  0  0  0  0  0  0  0  0
    6.4491   -4.1532   30.1213 C   0  0  0  0  0  0  0  0  0  0  0  0
    5.7060   -4.4340   27.4975 C   0  0  0  0  0  0  0  0  0  0  0  0
    1.1818   -5.6612   28.8399 C   0  0  0  0  0  0  0  0  0  0  0  0
   -1.2067   -7.3287   17.7772 C   0  0  0  0  0  0  0  0  0  0  0  0
   -0.0206  -10.5585   16.6210 C   0  0  0  0  0  0  0  0  0  0  0  0
    0.3696  -12.7626   16.2169 O   0  0  0  0  0  0  0  0  0  0  0  0
   -0.6895   -9.5676   17.3297 C   0  0  0  0  0  0  0  0  0  0  0  0
    0.8388   -5.8417   27.5264 C   0  0  0  0  0  0  0  0  0  0  0  0
   -2.0709   -7.6637   18.7817 C   0  0  0  0  0  0  0  0  0  0  0  0
   -0.5279   -8.2168   17.0717 C   0  0  0  0  0  0  0  0  0  0  0  0
    6.9694   -4.0191   27.8190 C   0  0  0  0  0  0  0  0  0  0  0  0
    5.1733   -4.5469   29.8123 C   0  0  0  0  0  0  0  0  0  0  0  0
   -1.7508  -11.3016   18.6072 C   0  0  0  0  0  0  0  0  0  0  0  0
    1.7497   -5.6771   26.4971 C   0  0  0  0  0  0  0  0  0  0  0  0
   -1.5799   -9.9322   18.3468 C   0  0  0  0  0  0  0  0  0  0  0  0
   -1.0871  -12.2214   17.8851 C   0  0  0  0  0  0  0  0  0  0  0  0
   -2.2706   -8.9669   19.0691 C   0  0  0  0  0  0  0  0  0  0  0  0
    3.0279   -5.3073   26.8197 C   0  0  0  0  0  0  0  0  0  0  0  0
    7.3282   -3.8948   29.1186 C   0  0  0  0  0  0  0  0  0  0  0  0
  1  3  4  0
  1  7  4  0
  2  3  1  0
  2  6  4  0
  2 16  4  0
  3 22  4  0
  4  9  4  0
  4 10  1  0
  4 20  4  0
  5 16  4  0
  5 23  4  0
  6 15  4  0
  7 12  4  0
  8 13  4  0
  8 14  4  0
  9 11  4  0
 11 14  4  0
 11 19  4  0
 12 18  4  0
 13 21  4  0
 15 23  4  0
 17 19  4  0
 17 20  4  0
 18 22  4  0
 19 21  4  0
M  END
$$$$

 Created by Python create_sdf_string function

 23 25  0  0  0  0  0  0  0  0999 V2000
    2.4610   -5.3070   29.1240 C   0  0  0  0  0  0  0  0  0  0  0  0
    4.7710   -4.6952   28.4803 C   0  0  0  0  0  0  0  0  0  0  0  0
    3.4047   -5.1087   28.1314 C   0  0  0  0  0  0  0  0  0  0  0  0
   -0.2234  -11.8615   16.8874 C   0  0  0  0  0  0  0  0  0  0  0  0
    6.4491   -4.1532   30.1213 C   0  0  0  0  0  0  0  0  0  0  0  0
    5.7060   -4.4340   27.4975 C   0  0  0  0  0  0  0  0  0  0  0  0
    1.1818   -5.6612   28.8399 C   0  0  0  0  0  0  0  0  0  0  0  0
   -1.2067   -7.3287   17.7772 C   0  0  0  0  0  0  0  0  0  0  0  0
   -0.0206  -10.5585   16.6210 C   0  0  0  0  0  0  0  0  0  0  0  0
    0.3696  -12.7626   16.2169 O   0  0  0  0  0  0  0  0  0  0  0  0
   -0.6895   -9.5676   17.3297 C   0  0  0  0  0  0  0  0  0  0  0  0
    0.8388   -5.8417   27.5264 C   0  0  0  0  0  0  0  0  0  0  0  0
   -2.0709   -7.6637   18.7817 C   0  0  0  0  0  0  0  0  0  0  0  0
   -0.5279   -8.2168   17.0717 C   0  0  0  0  0  0  0  0  0  0  0  0
    6.9694   -4.0191   27.8190 C   0  0  0  0  0  0  0  0  0  0  0  0
    5.1733   -4.5469   29.8123 C   0  0  0  0  0  0  0  0  0  0  0  0
   -1.7508  -11.3016   18.6072 C   0  0  0  0  0  0  0  0  0  0  0  0
    1.7497   -5.6771   26.4971 C   0  0  0  0  0  0  0  0  0  0  0  0
   -1.5799   -9.9322   18.3468 C   0  0  0  0  0  0  0  0  0  0  0  0
   -1.0871  -12.2214   17.8851 C   0  0  0  0  0  0  0  0  0  0  0  0
   -2.2706   -8.9669   19.0691 C   0  0  0  0  0  0  0  0  0  0  0  0
    3.0279   -5.3073   26.8197 C   0  0  0  0  0  0  0  0  0  0  0  0
    7.3282   -3.8948   29.1186 C   0  0  0  0  0  0  0  0  0  0  0  0
  1  3  4  0
  1  7  4  0
  2  3  1  0
  2  6  4  0
  2 16  4  0
  3 22  4  0
  4  9  4  0
  4 10  1  0
  4 20  4  0
  5 16  4  0
  5 23  4  0
  6 15  4  0
  7 12  4  0
  8 13  4  0
  8 14  4  0
  9 11  4  0
 11 14  4  0
 11 19  4  0
 12 18  4  0
 13 21  4  0
 15 23  4  0
 17 19  4  0
 17 20  4  0
 18 22  4  0
 19 21  4  0
M  END
$$$$

 Created by Python create_sdf_string function

 23 25  0  0  0  0  0  0  0  0999 V2000
    2.4610   -5.3070   29.1240 C   0  0  0  0  0  0  0  0  0  0  0  0
    4.7710   -4.6952   28.4803 C   0  0  0  0  0  0  0  0  0  0  0  0
    3.4047   -5.1087   28.1314 C   0  0  0  0  0  0  0  0  0  0  0  0
   -0.2234  -11.8615   16.8874 C   0  0  0  0  0  0  0  0  0  0  0  0
    6.4491   -4.1532   30.1213 C   0  0  0  0  0  0  0  0  0  0  0  0
    5.7060   -4.4340   27.4975 C   0  0  0  0  0  0  0  0  0  0  0  0
    1.1818   -5.6612   28.8399 C   0  0  0  0  0  0  0  0  0  0  0  0
   -1.2067   -7.3287   17.7772 C   0  0  0  0  0  0  0  0  0  0  0  0
   -0.0206  -10.5585   16.6210 C   0  0  0  0  0  0  0  0  0  0  0  0
    0.3696  -12.7626   16.2169 O   0  0  0  0  0  0  0  0  0  0  0  0
   -0.6895   -9.5676   17.3297 C   0  0  0  0  0  0  0  0  0  0  0  0
    0.8388   -5.8417   27.5264 C   0  0  0  0  0  0  0  0  0  0  0  0
   -2.0709   -7.6637   18.7817 C   0  0  0  0  0  0  0  0  0  0  0  0
   -0.5279   -8.2168   17.0717 C   0  0  0  0  0  0  0  0  0  0  0  0
    6.9694   -4.0191   27.8190 C   0  0  0  0  0  0  0  0  0  0  0  0
    5.1733   -4.5469   29.8123 C   0  0  0  0  0  0  0  0  0  0  0  0
   -1.7508  -11.3016   18.6072 C   0  0  0  0  0  0  0  0  0  0  0  0
    1.7497   -5.6771   26.4971 C   0  0  0  0  0  0  0  0  0  0  0  0
   -1.5799   -9.9322   18.3468 C   0  0  0  0  0  0  0  0  0  0  0  0
   -1.0871  -12.2214   17.8851 C   0  0  0  0  0  0  0  0  0  0  0  0
   -2.2706   -8.9669   19.0691 C   0  0  0  0  0  0  0  0  0  0  0  0
    3.0279   -5.3073   26.8197 C   0  0  0  0  0  0  0  0  0  0  0  0
    7.3282   -3.8948   29.1186 C   0  0  0  0  0  0  0  0  0  0  0  0
  1  3  4  0
  1  7  4  0
  2  3  1  0
  2  6  4  0
  2 16  4  0
  3 22  4  0
  4  9  4  0
  4 10  1  0
  4 20  4  0
  5 16  4  0
  5 23  4  0
  6 15  4  0
  7 12  4  0
  8 13  4  0
  8 14  4  0
  9 11  4  0
 11 14  4  0
 11 19  4  0
 12 18  4  0
 13 21  4  0
 15 23  4  0
 17 19  4  0
 17 20  4  0
 18 22  4  0
 19 21  4  0
M  END
$$$$

 Created by Python create_sdf_string function

 23 25  0  0  0  0  0  0  0  0999 V2000
    2.4610   -5.3070   29.1240 C   0  0  0  0  0  0  0  0  0  0  0  0
    4.7710   -4.6952   28.4803 C   0  0  0  0  0  0  0  0  0  0  0  0
    3.4047   -5.1087   28.1314 C   0  0  0  0  0  0  0  0  0  0  0  0
   -0.2234  -11.8615   16.8874 C   0  0  0  0  0  0  0  0  0  0  0  0
    6.4491   -4.1532   30.1213 C   0  0  0  0  0  0  0  0  0  0  0  0
    5.7060   -4.4340   27.4975 C   0  0  0  0  0  0  0  0  0  0  0  0
    1.1818   -5.6612   28.8399 C   0  0  0  0  0  0  0  0  0  0  0  0
   -1.2067   -7.3287   17.7772 C   0  0  0  0  0  0  0  0  0  0  0  0
   -0.0206  -10.5585   16.6210 C   0  0  0  0  0  0  0  0  0  0  0  0
    0.3696  -12.7626   16.2169 O   0  0  0  0  0  0  0  0  0  0  0  0
   -0.6895   -9.5676   17.3297 C   0  0  0  0  0  0  0  0  0  0  0  0
    0.8388   -5.8417   27.5264 C   0  0  0  0  0  0  0  0  0  0  0  0
   -2.0709   -7.6637   18.7817 C   0  0  0  0  0  0  0  0  0  0  0  0
   -0.5279   -8.2168   17.0717 C   0  0  0  0  0  0  0  0  0  0  0  0
    6.9694   -4.0191   27.8190 C   0  0  0  0  0  0  0  0  0  0  0  0
    5.1733   -4.5469   29.8123 C   0  0  0  0  0  0  0  0  0  0  0  0
   -1.7508  -11.3016   18.6072 C   0  0  0  0  0  0  0  0  0  0  0  0
    1.7497   -5.6771   26.4971 C   0  0  0  0  0  0  0  0  0  0  0  0
   -1.5799   -9.9322   18.3468 C   0  0  0  0  0  0  0  0  0  0  0  0
   -1.0871  -12.2214   17.8851 C   0  0  0  0  0  0  0  0  0  0  0  0
   -2.2706   -8.9669   19.0691 C   0  0  0  0  0  0  0  0  0  0  0  0
    3.0279   -5.3073   26.8197 C   0  0  0  0  0  0  0  0  0  0  0  0
    7.3282   -3.8948   29.1186 C   0  0  0  0  0  0  0  0  0  0  0  0
  1  3  4  0
  1  7  4  0
  2  3  1  0
  2  6  4  0
  2 16  4  0
  3 22  4  0
  4  9  4  0
  4 10  1  0
  4 20  4  0
  5 16  4  0
  5 23  4  0
  6 15  4  0
  7 12  4  0
  8 13  4  0
  8 14  4  0
  9 11  4  0
 11 14  4  0
 11 19  4  0
 12 18  4  0
 13 21  4  0
 15 23  4  0
 17 19  4  0
 17 20  4  0
 18 22  4  0
 19 21  4  0
M  END
$$$$

 Created by Python create_sdf_string function

 23 25  0  0  0  0  0  0  0  0999 V2000
    2.4610   -5.3070   29.1240 C   0  0  0  0  0  0  0  0  0  0  0  0
    4.7710   -4.6952   28.4803 C   0  0  0  0  0  0  0  0  0  0  0  0
    3.4047   -5.1087   28.1314 C   0  0  0  0  0  0  0  0  0  0  0  0
   -0.2234  -11.8615   16.8874 C   0  0  0  0  0  0  0  0  0  0  0  0
    6.4491   -4.1532   30.1213 C   0  0  0  0  0  0  0  0  0  0  0  0
    5.7060   -4.4340   27.4975 C   0  0  0  0  0  0  0  0  0  0  0  0
    1.1818   -5.6612   28.8399 C   0  0  0  0  0  0  0  0  0  0  0  0
   -1.2067   -7.3287   17.7772 C   0  0  0  0  0  0  0  0  0  0  0  0
   -0.0206  -10.5585   16.6210 C   0  0  0  0  0  0  0  0  0  0  0  0
    0.3696  -12.7626   16.2169 O   0  0  0  0  0  0  0  0  0  0  0  0
   -0.6895   -9.5676   17.3297 C   0  0  0  0  0  0  0  0  0  0  0  0
    0.8388   -5.8417   27.5264 C   0  0  0  0  0  0  0  0  0  0  0  0
   -2.0709   -7.6637   18.7817 C   0  0  0  0  0  0  0  0  0  0  0  0
   -0.5279   -8.2168   17.0717 C   0  0  0  0  0  0  0  0  0  0  0  0
    6.9694   -4.0191   27.8190 C   0  0  0  0  0  0  0  0  0  0  0  0
    5.1733   -4.5469   29.8123 C   0  0  0  0  0  0  0  0  0  0  0  0
   -1.7508  -11.3016   18.6072 C   0  0  0  0  0  0  0  0  0  0  0  0
    1.7497   -5.6771   26.4971 C   0  0  0  0  0  0  0  0  0  0  0  0
   -1.5799   -9.9322   18.3468 C   0  0  0  0  0  0  0  0  0  0  0  0
   -1.0871  -12.2214   17.8851 C   0  0  0  0  0  0  0  0  0  0  0  0
   -2.2706   -8.9669   19.0691 C   0  0  0  0  0  0  0  0  0  0  0  0
    3.0279   -5.3073   26.8197 C   0  0  0  0  0  0  0  0  0  0  0  0
    7.3282   -3.8948   29.1186 C   0  0  0  0  0  0  0  0  0  0  0  0
  1  3  4  0
  1  7  4  0
  2  3  1  0
  2  6  4  0
  2 16  4  0
  3 22  4  0
  4  9  4  0
  4 10  1  0
  4 20  4  0
  5 16  4  0
  5 23  4  0
  6 15  4  0
  7 12  4  0
  8 13  4  0
  8 14  4  0
  9 11  4  0
 11 14  4  0
 11 19  4  0
 12 18  4  0
 13 21  4  0
 15 23  4  0
 17 19  4  0
 17 20  4  0
 18 22  4  0
 19 21  4  0
M  END
$$$$

 Created by Python create_sdf_string function

 23 25  0  0  0  0  0  0  0  0999 V2000
    2.4610   -5.3070   29.1240 C   0  0  0  0  0  0  0  0  0  0  0  0
    4.7710   -4.6952   28.4803 C   0  0  0  0  0  0  0  0  0  0  0  0
    3.4047   -5.1087   28.1314 C   0  0  0  0  0  0  0  0  0  0  0  0
   -0.2234  -11.8615   16.8874 C   0  0  0  0  0  0  0  0  0  0  0  0
    6.4491   -4.1532   30.1213 C   0  0  0  0  0  0  0  0  0  0  0  0
    5.7060   -4.4340   27.4975 C   0  0  0  0  0  0  0  0  0  0  0  0
    1.1818   -5.6612   28.8399 C   0  0  0  0  0  0  0  0  0  0  0  0
   -1.2067   -7.3287   17.7772 C   0  0  0  0  0  0  0  0  0  0  0  0
   -0.0206  -10.5585   16.6210 C   0  0  0  0  0  0  0  0  0  0  0  0
    0.3696  -12.7626   16.2169 O   0  0  0  0  0  0  0  0  0  0  0  0
   -0.6895   -9.5676   17.3297 C   0  0  0  0  0  0  0  0  0  0  0  0
    0.8388   -5.8417   27.5264 C   0  0  0  0  0  0  0  0  0  0  0  0
   -2.0709   -7.6637   18.7817 C   0  0  0  0  0  0  0  0  0  0  0  0
   -0.5279   -8.2168   17.0717 C   0  0  0  0  0  0  0  0  0  0  0  0
    6.9694   -4.0191   27.8190 C   0  0  0  0  0  0  0  0  0  0  0  0
    5.1733   -4.5469   29.8123 C   0  0  0  0  0  0  0  0  0  0  0  0
   -1.7508  -11.3016   18.6072 C   0  0  0  0  0  0  0  0  0  0  0  0
    1.7497   -5.6771   26.4971 C   0  0  0  0  0  0  0  0  0  0  0  0
   -1.5799   -9.9322   18.3468 C   0  0  0  0  0  0  0  0  0  0  0  0
   -1.0871  -12.2214   17.8851 C   0  0  0  0  0  0  0  0  0  0  0  0
   -2.2706   -8.9669   19.0691 C   0  0  0  0  0  0  0  0  0  0  0  0
    3.0279   -5.3073   26.8197 C   0  0  0  0  0  0  0  0  0  0  0  0
    7.3282   -3.8948   29.1186 C   0  0  0  0  0  0  0  0  0  0  0  0
  1  3  4  0
  1  7  4  0
  2  3  1  0
  2  6  4  0
  2 16  4  0
  3 22  4  0
  4  9  4  0
  4 10  1  0
  4 20  4  0
  5 16  4  0
  5 23  4  0
  6 15  4  0
  7 12  4  0
  8 13  4  0
  8 14  4  0
  9 11  4  0
 11 14  4  0
 11 19  4  0
 12 18  4  0
 13 21  4  0
 15 23  4  0
 17 19  4  0
 17 20  4  0
 18 22  4  0
 19 21  4  0
M  END
$$$$

 Created by Python create_sdf_string function

 23 25  0  0  0  0  0  0  0  0999 V2000
    2.4610   -5.3070   29.1240 C   0  0  0  0  0  0  0  0  0  0  0  0
    4.7710   -4.6952   28.4803 C   0  0  0  0  0  0  0  0  0  0  0  0
    3.4047   -5.1087   28.1314 C   0  0  0  0  0  0  0  0  0  0  0  0
   -0.2234  -11.8615   16.8874 C   0  0  0  0  0  0  0  0  0  0  0  0
    6.4491   -4.1532   30.1213 C   0  0  0  0  0  0  0  0  0  0  0  0
    5.7060   -4.4340   27.4975 C   0  0  0  0  0  0  0  0  0  0  0  0
    1.1818   -5.6612   28.8399 C   0  0  0  0  0  0  0  0  0  0  0  0
   -1.2067   -7.3287   17.7772 C   0  0  0  0  0  0  0  0  0  0  0  0
   -0.0206  -10.5585   16.6210 C   0  0  0  0  0  0  0  0  0  0  0  0
    0.3696  -12.7626   16.2169 O   0  0  0  0  0  0  0  0  0  0  0  0
   -0.6895   -9.5676   17.3297 C   0  0  0  0  0  0  0  0  0  0  0  0
    0.8388   -5.8417   27.5264 C   0  0  0  0  0  0  0  0  0  0  0  0
   -2.0709   -7.6637   18.7817 C   0  0  0  0  0  0  0  0  0  0  0  0
   -0.5279   -8.2168   17.0717 C   0  0  0  0  0  0  0  0  0  0  0  0
    6.9694   -4.0191   27.8190 C   0  0  0  0  0  0  0  0  0  0  0  0
    5.1733   -4.5469   29.8123 C   0  0  0  0  0  0  0  0  0  0  0  0
   -1.7508  -11.3016   18.6072 C   0  0  0  0  0  0  0  0  0  0  0  0
    1.7497   -5.6771   26.4971 C   0  0  0  0  0  0  0  0  0  0  0  0
   -1.5799   -9.9322   18.3468 C   0  0  0  0  0  0  0  0  0  0  0  0
   -1.0871  -12.2214   17.8851 C   0  0  0  0  0  0  0  0  0  0  0  0
   -2.2706   -8.9669   19.0691 C   0  0  0  0  0  0  0  0  0  0  0  0
    3.0279   -5.3073   26.8197 C   0  0  0  0  0  0  0  0  0  0  0  0
    7.3282   -3.8948   29.1186 C   0  0  0  0  0  0  0  0  0  0  0  0
  1  3  4  0
  1  7  4  0
  2  3  1  0
  2  6  4  0
  2 16  4  0
  3 22  4  0
  4  9  4  0
  4 10  1  0
  4 20  4  0
  5 16  4  0
  5 23  4  0
  6 15  4  0
  7 12  4  0
  8 13  4  0
  8 14  4  0
  9 11  4  0
 11 14  4  0
 11 19  4  0
 12 18  4  0
 13 21  4  0
 15 23  4  0
 17 19  4  0
 17 20  4  0
 18 22  4  0
 19 21  4  0
M  END
$$$$

 Created by Python create_sdf_string function

 23 25  0  0  0  0  0  0  0  0999 V2000
    2.4610   -5.3070   29.1240 C   0  0  0  0  0  0  0  0  0  0  0  0
    4.7710   -4.6952   28.4803 C   0  0  0  0  0  0  0  0  0  0  0  0
    3.4047   -5.1087   28.1314 C   0  0  0  0  0  0  0  0  0  0  0  0
   -0.2234  -11.8615   16.8874 C   0  0  0  0  0  0  0  0  0  0  0  0
    6.4491   -4.1532   30.1213 C   0  0  0  0  0  0  0  0  0  0  0  0
    5.7060   -4.4340   27.4975 C   0  0  0  0  0  0  0  0  0  0  0  0
    1.1818   -5.6612   28.8399 C   0  0  0  0  0  0  0  0  0  0  0  0
   -1.2067   -7.3287   17.7772 C   0  0  0  0  0  0  0  0  0  0  0  0
   -0.0206  -10.5585   16.6210 C   0  0  0  0  0  0  0  0  0  0  0  0
    0.3696  -12.7626   16.2169 O   0  0  0  0  0  0  0  0  0  0  0  0
   -0.6895   -9.5676   17.3297 C   0  0  0  0  0  0  0  0  0  0  0  0
    0.8388   -5.8417   27.5264 C   0  0  0  0  0  0  0  0  0  0  0  0
   -2.0709   -7.6637   18.7817 C   0  0  0  0  0  0  0  0  0  0  0  0
   -0.5279   -8.2168   17.0717 C   0  0  0  0  0  0  0  0  0  0  0  0
    6.9694   -4.0191   27.8190 C   0  0  0  0  0  0  0  0  0  0  0  0
    5.1733   -4.5469   29.8123 C   0  0  0  0  0  0  0  0  0  0  0  0
   -1.7508  -11.3016   18.6072 C   0  0  0  0  0  0  0  0  0  0  0  0
    1.7497   -5.6771   26.4971 C   0  0  0  0  0  0  0  0  0  0  0  0
   -1.5799   -9.9322   18.3468 C   0  0  0  0  0  0  0  0  0  0  0  0
   -1.0871  -12.2214   17.8851 C   0  0  0  0  0  0  0  0  0  0  0  0
   -2.2706   -8.9669   19.0691 C   0  0  0  0  0  0  0  0  0  0  0  0
    3.0279   -5.3073   26.8197 C   0  0  0  0  0  0  0  0  0  0  0  0
    7.3282   -3.8948   29.1186 C   0  0  0  0  0  0  0  0  0  0  0  0
  1  3  4  0
  1  7  4  0
  2  3  1  0
  2  6  4  0
  2 16  4  0
  3 22  4  0
  4  9  4  0
  4 10  1  0
  4 20  4  0
  5 16  4  0
  5 23  4  0
  6 15  4  0
  7 12  4  0
  8 13  4  0
  8 14  4  0
  9 11  4  0
 11 14  4  0
 11 19  4  0
 12 18  4  0
 13 21  4  0
 15 23  4  0
 17 19  4  0
 17 20  4  0
 18 22  4  0
 19 21  4  0
M  END
$$$$

 Created by Python create_sdf_string function

 23 25  0  0  0  0  0  0  0  0999 V2000
    2.4610   -5.3070   29.1240 C   0  0  0  0  0  0  0  0  0  0  0  0
    4.7710   -4.6952   28.4803 C   0  0  0  0  0  0  0  0  0  0  0  0
    3.4047   -5.1087   28.1314 C   0  0  0  0  0  0  0  0  0  0  0  0
   -0.2234  -11.8615   16.8874 C   0  0  0  0  0  0  0  0  0  0  0  0
    6.4491   -4.1532   30.1213 C   0  0  0  0  0  0  0  0  0  0  0  0
    5.7060   -4.4340   27.4975 C   0  0  0  0  0  0  0  0  0  0  0  0
    1.1818   -5.6612   28.8399 C   0  0  0  0  0  0  0  0  0  0  0  0
   -1.2067   -7.3287   17.7772 C   0  0  0  0  0  0  0  0  0  0  0  0
   -0.0206  -10.5585   16.6210 C   0  0  0  0  0  0  0  0  0  0  0  0
    0.3696  -12.7626   16.2169 O   0  0  0  0  0  0  0  0  0  0  0  0
   -0.6895   -9.5676   17.3297 C   0  0  0  0  0  0  0  0  0  0  0  0
    0.8388   -5.8417   27.5264 C   0  0  0  0  0  0  0  0  0  0  0  0
   -2.0709   -7.6637   18.7817 C   0  0  0  0  0  0  0  0  0  0  0  0
   -0.5279   -8.2168   17.0717 C   0  0  0  0  0  0  0  0  0  0  0  0
    6.9694   -4.0191   27.8190 C   0  0  0  0  0  0  0  0  0  0  0  0
    5.1733   -4.5469   29.8123 C   0  0  0  0  0  0  0  0  0  0  0  0
   -1.7508  -11.3016   18.6072 C   0  0  0  0  0  0  0  0  0  0  0  0
    1.7497   -5.6771   26.4971 C   0  0  0  0  0  0  0  0  0  0  0  0
   -1.5799   -9.9322   18.3468 C   0  0  0  0  0  0  0  0  0  0  0  0
   -1.0871  -12.2214   17.8851 C   0  0  0  0  0  0  0  0  0  0  0  0
   -2.2706   -8.9669   19.0691 C   0  0  0  0  0  0  0  0  0  0  0  0
    3.0279   -5.3073   26.8197 C   0  0  0  0  0  0  0  0  0  0  0  0
    7.3282   -3.8948   29.1186 C   0  0  0  0  0  0  0  0  0  0  0  0
  1  3  4  0
  1  7  4  0
  2  3  1  0
  2  6  4  0
  2 16  4  0
  3 22  4  0
  4  9  4  0
  4 10  1  0
  4 20  4  0
  5 16  4  0
  5 23  4  0
  6 15  4  0
  7 12  4  0
  8 13  4  0
  8 14  4  0
  9 11  4  0
 11 14  4  0
 11 19  4  0
 12 18  4  0
 13 21  4  0
 15 23  4  0
 17 19  4  0
 17 20  4  0
 18 22  4  0
 19 21  4  0
M  END
$$$$

 Created by Python create_sdf_string function

 23 25  0  0  0  0  0  0  0  0999 V2000
    2.4610   -5.3070   29.1240 C   0  0  0  0  0  0  0  0  0  0  0  0
    4.7710   -4.6952   28.4803 C   0  0  0  0  0  0  0  0  0  0  0  0
    3.4047   -5.1087   28.1314 C   0  0  0  0  0  0  0  0  0  0  0  0
   -0.2234  -11.8615   16.8874 C   0  0  0  0  0  0  0  0  0  0  0  0
    6.4491   -4.1532   30.1213 C   0  0  0  0  0  0  0  0  0  0  0  0
    5.7060   -4.4340   27.4975 C   0  0  0  0  0  0  0  0  0  0  0  0
    1.1818   -5.6612   28.8399 C   0  0  0  0  0  0  0  0  0  0  0  0
   -1.2067   -7.3287   17.7772 C   0  0  0  0  0  0  0  0  0  0  0  0
   -0.0206  -10.5585   16.6210 C   0  0  0  0  0  0  0  0  0  0  0  0
    0.3696  -12.7626   16.2169 O   0  0  0  0  0  0  0  0  0  0  0  0
   -0.6895   -9.5676   17.3297 C   0  0  0  0  0  0  0  0  0  0  0  0
    0.8388   -5.8417   27.5264 C   0  0  0  0  0  0  0  0  0  0  0  0
   -2.0709   -7.6637   18.7817 C   0  0  0  0  0  0  0  0  0  0  0  0
   -0.5279   -8.2168   17.0717 C   0  0  0  0  0  0  0  0  0  0  0  0
    6.9694   -4.0191   27.8190 C   0  0  0  0  0  0  0  0  0  0  0  0
    5.1733   -4.5469   29.8123 C   0  0  0  0  0  0  0  0  0  0  0  0
   -1.7508  -11.3016   18.6072 C   0  0  0  0  0  0  0  0  0  0  0  0
    1.7497   -5.6771   26.4971 C   0  0  0  0  0  0  0  0  0  0  0  0
   -1.5799   -9.9322   18.3468 C   0  0  0  0  0  0  0  0  0  0  0  0
   -1.0871  -12.2214   17.8851 C   0  0  0  0  0  0  0  0  0  0  0  0
   -2.2706   -8.9669   19.0691 C   0  0  0  0  0  0  0  0  0  0  0  0
    3.0279   -5.3073   26.8197 C   0  0  0  0  0  0  0  0  0  0  0  0
    7.3282   -3.8948   29.1186 C   0  0  0  0  0  0  0  0  0  0  0  0
  1  3  4  0
  1  7  4  0
  2  3  1  0
  2  6  4  0
  2 16  4  0
  3 22  4  0
  4  9  4  0
  4 10  1  0
  4 20  4  0
  5 16  4  0
  5 23  4  0
  6 15  4  0
  7 12  4  0
  8 13  4  0
  8 14  4  0
  9 11  4  0
 11 14  4  0
 11 19  4  0
 12 18  4  0
 13 21  4  0
 15 23  4  0
 17 19  4  0
 17 20  4  0
 18 22  4  0
 19 21  4  0
M  END
$$$$

 Created by Python create_sdf_string function

 23 25  0  0  0  0  0  0  0  0999 V2000
    2.4610   -5.3070   29.1240 C   0  0  0  0  0  0  0  0  0  0  0  0
    4.7710   -4.6952   28.4803 C   0  0  0  0  0  0  0  0  0  0  0  0
    3.4047   -5.1087   28.1314 C   0  0  0  0  0  0  0  0  0  0  0  0
   -0.2234  -11.8615   16.8874 C   0  0  0  0  0  0  0  0  0  0  0  0
    6.4491   -4.1532   30.1213 C   0  0  0  0  0  0  0  0  0  0  0  0
    5.7060   -4.4340   27.4975 C   0  0  0  0  0  0  0  0  0  0  0  0
    1.1818   -5.6612   28.8399 C   0  0  0  0  0  0  0  0  0  0  0  0
   -1.2067   -7.3287   17.7772 C   0  0  0  0  0  0  0  0  0  0  0  0
   -0.0206  -10.5585   16.6210 C   0  0  0  0  0  0  0  0  0  0  0  0
    0.3696  -12.7626   16.2169 O   0  0  0  0  0  0  0  0  0  0  0  0
   -0.6895   -9.5676   17.3297 C   0  0  0  0  0  0  0  0  0  0  0  0
    0.8388   -5.8417   27.5264 C   0  0  0  0  0  0  0  0  0  0  0  0
   -2.0709   -7.6637   18.7817 C   0  0  0  0  0  0  0  0  0  0  0  0
   -0.5279   -8.2168   17.0717 C   0  0  0  0  0  0  0  0  0  0  0  0
    6.9694   -4.0191   27.8190 C   0  0  0  0  0  0  0  0  0  0  0  0
    5.1733   -4.5469   29.8123 C   0  0  0  0  0  0  0  0  0  0  0  0
   -1.7508  -11.3016   18.6072 C   0  0  0  0  0  0  0  0  0  0  0  0
    1.7497   -5.6771   26.4971 C   0  0  0  0  0  0  0  0  0  0  0  0
   -1.5799   -9.9322   18.3468 C   0  0  0  0  0  0  0  0  0  0  0  0
   -1.0871  -12.2214   17.8851 C   0  0  0  0  0  0  0  0  0  0  0  0
   -2.2706   -8.9669   19.0691 C   0  0  0  0  0  0  0  0  0  0  0  0
    3.0279   -5.3073   26.8197 C   0  0  0  0  0  0  0  0  0  0  0  0
    7.3282   -3.8948   29.1186 C   0  0  0  0  0  0  0  0  0  0  0  0
  1  3  4  0
  1  7  4  0
  2  3  1  0
  2  6  4  0
  2 16  4  0
  3 22  4  0
  4  9  4  0
  4 10  1  0
  4 20  4  0
  5 16  4  0
  5 23  4  0
  6 15  4  0
  7 12  4  0
  8 13  4  0
  8 14  4  0
  9 11  4  0
 11 14  4  0
 11 19  4  0
 12 18  4  0
 13 21  4  0
 15 23  4  0
 17 19  4  0
 17 20  4  0
 18 22  4  0
 19 21  4  0
M  END
$$$$

 Created by Python create_sdf_string function

 23 25  0  0  0  0  0  0  0  0999 V2000
    2.4610   -5.3070   29.1240 C   0  0  0  0  0  0  0  0  0  0  0  0
    4.7710   -4.6952   28.4803 C   0  0  0  0  0  0  0  0  0  0  0  0
    3.4047   -5.1087   28.1314 C   0  0  0  0  0  0  0  0  0  0  0  0
   -0.2234  -11.8615   16.8874 C   0  0  0  0  0  0  0  0  0  0  0  0
    6.4491   -4.1532   30.1213 C   0  0  0  0  0  0  0  0  0  0  0  0
    5.7060   -4.4340   27.4975 C   0  0  0  0  0  0  0  0  0  0  0  0
    1.1818   -5.6612   28.8399 C   0  0  0  0  0  0  0  0  0  0  0  0
   -1.2067   -7.3287   17.7772 C   0  0  0  0  0  0  0  0  0  0  0  0
   -0.0206  -10.5585   16.6210 C   0  0  0  0  0  0  0  0  0  0  0  0
    0.3696  -12.7626   16.2169 O   0  0  0  0  0  0  0  0  0  0  0  0
   -0.6895   -9.5676   17.3297 C   0  0  0  0  0  0  0  0  0  0  0  0
    0.8388   -5.8417   27.5264 C   0  0  0  0  0  0  0  0  0  0  0  0
   -2.0709   -7.6637   18.7817 C   0  0  0  0  0  0  0  0  0  0  0  0
   -0.5279   -8.2168   17.0717 C   0  0  0  0  0  0  0  0  0  0  0  0
    6.9694   -4.0191   27.8190 C   0  0  0  0  0  0  0  0  0  0  0  0
    5.1733   -4.5469   29.8123 C   0  0  0  0  0  0  0  0  0  0  0  0
   -1.7508  -11.3016   18.6072 C   0  0  0  0  0  0  0  0  0  0  0  0
    1.7497   -5.6771   26.4971 C   0  0  0  0  0  0  0  0  0  0  0  0
   -1.5799   -9.9322   18.3468 C   0  0  0  0  0  0  0  0  0  0  0  0
   -1.0871  -12.2214   17.8851 C   0  0  0  0  0  0  0  0  0  0  0  0
   -2.2706   -8.9669   19.0691 C   0  0  0  0  0  0  0  0  0  0  0  0
    3.0279   -5.3073   26.8197 C   0  0  0  0  0  0  0  0  0  0  0  0
    7.3282   -3.8948   29.1186 C   0  0  0  0  0  0  0  0  0  0  0  0
  1  3  4  0
  1  7  4  0
  2  3  1  0
  2  6  4  0
  2 16  4  0
  3 22  4  0
  4  9  4  0
  4 10  1  0
  4 20  4  0
  5 16  4  0
  5 23  4  0
  6 15  4  0
  7 12  4  0
  8 13  4  0
  8 14  4  0
  9 11  4  0
 11 14  4  0
 11 19  4  0
 12 18  4  0
 13 21  4  0
 15 23  4  0
 17 19  4  0
 17 20  4  0
 18 22  4  0
 19 21  4  0
M  END
$$$$

 Created by Python create_sdf_string function

 23 25  0  0  0  0  0  0  0  0999 V2000
    2.4610   -5.3070   29.1240 C   0  0  0  0  0  0  0  0  0  0  0  0
    4.7710   -4.6952   28.4803 C   0  0  0  0  0  0  0  0  0  0  0  0
    3.4047   -5.1087   28.1314 C   0  0  0  0  0  0  0  0  0  0  0  0
   -0.2234  -11.8615   16.8874 C   0  0  0  0  0  0  0  0  0  0  0  0
    6.4491   -4.1532   30.1213 C   0  0  0  0  0  0  0  0  0  0  0  0
    5.7060   -4.4340   27.4975 C   0  0  0  0  0  0  0  0  0  0  0  0
    1.1818   -5.6612   28.8399 C   0  0  0  0  0  0  0  0  0  0  0  0
   -1.2067   -7.3287   17.7772 C   0  0  0  0  0  0  0  0  0  0  0  0
   -0.0206  -10.5585   16.6210 C   0  0  0  0  0  0  0  0  0  0  0  0
    0.3696  -12.7626   16.2169 O   0  0  0  0  0  0  0  0  0  0  0  0
   -0.6895   -9.5676   17.3297 C   0  0  0  0  0  0  0  0  0  0  0  0
    0.8388   -5.8417   27.5264 C   0  0  0  0  0  0  0  0  0  0  0  0
   -2.0709   -7.6637   18.7817 C   0  0  0  0  0  0  0  0  0  0  0  0
   -0.5279   -8.2168   17.0717 C   0  0  0  0  0  0  0  0  0  0  0  0
    6.9694   -4.0191   27.8190 C   0  0  0  0  0  0  0  0  0  0  0  0
    5.1733   -4.5469   29.8123 C   0  0  0  0  0  0  0  0  0  0  0  0
   -1.7508  -11.3016   18.6072 C   0  0  0  0  0  0  0  0  0  0  0  0
    1.7497   -5.6771   26.4971 C   0  0  0  0  0  0  0  0  0  0  0  0
   -1.5799   -9.9322   18.3468 C   0  0  0  0  0  0  0  0  0  0  0  0
   -1.0871  -12.2214   17.8851 C   0  0  0  0  0  0  0  0  0  0  0  0
   -2.2706   -8.9669   19.0691 C   0  0  0  0  0  0  0  0  0  0  0  0
    3.0279   -5.3073   26.8197 C   0  0  0  0  0  0  0  0  0  0  0  0
    7.3282   -3.8948   29.1186 C   0  0  0  0  0  0  0  0  0  0  0  0
  1  3  4  0
  1  7  4  0
  2  3  1  0
  2  6  4  0
  2 16  4  0
  3 22  4  0
  4  9  4  0
  4 10  1  0
  4 20  4  0
  5 16  4  0
  5 23  4  0
  6 15  4  0
  7 12  4  0
  8 13  4  0
  8 14  4  0
  9 11  4  0
 11 14  4  0
 11 19  4  0
 12 18  4  0
 13 21  4  0
 15 23  4  0
 17 19  4  0
 17 20  4  0
 18 22  4  0
 19 21  4  0
M  END
$$$$

 Created by Python create_sdf_string function

 23 25  0  0  0  0  0  0  0  0999 V2000
    2.4610   -5.3070   29.1240 C   0  0  0  0  0  0  0  0  0  0  0  0
    4.7710   -4.6952   28.4803 C   0  0  0  0  0  0  0  0  0  0  0  0
    3.4047   -5.1087   28.1314 C   0  0  0  0  0  0  0  0  0  0  0  0
   -0.2234  -11.8615   16.8874 C   0  0  0  0  0  0  0  0  0  0  0  0
    6.4491   -4.1532   30.1213 C   0  0  0  0  0  0  0  0  0  0  0  0
    5.7060   -4.4340   27.4975 C   0  0  0  0  0  0  0  0  0  0  0  0
    1.1818   -5.6612   28.8399 C   0  0  0  0  0  0  0  0  0  0  0  0
   -1.2067   -7.3287   17.7772 C   0  0  0  0  0  0  0  0  0  0  0  0
   -0.0206  -10.5585   16.6210 C   0  0  0  0  0  0  0  0  0  0  0  0
    0.3696  -12.7626   16.2169 O   0  0  0  0  0  0  0  0  0  0  0  0
   -0.6895   -9.5676   17.3297 C   0  0  0  0  0  0  0  0  0  0  0  0
    0.8388   -5.8417   27.5264 C   0  0  0  0  0  0  0  0  0  0  0  0
   -2.0709   -7.6637   18.7817 C   0  0  0  0  0  0  0  0  0  0  0  0
   -0.5279   -8.2168   17.0717 C   0  0  0  0  0  0  0  0  0  0  0  0
    6.9694   -4.0191   27.8190 C   0  0  0  0  0  0  0  0  0  0  0  0
    5.1733   -4.5469   29.8123 C   0  0  0  0  0  0  0  0  0  0  0  0
   -1.7508  -11.3016   18.6072 C   0  0  0  0  0  0  0  0  0  0  0  0
    1.7497   -5.6771   26.4971 C   0  0  0  0  0  0  0  0  0  0  0  0
   -1.5799   -9.9322   18.3468 C   0  0  0  0  0  0  0  0  0  0  0  0
   -1.0871  -12.2214   17.8851 C   0  0  0  0  0  0  0  0  0  0  0  0
   -2.2706   -8.9669   19.0691 C   0  0  0  0  0  0  0  0  0  0  0  0
    3.0279   -5.3073   26.8197 C   0  0  0  0  0  0  0  0  0  0  0  0
    7.3282   -3.8948   29.1186 C   0  0  0  0  0  0  0  0  0  0  0  0
  1  3  4  0
  1  7  4  0
  2  3  1  0
  2  6  4  0
  2 16  4  0
  3 22  4  0
  4  9  4  0
  4 10  1  0
  4 20  4  0
  5 16  4  0
  5 23  4  0
  6 15  4  0
  7 12  4  0
  8 13  4  0
  8 14  4  0
  9 11  4  0
 11 14  4  0
 11 19  4  0
 12 18  4  0
 13 21  4  0
 15 23  4  0
 17 19  4  0
 17 20  4  0
 18 22  4  0
 19 21  4  0
M  END
$$$$

 Created by Python create_sdf_string function

 23 25  0  0  0  0  0  0  0  0999 V2000
    2.4610   -5.3070   29.1240 C   0  0  0  0  0  0  0  0  0  0  0  0
    4.7710   -4.6952   28.4803 C   0  0  0  0  0  0  0  0  0  0  0  0
    3.4047   -5.1087   28.1314 C   0  0  0  0  0  0  0  0  0  0  0  0
   -0.2234  -11.8615   16.8874 C   0  0  0  0  0  0  0  0  0  0  0  0
    6.4491   -4.1532   30.1213 C   0  0  0  0  0  0  0  0  0  0  0  0
    5.7060   -4.4340   27.4975 C   0  0  0  0  0  0  0  0  0  0  0  0
    1.1818   -5.6612   28.8399 C   0  0  0  0  0  0  0  0  0  0  0  0
   -1.2067   -7.3287   17.7772 C   0  0  0  0  0  0  0  0  0  0  0  0
   -0.0206  -10.5585   16.6210 C   0  0  0  0  0  0  0  0  0  0  0  0
    0.3696  -12.7626   16.2169 O   0  0  0  0  0  0  0  0  0  0  0  0
   -0.6895   -9.5676   17.3297 C   0  0  0  0  0  0  0  0  0  0  0  0
    0.8388   -5.8417   27.5264 C   0  0  0  0  0  0  0  0  0  0  0  0
   -2.0709   -7.6637   18.7817 C   0  0  0  0  0  0  0  0  0  0  0  0
   -0.5279   -8.2168   17.0717 C   0  0  0  0  0  0  0  0  0  0  0  0
    6.9694   -4.0191   27.8190 C   0  0  0  0  0  0  0  0  0  0  0  0
    5.1733   -4.5469   29.8123 C   0  0  0  0  0  0  0  0  0  0  0  0
   -1.7508  -11.3016   18.6072 C   0  0  0  0  0  0  0  0  0  0  0  0
    1.7497   -5.6771   26.4971 C   0  0  0  0  0  0  0  0  0  0  0  0
   -1.5799   -9.9322   18.3468 C   0  0  0  0  0  0  0  0  0  0  0  0
   -1.0871  -12.2214   17.8851 C   0  0  0  0  0  0  0  0  0  0  0  0
   -2.2706   -8.9669   19.0691 C   0  0  0  0  0  0  0  0  0  0  0  0
    3.0279   -5.3073   26.8197 C   0  0  0  0  0  0  0  0  0  0  0  0
    7.3282   -3.8948   29.1186 C   0  0  0  0  0  0  0  0  0  0  0  0
  1  3  4  0
  1  7  4  0
  2  3  1  0
  2  6  4  0
  2 16  4  0
  3 22  4  0
  4  9  4  0
  4 10  1  0
  4 20  4  0
  5 16  4  0
  5 23  4  0
  6 15  4  0
  7 12  4  0
  8 13  4  0
  8 14  4  0
  9 11  4  0
 11 14  4  0
 11 19  4  0
 12 18  4  0
 13 21  4  0
 15 23  4  0
 17 19  4  0
 17 20  4  0
 18 22  4  0
 19 21  4  0
M  END
$$$$

 Created by Python create_sdf_string function

 23 25  0  0  0  0  0  0  0  0999 V2000
    2.4610   -5.3070   29.1240 C   0  0  0  0  0  0  0  0  0  0  0  0
    4.7710   -4.6952   28.4803 C   0  0  0  0  0  0  0  0  0  0  0  0
    3.4047   -5.1087   28.1314 C   0  0  0  0  0  0  0  0  0  0  0  0
   -0.2234  -11.8615   16.8874 C   0  0  0  0  0  0  0  0  0  0  0  0
    6.4491   -4.1532   30.1213 C   0  0  0  0  0  0  0  0  0  0  0  0
    5.7060   -4.4340   27.4975 C   0  0  0  0  0  0  0  0  0  0  0  0
    1.1818   -5.6612   28.8399 C   0  0  0  0  0  0  0  0  0  0  0  0
   -1.2067   -7.3287   17.7772 C   0  0  0  0  0  0  0  0  0  0  0  0
   -0.0206  -10.5585   16.6210 C   0  0  0  0  0  0  0  0  0  0  0  0
    0.3696  -12.7626   16.2169 O   0  0  0  0  0  0  0  0  0  0  0  0
   -0.6895   -9.5676   17.3297 C   0  0  0  0  0  0  0  0  0  0  0  0
    0.8388   -5.8417   27.5264 C   0  0  0  0  0  0  0  0  0  0  0  0
   -2.0709   -7.6637   18.7817 C   0  0  0  0  0  0  0  0  0  0  0  0
   -0.5279   -8.2168   17.0717 C   0  0  0  0  0  0  0  0  0  0  0  0
    6.9694   -4.0191   27.8190 C   0  0  0  0  0  0  0  0  0  0  0  0
    5.1733   -4.5469   29.8123 C   0  0  0  0  0  0  0  0  0  0  0  0
   -1.7508  -11.3016   18.6072 C   0  0  0  0  0  0  0  0  0  0  0  0
    1.7497   -5.6771   26.4971 C   0  0  0  0  0  0  0  0  0  0  0  0
   -1.5799   -9.9322   18.3468 C   0  0  0  0  0  0  0  0  0  0  0  0
   -1.0871  -12.2214   17.8851 C   0  0  0  0  0  0  0  0  0  0  0  0
   -2.2706   -8.9669   19.0691 C   0  0  0  0  0  0  0  0  0  0  0  0
    3.0279   -5.3073   26.8197 C   0  0  0  0  0  0  0  0  0  0  0  0
    7.3282   -3.8948   29.1186 C   0  0  0  0  0  0  0  0  0  0  0  0
  1  3  4  0
  1  7  4  0
  2  3  1  0
  2  6  4  0
  2 16  4  0
  3 22  4  0
  4  9  4  0
  4 10  1  0
  4 20  4  0
  5 16  4  0
  5 23  4  0
  6 15  4  0
  7 12  4  0
  8 13  4  0
  8 14  4  0
  9 11  4  0
 11 14  4  0
 11 19  4  0
 12 18  4  0
 13 21  4  0
 15 23  4  0
 17 19  4  0
 17 20  4  0
 18 22  4  0
 19 21  4  0
M  END
$$$$

 Created by Python create_sdf_string function

 23 25  0  0  0  0  0  0  0  0999 V2000
    2.4610   -5.3070   29.1240 C   0  0  0  0  0  0  0  0  0  0  0  0
    4.7710   -4.6952   28.4803 C   0  0  0  0  0  0  0  0  0  0  0  0
    3.4047   -5.1087   28.1314 C   0  0  0  0  0  0  0  0  0  0  0  0
   -0.2234  -11.8615   16.8874 C   0  0  0  0  0  0  0  0  0  0  0  0
    6.4491   -4.1532   30.1213 C   0  0  0  0  0  0  0  0  0  0  0  0
    5.7060   -4.4340   27.4975 C   0  0  0  0  0  0  0  0  0  0  0  0
    1.1818   -5.6612   28.8399 C   0  0  0  0  0  0  0  0  0  0  0  0
   -1.2067   -7.3287   17.7772 C   0  0  0  0  0  0  0  0  0  0  0  0
   -0.0206  -10.5585   16.6210 C   0  0  0  0  0  0  0  0  0  0  0  0
    0.3696  -12.7626   16.2169 O   0  0  0  0  0  0  0  0  0  0  0  0
   -0.6895   -9.5676   17.3297 C   0  0  0  0  0  0  0  0  0  0  0  0
    0.8388   -5.8417   27.5264 C   0  0  0  0  0  0  0  0  0  0  0  0
   -2.0709   -7.6637   18.7817 C   0  0  0  0  0  0  0  0  0  0  0  0
   -0.5279   -8.2168   17.0717 C   0  0  0  0  0  0  0  0  0  0  0  0
    6.9694   -4.0191   27.8190 C   0  0  0  0  0  0  0  0  0  0  0  0
    5.1733   -4.5469   29.8123 C   0  0  0  0  0  0  0  0  0  0  0  0
   -1.7508  -11.3016   18.6072 C   0  0  0  0  0  0  0  0  0  0  0  0
    1.7497   -5.6771   26.4971 C   0  0  0  0  0  0  0  0  0  0  0  0
   -1.5799   -9.9322   18.3468 C   0  0  0  0  0  0  0  0  0  0  0  0
   -1.0871  -12.2214   17.8851 C   0  0  0  0  0  0  0  0  0  0  0  0
   -2.2706   -8.9669   19.0691 C   0  0  0  0  0  0  0  0  0  0  0  0
    3.0279   -5.3073   26.8197 C   0  0  0  0  0  0  0  0  0  0  0  0
    7.3282   -3.8948   29.1186 C   0  0  0  0  0  0  0  0  0  0  0  0
  1  3  4  0
  1  7  4  0
  2  3  1  0
  2  6  4  0
  2 16  4  0
  3 22  4  0
  4  9  4  0
  4 10  1  0
  4 20  4  0
  5 16  4  0
  5 23  4  0
  6 15  4  0
  7 12  4  0
  8 13  4  0
  8 14  4  0
  9 11  4  0
 11 14  4  0
 11 19  4  0
 12 18  4  0
 13 21  4  0
 15 23  4  0
 17 19  4  0
 17 20  4  0
 18 22  4  0
 19 21  4  0
M  END
$$$$

 Created by Python create_sdf_string function

 23 25  0  0  0  0  0  0  0  0999 V2000
    2.4610   -5.3070   29.1240 C   0  0  0  0  0  0  0  0  0  0  0  0
    4.7710   -4.6952   28.4803 C   0  0  0  0  0  0  0  0  0  0  0  0
    3.4047   -5.1087   28.1314 C   0  0  0  0  0  0  0  0  0  0  0  0
   -0.2234  -11.8615   16.8874 C   0  0  0  0  0  0  0  0  0  0  0  0
    6.4491   -4.1532   30.1213 C   0  0  0  0  0  0  0  0  0  0  0  0
    5.7060   -4.4340   27.4975 C   0  0  0  0  0  0  0  0  0  0  0  0
    1.1818   -5.6612   28.8399 C   0  0  0  0  0  0  0  0  0  0  0  0
   -1.2067   -7.3287   17.7772 C   0  0  0  0  0  0  0  0  0  0  0  0
   -0.0206  -10.5585   16.6210 C   0  0  0  0  0  0  0  0  0  0  0  0
    0.3696  -12.7626   16.2169 O   0  0  0  0  0  0  0  0  0  0  0  0
   -0.6895   -9.5676   17.3297 C   0  0  0  0  0  0  0  0  0  0  0  0
    0.8388   -5.8417   27.5264 C   0  0  0  0  0  0  0  0  0  0  0  0
   -2.0709   -7.6637   18.7817 C   0  0  0  0  0  0  0  0  0  0  0  0
   -0.5279   -8.2168   17.0717 C   0  0  0  0  0  0  0  0  0  0  0  0
    6.9694   -4.0191   27.8190 C   0  0  0  0  0  0  0  0  0  0  0  0
    5.1733   -4.5469   29.8123 C   0  0  0  0  0  0  0  0  0  0  0  0
   -1.7508  -11.3016   18.6072 C   0  0  0  0  0  0  0  0  0  0  0  0
    1.7497   -5.6771   26.4971 C   0  0  0  0  0  0  0  0  0  0  0  0
   -1.5799   -9.9322   18.3468 C   0  0  0  0  0  0  0  0  0  0  0  0
   -1.0871  -12.2214   17.8851 C   0  0  0  0  0  0  0  0  0  0  0  0
   -2.2706   -8.9669   19.0691 C   0  0  0  0  0  0  0  0  0  0  0  0
    3.0279   -5.3073   26.8197 C   0  0  0  0  0  0  0  0  0  0  0  0
    7.3282   -3.8948   29.1186 C   0  0  0  0  0  0  0  0  0  0  0  0
  1  3  4  0
  1  7  4  0
  2  3  1  0
  2  6  4  0
  2 16  4  0
  3 22  4  0
  4  9  4  0
  4 10  1  0
  4 20  4  0
  5 16  4  0
  5 23  4  0
  6 15  4  0
  7 12  4  0
  8 13  4  0
  8 14  4  0
  9 11  4  0
 11 14  4  0
 11 19  4  0
 12 18  4  0
 13 21  4  0
 15 23  4  0
 17 19  4  0
 17 20  4  0
 18 22  4  0
 19 21  4  0
M  END
$$$$

 Created by Python create_sdf_string function

 23 25  0  0  0  0  0  0  0  0999 V2000
    2.4610   -5.3070   29.1240 C   0  0  0  0  0  0  0  0  0  0  0  0
    4.7710   -4.6952   28.4803 C   0  0  0  0  0  0  0  0  0  0  0  0
    3.4047   -5.1087   28.1314 C   0  0  0  0  0  0  0  0  0  0  0  0
   -0.2234  -11.8615   16.8874 C   0  0  0  0  0  0  0  0  0  0  0  0
    6.4491   -4.1532   30.1213 C   0  0  0  0  0  0  0  0  0  0  0  0
    5.7060   -4.4340   27.4975 C   0  0  0  0  0  0  0  0  0  0  0  0
    1.1818   -5.6612   28.8399 C   0  0  0  0  0  0  0  0  0  0  0  0
   -1.2067   -7.3287   17.7772 C   0  0  0  0  0  0  0  0  0  0  0  0
   -0.0206  -10.5585   16.6210 C   0  0  0  0  0  0  0  0  0  0  0  0
    0.3696  -12.7626   16.2169 O   0  0  0  0  0  0  0  0  0  0  0  0
   -0.6895   -9.5676   17.3297 C   0  0  0  0  0  0  0  0  0  0  0  0
    0.8388   -5.8417   27.5264 C   0  0  0  0  0  0  0  0  0  0  0  0
   -2.0709   -7.6637   18.7817 C   0  0  0  0  0  0  0  0  0  0  0  0
   -0.5279   -8.2168   17.0717 C   0  0  0  0  0  0  0  0  0  0  0  0
    6.9694   -4.0191   27.8190 C   0  0  0  0  0  0  0  0  0  0  0  0
    5.1733   -4.5469   29.8123 C   0  0  0  0  0  0  0  0  0  0  0  0
   -1.7508  -11.3016   18.6072 C   0  0  0  0  0  0  0  0  0  0  0  0
    1.7497   -5.6771   26.4971 C   0  0  0  0  0  0  0  0  0  0  0  0
   -1.5799   -9.9322   18.3468 C   0  0  0  0  0  0  0  0  0  0  0  0
   -1.0871  -12.2214   17.8851 C   0  0  0  0  0  0  0  0  0  0  0  0
   -2.2706   -8.9669   19.0691 C   0  0  0  0  0  0  0  0  0  0  0  0
    3.0279   -5.3073   26.8197 C   0  0  0  0  0  0  0  0  0  0  0  0
    7.3282   -3.8948   29.1186 C   0  0  0  0  0  0  0  0  0  0  0  0
  1  3  4  0
  1  7  4  0
  2  3  1  0
  2  6  4  0
  2 16  4  0
  3 22  4  0
  4  9  4  0
  4 10  1  0
  4 20  4  0
  5 16  4  0
  5 23  4  0
  6 15  4  0
  7 12  4  0
  8 13  4  0
  8 14  4  0
  9 11  4  0
 11 14  4  0
 11 19  4  0
 12 18  4  0
 13 21  4  0
 15 23  4  0
 17 19  4  0
 17 20  4  0
 18 22  4  0
 19 21  4  0
M  END
$$$$

 Created by Python create_sdf_string function

 23 25  0  0  0  0  0  0  0  0999 V2000
    2.4610   -5.3070   29.1240 C   0  0  0  0  0  0  0  0  0  0  0  0
    4.7710   -4.6952   28.4803 C   0  0  0  0  0  0  0  0  0  0  0  0
    3.4047   -5.1087   28.1314 C   0  0  0  0  0  0  0  0  0  0  0  0
   -0.2234  -11.8615   16.8874 C   0  0  0  0  0  0  0  0  0  0  0  0
    6.4491   -4.1532   30.1213 C   0  0  0  0  0  0  0  0  0  0  0  0
    5.7060   -4.4340   27.4975 C   0  0  0  0  0  0  0  0  0  0  0  0
    1.1818   -5.6612   28.8399 C   0  0  0  0  0  0  0  0  0  0  0  0
   -1.2067   -7.3287   17.7772 C   0  0  0  0  0  0  0  0  0  0  0  0
   -0.0206  -10.5585   16.6210 C   0  0  0  0  0  0  0  0  0  0  0  0
    0.3696  -12.7626   16.2169 O   0  0  0  0  0  0  0  0  0  0  0  0
   -0.6895   -9.5676   17.3297 C   0  0  0  0  0  0  0  0  0  0  0  0
    0.8388   -5.8417   27.5264 C   0  0  0  0  0  0  0  0  0  0  0  0
   -2.0709   -7.6637   18.7817 C   0  0  0  0  0  0  0  0  0  0  0  0
   -0.5279   -8.2168   17.0717 C   0  0  0  0  0  0  0  0  0  0  0  0
    6.9694   -4.0191   27.8190 C   0  0  0  0  0  0  0  0  0  0  0  0
    5.1733   -4.5469   29.8123 C   0  0  0  0  0  0  0  0  0  0  0  0
   -1.7508  -11.3016   18.6072 C   0  0  0  0  0  0  0  0  0  0  0  0
    1.7497   -5.6771   26.4971 C   0  0  0  0  0  0  0  0  0  0  0  0
   -1.5799   -9.9322   18.3468 C   0  0  0  0  0  0  0  0  0  0  0  0
   -1.0871  -12.2214   17.8851 C   0  0  0  0  0  0  0  0  0  0  0  0
   -2.2706   -8.9669   19.0691 C   0  0  0  0  0  0  0  0  0  0  0  0
    3.0279   -5.3073   26.8197 C   0  0  0  0  0  0  0  0  0  0  0  0
    7.3282   -3.8948   29.1186 C   0  0  0  0  0  0  0  0  0  0  0  0
  1  3  4  0
  1  7  4  0
  2  3  1  0
  2  6  4  0
  2 16  4  0
  3 22  4  0
  4  9  4  0
  4 10  1  0
  4 20  4  0
  5 16  4  0
  5 23  4  0
  6 15  4  0
  7 12  4  0
  8 13  4  0
  8 14  4  0
  9 11  4  0
 11 14  4  0
 11 19  4  0
 12 18  4  0
 13 21  4  0
 15 23  4  0
 17 19  4  0
 17 20  4  0
 18 22  4  0
 19 21  4  0
M  END
$$$$

 Created by Python create_sdf_string function

 23 25  0  0  0  0  0  0  0  0999 V2000
    2.4610   -5.3070   29.1240 C   0  0  0  0  0  0  0  0  0  0  0  0
    4.7710   -4.6952   28.4803 C   0  0  0  0  0  0  0  0  0  0  0  0
    3.4047   -5.1087   28.1314 C   0  0  0  0  0  0  0  0  0  0  0  0
   -0.2234  -11.8615   16.8874 C   0  0  0  0  0  0  0  0  0  0  0  0
    6.4491   -4.1532   30.1213 C   0  0  0  0  0  0  0  0  0  0  0  0
    5.7060   -4.4340   27.4975 C   0  0  0  0  0  0  0  0  0  0  0  0
    1.1818   -5.6612   28.8399 C   0  0  0  0  0  0  0  0  0  0  0  0
   -1.2067   -7.3287   17.7772 C   0  0  0  0  0  0  0  0  0  0  0  0
   -0.0206  -10.5585   16.6210 C   0  0  0  0  0  0  0  0  0  0  0  0
    0.3696  -12.7626   16.2169 O   0  0  0  0  0  0  0  0  0  0  0  0
   -0.6895   -9.5676   17.3297 C   0  0  0  0  0  0  0  0  0  0  0  0
    0.8388   -5.8417   27.5264 C   0  0  0  0  0  0  0  0  0  0  0  0
   -2.0709   -7.6637   18.7817 C   0  0  0  0  0  0  0  0  0  0  0  0
   -0.5279   -8.2168   17.0717 C   0  0  0  0  0  0  0  0  0  0  0  0
    6.9694   -4.0191   27.8190 C   0  0  0  0  0  0  0  0  0  0  0  0
    5.1733   -4.5469   29.8123 C   0  0  0  0  0  0  0  0  0  0  0  0
   -1.7508  -11.3016   18.6072 C   0  0  0  0  0  0  0  0  0  0  0  0
    1.7497   -5.6771   26.4971 C   0  0  0  0  0  0  0  0  0  0  0  0
   -1.5799   -9.9322   18.3468 C   0  0  0  0  0  0  0  0  0  0  0  0
   -1.0871  -12.2214   17.8851 C   0  0  0  0  0  0  0  0  0  0  0  0
   -2.2706   -8.9669   19.0691 C   0  0  0  0  0  0  0  0  0  0  0  0
    3.0279   -5.3073   26.8197 C   0  0  0  0  0  0  0  0  0  0  0  0
    7.3282   -3.8948   29.1186 C   0  0  0  0  0  0  0  0  0  0  0  0
  1  3  4  0
  1  7  4  0
  2  3  1  0
  2  6  4  0
  2 16  4  0
  3 22  4  0
  4  9  4  0
  4 10  1  0
  4 20  4  0
  5 16  4  0
  5 23  4  0
  6 15  4  0
  7 12  4  0
  8 13  4  0
  8 14  4  0
  9 11  4  0
 11 14  4  0
 11 19  4  0
 12 18  4  0
 13 21  4  0
 15 23  4  0
 17 19  4  0
 17 20  4  0
 18 22  4  0
 19 21  4  0
M  END
$$$$

 Created by Python create_sdf_string function

 23 25  0  0  0  0  0  0  0  0999 V2000
    2.4610   -5.3070   29.1240 C   0  0  0  0  0  0  0  0  0  0  0  0
    4.7710   -4.6952   28.4803 C   0  0  0  0  0  0  0  0  0  0  0  0
    3.4047   -5.1087   28.1314 C   0  0  0  0  0  0  0  0  0  0  0  0
   -0.2234  -11.8615   16.8874 C   0  0  0  0  0  0  0  0  0  0  0  0
    6.4491   -4.1532   30.1213 C   0  0  0  0  0  0  0  0  0  0  0  0
    5.7060   -4.4340   27.4975 C   0  0  0  0  0  0  0  0  0  0  0  0
    1.1818   -5.6612   28.8399 C   0  0  0  0  0  0  0  0  0  0  0  0
   -1.2067   -7.3287   17.7772 C   0  0  0  0  0  0  0  0  0  0  0  0
   -0.0206  -10.5585   16.6210 C   0  0  0  0  0  0  0  0  0  0  0  0
    0.3696  -12.7626   16.2169 O   0  0  0  0  0  0  0  0  0  0  0  0
   -0.6895   -9.5676   17.3297 C   0  0  0  0  0  0  0  0  0  0  0  0
    0.8388   -5.8417   27.5264 C   0  0  0  0  0  0  0  0  0  0  0  0
   -2.0709   -7.6637   18.7817 C   0  0  0  0  0  0  0  0  0  0  0  0
   -0.5279   -8.2168   17.0717 C   0  0  0  0  0  0  0  0  0  0  0  0
    6.9694   -4.0191   27.8190 C   0  0  0  0  0  0  0  0  0  0  0  0
    5.1733   -4.5469   29.8123 C   0  0  0  0  0  0  0  0  0  0  0  0
   -1.7508  -11.3016   18.6072 C   0  0  0  0  0  0  0  0  0  0  0  0
    1.7497   -5.6771   26.4971 C   0  0  0  0  0  0  0  0  0  0  0  0
   -1.5799   -9.9322   18.3468 C   0  0  0  0  0  0  0  0  0  0  0  0
   -1.0871  -12.2214   17.8851 C   0  0  0  0  0  0  0  0  0  0  0  0
   -2.2706   -8.9669   19.0691 C   0  0  0  0  0  0  0  0  0  0  0  0
    3.0279   -5.3073   26.8197 C   0  0  0  0  0  0  0  0  0  0  0  0
    7.3282   -3.8948   29.1186 C   0  0  0  0  0  0  0  0  0  0  0  0
  1  3  4  0
  1  7  4  0
  2  3  1  0
  2  6  4  0
  2 16  4  0
  3 22  4  0
  4  9  4  0
  4 10  1  0
  4 20  4  0
  5 16  4  0
  5 23  4  0
  6 15  4  0
  7 12  4  0
  8 13  4  0
  8 14  4  0
  9 11  4  0
 11 14  4  0
 11 19  4  0
 12 18  4  0
 13 21  4  0
 15 23  4  0
 17 19  4  0
 17 20  4  0
 18 22  4  0
 19 21  4  0
M  END
$$$$

 Created by Python create_sdf_string function

 23 25  0  0  0  0  0  0  0  0999 V2000
    2.4610   -5.3070   29.1240 C   0  0  0  0  0  0  0  0  0  0  0  0
    4.7710   -4.6952   28.4803 C   0  0  0  0  0  0  0  0  0  0  0  0
    3.4047   -5.1087   28.1314 C   0  0  0  0  0  0  0  0  0  0  0  0
   -0.2234  -11.8615   16.8874 C   0  0  0  0  0  0  0  0  0  0  0  0
    6.4491   -4.1532   30.1213 C   0  0  0  0  0  0  0  0  0  0  0  0
    5.7060   -4.4340   27.4975 C   0  0  0  0  0  0  0  0  0  0  0  0
    1.1818   -5.6612   28.8399 C   0  0  0  0  0  0  0  0  0  0  0  0
   -1.2067   -7.3287   17.7772 C   0  0  0  0  0  0  0  0  0  0  0  0
   -0.0206  -10.5585   16.6210 C   0  0  0  0  0  0  0  0  0  0  0  0
    0.3696  -12.7626   16.2169 O   0  0  0  0  0  0  0  0  0  0  0  0
   -0.6895   -9.5676   17.3297 C   0  0  0  0  0  0  0  0  0  0  0  0
    0.8388   -5.8417   27.5264 C   0  0  0  0  0  0  0  0  0  0  0  0
   -2.0709   -7.6637   18.7817 C   0  0  0  0  0  0  0  0  0  0  0  0
   -0.5279   -8.2168   17.0717 C   0  0  0  0  0  0  0  0  0  0  0  0
    6.9694   -4.0191   27.8190 C   0  0  0  0  0  0  0  0  0  0  0  0
    5.1733   -4.5469   29.8123 C   0  0  0  0  0  0  0  0  0  0  0  0
   -1.7508  -11.3016   18.6072 C   0  0  0  0  0  0  0  0  0  0  0  0
    1.7497   -5.6771   26.4971 C   0  0  0  0  0  0  0  0  0  0  0  0
   -1.5799   -9.9322   18.3468 C   0  0  0  0  0  0  0  0  0  0  0  0
   -1.0871  -12.2214   17.8851 C   0  0  0  0  0  0  0  0  0  0  0  0
   -2.2706   -8.9669   19.0691 C   0  0  0  0  0  0  0  0  0  0  0  0
    3.0279   -5.3073   26.8197 C   0  0  0  0  0  0  0  0  0  0  0  0
    7.3282   -3.8948   29.1186 C   0  0  0  0  0  0  0  0  0  0  0  0
  1  3  4  0
  1  7  4  0
  2  3  1  0
  2  6  4  0
  2 16  4  0
  3 22  4  0
  4  9  4  0
  4 10  1  0
  4 20  4  0
  5 16  4  0
  5 23  4  0
  6 15  4  0
  7 12  4  0
  8 13  4  0
  8 14  4  0
  9 11  4  0
 11 14  4  0
 11 19  4  0
 12 18  4  0
 13 21  4  0
 15 23  4  0
 17 19  4  0
 17 20  4  0
 18 22  4  0
 19 21  4  0
M  END
$$$$

 Created by Python create_sdf_string function

 23 25  0  0  0  0  0  0  0  0999 V2000
    2.4610   -5.3070   29.1240 C   0  0  0  0  0  0  0  0  0  0  0  0
    4.7710   -4.6952   28.4803 C   0  0  0  0  0  0  0  0  0  0  0  0
    3.4047   -5.1087   28.1314 C   0  0  0  0  0  0  0  0  0  0  0  0
   -0.2234  -11.8615   16.8874 C   0  0  0  0  0  0  0  0  0  0  0  0
    6.4491   -4.1532   30.1213 C   0  0  0  0  0  0  0  0  0  0  0  0
    5.7060   -4.4340   27.4975 C   0  0  0  0  0  0  0  0  0  0  0  0
    1.1818   -5.6612   28.8399 C   0  0  0  0  0  0  0  0  0  0  0  0
   -1.2067   -7.3287   17.7772 C   0  0  0  0  0  0  0  0  0  0  0  0
   -0.0206  -10.5585   16.6210 C   0  0  0  0  0  0  0  0  0  0  0  0
    0.3696  -12.7626   16.2169 O   0  0  0  0  0  0  0  0  0  0  0  0
   -0.6895   -9.5676   17.3297 C   0  0  0  0  0  0  0  0  0  0  0  0
    0.8388   -5.8417   27.5264 C   0  0  0  0  0  0  0  0  0  0  0  0
   -2.0709   -7.6637   18.7817 C   0  0  0  0  0  0  0  0  0  0  0  0
   -0.5279   -8.2168   17.0717 C   0  0  0  0  0  0  0  0  0  0  0  0
    6.9694   -4.0191   27.8190 C   0  0  0  0  0  0  0  0  0  0  0  0
    5.1733   -4.5469   29.8123 C   0  0  0  0  0  0  0  0  0  0  0  0
   -1.7508  -11.3016   18.6072 C   0  0  0  0  0  0  0  0  0  0  0  0
    1.7497   -5.6771   26.4971 C   0  0  0  0  0  0  0  0  0  0  0  0
   -1.5799   -9.9322   18.3468 C   0  0  0  0  0  0  0  0  0  0  0  0
   -1.0871  -12.2214   17.8851 C   0  0  0  0  0  0  0  0  0  0  0  0
   -2.2706   -8.9669   19.0691 C   0  0  0  0  0  0  0  0  0  0  0  0
    3.0279   -5.3073   26.8197 C   0  0  0  0  0  0  0  0  0  0  0  0
    7.3282   -3.8948   29.1186 C   0  0  0  0  0  0  0  0  0  0  0  0
  1  3  4  0
  1  7  4  0
  2  3  1  0
  2  6  4  0
  2 16  4  0
  3 22  4  0
  4  9  4  0
  4 10  1  0
  4 20  4  0
  5 16  4  0
  5 23  4  0
  6 15  4  0
  7 12  4  0
  8 13  4  0
  8 14  4  0
  9 11  4  0
 11 14  4  0
 11 19  4  0
 12 18  4  0
 13 21  4  0
 15 23  4  0
 17 19  4  0
 17 20  4  0
 18 22  4  0
 19 21  4  0
M  END
$$$$

 Created by Python create_sdf_string function

 23 25  0  0  0  0  0  0  0  0999 V2000
    2.4610   -5.3070   29.1240 C   0  0  0  0  0  0  0  0  0  0  0  0
    4.7710   -4.6952   28.4803 C   0  0  0  0  0  0  0  0  0  0  0  0
    3.4047   -5.1087   28.1314 C   0  0  0  0  0  0  0  0  0  0  0  0
   -0.2234  -11.8615   16.8874 C   0  0  0  0  0  0  0  0  0  0  0  0
    6.4491   -4.1532   30.1213 C   0  0  0  0  0  0  0  0  0  0  0  0
    5.7060   -4.4340   27.4975 C   0  0  0  0  0  0  0  0  0  0  0  0
    1.1818   -5.6612   28.8399 C   0  0  0  0  0  0  0  0  0  0  0  0
   -1.2067   -7.3287   17.7772 C   0  0  0  0  0  0  0  0  0  0  0  0
   -0.0206  -10.5585   16.6210 C   0  0  0  0  0  0  0  0  0  0  0  0
    0.3696  -12.7626   16.2169 O   0  0  0  0  0  0  0  0  0  0  0  0
   -0.6895   -9.5676   17.3297 C   0  0  0  0  0  0  0  0  0  0  0  0
    0.8388   -5.8417   27.5264 C   0  0  0  0  0  0  0  0  0  0  0  0
   -2.0709   -7.6637   18.7817 C   0  0  0  0  0  0  0  0  0  0  0  0
   -0.5279   -8.2168   17.0717 C   0  0  0  0  0  0  0  0  0  0  0  0
    6.9694   -4.0191   27.8190 C   0  0  0  0  0  0  0  0  0  0  0  0
    5.1733   -4.5469   29.8123 C   0  0  0  0  0  0  0  0  0  0  0  0
   -1.7508  -11.3016   18.6072 C   0  0  0  0  0  0  0  0  0  0  0  0
    1.7497   -5.6771   26.4971 C   0  0  0  0  0  0  0  0  0  0  0  0
   -1.5799   -9.9322   18.3468 C   0  0  0  0  0  0  0  0  0  0  0  0
   -1.0871  -12.2214   17.8851 C   0  0  0  0  0  0  0  0  0  0  0  0
   -2.2706   -8.9669   19.0691 C   0  0  0  0  0  0  0  0  0  0  0  0
    3.0279   -5.3073   26.8197 C   0  0  0  0  0  0  0  0  0  0  0  0
    7.3282   -3.8948   29.1186 C   0  0  0  0  0  0  0  0  0  0  0  0
  1  3  4  0
  1  7  4  0
  2  3  1  0
  2  6  4  0
  2 16  4  0
  3 22  4  0
  4  9  4  0
  4 10  1  0
  4 20  4  0
  5 16  4  0
  5 23  4  0
  6 15  4  0
  7 12  4  0
  8 13  4  0
  8 14  4  0
  9 11  4  0
 11 14  4  0
 11 19  4  0
 12 18  4  0
 13 21  4  0
 15 23  4  0
 17 19  4  0
 17 20  4  0
 18 22  4  0
 19 21  4  0
M  END
$$$$

 Created by Python create_sdf_string function

 23 25  0  0  0  0  0  0  0  0999 V2000
    2.4610   -5.3070   29.1240 C   0  0  0  0  0  0  0  0  0  0  0  0
    4.7710   -4.6952   28.4803 C   0  0  0  0  0  0  0  0  0  0  0  0
    3.4047   -5.1087   28.1314 C   0  0  0  0  0  0  0  0  0  0  0  0
   -0.2234  -11.8615   16.8874 C   0  0  0  0  0  0  0  0  0  0  0  0
    6.4491   -4.1532   30.1213 C   0  0  0  0  0  0  0  0  0  0  0  0
    5.7060   -4.4340   27.4975 C   0  0  0  0  0  0  0  0  0  0  0  0
    1.1818   -5.6612   28.8399 C   0  0  0  0  0  0  0  0  0  0  0  0
   -1.2067   -7.3287   17.7772 C   0  0  0  0  0  0  0  0  0  0  0  0
   -0.0206  -10.5585   16.6210 C   0  0  0  0  0  0  0  0  0  0  0  0
    0.3696  -12.7626   16.2169 O   0  0  0  0  0  0  0  0  0  0  0  0
   -0.6895   -9.5676   17.3297 C   0  0  0  0  0  0  0  0  0  0  0  0
    0.8388   -5.8417   27.5264 C   0  0  0  0  0  0  0  0  0  0  0  0
   -2.0709   -7.6637   18.7817 C   0  0  0  0  0  0  0  0  0  0  0  0
   -0.5279   -8.2168   17.0717 C   0  0  0  0  0  0  0  0  0  0  0  0
    6.9694   -4.0191   27.8190 C   0  0  0  0  0  0  0  0  0  0  0  0
    5.1733   -4.5469   29.8123 C   0  0  0  0  0  0  0  0  0  0  0  0
   -1.7508  -11.3016   18.6072 C   0  0  0  0  0  0  0  0  0  0  0  0
    1.7497   -5.6771   26.4971 C   0  0  0  0  0  0  0  0  0  0  0  0
   -1.5799   -9.9322   18.3468 C   0  0  0  0  0  0  0  0  0  0  0  0
   -1.0871  -12.2214   17.8851 C   0  0  0  0  0  0  0  0  0  0  0  0
   -2.2706   -8.9669   19.0691 C   0  0  0  0  0  0  0  0  0  0  0  0
    3.0279   -5.3073   26.8197 C   0  0  0  0  0  0  0  0  0  0  0  0
    7.3282   -3.8948   29.1186 C   0  0  0  0  0  0  0  0  0  0  0  0
  1  3  4  0
  1  7  4  0
  2  3  1  0
  2  6  4  0
  2 16  4  0
  3 22  4  0
  4  9  4  0
  4 10  1  0
  4 20  4  0
  5 16  4  0
  5 23  4  0
  6 15  4  0
  7 12  4  0
  8 13  4  0
  8 14  4  0
  9 11  4  0
 11 14  4  0
 11 19  4  0
 12 18  4  0
 13 21  4  0
 15 23  4  0
 17 19  4  0
 17 20  4  0
 18 22  4  0
 19 21  4  0
M  END
$$$$

 Created by Python create_sdf_string function

 23 25  0  0  0  0  0  0  0  0999 V2000
    2.4610   -5.3070   29.1240 C   0  0  0  0  0  0  0  0  0  0  0  0
    4.7710   -4.6952   28.4803 C   0  0  0  0  0  0  0  0  0  0  0  0
    3.4047   -5.1087   28.1314 C   0  0  0  0  0  0  0  0  0  0  0  0
   -0.2234  -11.8615   16.8874 C   0  0  0  0  0  0  0  0  0  0  0  0
    6.4491   -4.1532   30.1213 C   0  0  0  0  0  0  0  0  0  0  0  0
    5.7060   -4.4340   27.4975 C   0  0  0  0  0  0  0  0  0  0  0  0
    1.1818   -5.6612   28.8399 C   0  0  0  0  0  0  0  0  0  0  0  0
   -1.2067   -7.3287   17.7772 C   0  0  0  0  0  0  0  0  0  0  0  0
   -0.0206  -10.5585   16.6210 C   0  0  0  0  0  0  0  0  0  0  0  0
    0.3696  -12.7626   16.2169 O   0  0  0  0  0  0  0  0  0  0  0  0
   -0.6895   -9.5676   17.3297 C   0  0  0  0  0  0  0  0  0  0  0  0
    0.8388   -5.8417   27.5264 C   0  0  0  0  0  0  0  0  0  0  0  0
   -2.0709   -7.6637   18.7817 C   0  0  0  0  0  0  0  0  0  0  0  0
   -0.5279   -8.2168   17.0717 C   0  0  0  0  0  0  0  0  0  0  0  0
    6.9694   -4.0191   27.8190 C   0  0  0  0  0  0  0  0  0  0  0  0
    5.1733   -4.5469   29.8123 C   0  0  0  0  0  0  0  0  0  0  0  0
   -1.7508  -11.3016   18.6072 C   0  0  0  0  0  0  0  0  0  0  0  0
    1.7497   -5.6771   26.4971 C   0  0  0  0  0  0  0  0  0  0  0  0
   -1.5799   -9.9322   18.3468 C   0  0  0  0  0  0  0  0  0  0  0  0
   -1.0871  -12.2214   17.8851 C   0  0  0  0  0  0  0  0  0  0  0  0
   -2.2706   -8.9669   19.0691 C   0  0  0  0  0  0  0  0  0  0  0  0
    3.0279   -5.3073   26.8197 C   0  0  0  0  0  0  0  0  0  0  0  0
    7.3282   -3.8948   29.1186 C   0  0  0  0  0  0  0  0  0  0  0  0
  1  3  4  0
  1  7  4  0
  2  3  1  0
  2  6  4  0
  2 16  4  0
  3 22  4  0
  4  9  4  0
  4 10  1  0
  4 20  4  0
  5 16  4  0
  5 23  4  0
  6 15  4  0
  7 12  4  0
  8 13  4  0
  8 14  4  0
  9 11  4  0
 11 14  4  0
 11 19  4  0
 12 18  4  0
 13 21  4  0
 15 23  4  0
 17 19  4  0
 17 20  4  0
 18 22  4  0
 19 21  4  0
M  END
$$$$

 Created by Python create_sdf_string function

 23 25  0  0  0  0  0  0  0  0999 V2000
    2.4610   -5.3070   29.1240 C   0  0  0  0  0  0  0  0  0  0  0  0
    4.7710   -4.6952   28.4803 C   0  0  0  0  0  0  0  0  0  0  0  0
    3.4047   -5.1087   28.1314 C   0  0  0  0  0  0  0  0  0  0  0  0
   -0.2234  -11.8615   16.8874 C   0  0  0  0  0  0  0  0  0  0  0  0
    6.4491   -4.1532   30.1213 C   0  0  0  0  0  0  0  0  0  0  0  0
    5.7060   -4.4340   27.4975 C   0  0  0  0  0  0  0  0  0  0  0  0
    1.1818   -5.6612   28.8399 C   0  0  0  0  0  0  0  0  0  0  0  0
   -1.2067   -7.3287   17.7772 C   0  0  0  0  0  0  0  0  0  0  0  0
   -0.0206  -10.5585   16.6210 C   0  0  0  0  0  0  0  0  0  0  0  0
    0.3696  -12.7626   16.2169 O   0  0  0  0  0  0  0  0  0  0  0  0
   -0.6895   -9.5676   17.3297 C   0  0  0  0  0  0  0  0  0  0  0  0
    0.8388   -5.8417   27.5264 C   0  0  0  0  0  0  0  0  0  0  0  0
   -2.0709   -7.6637   18.7817 C   0  0  0  0  0  0  0  0  0  0  0  0
   -0.5279   -8.2168   17.0717 C   0  0  0  0  0  0  0  0  0  0  0  0
    6.9694   -4.0191   27.8190 C   0  0  0  0  0  0  0  0  0  0  0  0
    5.1733   -4.5469   29.8123 C   0  0  0  0  0  0  0  0  0  0  0  0
   -1.7508  -11.3016   18.6072 C   0  0  0  0  0  0  0  0  0  0  0  0
    1.7497   -5.6771   26.4971 C   0  0  0  0  0  0  0  0  0  0  0  0
   -1.5799   -9.9322   18.3468 C   0  0  0  0  0  0  0  0  0  0  0  0
   -1.0871  -12.2214   17.8851 C   0  0  0  0  0  0  0  0  0  0  0  0
   -2.2706   -8.9669   19.0691 C   0  0  0  0  0  0  0  0  0  0  0  0
    3.0279   -5.3073   26.8197 C   0  0  0  0  0  0  0  0  0  0  0  0
    7.3282   -3.8948   29.1186 C   0  0  0  0  0  0  0  0  0  0  0  0
  1  3  4  0
  1  7  4  0
  2  3  1  0
  2  6  4  0
  2 16  4  0
  3 22  4  0
  4  9  4  0
  4 10  1  0
  4 20  4  0
  5 16  4  0
  5 23  4  0
  6 15  4  0
  7 12  4  0
  8 13  4  0
  8 14  4  0
  9 11  4  0
 11 14  4  0
 11 19  4  0
 12 18  4  0
 13 21  4  0
 15 23  4  0
 17 19  4  0
 17 20  4  0
 18 22  4  0
 19 21  4  0
M  END
$$$$

 Created by Python create_sdf_string function

 23 25  0  0  0  0  0  0  0  0999 V2000
    2.4610   -5.3070   29.1240 C   0  0  0  0  0  0  0  0  0  0  0  0
    4.7710   -4.6952   28.4803 C   0  0  0  0  0  0  0  0  0  0  0  0
    3.4047   -5.1087   28.1314 C   0  0  0  0  0  0  0  0  0  0  0  0
   -0.2234  -11.8615   16.8874 C   0  0  0  0  0  0  0  0  0  0  0  0
    6.4491   -4.1532   30.1213 C   0  0  0  0  0  0  0  0  0  0  0  0
    5.7060   -4.4340   27.4975 C   0  0  0  0  0  0  0  0  0  0  0  0
    1.1818   -5.6612   28.8399 C   0  0  0  0  0  0  0  0  0  0  0  0
   -1.2067   -7.3287   17.7772 C   0  0  0  0  0  0  0  0  0  0  0  0
   -0.0206  -10.5585   16.6210 C   0  0  0  0  0  0  0  0  0  0  0  0
    0.3696  -12.7626   16.2169 O   0  0  0  0  0  0  0  0  0  0  0  0
   -0.6895   -9.5676   17.3297 C   0  0  0  0  0  0  0  0  0  0  0  0
    0.8388   -5.8417   27.5264 C   0  0  0  0  0  0  0  0  0  0  0  0
   -2.0709   -7.6637   18.7817 C   0  0  0  0  0  0  0  0  0  0  0  0
   -0.5279   -8.2168   17.0717 C   0  0  0  0  0  0  0  0  0  0  0  0
    6.9694   -4.0191   27.8190 C   0  0  0  0  0  0  0  0  0  0  0  0
    5.1733   -4.5469   29.8123 C   0  0  0  0  0  0  0  0  0  0  0  0
   -1.7508  -11.3016   18.6072 C   0  0  0  0  0  0  0  0  0  0  0  0
    1.7497   -5.6771   26.4971 C   0  0  0  0  0  0  0  0  0  0  0  0
   -1.5799   -9.9322   18.3468 C   0  0  0  0  0  0  0  0  0  0  0  0
   -1.0871  -12.2214   17.8851 C   0  0  0  0  0  0  0  0  0  0  0  0
   -2.2706   -8.9669   19.0691 C   0  0  0  0  0  0  0  0  0  0  0  0
    3.0279   -5.3073   26.8197 C   0  0  0  0  0  0  0  0  0  0  0  0
    7.3282   -3.8948   29.1186 C   0  0  0  0  0  0  0  0  0  0  0  0
  1  3  4  0
  1  7  4  0
  2  3  1  0
  2  6  4  0
  2 16  4  0
  3 22  4  0
  4  9  4  0
  4 10  1  0
  4 20  4  0
  5 16  4  0
  5 23  4  0
  6 15  4  0
  7 12  4  0
  8 13  4  0
  8 14  4  0
  9 11  4  0
 11 14  4  0
 11 19  4  0
 12 18  4  0
 13 21  4  0
 15 23  4  0
 17 19  4  0
 17 20  4  0
 18 22  4  0
 19 21  4  0
M  END
$$$$

 Created by Python create_sdf_string function

 23 25  0  0  0  0  0  0  0  0999 V2000
    2.4610   -5.3070   29.1240 C   0  0  0  0  0  0  0  0  0  0  0  0
    4.7710   -4.6952   28.4803 C   0  0  0  0  0  0  0  0  0  0  0  0
    3.4047   -5.1087   28.1314 C   0  0  0  0  0  0  0  0  0  0  0  0
   -0.2234  -11.8615   16.8874 C   0  0  0  0  0  0  0  0  0  0  0  0
    6.4491   -4.1532   30.1213 C   0  0  0  0  0  0  0  0  0  0  0  0
    5.7060   -4.4340   27.4975 C   0  0  0  0  0  0  0  0  0  0  0  0
    1.1818   -5.6612   28.8399 C   0  0  0  0  0  0  0  0  0  0  0  0
   -1.2067   -7.3287   17.7772 C   0  0  0  0  0  0  0  0  0  0  0  0
   -0.0206  -10.5585   16.6210 C   0  0  0  0  0  0  0  0  0  0  0  0
    0.3696  -12.7626   16.2169 O   0  0  0  0  0  0  0  0  0  0  0  0
   -0.6895   -9.5676   17.3297 C   0  0  0  0  0  0  0  0  0  0  0  0
    0.8388   -5.8417   27.5264 C   0  0  0  0  0  0  0  0  0  0  0  0
   -2.0709   -7.6637   18.7817 C   0  0  0  0  0  0  0  0  0  0  0  0
   -0.5279   -8.2168   17.0717 C   0  0  0  0  0  0  0  0  0  0  0  0
    6.9694   -4.0191   27.8190 C   0  0  0  0  0  0  0  0  0  0  0  0
    5.1733   -4.5469   29.8123 C   0  0  0  0  0  0  0  0  0  0  0  0
   -1.7508  -11.3016   18.6072 C   0  0  0  0  0  0  0  0  0  0  0  0
    1.7497   -5.6771   26.4971 C   0  0  0  0  0  0  0  0  0  0  0  0
   -1.5799   -9.9322   18.3468 C   0  0  0  0  0  0  0  0  0  0  0  0
   -1.0871  -12.2214   17.8851 C   0  0  0  0  0  0  0  0  0  0  0  0
   -2.2706   -8.9669   19.0691 C   0  0  0  0  0  0  0  0  0  0  0  0
    3.0279   -5.3073   26.8197 C   0  0  0  0  0  0  0  0  0  0  0  0
    7.3282   -3.8948   29.1186 C   0  0  0  0  0  0  0  0  0  0  0  0
  1  3  4  0
  1  7  4  0
  2  3  1  0
  2  6  4  0
  2 16  4  0
  3 22  4  0
  4  9  4  0
  4 10  1  0
  4 20  4  0
  5 16  4  0
  5 23  4  0
  6 15  4  0
  7 12  4  0
  8 13  4  0
  8 14  4  0
  9 11  4  0
 11 14  4  0
 11 19  4  0
 12 18  4  0
 13 21  4  0
 15 23  4  0
 17 19  4  0
 17 20  4  0
 18 22  4  0
 19 21  4  0
M  END
$$$$

 Created by Python create_sdf_string function

 23 25  0  0  0  0  0  0  0  0999 V2000
    2.4610   -5.3070   29.1240 C   0  0  0  0  0  0  0  0  0  0  0  0
    4.7710   -4.6952   28.4803 C   0  0  0  0  0  0  0  0  0  0  0  0
    3.4047   -5.1087   28.1314 C   0  0  0  0  0  0  0  0  0  0  0  0
   -0.2234  -11.8615   16.8874 C   0  0  0  0  0  0  0  0  0  0  0  0
    6.4491   -4.1532   30.1213 C   0  0  0  0  0  0  0  0  0  0  0  0
    5.7060   -4.4340   27.4975 C   0  0  0  0  0  0  0  0  0  0  0  0
    1.1818   -5.6612   28.8399 C   0  0  0  0  0  0  0  0  0  0  0  0
   -1.2067   -7.3287   17.7772 C   0  0  0  0  0  0  0  0  0  0  0  0
   -0.0206  -10.5585   16.6210 C   0  0  0  0  0  0  0  0  0  0  0  0
    0.3696  -12.7626   16.2169 O   0  0  0  0  0  0  0  0  0  0  0  0
   -0.6895   -9.5676   17.3297 C   0  0  0  0  0  0  0  0  0  0  0  0
    0.8388   -5.8417   27.5264 C   0  0  0  0  0  0  0  0  0  0  0  0
   -2.0709   -7.6637   18.7817 C   0  0  0  0  0  0  0  0  0  0  0  0
   -0.5279   -8.2168   17.0717 C   0  0  0  0  0  0  0  0  0  0  0  0
    6.9694   -4.0191   27.8190 C   0  0  0  0  0  0  0  0  0  0  0  0
    5.1733   -4.5469   29.8123 C   0  0  0  0  0  0  0  0  0  0  0  0
   -1.7508  -11.3016   18.6072 C   0  0  0  0  0  0  0  0  0  0  0  0
    1.7497   -5.6771   26.4971 C   0  0  0  0  0  0  0  0  0  0  0  0
   -1.5799   -9.9322   18.3468 C   0  0  0  0  0  0  0  0  0  0  0  0
   -1.0871  -12.2214   17.8851 C   0  0  0  0  0  0  0  0  0  0  0  0
   -2.2706   -8.9669   19.0691 C   0  0  0  0  0  0  0  0  0  0  0  0
    3.0279   -5.3073   26.8197 C   0  0  0  0  0  0  0  0  0  0  0  0
    7.3282   -3.8948   29.1186 C   0  0  0  0  0  0  0  0  0  0  0  0
  1  3  4  0
  1  7  4  0
  2  3  1  0
  2  6  4  0
  2 16  4  0
  3 22  4  0
  4  9  4  0
  4 10  1  0
  4 20  4  0
  5 16  4  0
  5 23  4  0
  6 15  4  0
  7 12  4  0
  8 13  4  0
  8 14  4  0
  9 11  4  0
 11 14  4  0
 11 19  4  0
 12 18  4  0
 13 21  4  0
 15 23  4  0
 17 19  4  0
 17 20  4  0
 18 22  4  0
 19 21  4  0
M  END
$$$$

 Created by Python create_sdf_string function

 23 25  0  0  0  0  0  0  0  0999 V2000
    2.4610   -5.3070   29.1240 C   0  0  0  0  0  0  0  0  0  0  0  0
    4.7710   -4.6952   28.4803 C   0  0  0  0  0  0  0  0  0  0  0  0
    3.4047   -5.1087   28.1314 C   0  0  0  0  0  0  0  0  0  0  0  0
   -0.2234  -11.8615   16.8874 C   0  0  0  0  0  0  0  0  0  0  0  0
    6.4491   -4.1532   30.1213 C   0  0  0  0  0  0  0  0  0  0  0  0
    5.7060   -4.4340   27.4975 C   0  0  0  0  0  0  0  0  0  0  0  0
    1.1818   -5.6612   28.8399 C   0  0  0  0  0  0  0  0  0  0  0  0
   -1.2067   -7.3287   17.7772 C   0  0  0  0  0  0  0  0  0  0  0  0
   -0.0206  -10.5585   16.6210 C   0  0  0  0  0  0  0  0  0  0  0  0
    0.3696  -12.7626   16.2169 O   0  0  0  0  0  0  0  0  0  0  0  0
   -0.6895   -9.5676   17.3297 C   0  0  0  0  0  0  0  0  0  0  0  0
    0.8388   -5.8417   27.5264 C   0  0  0  0  0  0  0  0  0  0  0  0
   -2.0709   -7.6637   18.7817 C   0  0  0  0  0  0  0  0  0  0  0  0
   -0.5279   -8.2168   17.0717 C   0  0  0  0  0  0  0  0  0  0  0  0
    6.9694   -4.0191   27.8190 C   0  0  0  0  0  0  0  0  0  0  0  0
    5.1733   -4.5469   29.8123 C   0  0  0  0  0  0  0  0  0  0  0  0
   -1.7508  -11.3016   18.6072 C   0  0  0  0  0  0  0  0  0  0  0  0
    1.7497   -5.6771   26.4971 C   0  0  0  0  0  0  0  0  0  0  0  0
   -1.5799   -9.9322   18.3468 C   0  0  0  0  0  0  0  0  0  0  0  0
   -1.0871  -12.2214   17.8851 C   0  0  0  0  0  0  0  0  0  0  0  0
   -2.2706   -8.9669   19.0691 C   0  0  0  0  0  0  0  0  0  0  0  0
    3.0279   -5.3073   26.8197 C   0  0  0  0  0  0  0  0  0  0  0  0
    7.3282   -3.8948   29.1186 C   0  0  0  0  0  0  0  0  0  0  0  0
  1  3  4  0
  1  7  4  0
  2  3  1  0
  2  6  4  0
  2 16  4  0
  3 22  4  0
  4  9  4  0
  4 10  1  0
  4 20  4  0
  5 16  4  0
  5 23  4  0
  6 15  4  0
  7 12  4  0
  8 13  4  0
  8 14  4  0
  9 11  4  0
 11 14  4  0
 11 19  4  0
 12 18  4  0
 13 21  4  0
 15 23  4  0
 17 19  4  0
 17 20  4  0
 18 22  4  0
 19 21  4  0
M  END
$$$$

 Created by Python create_sdf_string function

 23 25  0  0  0  0  0  0  0  0999 V2000
    2.4610   -5.3070   29.1240 C   0  0  0  0  0  0  0  0  0  0  0  0
    4.7710   -4.6952   28.4803 C   0  0  0  0  0  0  0  0  0  0  0  0
    3.4047   -5.1087   28.1314 C   0  0  0  0  0  0  0  0  0  0  0  0
   -0.2234  -11.8615   16.8874 C   0  0  0  0  0  0  0  0  0  0  0  0
    6.4491   -4.1532   30.1213 C   0  0  0  0  0  0  0  0  0  0  0  0
    5.7060   -4.4340   27.4975 C   0  0  0  0  0  0  0  0  0  0  0  0
    1.1818   -5.6612   28.8399 C   0  0  0  0  0  0  0  0  0  0  0  0
   -1.2067   -7.3287   17.7772 C   0  0  0  0  0  0  0  0  0  0  0  0
   -0.0206  -10.5585   16.6210 C   0  0  0  0  0  0  0  0  0  0  0  0
    0.3696  -12.7626   16.2169 O   0  0  0  0  0  0  0  0  0  0  0  0
   -0.6895   -9.5676   17.3297 C   0  0  0  0  0  0  0  0  0  0  0  0
    0.8388   -5.8417   27.5264 C   0  0  0  0  0  0  0  0  0  0  0  0
   -2.0709   -7.6637   18.7817 C   0  0  0  0  0  0  0  0  0  0  0  0
   -0.5279   -8.2168   17.0717 C   0  0  0  0  0  0  0  0  0  0  0  0
    6.9694   -4.0191   27.8190 C   0  0  0  0  0  0  0  0  0  0  0  0
    5.1733   -4.5469   29.8123 C   0  0  0  0  0  0  0  0  0  0  0  0
   -1.7508  -11.3016   18.6072 C   0  0  0  0  0  0  0  0  0  0  0  0
    1.7497   -5.6771   26.4971 C   0  0  0  0  0  0  0  0  0  0  0  0
   -1.5799   -9.9322   18.3468 C   0  0  0  0  0  0  0  0  0  0  0  0
   -1.0871  -12.2214   17.8851 C   0  0  0  0  0  0  0  0  0  0  0  0
   -2.2706   -8.9669   19.0691 C   0  0  0  0  0  0  0  0  0  0  0  0
    3.0279   -5.3073   26.8197 C   0  0  0  0  0  0  0  0  0  0  0  0
    7.3282   -3.8948   29.1186 C   0  0  0  0  0  0  0  0  0  0  0  0
  1  3  4  0
  1  7  4  0
  2  3  1  0
  2  6  4  0
  2 16  4  0
  3 22  4  0
  4  9  4  0
  4 10  1  0
  4 20  4  0
  5 16  4  0
  5 23  4  0
  6 15  4  0
  7 12  4  0
  8 13  4  0
  8 14  4  0
  9 11  4  0
 11 14  4  0
 11 19  4  0
 12 18  4  0
 13 21  4  0
 15 23  4  0
 17 19  4  0
 17 20  4  0
 18 22  4  0
 19 21  4  0
M  END
$$$$

 Created by Python create_sdf_string function

 23 25  0  0  0  0  0  0  0  0999 V2000
    2.4610   -5.3070   29.1240 C   0  0  0  0  0  0  0  0  0  0  0  0
    4.7710   -4.6952   28.4803 C   0  0  0  0  0  0  0  0  0  0  0  0
    3.4047   -5.1087   28.1314 C   0  0  0  0  0  0  0  0  0  0  0  0
   -0.2234  -11.8615   16.8874 C   0  0  0  0  0  0  0  0  0  0  0  0
    6.4491   -4.1532   30.1213 C   0  0  0  0  0  0  0  0  0  0  0  0
    5.7060   -4.4340   27.4975 C   0  0  0  0  0  0  0  0  0  0  0  0
    1.1818   -5.6612   28.8399 C   0  0  0  0  0  0  0  0  0  0  0  0
   -1.2067   -7.3287   17.7772 C   0  0  0  0  0  0  0  0  0  0  0  0
   -0.0206  -10.5585   16.6210 C   0  0  0  0  0  0  0  0  0  0  0  0
    0.3696  -12.7626   16.2169 O   0  0  0  0  0  0  0  0  0  0  0  0
   -0.6895   -9.5676   17.3297 C   0  0  0  0  0  0  0  0  0  0  0  0
    0.8388   -5.8417   27.5264 C   0  0  0  0  0  0  0  0  0  0  0  0
   -2.0709   -7.6637   18.7817 C   0  0  0  0  0  0  0  0  0  0  0  0
   -0.5279   -8.2168   17.0717 C   0  0  0  0  0  0  0  0  0  0  0  0
    6.9694   -4.0191   27.8190 C   0  0  0  0  0  0  0  0  0  0  0  0
    5.1733   -4.5469   29.8123 C   0  0  0  0  0  0  0  0  0  0  0  0
   -1.7508  -11.3016   18.6072 C   0  0  0  0  0  0  0  0  0  0  0  0
    1.7497   -5.6771   26.4971 C   0  0  0  0  0  0  0  0  0  0  0  0
   -1.5799   -9.9322   18.3468 C   0  0  0  0  0  0  0  0  0  0  0  0
   -1.0871  -12.2214   17.8851 C   0  0  0  0  0  0  0  0  0  0  0  0
   -2.2706   -8.9669   19.0691 C   0  0  0  0  0  0  0  0  0  0  0  0
    3.0279   -5.3073   26.8197 C   0  0  0  0  0  0  0  0  0  0  0  0
    7.3282   -3.8948   29.1186 C   0  0  0  0  0  0  0  0  0  0  0  0
  1  3  4  0
  1  7  4  0
  2  3  1  0
  2  6  4  0
  2 16  4  0
  3 22  4  0
  4  9  4  0
  4 10  1  0
  4 20  4  0
  5 16  4  0
  5 23  4  0
  6 15  4  0
  7 12  4  0
  8 13  4  0
  8 14  4  0
  9 11  4  0
 11 14  4  0
 11 19  4  0
 12 18  4  0
 13 21  4  0
 15 23  4  0
 17 19  4  0
 17 20  4  0
 18 22  4  0
 19 21  4  0
M  END
$$$$

 Created by Python create_sdf_string function

 23 25  0  0  0  0  0  0  0  0999 V2000
    2.4610   -5.3070   29.1240 C   0  0  0  0  0  0  0  0  0  0  0  0
    4.7710   -4.6952   28.4803 C   0  0  0  0  0  0  0  0  0  0  0  0
    3.4047   -5.1087   28.1314 C   0  0  0  0  0  0  0  0  0  0  0  0
   -0.2234  -11.8615   16.8874 C   0  0  0  0  0  0  0  0  0  0  0  0
    6.4491   -4.1532   30.1213 C   0  0  0  0  0  0  0  0  0  0  0  0
    5.7060   -4.4340   27.4975 C   0  0  0  0  0  0  0  0  0  0  0  0
    1.1818   -5.6612   28.8399 C   0  0  0  0  0  0  0  0  0  0  0  0
   -1.2067   -7.3287   17.7772 C   0  0  0  0  0  0  0  0  0  0  0  0
   -0.0206  -10.5585   16.6210 C   0  0  0  0  0  0  0  0  0  0  0  0
    0.3696  -12.7626   16.2169 O   0  0  0  0  0  0  0  0  0  0  0  0
   -0.6895   -9.5676   17.3297 C   0  0  0  0  0  0  0  0  0  0  0  0
    0.8388   -5.8417   27.5264 C   0  0  0  0  0  0  0  0  0  0  0  0
   -2.0709   -7.6637   18.7817 C   0  0  0  0  0  0  0  0  0  0  0  0
   -0.5279   -8.2168   17.0717 C   0  0  0  0  0  0  0  0  0  0  0  0
    6.9694   -4.0191   27.8190 C   0  0  0  0  0  0  0  0  0  0  0  0
    5.1733   -4.5469   29.8123 C   0  0  0  0  0  0  0  0  0  0  0  0
   -1.7508  -11.3016   18.6072 C   0  0  0  0  0  0  0  0  0  0  0  0
    1.7497   -5.6771   26.4971 C   0  0  0  0  0  0  0  0  0  0  0  0
   -1.5799   -9.9322   18.3468 C   0  0  0  0  0  0  0  0  0  0  0  0
   -1.0871  -12.2214   17.8851 C   0  0  0  0  0  0  0  0  0  0  0  0
   -2.2706   -8.9669   19.0691 C   0  0  0  0  0  0  0  0  0  0  0  0
    3.0279   -5.3073   26.8197 C   0  0  0  0  0  0  0  0  0  0  0  0
    7.3282   -3.8948   29.1186 C   0  0  0  0  0  0  0  0  0  0  0  0
  1  3  4  0
  1  7  4  0
  2  3  1  0
  2  6  4  0
  2 16  4  0
  3 22  4  0
  4  9  4  0
  4 10  1  0
  4 20  4  0
  5 16  4  0
  5 23  4  0
  6 15  4  0
  7 12  4  0
  8 13  4  0
  8 14  4  0
  9 11  4  0
 11 14  4  0
 11 19  4  0
 12 18  4  0
 13 21  4  0
 15 23  4  0
 17 19  4  0
 17 20  4  0
 18 22  4  0
 19 21  4  0
M  END
$$$$

 Created by Python create_sdf_string function

 23 25  0  0  0  0  0  0  0  0999 V2000
    2.4610   -5.3070   29.1240 C   0  0  0  0  0  0  0  0  0  0  0  0
    4.7710   -4.6952   28.4803 C   0  0  0  0  0  0  0  0  0  0  0  0
    3.4047   -5.1087   28.1314 C   0  0  0  0  0  0  0  0  0  0  0  0
   -0.2234  -11.8615   16.8874 C   0  0  0  0  0  0  0  0  0  0  0  0
    6.4491   -4.1532   30.1213 C   0  0  0  0  0  0  0  0  0  0  0  0
    5.7060   -4.4340   27.4975 C   0  0  0  0  0  0  0  0  0  0  0  0
    1.1818   -5.6612   28.8399 C   0  0  0  0  0  0  0  0  0  0  0  0
   -1.2067   -7.3287   17.7772 C   0  0  0  0  0  0  0  0  0  0  0  0
   -0.0206  -10.5585   16.6210 C   0  0  0  0  0  0  0  0  0  0  0  0
    0.3696  -12.7626   16.2169 O   0  0  0  0  0  0  0  0  0  0  0  0
   -0.6895   -9.5676   17.3297 C   0  0  0  0  0  0  0  0  0  0  0  0
    0.8388   -5.8417   27.5264 C   0  0  0  0  0  0  0  0  0  0  0  0
   -2.0709   -7.6637   18.7817 C   0  0  0  0  0  0  0  0  0  0  0  0
   -0.5279   -8.2168   17.0717 C   0  0  0  0  0  0  0  0  0  0  0  0
    6.9694   -4.0191   27.8190 C   0  0  0  0  0  0  0  0  0  0  0  0
    5.1733   -4.5469   29.8123 C   0  0  0  0  0  0  0  0  0  0  0  0
   -1.7508  -11.3016   18.6072 C   0  0  0  0  0  0  0  0  0  0  0  0
    1.7497   -5.6771   26.4971 C   0  0  0  0  0  0  0  0  0  0  0  0
   -1.5799   -9.9322   18.3468 C   0  0  0  0  0  0  0  0  0  0  0  0
   -1.0871  -12.2214   17.8851 C   0  0  0  0  0  0  0  0  0  0  0  0
   -2.2706   -8.9669   19.0691 C   0  0  0  0  0  0  0  0  0  0  0  0
    3.0279   -5.3073   26.8197 C   0  0  0  0  0  0  0  0  0  0  0  0
    7.3282   -3.8948   29.1186 C   0  0  0  0  0  0  0  0  0  0  0  0
  1  3  4  0
  1  7  4  0
  2  3  1  0
  2  6  4  0
  2 16  4  0
  3 22  4  0
  4  9  4  0
  4 10  1  0
  4 20  4  0
  5 16  4  0
  5 23  4  0
  6 15  4  0
  7 12  4  0
  8 13  4  0
  8 14  4  0
  9 11  4  0
 11 14  4  0
 11 19  4  0
 12 18  4  0
 13 21  4  0
 15 23  4  0
 17 19  4  0
 17 20  4  0
 18 22  4  0
 19 21  4  0
M  END
$$$$

 Created by Python create_sdf_string function

 23 25  0  0  0  0  0  0  0  0999 V2000
    2.4610   -5.3070   29.1240 C   0  0  0  0  0  0  0  0  0  0  0  0
    4.7710   -4.6952   28.4803 C   0  0  0  0  0  0  0  0  0  0  0  0
    3.4047   -5.1087   28.1314 C   0  0  0  0  0  0  0  0  0  0  0  0
   -0.2234  -11.8615   16.8874 C   0  0  0  0  0  0  0  0  0  0  0  0
    6.4491   -4.1532   30.1213 C   0  0  0  0  0  0  0  0  0  0  0  0
    5.7060   -4.4340   27.4975 C   0  0  0  0  0  0  0  0  0  0  0  0
    1.1818   -5.6612   28.8399 C   0  0  0  0  0  0  0  0  0  0  0  0
   -1.2067   -7.3287   17.7772 C   0  0  0  0  0  0  0  0  0  0  0  0
   -0.0206  -10.5585   16.6210 C   0  0  0  0  0  0  0  0  0  0  0  0
    0.3696  -12.7626   16.2169 O   0  0  0  0  0  0  0  0  0  0  0  0
   -0.6895   -9.5676   17.3297 C   0  0  0  0  0  0  0  0  0  0  0  0
    0.8388   -5.8417   27.5264 C   0  0  0  0  0  0  0  0  0  0  0  0
   -2.0709   -7.6637   18.7817 C   0  0  0  0  0  0  0  0  0  0  0  0
   -0.5279   -8.2168   17.0717 C   0  0  0  0  0  0  0  0  0  0  0  0
    6.9694   -4.0191   27.8190 C   0  0  0  0  0  0  0  0  0  0  0  0
    5.1733   -4.5469   29.8123 C   0  0  0  0  0  0  0  0  0  0  0  0
   -1.7508  -11.3016   18.6072 C   0  0  0  0  0  0  0  0  0  0  0  0
    1.7497   -5.6771   26.4971 C   0  0  0  0  0  0  0  0  0  0  0  0
   -1.5799   -9.9322   18.3468 C   0  0  0  0  0  0  0  0  0  0  0  0
   -1.0871  -12.2214   17.8851 C   0  0  0  0  0  0  0  0  0  0  0  0
   -2.2706   -8.9669   19.0691 C   0  0  0  0  0  0  0  0  0  0  0  0
    3.0279   -5.3073   26.8197 C   0  0  0  0  0  0  0  0  0  0  0  0
    7.3282   -3.8948   29.1186 C   0  0  0  0  0  0  0  0  0  0  0  0
  1  3  4  0
  1  7  4  0
  2  3  1  0
  2  6  4  0
  2 16  4  0
  3 22  4  0
  4  9  4  0
  4 10  1  0
  4 20  4  0
  5 16  4  0
  5 23  4  0
  6 15  4  0
  7 12  4  0
  8 13  4  0
  8 14  4  0
  9 11  4  0
 11 14  4  0
 11 19  4  0
 12 18  4  0
 13 21  4  0
 15 23  4  0
 17 19  4  0
 17 20  4  0
 18 22  4  0
 19 21  4  0
M  END
$$$$

 Created by Python create_sdf_string function

 23 25  0  0  0  0  0  0  0  0999 V2000
    2.4610   -5.3070   29.1240 C   0  0  0  0  0  0  0  0  0  0  0  0
    4.7710   -4.6952   28.4803 C   0  0  0  0  0  0  0  0  0  0  0  0
    3.4047   -5.1087   28.1314 C   0  0  0  0  0  0  0  0  0  0  0  0
   -0.2234  -11.8615   16.8874 C   0  0  0  0  0  0  0  0  0  0  0  0
    6.4491   -4.1532   30.1213 C   0  0  0  0  0  0  0  0  0  0  0  0
    5.7060   -4.4340   27.4975 C   0  0  0  0  0  0  0  0  0  0  0  0
    1.1818   -5.6612   28.8399 C   0  0  0  0  0  0  0  0  0  0  0  0
   -1.2067   -7.3287   17.7772 C   0  0  0  0  0  0  0  0  0  0  0  0
   -0.0206  -10.5585   16.6210 C   0  0  0  0  0  0  0  0  0  0  0  0
    0.3696  -12.7626   16.2169 O   0  0  0  0  0  0  0  0  0  0  0  0
   -0.6895   -9.5676   17.3297 C   0  0  0  0  0  0  0  0  0  0  0  0
    0.8388   -5.8417   27.5264 C   0  0  0  0  0  0  0  0  0  0  0  0
   -2.0709   -7.6637   18.7817 C   0  0  0  0  0  0  0  0  0  0  0  0
   -0.5279   -8.2168   17.0717 C   0  0  0  0  0  0  0  0  0  0  0  0
    6.9694   -4.0191   27.8190 C   0  0  0  0  0  0  0  0  0  0  0  0
    5.1733   -4.5469   29.8123 C   0  0  0  0  0  0  0  0  0  0  0  0
   -1.7508  -11.3016   18.6072 C   0  0  0  0  0  0  0  0  0  0  0  0
    1.7497   -5.6771   26.4971 C   0  0  0  0  0  0  0  0  0  0  0  0
   -1.5799   -9.9322   18.3468 C   0  0  0  0  0  0  0  0  0  0  0  0
   -1.0871  -12.2214   17.8851 C   0  0  0  0  0  0  0  0  0  0  0  0
   -2.2706   -8.9669   19.0691 C   0  0  0  0  0  0  0  0  0  0  0  0
    3.0279   -5.3073   26.8197 C   0  0  0  0  0  0  0  0  0  0  0  0
    7.3282   -3.8948   29.1186 C   0  0  0  0  0  0  0  0  0  0  0  0
  1  3  4  0
  1  7  4  0
  2  3  1  0
  2  6  4  0
  2 16  4  0
  3 22  4  0
  4  9  4  0
  4 10  1  0
  4 20  4  0
  5 16  4  0
  5 23  4  0
  6 15  4  0
  7 12  4  0
  8 13  4  0
  8 14  4  0
  9 11  4  0
 11 14  4  0
 11 19  4  0
 12 18  4  0
 13 21  4  0
 15 23  4  0
 17 19  4  0
 17 20  4  0
 18 22  4  0
 19 21  4  0
M  END
$$$$

 Created by Python create_sdf_string function

 23 25  0  0  0  0  0  0  0  0999 V2000
    2.4610   -5.3070   29.1240 C   0  0  0  0  0  0  0  0  0  0  0  0
    4.7710   -4.6952   28.4803 C   0  0  0  0  0  0  0  0  0  0  0  0
    3.4047   -5.1087   28.1314 C   0  0  0  0  0  0  0  0  0  0  0  0
   -0.2234  -11.8615   16.8874 C   0  0  0  0  0  0  0  0  0  0  0  0
    6.4491   -4.1532   30.1213 C   0  0  0  0  0  0  0  0  0  0  0  0
    5.7060   -4.4340   27.4975 C   0  0  0  0  0  0  0  0  0  0  0  0
    1.1818   -5.6612   28.8399 C   0  0  0  0  0  0  0  0  0  0  0  0
   -1.2067   -7.3287   17.7772 C   0  0  0  0  0  0  0  0  0  0  0  0
   -0.0206  -10.5585   16.6210 C   0  0  0  0  0  0  0  0  0  0  0  0
    0.3696  -12.7626   16.2169 O   0  0  0  0  0  0  0  0  0  0  0  0
   -0.6895   -9.5676   17.3297 C   0  0  0  0  0  0  0  0  0  0  0  0
    0.8388   -5.8417   27.5264 C   0  0  0  0  0  0  0  0  0  0  0  0
   -2.0709   -7.6637   18.7817 C   0  0  0  0  0  0  0  0  0  0  0  0
   -0.5279   -8.2168   17.0717 C   0  0  0  0  0  0  0  0  0  0  0  0
    6.9694   -4.0191   27.8190 C   0  0  0  0  0  0  0  0  0  0  0  0
    5.1733   -4.5469   29.8123 C   0  0  0  0  0  0  0  0  0  0  0  0
   -1.7508  -11.3016   18.6072 C   0  0  0  0  0  0  0  0  0  0  0  0
    1.7497   -5.6771   26.4971 C   0  0  0  0  0  0  0  0  0  0  0  0
   -1.5799   -9.9322   18.3468 C   0  0  0  0  0  0  0  0  0  0  0  0
   -1.0871  -12.2214   17.8851 C   0  0  0  0  0  0  0  0  0  0  0  0
   -2.2706   -8.9669   19.0691 C   0  0  0  0  0  0  0  0  0  0  0  0
    3.0279   -5.3073   26.8197 C   0  0  0  0  0  0  0  0  0  0  0  0
    7.3282   -3.8948   29.1186 C   0  0  0  0  0  0  0  0  0  0  0  0
  1  3  4  0
  1  7  4  0
  2  3  1  0
  2  6  4  0
  2 16  4  0
  3 22  4  0
  4  9  4  0
  4 10  1  0
  4 20  4  0
  5 16  4  0
  5 23  4  0
  6 15  4  0
  7 12  4  0
  8 13  4  0
  8 14  4  0
  9 11  4  0
 11 14  4  0
 11 19  4  0
 12 18  4  0
 13 21  4  0
 15 23  4  0
 17 19  4  0
 17 20  4  0
 18 22  4  0
 19 21  4  0
M  END
$$$$

 Created by Python create_sdf_string function

 23 25  0  0  0  0  0  0  0  0999 V2000
    2.4610   -5.3070   29.1240 C   0  0  0  0  0  0  0  0  0  0  0  0
    4.7710   -4.6952   28.4803 C   0  0  0  0  0  0  0  0  0  0  0  0
    3.4047   -5.1087   28.1314 C   0  0  0  0  0  0  0  0  0  0  0  0
   -0.2234  -11.8615   16.8874 C   0  0  0  0  0  0  0  0  0  0  0  0
    6.4491   -4.1532   30.1213 C   0  0  0  0  0  0  0  0  0  0  0  0
    5.7060   -4.4340   27.4975 C   0  0  0  0  0  0  0  0  0  0  0  0
    1.1818   -5.6612   28.8399 C   0  0  0  0  0  0  0  0  0  0  0  0
   -1.2067   -7.3287   17.7772 C   0  0  0  0  0  0  0  0  0  0  0  0
   -0.0206  -10.5585   16.6210 C   0  0  0  0  0  0  0  0  0  0  0  0
    0.3696  -12.7626   16.2169 O   0  0  0  0  0  0  0  0  0  0  0  0
   -0.6895   -9.5676   17.3297 C   0  0  0  0  0  0  0  0  0  0  0  0
    0.8388   -5.8417   27.5264 C   0  0  0  0  0  0  0  0  0  0  0  0
   -2.0709   -7.6637   18.7817 C   0  0  0  0  0  0  0  0  0  0  0  0
   -0.5279   -8.2168   17.0717 C   0  0  0  0  0  0  0  0  0  0  0  0
    6.9694   -4.0191   27.8190 C   0  0  0  0  0  0  0  0  0  0  0  0
    5.1733   -4.5469   29.8123 C   0  0  0  0  0  0  0  0  0  0  0  0
   -1.7508  -11.3016   18.6072 C   0  0  0  0  0  0  0  0  0  0  0  0
    1.7497   -5.6771   26.4971 C   0  0  0  0  0  0  0  0  0  0  0  0
   -1.5799   -9.9322   18.3468 C   0  0  0  0  0  0  0  0  0  0  0  0
   -1.0871  -12.2214   17.8851 C   0  0  0  0  0  0  0  0  0  0  0  0
   -2.2706   -8.9669   19.0691 C   0  0  0  0  0  0  0  0  0  0  0  0
    3.0279   -5.3073   26.8197 C   0  0  0  0  0  0  0  0  0  0  0  0
    7.3282   -3.8948   29.1186 C   0  0  0  0  0  0  0  0  0  0  0  0
  1  3  4  0
  1  7  4  0
  2  3  1  0
  2  6  4  0
  2 16  4  0
  3 22  4  0
  4  9  4  0
  4 10  1  0
  4 20  4  0
  5 16  4  0
  5 23  4  0
  6 15  4  0
  7 12  4  0
  8 13  4  0
  8 14  4  0
  9 11  4  0
 11 14  4  0
 11 19  4  0
 12 18  4  0
 13 21  4  0
 15 23  4  0
 17 19  4  0
 17 20  4  0
 18 22  4  0
 19 21  4  0
M  END
$$$$

 Created by Python create_sdf_string function

 23 25  0  0  0  0  0  0  0  0999 V2000
    2.4610   -5.3070   29.1240 C   0  0  0  0  0  0  0  0  0  0  0  0
    4.7710   -4.6952   28.4803 C   0  0  0  0  0  0  0  0  0  0  0  0
    3.4047   -5.1087   28.1314 C   0  0  0  0  0  0  0  0  0  0  0  0
   -0.2234  -11.8615   16.8874 C   0  0  0  0  0  0  0  0  0  0  0  0
    6.4491   -4.1532   30.1213 C   0  0  0  0  0  0  0  0  0  0  0  0
    5.7060   -4.4340   27.4975 C   0  0  0  0  0  0  0  0  0  0  0  0
    1.1818   -5.6612   28.8399 C   0  0  0  0  0  0  0  0  0  0  0  0
   -1.2067   -7.3287   17.7772 C   0  0  0  0  0  0  0  0  0  0  0  0
   -0.0206  -10.5585   16.6210 C   0  0  0  0  0  0  0  0  0  0  0  0
    0.3696  -12.7626   16.2169 O   0  0  0  0  0  0  0  0  0  0  0  0
   -0.6895   -9.5676   17.3297 C   0  0  0  0  0  0  0  0  0  0  0  0
    0.8388   -5.8417   27.5264 C   0  0  0  0  0  0  0  0  0  0  0  0
   -2.0709   -7.6637   18.7817 C   0  0  0  0  0  0  0  0  0  0  0  0
   -0.5279   -8.2168   17.0717 C   0  0  0  0  0  0  0  0  0  0  0  0
    6.9694   -4.0191   27.8190 C   0  0  0  0  0  0  0  0  0  0  0  0
    5.1733   -4.5469   29.8123 C   0  0  0  0  0  0  0  0  0  0  0  0
   -1.7508  -11.3016   18.6072 C   0  0  0  0  0  0  0  0  0  0  0  0
    1.7497   -5.6771   26.4971 C   0  0  0  0  0  0  0  0  0  0  0  0
   -1.5799   -9.9322   18.3468 C   0  0  0  0  0  0  0  0  0  0  0  0
   -1.0871  -12.2214   17.8851 C   0  0  0  0  0  0  0  0  0  0  0  0
   -2.2706   -8.9669   19.0691 C   0  0  0  0  0  0  0  0  0  0  0  0
    3.0279   -5.3073   26.8197 C   0  0  0  0  0  0  0  0  0  0  0  0
    7.3282   -3.8948   29.1186 C   0  0  0  0  0  0  0  0  0  0  0  0
  1  3  4  0
  1  7  4  0
  2  3  1  0
  2  6  4  0
  2 16  4  0
  3 22  4  0
  4  9  4  0
  4 10  1  0
  4 20  4  0
  5 16  4  0
  5 23  4  0
  6 15  4  0
  7 12  4  0
  8 13  4  0
  8 14  4  0
  9 11  4  0
 11 14  4  0
 11 19  4  0
 12 18  4  0
 13 21  4  0
 15 23  4  0
 17 19  4  0
 17 20  4  0
 18 22  4  0
 19 21  4  0
M  END
$$$$

 Created by Python create_sdf_string function

 23 25  0  0  0  0  0  0  0  0999 V2000
    2.4610   -5.3070   29.1240 C   0  0  0  0  0  0  0  0  0  0  0  0
    4.7710   -4.6952   28.4803 C   0  0  0  0  0  0  0  0  0  0  0  0
    3.4047   -5.1087   28.1314 C   0  0  0  0  0  0  0  0  0  0  0  0
   -0.2234  -11.8615   16.8874 C   0  0  0  0  0  0  0  0  0  0  0  0
    6.4491   -4.1532   30.1213 C   0  0  0  0  0  0  0  0  0  0  0  0
    5.7060   -4.4340   27.4975 C   0  0  0  0  0  0  0  0  0  0  0  0
    1.1818   -5.6612   28.8399 C   0  0  0  0  0  0  0  0  0  0  0  0
   -1.2067   -7.3287   17.7772 C   0  0  0  0  0  0  0  0  0  0  0  0
   -0.0206  -10.5585   16.6210 C   0  0  0  0  0  0  0  0  0  0  0  0
    0.3696  -12.7626   16.2169 O   0  0  0  0  0  0  0  0  0  0  0  0
   -0.6895   -9.5676   17.3297 C   0  0  0  0  0  0  0  0  0  0  0  0
    0.8388   -5.8417   27.5264 C   0  0  0  0  0  0  0  0  0  0  0  0
   -2.0709   -7.6637   18.7817 C   0  0  0  0  0  0  0  0  0  0  0  0
   -0.5279   -8.2168   17.0717 C   0  0  0  0  0  0  0  0  0  0  0  0
    6.9694   -4.0191   27.8190 C   0  0  0  0  0  0  0  0  0  0  0  0
    5.1733   -4.5469   29.8123 C   0  0  0  0  0  0  0  0  0  0  0  0
   -1.7508  -11.3016   18.6072 C   0  0  0  0  0  0  0  0  0  0  0  0
    1.7497   -5.6771   26.4971 C   0  0  0  0  0  0  0  0  0  0  0  0
   -1.5799   -9.9322   18.3468 C   0  0  0  0  0  0  0  0  0  0  0  0
   -1.0871  -12.2214   17.8851 C   0  0  0  0  0  0  0  0  0  0  0  0
   -2.2706   -8.9669   19.0691 C   0  0  0  0  0  0  0  0  0  0  0  0
    3.0279   -5.3073   26.8197 C   0  0  0  0  0  0  0  0  0  0  0  0
    7.3282   -3.8948   29.1186 C   0  0  0  0  0  0  0  0  0  0  0  0
  1  3  4  0
  1  7  4  0
  2  3  1  0
  2  6  4  0
  2 16  4  0
  3 22  4  0
  4  9  4  0
  4 10  1  0
  4 20  4  0
  5 16  4  0
  5 23  4  0
  6 15  4  0
  7 12  4  0
  8 13  4  0
  8 14  4  0
  9 11  4  0
 11 14  4  0
 11 19  4  0
 12 18  4  0
 13 21  4  0
 15 23  4  0
 17 19  4  0
 17 20  4  0
 18 22  4  0
 19 21  4  0
M  END
$$$$

 Created by Python create_sdf_string function

 23 25  0  0  0  0  0  0  0  0999 V2000
    2.4610   -5.3070   29.1240 C   0  0  0  0  0  0  0  0  0  0  0  0
    4.7710   -4.6952   28.4803 C   0  0  0  0  0  0  0  0  0  0  0  0
    3.4047   -5.1087   28.1314 C   0  0  0  0  0  0  0  0  0  0  0  0
   -0.2234  -11.8615   16.8874 C   0  0  0  0  0  0  0  0  0  0  0  0
    6.4491   -4.1532   30.1213 C   0  0  0  0  0  0  0  0  0  0  0  0
    5.7060   -4.4340   27.4975 C   0  0  0  0  0  0  0  0  0  0  0  0
    1.1818   -5.6612   28.8399 C   0  0  0  0  0  0  0  0  0  0  0  0
   -1.2067   -7.3287   17.7772 C   0  0  0  0  0  0  0  0  0  0  0  0
   -0.0206  -10.5585   16.6210 C   0  0  0  0  0  0  0  0  0  0  0  0
    0.3696  -12.7626   16.2169 O   0  0  0  0  0  0  0  0  0  0  0  0
   -0.6895   -9.5676   17.3297 C   0  0  0  0  0  0  0  0  0  0  0  0
    0.8388   -5.8417   27.5264 C   0  0  0  0  0  0  0  0  0  0  0  0
   -2.0709   -7.6637   18.7817 C   0  0  0  0  0  0  0  0  0  0  0  0
   -0.5279   -8.2168   17.0717 C   0  0  0  0  0  0  0  0  0  0  0  0
    6.9694   -4.0191   27.8190 C   0  0  0  0  0  0  0  0  0  0  0  0
    5.1733   -4.5469   29.8123 C   0  0  0  0  0  0  0  0  0  0  0  0
   -1.7508  -11.3016   18.6072 C   0  0  0  0  0  0  0  0  0  0  0  0
    1.7497   -5.6771   26.4971 C   0  0  0  0  0  0  0  0  0  0  0  0
   -1.5799   -9.9322   18.3468 C   0  0  0  0  0  0  0  0  0  0  0  0
   -1.0871  -12.2214   17.8851 C   0  0  0  0  0  0  0  0  0  0  0  0
   -2.2706   -8.9669   19.0691 C   0  0  0  0  0  0  0  0  0  0  0  0
    3.0279   -5.3073   26.8197 C   0  0  0  0  0  0  0  0  0  0  0  0
    7.3282   -3.8948   29.1186 C   0  0  0  0  0  0  0  0  0  0  0  0
  1  3  4  0
  1  7  4  0
  2  3  1  0
  2  6  4  0
  2 16  4  0
  3 22  4  0
  4  9  4  0
  4 10  1  0
  4 20  4  0
  5 16  4  0
  5 23  4  0
  6 15  4  0
  7 12  4  0
  8 13  4  0
  8 14  4  0
  9 11  4  0
 11 14  4  0
 11 19  4  0
 12 18  4  0
 13 21  4  0
 15 23  4  0
 17 19  4  0
 17 20  4  0
 18 22  4  0
 19 21  4  0
M  END
$$$$

 Created by Python create_sdf_string function

 23 25  0  0  0  0  0  0  0  0999 V2000
    2.4610   -5.3070   29.1240 C   0  0  0  0  0  0  0  0  0  0  0  0
    4.7710   -4.6952   28.4803 C   0  0  0  0  0  0  0  0  0  0  0  0
    3.4047   -5.1087   28.1314 C   0  0  0  0  0  0  0  0  0  0  0  0
   -0.2234  -11.8615   16.8874 C   0  0  0  0  0  0  0  0  0  0  0  0
    6.4491   -4.1532   30.1213 C   0  0  0  0  0  0  0  0  0  0  0  0
    5.7060   -4.4340   27.4975 C   0  0  0  0  0  0  0  0  0  0  0  0
    1.1818   -5.6612   28.8399 C   0  0  0  0  0  0  0  0  0  0  0  0
   -1.2067   -7.3287   17.7772 C   0  0  0  0  0  0  0  0  0  0  0  0
   -0.0206  -10.5585   16.6210 C   0  0  0  0  0  0  0  0  0  0  0  0
    0.3696  -12.7626   16.2169 O   0  0  0  0  0  0  0  0  0  0  0  0
   -0.6895   -9.5676   17.3297 C   0  0  0  0  0  0  0  0  0  0  0  0
    0.8388   -5.8417   27.5264 C   0  0  0  0  0  0  0  0  0  0  0  0
   -2.0709   -7.6637   18.7817 C   0  0  0  0  0  0  0  0  0  0  0  0
   -0.5279   -8.2168   17.0717 C   0  0  0  0  0  0  0  0  0  0  0  0
    6.9694   -4.0191   27.8190 C   0  0  0  0  0  0  0  0  0  0  0  0
    5.1733   -4.5469   29.8123 C   0  0  0  0  0  0  0  0  0  0  0  0
   -1.7508  -11.3016   18.6072 C   0  0  0  0  0  0  0  0  0  0  0  0
    1.7497   -5.6771   26.4971 C   0  0  0  0  0  0  0  0  0  0  0  0
   -1.5799   -9.9322   18.3468 C   0  0  0  0  0  0  0  0  0  0  0  0
   -1.0871  -12.2214   17.8851 C   0  0  0  0  0  0  0  0  0  0  0  0
   -2.2706   -8.9669   19.0691 C   0  0  0  0  0  0  0  0  0  0  0  0
    3.0279   -5.3073   26.8197 C   0  0  0  0  0  0  0  0  0  0  0  0
    7.3282   -3.8948   29.1186 C   0  0  0  0  0  0  0  0  0  0  0  0
  1  3  4  0
  1  7  4  0
  2  3  1  0
  2  6  4  0
  2 16  4  0
  3 22  4  0
  4  9  4  0
  4 10  1  0
  4 20  4  0
  5 16  4  0
  5 23  4  0
  6 15  4  0
  7 12  4  0
  8 13  4  0
  8 14  4  0
  9 11  4  0
 11 14  4  0
 11 19  4  0
 12 18  4  0
 13 21  4  0
 15 23  4  0
 17 19  4  0
 17 20  4  0
 18 22  4  0
 19 21  4  0
M  END
$$$$

 Created by Python create_sdf_string function

 23 25  0  0  0  0  0  0  0  0999 V2000
    2.4610   -5.3070   29.1240 C   0  0  0  0  0  0  0  0  0  0  0  0
    4.7710   -4.6952   28.4803 C   0  0  0  0  0  0  0  0  0  0  0  0
    3.4047   -5.1087   28.1314 C   0  0  0  0  0  0  0  0  0  0  0  0
   -0.2234  -11.8615   16.8874 C   0  0  0  0  0  0  0  0  0  0  0  0
    6.4491   -4.1532   30.1213 C   0  0  0  0  0  0  0  0  0  0  0  0
    5.7060   -4.4340   27.4975 C   0  0  0  0  0  0  0  0  0  0  0  0
    1.1818   -5.6612   28.8399 C   0  0  0  0  0  0  0  0  0  0  0  0
   -1.2067   -7.3287   17.7772 C   0  0  0  0  0  0  0  0  0  0  0  0
   -0.0206  -10.5585   16.6210 C   0  0  0  0  0  0  0  0  0  0  0  0
    0.3696  -12.7626   16.2169 O   0  0  0  0  0  0  0  0  0  0  0  0
   -0.6895   -9.5676   17.3297 C   0  0  0  0  0  0  0  0  0  0  0  0
    0.8388   -5.8417   27.5264 C   0  0  0  0  0  0  0  0  0  0  0  0
   -2.0709   -7.6637   18.7817 C   0  0  0  0  0  0  0  0  0  0  0  0
   -0.5279   -8.2168   17.0717 C   0  0  0  0  0  0  0  0  0  0  0  0
    6.9694   -4.0191   27.8190 C   0  0  0  0  0  0  0  0  0  0  0  0
    5.1733   -4.5469   29.8123 C   0  0  0  0  0  0  0  0  0  0  0  0
   -1.7508  -11.3016   18.6072 C   0  0  0  0  0  0  0  0  0  0  0  0
    1.7497   -5.6771   26.4971 C   0  0  0  0  0  0  0  0  0  0  0  0
   -1.5799   -9.9322   18.3468 C   0  0  0  0  0  0  0  0  0  0  0  0
   -1.0871  -12.2214   17.8851 C   0  0  0  0  0  0  0  0  0  0  0  0
   -2.2706   -8.9669   19.0691 C   0  0  0  0  0  0  0  0  0  0  0  0
    3.0279   -5.3073   26.8197 C   0  0  0  0  0  0  0  0  0  0  0  0
    7.3282   -3.8948   29.1186 C   0  0  0  0  0  0  0  0  0  0  0  0
  1  3  4  0
  1  7  4  0
  2  3  1  0
  2  6  4  0
  2 16  4  0
  3 22  4  0
  4  9  4  0
  4 10  1  0
  4 20  4  0
  5 16  4  0
  5 23  4  0
  6 15  4  0
  7 12  4  0
  8 13  4  0
  8 14  4  0
  9 11  4  0
 11 14  4  0
 11 19  4  0
 12 18  4  0
 13 21  4  0
 15 23  4  0
 17 19  4  0
 17 20  4  0
 18 22  4  0
 19 21  4  0
M  END
$$$$

 Created by Python create_sdf_string function

 23 25  0  0  0  0  0  0  0  0999 V2000
    2.4610   -5.3070   29.1240 C   0  0  0  0  0  0  0  0  0  0  0  0
    4.7710   -4.6952   28.4803 C   0  0  0  0  0  0  0  0  0  0  0  0
    3.4047   -5.1087   28.1314 C   0  0  0  0  0  0  0  0  0  0  0  0
   -0.2234  -11.8615   16.8874 C   0  0  0  0  0  0  0  0  0  0  0  0
    6.4491   -4.1532   30.1213 C   0  0  0  0  0  0  0  0  0  0  0  0
    5.7060   -4.4340   27.4975 C   0  0  0  0  0  0  0  0  0  0  0  0
    1.1818   -5.6612   28.8399 C   0  0  0  0  0  0  0  0  0  0  0  0
   -1.2067   -7.3287   17.7772 C   0  0  0  0  0  0  0  0  0  0  0  0
   -0.0206  -10.5585   16.6210 C   0  0  0  0  0  0  0  0  0  0  0  0
    0.3696  -12.7626   16.2169 O   0  0  0  0  0  0  0  0  0  0  0  0
   -0.6895   -9.5676   17.3297 C   0  0  0  0  0  0  0  0  0  0  0  0
    0.8388   -5.8417   27.5264 C   0  0  0  0  0  0  0  0  0  0  0  0
   -2.0709   -7.6637   18.7817 C   0  0  0  0  0  0  0  0  0  0  0  0
   -0.5279   -8.2168   17.0717 C   0  0  0  0  0  0  0  0  0  0  0  0
    6.9694   -4.0191   27.8190 C   0  0  0  0  0  0  0  0  0  0  0  0
    5.1733   -4.5469   29.8123 C   0  0  0  0  0  0  0  0  0  0  0  0
   -1.7508  -11.3016   18.6072 C   0  0  0  0  0  0  0  0  0  0  0  0
    1.7497   -5.6771   26.4971 C   0  0  0  0  0  0  0  0  0  0  0  0
   -1.5799   -9.9322   18.3468 C   0  0  0  0  0  0  0  0  0  0  0  0
   -1.0871  -12.2214   17.8851 C   0  0  0  0  0  0  0  0  0  0  0  0
   -2.2706   -8.9669   19.0691 C   0  0  0  0  0  0  0  0  0  0  0  0
    3.0279   -5.3073   26.8197 C   0  0  0  0  0  0  0  0  0  0  0  0
    7.3282   -3.8948   29.1186 C   0  0  0  0  0  0  0  0  0  0  0  0
  1  3  4  0
  1  7  4  0
  2  3  1  0
  2  6  4  0
  2 16  4  0
  3 22  4  0
  4  9  4  0
  4 10  1  0
  4 20  4  0
  5 16  4  0
  5 23  4  0
  6 15  4  0
  7 12  4  0
  8 13  4  0
  8 14  4  0
  9 11  4  0
 11 14  4  0
 11 19  4  0
 12 18  4  0
 13 21  4  0
 15 23  4  0
 17 19  4  0
 17 20  4  0
 18 22  4  0
 19 21  4  0
M  END
$$$$

 Created by Python create_sdf_string function

 23 25  0  0  0  0  0  0  0  0999 V2000
    2.4610   -5.3070   29.1240 C   0  0  0  0  0  0  0  0  0  0  0  0
    4.7710   -4.6952   28.4803 C   0  0  0  0  0  0  0  0  0  0  0  0
    3.4047   -5.1087   28.1314 C   0  0  0  0  0  0  0  0  0  0  0  0
   -0.2234  -11.8615   16.8874 C   0  0  0  0  0  0  0  0  0  0  0  0
    6.4491   -4.1532   30.1213 C   0  0  0  0  0  0  0  0  0  0  0  0
    5.7060   -4.4340   27.4975 C   0  0  0  0  0  0  0  0  0  0  0  0
    1.1818   -5.6612   28.8399 C   0  0  0  0  0  0  0  0  0  0  0  0
   -1.2067   -7.3287   17.7772 C   0  0  0  0  0  0  0  0  0  0  0  0
   -0.0206  -10.5585   16.6210 C   0  0  0  0  0  0  0  0  0  0  0  0
    0.3696  -12.7626   16.2169 O   0  0  0  0  0  0  0  0  0  0  0  0
   -0.6895   -9.5676   17.3297 C   0  0  0  0  0  0  0  0  0  0  0  0
    0.8388   -5.8417   27.5264 C   0  0  0  0  0  0  0  0  0  0  0  0
   -2.0709   -7.6637   18.7817 C   0  0  0  0  0  0  0  0  0  0  0  0
   -0.5279   -8.2168   17.0717 C   0  0  0  0  0  0  0  0  0  0  0  0
    6.9694   -4.0191   27.8190 C   0  0  0  0  0  0  0  0  0  0  0  0
    5.1733   -4.5469   29.8123 C   0  0  0  0  0  0  0  0  0  0  0  0
   -1.7508  -11.3016   18.6072 C   0  0  0  0  0  0  0  0  0  0  0  0
    1.7497   -5.6771   26.4971 C   0  0  0  0  0  0  0  0  0  0  0  0
   -1.5799   -9.9322   18.3468 C   0  0  0  0  0  0  0  0  0  0  0  0
   -1.0871  -12.2214   17.8851 C   0  0  0  0  0  0  0  0  0  0  0  0
   -2.2706   -8.9669   19.0691 C   0  0  0  0  0  0  0  0  0  0  0  0
    3.0279   -5.3073   26.8197 C   0  0  0  0  0  0  0  0  0  0  0  0
    7.3282   -3.8948   29.1186 C   0  0  0  0  0  0  0  0  0  0  0  0
  1  3  4  0
  1  7  4  0
  2  3  1  0
  2  6  4  0
  2 16  4  0
  3 22  4  0
  4  9  4  0
  4 10  1  0
  4 20  4  0
  5 16  4  0
  5 23  4  0
  6 15  4  0
  7 12  4  0
  8 13  4  0
  8 14  4  0
  9 11  4  0
 11 14  4  0
 11 19  4  0
 12 18  4  0
 13 21  4  0
 15 23  4  0
 17 19  4  0
 17 20  4  0
 18 22  4  0
 19 21  4  0
M  END
$$$$

 Created by Python create_sdf_string function

 23 25  0  0  0  0  0  0  0  0999 V2000
    2.4610   -5.3070   29.1240 C   0  0  0  0  0  0  0  0  0  0  0  0
    4.7710   -4.6952   28.4803 C   0  0  0  0  0  0  0  0  0  0  0  0
    3.4047   -5.1087   28.1314 C   0  0  0  0  0  0  0  0  0  0  0  0
   -0.2234  -11.8615   16.8874 C   0  0  0  0  0  0  0  0  0  0  0  0
    6.4491   -4.1532   30.1213 C   0  0  0  0  0  0  0  0  0  0  0  0
    5.7060   -4.4340   27.4975 C   0  0  0  0  0  0  0  0  0  0  0  0
    1.1818   -5.6612   28.8399 C   0  0  0  0  0  0  0  0  0  0  0  0
   -1.2067   -7.3287   17.7772 C   0  0  0  0  0  0  0  0  0  0  0  0
   -0.0206  -10.5585   16.6210 C   0  0  0  0  0  0  0  0  0  0  0  0
    0.3696  -12.7626   16.2169 O   0  0  0  0  0  0  0  0  0  0  0  0
   -0.6895   -9.5676   17.3297 C   0  0  0  0  0  0  0  0  0  0  0  0
    0.8388   -5.8417   27.5264 C   0  0  0  0  0  0  0  0  0  0  0  0
   -2.0709   -7.6637   18.7817 C   0  0  0  0  0  0  0  0  0  0  0  0
   -0.5279   -8.2168   17.0717 C   0  0  0  0  0  0  0  0  0  0  0  0
    6.9694   -4.0191   27.8190 C   0  0  0  0  0  0  0  0  0  0  0  0
    5.1733   -4.5469   29.8123 C   0  0  0  0  0  0  0  0  0  0  0  0
   -1.7508  -11.3016   18.6072 C   0  0  0  0  0  0  0  0  0  0  0  0
    1.7497   -5.6771   26.4971 C   0  0  0  0  0  0  0  0  0  0  0  0
   -1.5799   -9.9322   18.3468 C   0  0  0  0  0  0  0  0  0  0  0  0
   -1.0871  -12.2214   17.8851 C   0  0  0  0  0  0  0  0  0  0  0  0
   -2.2706   -8.9669   19.0691 C   0  0  0  0  0  0  0  0  0  0  0  0
    3.0279   -5.3073   26.8197 C   0  0  0  0  0  0  0  0  0  0  0  0
    7.3282   -3.8948   29.1186 C   0  0  0  0  0  0  0  0  0  0  0  0
  1  3  4  0
  1  7  4  0
  2  3  1  0
  2  6  4  0
  2 16  4  0
  3 22  4  0
  4  9  4  0
  4 10  1  0
  4 20  4  0
  5 16  4  0
  5 23  4  0
  6 15  4  0
  7 12  4  0
  8 13  4  0
  8 14  4  0
  9 11  4  0
 11 14  4  0
 11 19  4  0
 12 18  4  0
 13 21  4  0
 15 23  4  0
 17 19  4  0
 17 20  4  0
 18 22  4  0
 19 21  4  0
M  END
$$$$

 Created by Python create_sdf_string function

 23 25  0  0  0  0  0  0  0  0999 V2000
    2.4610   -5.3070   29.1240 C   0  0  0  0  0  0  0  0  0  0  0  0
    4.7710   -4.6952   28.4803 C   0  0  0  0  0  0  0  0  0  0  0  0
    3.4047   -5.1087   28.1314 C   0  0  0  0  0  0  0  0  0  0  0  0
   -0.2234  -11.8615   16.8874 C   0  0  0  0  0  0  0  0  0  0  0  0
    6.4491   -4.1532   30.1213 C   0  0  0  0  0  0  0  0  0  0  0  0
    5.7060   -4.4340   27.4975 C   0  0  0  0  0  0  0  0  0  0  0  0
    1.1818   -5.6612   28.8399 C   0  0  0  0  0  0  0  0  0  0  0  0
   -1.2067   -7.3287   17.7772 C   0  0  0  0  0  0  0  0  0  0  0  0
   -0.0206  -10.5585   16.6210 C   0  0  0  0  0  0  0  0  0  0  0  0
    0.3696  -12.7626   16.2169 O   0  0  0  0  0  0  0  0  0  0  0  0
   -0.6895   -9.5676   17.3297 C   0  0  0  0  0  0  0  0  0  0  0  0
    0.8388   -5.8417   27.5264 C   0  0  0  0  0  0  0  0  0  0  0  0
   -2.0709   -7.6637   18.7817 C   0  0  0  0  0  0  0  0  0  0  0  0
   -0.5279   -8.2168   17.0717 C   0  0  0  0  0  0  0  0  0  0  0  0
    6.9694   -4.0191   27.8190 C   0  0  0  0  0  0  0  0  0  0  0  0
    5.1733   -4.5469   29.8123 C   0  0  0  0  0  0  0  0  0  0  0  0
   -1.7508  -11.3016   18.6072 C   0  0  0  0  0  0  0  0  0  0  0  0
    1.7497   -5.6771   26.4971 C   0  0  0  0  0  0  0  0  0  0  0  0
   -1.5799   -9.9322   18.3468 C   0  0  0  0  0  0  0  0  0  0  0  0
   -1.0871  -12.2214   17.8851 C   0  0  0  0  0  0  0  0  0  0  0  0
   -2.2706   -8.9669   19.0691 C   0  0  0  0  0  0  0  0  0  0  0  0
    3.0279   -5.3073   26.8197 C   0  0  0  0  0  0  0  0  0  0  0  0
    7.3282   -3.8948   29.1186 C   0  0  0  0  0  0  0  0  0  0  0  0
  1  3  4  0
  1  7  4  0
  2  3  1  0
  2  6  4  0
  2 16  4  0
  3 22  4  0
  4  9  4  0
  4 10  1  0
  4 20  4  0
  5 16  4  0
  5 23  4  0
  6 15  4  0
  7 12  4  0
  8 13  4  0
  8 14  4  0
  9 11  4  0
 11 14  4  0
 11 19  4  0
 12 18  4  0
 13 21  4  0
 15 23  4  0
 17 19  4  0
 17 20  4  0
 18 22  4  0
 19 21  4  0
M  END
$$$$

 Created by Python create_sdf_string function

 23 25  0  0  0  0  0  0  0  0999 V2000
    2.4610   -5.3070   29.1240 C   0  0  0  0  0  0  0  0  0  0  0  0
    4.7710   -4.6952   28.4803 C   0  0  0  0  0  0  0  0  0  0  0  0
    3.4047   -5.1087   28.1314 C   0  0  0  0  0  0  0  0  0  0  0  0
   -0.2234  -11.8615   16.8874 C   0  0  0  0  0  0  0  0  0  0  0  0
    6.4491   -4.1532   30.1213 C   0  0  0  0  0  0  0  0  0  0  0  0
    5.7060   -4.4340   27.4975 C   0  0  0  0  0  0  0  0  0  0  0  0
    1.1818   -5.6612   28.8399 C   0  0  0  0  0  0  0  0  0  0  0  0
   -1.2067   -7.3287   17.7772 C   0  0  0  0  0  0  0  0  0  0  0  0
   -0.0206  -10.5585   16.6210 C   0  0  0  0  0  0  0  0  0  0  0  0
    0.3696  -12.7626   16.2169 O   0  0  0  0  0  0  0  0  0  0  0  0
   -0.6895   -9.5676   17.3297 C   0  0  0  0  0  0  0  0  0  0  0  0
    0.8388   -5.8417   27.5264 C   0  0  0  0  0  0  0  0  0  0  0  0
   -2.0709   -7.6637   18.7817 C   0  0  0  0  0  0  0  0  0  0  0  0
   -0.5279   -8.2168   17.0717 C   0  0  0  0  0  0  0  0  0  0  0  0
    6.9694   -4.0191   27.8190 C   0  0  0  0  0  0  0  0  0  0  0  0
    5.1733   -4.5469   29.8123 C   0  0  0  0  0  0  0  0  0  0  0  0
   -1.7508  -11.3016   18.6072 C   0  0  0  0  0  0  0  0  0  0  0  0
    1.7497   -5.6771   26.4971 C   0  0  0  0  0  0  0  0  0  0  0  0
   -1.5799   -9.9322   18.3468 C   0  0  0  0  0  0  0  0  0  0  0  0
   -1.0871  -12.2214   17.8851 C   0  0  0  0  0  0  0  0  0  0  0  0
   -2.2706   -8.9669   19.0691 C   0  0  0  0  0  0  0  0  0  0  0  0
    3.0279   -5.3073   26.8197 C   0  0  0  0  0  0  0  0  0  0  0  0
    7.3282   -3.8948   29.1186 C   0  0  0  0  0  0  0  0  0  0  0  0
  1  3  4  0
  1  7  4  0
  2  3  1  0
  2  6  4  0
  2 16  4  0
  3 22  4  0
  4  9  4  0
  4 10  1  0
  4 20  4  0
  5 16  4  0
  5 23  4  0
  6 15  4  0
  7 12  4  0
  8 13  4  0
  8 14  4  0
  9 11  4  0
 11 14  4  0
 11 19  4  0
 12 18  4  0
 13 21  4  0
 15 23  4  0
 17 19  4  0
 17 20  4  0
 18 22  4  0
 19 21  4  0
M  END
$$$$

 Created by Python create_sdf_string function

 23 25  0  0  0  0  0  0  0  0999 V2000
    2.4610   -5.3070   29.1240 C   0  0  0  0  0  0  0  0  0  0  0  0
    4.7710   -4.6952   28.4803 C   0  0  0  0  0  0  0  0  0  0  0  0
    3.4047   -5.1087   28.1314 C   0  0  0  0  0  0  0  0  0  0  0  0
   -0.2234  -11.8615   16.8874 C   0  0  0  0  0  0  0  0  0  0  0  0
    6.4491   -4.1532   30.1213 C   0  0  0  0  0  0  0  0  0  0  0  0
    5.7060   -4.4340   27.4975 C   0  0  0  0  0  0  0  0  0  0  0  0
    1.1818   -5.6612   28.8399 C   0  0  0  0  0  0  0  0  0  0  0  0
   -1.2067   -7.3287   17.7772 C   0  0  0  0  0  0  0  0  0  0  0  0
   -0.0206  -10.5585   16.6210 C   0  0  0  0  0  0  0  0  0  0  0  0
    0.3696  -12.7626   16.2169 O   0  0  0  0  0  0  0  0  0  0  0  0
   -0.6895   -9.5676   17.3297 C   0  0  0  0  0  0  0  0  0  0  0  0
    0.8388   -5.8417   27.5264 C   0  0  0  0  0  0  0  0  0  0  0  0
   -2.0709   -7.6637   18.7817 C   0  0  0  0  0  0  0  0  0  0  0  0
   -0.5279   -8.2168   17.0717 C   0  0  0  0  0  0  0  0  0  0  0  0
    6.9694   -4.0191   27.8190 C   0  0  0  0  0  0  0  0  0  0  0  0
    5.1733   -4.5469   29.8123 C   0  0  0  0  0  0  0  0  0  0  0  0
   -1.7508  -11.3016   18.6072 C   0  0  0  0  0  0  0  0  0  0  0  0
    1.7497   -5.6771   26.4971 C   0  0  0  0  0  0  0  0  0  0  0  0
   -1.5799   -9.9322   18.3468 C   0  0  0  0  0  0  0  0  0  0  0  0
   -1.0871  -12.2214   17.8851 C   0  0  0  0  0  0  0  0  0  0  0  0
   -2.2706   -8.9669   19.0691 C   0  0  0  0  0  0  0  0  0  0  0  0
    3.0279   -5.3073   26.8197 C   0  0  0  0  0  0  0  0  0  0  0  0
    7.3282   -3.8948   29.1186 C   0  0  0  0  0  0  0  0  0  0  0  0
  1  3  4  0
  1  7  4  0
  2  3  1  0
  2  6  4  0
  2 16  4  0
  3 22  4  0
  4  9  4  0
  4 10  1  0
  4 20  4  0
  5 16  4  0
  5 23  4  0
  6 15  4  0
  7 12  4  0
  8 13  4  0
  8 14  4  0
  9 11  4  0
 11 14  4  0
 11 19  4  0
 12 18  4  0
 13 21  4  0
 15 23  4  0
 17 19  4  0
 17 20  4  0
 18 22  4  0
 19 21  4  0
M  END
$$$$

 Created by Python create_sdf_string function

 23 25  0  0  0  0  0  0  0  0999 V2000
    2.4610   -5.3070   29.1240 C   0  0  0  0  0  0  0  0  0  0  0  0
    4.7710   -4.6952   28.4803 C   0  0  0  0  0  0  0  0  0  0  0  0
    3.4047   -5.1087   28.1314 C   0  0  0  0  0  0  0  0  0  0  0  0
   -0.2234  -11.8615   16.8874 C   0  0  0  0  0  0  0  0  0  0  0  0
    6.4491   -4.1532   30.1213 C   0  0  0  0  0  0  0  0  0  0  0  0
    5.7060   -4.4340   27.4975 C   0  0  0  0  0  0  0  0  0  0  0  0
    1.1818   -5.6612   28.8399 C   0  0  0  0  0  0  0  0  0  0  0  0
   -1.2067   -7.3287   17.7772 C   0  0  0  0  0  0  0  0  0  0  0  0
   -0.0206  -10.5585   16.6210 C   0  0  0  0  0  0  0  0  0  0  0  0
    0.3696  -12.7626   16.2169 O   0  0  0  0  0  0  0  0  0  0  0  0
   -0.6895   -9.5676   17.3297 C   0  0  0  0  0  0  0  0  0  0  0  0
    0.8388   -5.8417   27.5264 C   0  0  0  0  0  0  0  0  0  0  0  0
   -2.0709   -7.6637   18.7817 C   0  0  0  0  0  0  0  0  0  0  0  0
   -0.5279   -8.2168   17.0717 C   0  0  0  0  0  0  0  0  0  0  0  0
    6.9694   -4.0191   27.8190 C   0  0  0  0  0  0  0  0  0  0  0  0
    5.1733   -4.5469   29.8123 C   0  0  0  0  0  0  0  0  0  0  0  0
   -1.7508  -11.3016   18.6072 C   0  0  0  0  0  0  0  0  0  0  0  0
    1.7497   -5.6771   26.4971 C   0  0  0  0  0  0  0  0  0  0  0  0
   -1.5799   -9.9322   18.3468 C   0  0  0  0  0  0  0  0  0  0  0  0
   -1.0871  -12.2214   17.8851 C   0  0  0  0  0  0  0  0  0  0  0  0
   -2.2706   -8.9669   19.0691 C   0  0  0  0  0  0  0  0  0  0  0  0
    3.0279   -5.3073   26.8197 C   0  0  0  0  0  0  0  0  0  0  0  0
    7.3282   -3.8948   29.1186 C   0  0  0  0  0  0  0  0  0  0  0  0
  1  3  4  0
  1  7  4  0
  2  3  1  0
  2  6  4  0
  2 16  4  0
  3 22  4  0
  4  9  4  0
  4 10  1  0
  4 20  4  0
  5 16  4  0
  5 23  4  0
  6 15  4  0
  7 12  4  0
  8 13  4  0
  8 14  4  0
  9 11  4  0
 11 14  4  0
 11 19  4  0
 12 18  4  0
 13 21  4  0
 15 23  4  0
 17 19  4  0
 17 20  4  0
 18 22  4  0
 19 21  4  0
M  END
$$$$

 Created by Python create_sdf_string function

 23 25  0  0  0  0  0  0  0  0999 V2000
    2.4610   -5.3070   29.1240 C   0  0  0  0  0  0  0  0  0  0  0  0
    4.7710   -4.6952   28.4803 C   0  0  0  0  0  0  0  0  0  0  0  0
    3.4047   -5.1087   28.1314 C   0  0  0  0  0  0  0  0  0  0  0  0
   -0.2234  -11.8615   16.8874 C   0  0  0  0  0  0  0  0  0  0  0  0
    6.4491   -4.1532   30.1213 C   0  0  0  0  0  0  0  0  0  0  0  0
    5.7060   -4.4340   27.4975 C   0  0  0  0  0  0  0  0  0  0  0  0
    1.1818   -5.6612   28.8399 C   0  0  0  0  0  0  0  0  0  0  0  0
   -1.2067   -7.3287   17.7772 C   0  0  0  0  0  0  0  0  0  0  0  0
   -0.0206  -10.5585   16.6210 C   0  0  0  0  0  0  0  0  0  0  0  0
    0.3696  -12.7626   16.2169 O   0  0  0  0  0  0  0  0  0  0  0  0
   -0.6895   -9.5676   17.3297 C   0  0  0  0  0  0  0  0  0  0  0  0
    0.8388   -5.8417   27.5264 C   0  0  0  0  0  0  0  0  0  0  0  0
   -2.0709   -7.6637   18.7817 C   0  0  0  0  0  0  0  0  0  0  0  0
   -0.5279   -8.2168   17.0717 C   0  0  0  0  0  0  0  0  0  0  0  0
    6.9694   -4.0191   27.8190 C   0  0  0  0  0  0  0  0  0  0  0  0
    5.1733   -4.5469   29.8123 C   0  0  0  0  0  0  0  0  0  0  0  0
   -1.7508  -11.3016   18.6072 C   0  0  0  0  0  0  0  0  0  0  0  0
    1.7497   -5.6771   26.4971 C   0  0  0  0  0  0  0  0  0  0  0  0
   -1.5799   -9.9322   18.3468 C   0  0  0  0  0  0  0  0  0  0  0  0
   -1.0871  -12.2214   17.8851 C   0  0  0  0  0  0  0  0  0  0  0  0
   -2.2706   -8.9669   19.0691 C   0  0  0  0  0  0  0  0  0  0  0  0
    3.0279   -5.3073   26.8197 C   0  0  0  0  0  0  0  0  0  0  0  0
    7.3282   -3.8948   29.1186 C   0  0  0  0  0  0  0  0  0  0  0  0
  1  3  4  0
  1  7  4  0
  2  3  1  0
  2  6  4  0
  2 16  4  0
  3 22  4  0
  4  9  4  0
  4 10  1  0
  4 20  4  0
  5 16  4  0
  5 23  4  0
  6 15  4  0
  7 12  4  0
  8 13  4  0
  8 14  4  0
  9 11  4  0
 11 14  4  0
 11 19  4  0
 12 18  4  0
 13 21  4  0
 15 23  4  0
 17 19  4  0
 17 20  4  0
 18 22  4  0
 19 21  4  0
M  END
$$$$

 Created by Python create_sdf_string function

 23 25  0  0  0  0  0  0  0  0999 V2000
    2.4610   -5.3070   29.1240 C   0  0  0  0  0  0  0  0  0  0  0  0
    4.7710   -4.6952   28.4803 C   0  0  0  0  0  0  0  0  0  0  0  0
    3.4047   -5.1087   28.1314 C   0  0  0  0  0  0  0  0  0  0  0  0
   -0.2234  -11.8615   16.8874 C   0  0  0  0  0  0  0  0  0  0  0  0
    6.4491   -4.1532   30.1213 C   0  0  0  0  0  0  0  0  0  0  0  0
    5.7060   -4.4340   27.4975 C   0  0  0  0  0  0  0  0  0  0  0  0
    1.1818   -5.6612   28.8399 C   0  0  0  0  0  0  0  0  0  0  0  0
   -1.2067   -7.3287   17.7772 C   0  0  0  0  0  0  0  0  0  0  0  0
   -0.0206  -10.5585   16.6210 C   0  0  0  0  0  0  0  0  0  0  0  0
    0.3696  -12.7626   16.2169 O   0  0  0  0  0  0  0  0  0  0  0  0
   -0.6895   -9.5676   17.3297 C   0  0  0  0  0  0  0  0  0  0  0  0
    0.8388   -5.8417   27.5264 C   0  0  0  0  0  0  0  0  0  0  0  0
   -2.0709   -7.6637   18.7817 C   0  0  0  0  0  0  0  0  0  0  0  0
   -0.5279   -8.2168   17.0717 C   0  0  0  0  0  0  0  0  0  0  0  0
    6.9694   -4.0191   27.8190 C   0  0  0  0  0  0  0  0  0  0  0  0
    5.1733   -4.5469   29.8123 C   0  0  0  0  0  0  0  0  0  0  0  0
   -1.7508  -11.3016   18.6072 C   0  0  0  0  0  0  0  0  0  0  0  0
    1.7497   -5.6771   26.4971 C   0  0  0  0  0  0  0  0  0  0  0  0
   -1.5799   -9.9322   18.3468 C   0  0  0  0  0  0  0  0  0  0  0  0
   -1.0871  -12.2214   17.8851 C   0  0  0  0  0  0  0  0  0  0  0  0
   -2.2706   -8.9669   19.0691 C   0  0  0  0  0  0  0  0  0  0  0  0
    3.0279   -5.3073   26.8197 C   0  0  0  0  0  0  0  0  0  0  0  0
    7.3282   -3.8948   29.1186 C   0  0  0  0  0  0  0  0  0  0  0  0
  1  3  4  0
  1  7  4  0
  2  3  1  0
  2  6  4  0
  2 16  4  0
  3 22  4  0
  4  9  4  0
  4 10  1  0
  4 20  4  0
  5 16  4  0
  5 23  4  0
  6 15  4  0
  7 12  4  0
  8 13  4  0
  8 14  4  0
  9 11  4  0
 11 14  4  0
 11 19  4  0
 12 18  4  0
 13 21  4  0
 15 23  4  0
 17 19  4  0
 17 20  4  0
 18 22  4  0
 19 21  4  0
M  END
$$$$

 Created by Python create_sdf_string function

 23 25  0  0  0  0  0  0  0  0999 V2000
    2.4610   -5.3070   29.1240 C   0  0  0  0  0  0  0  0  0  0  0  0
    4.7710   -4.6952   28.4803 C   0  0  0  0  0  0  0  0  0  0  0  0
    3.4047   -5.1087   28.1314 C   0  0  0  0  0  0  0  0  0  0  0  0
   -0.2234  -11.8615   16.8874 C   0  0  0  0  0  0  0  0  0  0  0  0
    6.4491   -4.1532   30.1213 C   0  0  0  0  0  0  0  0  0  0  0  0
    5.7060   -4.4340   27.4975 C   0  0  0  0  0  0  0  0  0  0  0  0
    1.1818   -5.6612   28.8399 C   0  0  0  0  0  0  0  0  0  0  0  0
   -1.2067   -7.3287   17.7772 C   0  0  0  0  0  0  0  0  0  0  0  0
   -0.0206  -10.5585   16.6210 C   0  0  0  0  0  0  0  0  0  0  0  0
    0.3696  -12.7626   16.2169 O   0  0  0  0  0  0  0  0  0  0  0  0
   -0.6895   -9.5676   17.3297 C   0  0  0  0  0  0  0  0  0  0  0  0
    0.8388   -5.8417   27.5264 C   0  0  0  0  0  0  0  0  0  0  0  0
   -2.0709   -7.6637   18.7817 C   0  0  0  0  0  0  0  0  0  0  0  0
   -0.5279   -8.2168   17.0717 C   0  0  0  0  0  0  0  0  0  0  0  0
    6.9694   -4.0191   27.8190 C   0  0  0  0  0  0  0  0  0  0  0  0
    5.1733   -4.5469   29.8123 C   0  0  0  0  0  0  0  0  0  0  0  0
   -1.7508  -11.3016   18.6072 C   0  0  0  0  0  0  0  0  0  0  0  0
    1.7497   -5.6771   26.4971 C   0  0  0  0  0  0  0  0  0  0  0  0
   -1.5799   -9.9322   18.3468 C   0  0  0  0  0  0  0  0  0  0  0  0
   -1.0871  -12.2214   17.8851 C   0  0  0  0  0  0  0  0  0  0  0  0
   -2.2706   -8.9669   19.0691 C   0  0  0  0  0  0  0  0  0  0  0  0
    3.0279   -5.3073   26.8197 C   0  0  0  0  0  0  0  0  0  0  0  0
    7.3282   -3.8948   29.1186 C   0  0  0  0  0  0  0  0  0  0  0  0
  1  3  4  0
  1  7  4  0
  2  3  1  0
  2  6  4  0
  2 16  4  0
  3 22  4  0
  4  9  4  0
  4 10  1  0
  4 20  4  0
  5 16  4  0
  5 23  4  0
  6 15  4  0
  7 12  4  0
  8 13  4  0
  8 14  4  0
  9 11  4  0
 11 14  4  0
 11 19  4  0
 12 18  4  0
 13 21  4  0
 15 23  4  0
 17 19  4  0
 17 20  4  0
 18 22  4  0
 19 21  4  0
M  END
$$$$

 Created by Python create_sdf_string function

 23 25  0  0  0  0  0  0  0  0999 V2000
    2.4610   -5.3070   29.1240 C   0  0  0  0  0  0  0  0  0  0  0  0
    4.7710   -4.6952   28.4803 C   0  0  0  0  0  0  0  0  0  0  0  0
    3.4047   -5.1087   28.1314 C   0  0  0  0  0  0  0  0  0  0  0  0
   -0.2234  -11.8615   16.8874 C   0  0  0  0  0  0  0  0  0  0  0  0
    6.4491   -4.1532   30.1213 C   0  0  0  0  0  0  0  0  0  0  0  0
    5.7060   -4.4340   27.4975 C   0  0  0  0  0  0  0  0  0  0  0  0
    1.1818   -5.6612   28.8399 C   0  0  0  0  0  0  0  0  0  0  0  0
   -1.2067   -7.3287   17.7772 C   0  0  0  0  0  0  0  0  0  0  0  0
   -0.0206  -10.5585   16.6210 C   0  0  0  0  0  0  0  0  0  0  0  0
    0.3696  -12.7626   16.2169 O   0  0  0  0  0  0  0  0  0  0  0  0
   -0.6895   -9.5676   17.3297 C   0  0  0  0  0  0  0  0  0  0  0  0
    0.8388   -5.8417   27.5264 C   0  0  0  0  0  0  0  0  0  0  0  0
   -2.0709   -7.6637   18.7817 C   0  0  0  0  0  0  0  0  0  0  0  0
   -0.5279   -8.2168   17.0717 C   0  0  0  0  0  0  0  0  0  0  0  0
    6.9694   -4.0191   27.8190 C   0  0  0  0  0  0  0  0  0  0  0  0
    5.1733   -4.5469   29.8123 C   0  0  0  0  0  0  0  0  0  0  0  0
   -1.7508  -11.3016   18.6072 C   0  0  0  0  0  0  0  0  0  0  0  0
    1.7497   -5.6771   26.4971 C   0  0  0  0  0  0  0  0  0  0  0  0
   -1.5799   -9.9322   18.3468 C   0  0  0  0  0  0  0  0  0  0  0  0
   -1.0871  -12.2214   17.8851 C   0  0  0  0  0  0  0  0  0  0  0  0
   -2.2706   -8.9669   19.0691 C   0  0  0  0  0  0  0  0  0  0  0  0
    3.0279   -5.3073   26.8197 C   0  0  0  0  0  0  0  0  0  0  0  0
    7.3282   -3.8948   29.1186 C   0  0  0  0  0  0  0  0  0  0  0  0
  1  3  4  0
  1  7  4  0
  2  3  1  0
  2  6  4  0
  2 16  4  0
  3 22  4  0
  4  9  4  0
  4 10  1  0
  4 20  4  0
  5 16  4  0
  5 23  4  0
  6 15  4  0
  7 12  4  0
  8 13  4  0
  8 14  4  0
  9 11  4  0
 11 14  4  0
 11 19  4  0
 12 18  4  0
 13 21  4  0
 15 23  4  0
 17 19  4  0
 17 20  4  0
 18 22  4  0
 19 21  4  0
M  END
$$$$

 Created by Python create_sdf_string function

 23 25  0  0  0  0  0  0  0  0999 V2000
    2.4610   -5.3070   29.1240 C   0  0  0  0  0  0  0  0  0  0  0  0
    4.7710   -4.6952   28.4803 C   0  0  0  0  0  0  0  0  0  0  0  0
    3.4047   -5.1087   28.1314 C   0  0  0  0  0  0  0  0  0  0  0  0
   -0.2234  -11.8615   16.8874 C   0  0  0  0  0  0  0  0  0  0  0  0
    6.4491   -4.1532   30.1213 C   0  0  0  0  0  0  0  0  0  0  0  0
    5.7060   -4.4340   27.4975 C   0  0  0  0  0  0  0  0  0  0  0  0
    1.1818   -5.6612   28.8399 C   0  0  0  0  0  0  0  0  0  0  0  0
   -1.2067   -7.3287   17.7772 C   0  0  0  0  0  0  0  0  0  0  0  0
   -0.0206  -10.5585   16.6210 C   0  0  0  0  0  0  0  0  0  0  0  0
    0.3696  -12.7626   16.2169 O   0  0  0  0  0  0  0  0  0  0  0  0
   -0.6895   -9.5676   17.3297 C   0  0  0  0  0  0  0  0  0  0  0  0
    0.8388   -5.8417   27.5264 C   0  0  0  0  0  0  0  0  0  0  0  0
   -2.0709   -7.6637   18.7817 C   0  0  0  0  0  0  0  0  0  0  0  0
   -0.5279   -8.2168   17.0717 C   0  0  0  0  0  0  0  0  0  0  0  0
    6.9694   -4.0191   27.8190 C   0  0  0  0  0  0  0  0  0  0  0  0
    5.1733   -4.5469   29.8123 C   0  0  0  0  0  0  0  0  0  0  0  0
   -1.7508  -11.3016   18.6072 C   0  0  0  0  0  0  0  0  0  0  0  0
    1.7497   -5.6771   26.4971 C   0  0  0  0  0  0  0  0  0  0  0  0
   -1.5799   -9.9322   18.3468 C   0  0  0  0  0  0  0  0  0  0  0  0
   -1.0871  -12.2214   17.8851 C   0  0  0  0  0  0  0  0  0  0  0  0
   -2.2706   -8.9669   19.0691 C   0  0  0  0  0  0  0  0  0  0  0  0
    3.0279   -5.3073   26.8197 C   0  0  0  0  0  0  0  0  0  0  0  0
    7.3282   -3.8948   29.1186 C   0  0  0  0  0  0  0  0  0  0  0  0
  1  3  4  0
  1  7  4  0
  2  3  1  0
  2  6  4  0
  2 16  4  0
  3 22  4  0
  4  9  4  0
  4 10  1  0
  4 20  4  0
  5 16  4  0
  5 23  4  0
  6 15  4  0
  7 12  4  0
  8 13  4  0
  8 14  4  0
  9 11  4  0
 11 14  4  0
 11 19  4  0
 12 18  4  0
 13 21  4  0
 15 23  4  0
 17 19  4  0
 17 20  4  0
 18 22  4  0
 19 21  4  0
M  END
$$$$

 Created by Python create_sdf_string function

 23 25  0  0  0  0  0  0  0  0999 V2000
    2.4610   -5.3070   29.1240 C   0  0  0  0  0  0  0  0  0  0  0  0
    4.7710   -4.6952   28.4803 C   0  0  0  0  0  0  0  0  0  0  0  0
    3.4047   -5.1087   28.1314 C   0  0  0  0  0  0  0  0  0  0  0  0
   -0.2234  -11.8615   16.8874 C   0  0  0  0  0  0  0  0  0  0  0  0
    6.4491   -4.1532   30.1213 C   0  0  0  0  0  0  0  0  0  0  0  0
    5.7060   -4.4340   27.4975 C   0  0  0  0  0  0  0  0  0  0  0  0
    1.1818   -5.6612   28.8399 C   0  0  0  0  0  0  0  0  0  0  0  0
   -1.2067   -7.3287   17.7772 C   0  0  0  0  0  0  0  0  0  0  0  0
   -0.0206  -10.5585   16.6210 C   0  0  0  0  0  0  0  0  0  0  0  0
    0.3696  -12.7626   16.2169 O   0  0  0  0  0  0  0  0  0  0  0  0
   -0.6895   -9.5676   17.3297 C   0  0  0  0  0  0  0  0  0  0  0  0
    0.8388   -5.8417   27.5264 C   0  0  0  0  0  0  0  0  0  0  0  0
   -2.0709   -7.6637   18.7817 C   0  0  0  0  0  0  0  0  0  0  0  0
   -0.5279   -8.2168   17.0717 C   0  0  0  0  0  0  0  0  0  0  0  0
    6.9694   -4.0191   27.8190 C   0  0  0  0  0  0  0  0  0  0  0  0
    5.1733   -4.5469   29.8123 C   0  0  0  0  0  0  0  0  0  0  0  0
   -1.7508  -11.3016   18.6072 C   0  0  0  0  0  0  0  0  0  0  0  0
    1.7497   -5.6771   26.4971 C   0  0  0  0  0  0  0  0  0  0  0  0
   -1.5799   -9.9322   18.3468 C   0  0  0  0  0  0  0  0  0  0  0  0
   -1.0871  -12.2214   17.8851 C   0  0  0  0  0  0  0  0  0  0  0  0
   -2.2706   -8.9669   19.0691 C   0  0  0  0  0  0  0  0  0  0  0  0
    3.0279   -5.3073   26.8197 C   0  0  0  0  0  0  0  0  0  0  0  0
    7.3282   -3.8948   29.1186 C   0  0  0  0  0  0  0  0  0  0  0  0
  1  3  4  0
  1  7  4  0
  2  3  1  0
  2  6  4  0
  2 16  4  0
  3 22  4  0
  4  9  4  0
  4 10  1  0
  4 20  4  0
  5 16  4  0
  5 23  4  0
  6 15  4  0
  7 12  4  0
  8 13  4  0
  8 14  4  0
  9 11  4  0
 11 14  4  0
 11 19  4  0
 12 18  4  0
 13 21  4  0
 15 23  4  0
 17 19  4  0
 17 20  4  0
 18 22  4  0
 19 21  4  0
M  END
$$$$

 Created by Python create_sdf_string function

 23 25  0  0  0  0  0  0  0  0999 V2000
    2.4610   -5.3070   29.1240 C   0  0  0  0  0  0  0  0  0  0  0  0
    4.7710   -4.6952   28.4803 C   0  0  0  0  0  0  0  0  0  0  0  0
    3.4047   -5.1087   28.1314 C   0  0  0  0  0  0  0  0  0  0  0  0
   -0.2234  -11.8615   16.8874 C   0  0  0  0  0  0  0  0  0  0  0  0
    6.4491   -4.1532   30.1213 C   0  0  0  0  0  0  0  0  0  0  0  0
    5.7060   -4.4340   27.4975 C   0  0  0  0  0  0  0  0  0  0  0  0
    1.1818   -5.6612   28.8399 C   0  0  0  0  0  0  0  0  0  0  0  0
   -1.2067   -7.3287   17.7772 C   0  0  0  0  0  0  0  0  0  0  0  0
   -0.0206  -10.5585   16.6210 C   0  0  0  0  0  0  0  0  0  0  0  0
    0.3696  -12.7626   16.2169 O   0  0  0  0  0  0  0  0  0  0  0  0
   -0.6895   -9.5676   17.3297 C   0  0  0  0  0  0  0  0  0  0  0  0
    0.8388   -5.8417   27.5264 C   0  0  0  0  0  0  0  0  0  0  0  0
   -2.0709   -7.6637   18.7817 C   0  0  0  0  0  0  0  0  0  0  0  0
   -0.5279   -8.2168   17.0717 C   0  0  0  0  0  0  0  0  0  0  0  0
    6.9694   -4.0191   27.8190 C   0  0  0  0  0  0  0  0  0  0  0  0
    5.1733   -4.5469   29.8123 C   0  0  0  0  0  0  0  0  0  0  0  0
   -1.7508  -11.3016   18.6072 C   0  0  0  0  0  0  0  0  0  0  0  0
    1.7497   -5.6771   26.4971 C   0  0  0  0  0  0  0  0  0  0  0  0
   -1.5799   -9.9322   18.3468 C   0  0  0  0  0  0  0  0  0  0  0  0
   -1.0871  -12.2214   17.8851 C   0  0  0  0  0  0  0  0  0  0  0  0
   -2.2706   -8.9669   19.0691 C   0  0  0  0  0  0  0  0  0  0  0  0
    3.0279   -5.3073   26.8197 C   0  0  0  0  0  0  0  0  0  0  0  0
    7.3282   -3.8948   29.1186 C   0  0  0  0  0  0  0  0  0  0  0  0
  1  3  4  0
  1  7  4  0
  2  3  1  0
  2  6  4  0
  2 16  4  0
  3 22  4  0
  4  9  4  0
  4 10  1  0
  4 20  4  0
  5 16  4  0
  5 23  4  0
  6 15  4  0
  7 12  4  0
  8 13  4  0
  8 14  4  0
  9 11  4  0
 11 14  4  0
 11 19  4  0
 12 18  4  0
 13 21  4  0
 15 23  4  0
 17 19  4  0
 17 20  4  0
 18 22  4  0
 19 21  4  0
M  END
$$$$

 Created by Python create_sdf_string function

 23 25  0  0  0  0  0  0  0  0999 V2000
    2.4610   -5.3070   29.1240 C   0  0  0  0  0  0  0  0  0  0  0  0
    4.7710   -4.6952   28.4803 C   0  0  0  0  0  0  0  0  0  0  0  0
    3.4047   -5.1087   28.1314 C   0  0  0  0  0  0  0  0  0  0  0  0
   -0.2234  -11.8615   16.8874 C   0  0  0  0  0  0  0  0  0  0  0  0
    6.4491   -4.1532   30.1213 C   0  0  0  0  0  0  0  0  0  0  0  0
    5.7060   -4.4340   27.4975 C   0  0  0  0  0  0  0  0  0  0  0  0
    1.1818   -5.6612   28.8399 C   0  0  0  0  0  0  0  0  0  0  0  0
   -1.2067   -7.3287   17.7772 C   0  0  0  0  0  0  0  0  0  0  0  0
   -0.0206  -10.5585   16.6210 C   0  0  0  0  0  0  0  0  0  0  0  0
    0.3696  -12.7626   16.2169 O   0  0  0  0  0  0  0  0  0  0  0  0
   -0.6895   -9.5676   17.3297 C   0  0  0  0  0  0  0  0  0  0  0  0
    0.8388   -5.8417   27.5264 C   0  0  0  0  0  0  0  0  0  0  0  0
   -2.0709   -7.6637   18.7817 C   0  0  0  0  0  0  0  0  0  0  0  0
   -0.5279   -8.2168   17.0717 C   0  0  0  0  0  0  0  0  0  0  0  0
    6.9694   -4.0191   27.8190 C   0  0  0  0  0  0  0  0  0  0  0  0
    5.1733   -4.5469   29.8123 C   0  0  0  0  0  0  0  0  0  0  0  0
   -1.7508  -11.3016   18.6072 C   0  0  0  0  0  0  0  0  0  0  0  0
    1.7497   -5.6771   26.4971 C   0  0  0  0  0  0  0  0  0  0  0  0
   -1.5799   -9.9322   18.3468 C   0  0  0  0  0  0  0  0  0  0  0  0
   -1.0871  -12.2214   17.8851 C   0  0  0  0  0  0  0  0  0  0  0  0
   -2.2706   -8.9669   19.0691 C   0  0  0  0  0  0  0  0  0  0  0  0
    3.0279   -5.3073   26.8197 C   0  0  0  0  0  0  0  0  0  0  0  0
    7.3282   -3.8948   29.1186 C   0  0  0  0  0  0  0  0  0  0  0  0
  1  3  4  0
  1  7  4  0
  2  3  1  0
  2  6  4  0
  2 16  4  0
  3 22  4  0
  4  9  4  0
  4 10  1  0
  4 20  4  0
  5 16  4  0
  5 23  4  0
  6 15  4  0
  7 12  4  0
  8 13  4  0
  8 14  4  0
  9 11  4  0
 11 14  4  0
 11 19  4  0
 12 18  4  0
 13 21  4  0
 15 23  4  0
 17 19  4  0
 17 20  4  0
 18 22  4  0
 19 21  4  0
M  END
$$$$

 Created by Python create_sdf_string function

 23 25  0  0  0  0  0  0  0  0999 V2000
    2.4610   -5.3070   29.1240 C   0  0  0  0  0  0  0  0  0  0  0  0
    4.7710   -4.6952   28.4803 C   0  0  0  0  0  0  0  0  0  0  0  0
    3.4047   -5.1087   28.1314 C   0  0  0  0  0  0  0  0  0  0  0  0
   -0.2234  -11.8615   16.8874 C   0  0  0  0  0  0  0  0  0  0  0  0
    6.4491   -4.1532   30.1213 C   0  0  0  0  0  0  0  0  0  0  0  0
    5.7060   -4.4340   27.4975 C   0  0  0  0  0  0  0  0  0  0  0  0
    1.1818   -5.6612   28.8399 C   0  0  0  0  0  0  0  0  0  0  0  0
   -1.2067   -7.3287   17.7772 C   0  0  0  0  0  0  0  0  0  0  0  0
   -0.0206  -10.5585   16.6210 C   0  0  0  0  0  0  0  0  0  0  0  0
    0.3696  -12.7626   16.2169 O   0  0  0  0  0  0  0  0  0  0  0  0
   -0.6895   -9.5676   17.3297 C   0  0  0  0  0  0  0  0  0  0  0  0
    0.8388   -5.8417   27.5264 C   0  0  0  0  0  0  0  0  0  0  0  0
   -2.0709   -7.6637   18.7817 C   0  0  0  0  0  0  0  0  0  0  0  0
   -0.5279   -8.2168   17.0717 C   0  0  0  0  0  0  0  0  0  0  0  0
    6.9694   -4.0191   27.8190 C   0  0  0  0  0  0  0  0  0  0  0  0
    5.1733   -4.5469   29.8123 C   0  0  0  0  0  0  0  0  0  0  0  0
   -1.7508  -11.3016   18.6072 C   0  0  0  0  0  0  0  0  0  0  0  0
    1.7497   -5.6771   26.4971 C   0  0  0  0  0  0  0  0  0  0  0  0
   -1.5799   -9.9322   18.3468 C   0  0  0  0  0  0  0  0  0  0  0  0
   -1.0871  -12.2214   17.8851 C   0  0  0  0  0  0  0  0  0  0  0  0
   -2.2706   -8.9669   19.0691 C   0  0  0  0  0  0  0  0  0  0  0  0
    3.0279   -5.3073   26.8197 C   0  0  0  0  0  0  0  0  0  0  0  0
    7.3282   -3.8948   29.1186 C   0  0  0  0  0  0  0  0  0  0  0  0
  1  3  4  0
  1  7  4  0
  2  3  1  0
  2  6  4  0
  2 16  4  0
  3 22  4  0
  4  9  4  0
  4 10  1  0
  4 20  4  0
  5 16  4  0
  5 23  4  0
  6 15  4  0
  7 12  4  0
  8 13  4  0
  8 14  4  0
  9 11  4  0
 11 14  4  0
 11 19  4  0
 12 18  4  0
 13 21  4  0
 15 23  4  0
 17 19  4  0
 17 20  4  0
 18 22  4  0
 19 21  4  0
M  END
$$$$

 Created by Python create_sdf_string function

 23 25  0  0  0  0  0  0  0  0999 V2000
    2.4610   -5.3070   29.1240 C   0  0  0  0  0  0  0  0  0  0  0  0
    4.7710   -4.6952   28.4803 C   0  0  0  0  0  0  0  0  0  0  0  0
    3.4047   -5.1087   28.1314 C   0  0  0  0  0  0  0  0  0  0  0  0
   -0.2234  -11.8615   16.8874 C   0  0  0  0  0  0  0  0  0  0  0  0
    6.4491   -4.1532   30.1213 C   0  0  0  0  0  0  0  0  0  0  0  0
    5.7060   -4.4340   27.4975 C   0  0  0  0  0  0  0  0  0  0  0  0
    1.1818   -5.6612   28.8399 C   0  0  0  0  0  0  0  0  0  0  0  0
   -1.2067   -7.3287   17.7772 C   0  0  0  0  0  0  0  0  0  0  0  0
   -0.0206  -10.5585   16.6210 C   0  0  0  0  0  0  0  0  0  0  0  0
    0.3696  -12.7626   16.2169 O   0  0  0  0  0  0  0  0  0  0  0  0
   -0.6895   -9.5676   17.3297 C   0  0  0  0  0  0  0  0  0  0  0  0
    0.8388   -5.8417   27.5264 C   0  0  0  0  0  0  0  0  0  0  0  0
   -2.0709   -7.6637   18.7817 C   0  0  0  0  0  0  0  0  0  0  0  0
   -0.5279   -8.2168   17.0717 C   0  0  0  0  0  0  0  0  0  0  0  0
    6.9694   -4.0191   27.8190 C   0  0  0  0  0  0  0  0  0  0  0  0
    5.1733   -4.5469   29.8123 C   0  0  0  0  0  0  0  0  0  0  0  0
   -1.7508  -11.3016   18.6072 C   0  0  0  0  0  0  0  0  0  0  0  0
    1.7497   -5.6771   26.4971 C   0  0  0  0  0  0  0  0  0  0  0  0
   -1.5799   -9.9322   18.3468 C   0  0  0  0  0  0  0  0  0  0  0  0
   -1.0871  -12.2214   17.8851 C   0  0  0  0  0  0  0  0  0  0  0  0
   -2.2706   -8.9669   19.0691 C   0  0  0  0  0  0  0  0  0  0  0  0
    3.0279   -5.3073   26.8197 C   0  0  0  0  0  0  0  0  0  0  0  0
    7.3282   -3.8948   29.1186 C   0  0  0  0  0  0  0  0  0  0  0  0
  1  3  4  0
  1  7  4  0
  2  3  1  0
  2  6  4  0
  2 16  4  0
  3 22  4  0
  4  9  4  0
  4 10  1  0
  4 20  4  0
  5 16  4  0
  5 23  4  0
  6 15  4  0
  7 12  4  0
  8 13  4  0
  8 14  4  0
  9 11  4  0
 11 14  4  0
 11 19  4  0
 12 18  4  0
 13 21  4  0
 15 23  4  0
 17 19  4  0
 17 20  4  0
 18 22  4  0
 19 21  4  0
M  END
$$$$

 Created by Python create_sdf_string function

 23 25  0  0  0  0  0  0  0  0999 V2000
    2.4610   -5.3070   29.1240 C   0  0  0  0  0  0  0  0  0  0  0  0
    4.7710   -4.6952   28.4803 C   0  0  0  0  0  0  0  0  0  0  0  0
    3.4047   -5.1087   28.1314 C   0  0  0  0  0  0  0  0  0  0  0  0
   -0.2234  -11.8615   16.8874 C   0  0  0  0  0  0  0  0  0  0  0  0
    6.4491   -4.1532   30.1213 C   0  0  0  0  0  0  0  0  0  0  0  0
    5.7060   -4.4340   27.4975 C   0  0  0  0  0  0  0  0  0  0  0  0
    1.1818   -5.6612   28.8399 C   0  0  0  0  0  0  0  0  0  0  0  0
   -1.2067   -7.3287   17.7772 C   0  0  0  0  0  0  0  0  0  0  0  0
   -0.0206  -10.5585   16.6210 C   0  0  0  0  0  0  0  0  0  0  0  0
    0.3696  -12.7626   16.2169 O   0  0  0  0  0  0  0  0  0  0  0  0
   -0.6895   -9.5676   17.3297 C   0  0  0  0  0  0  0  0  0  0  0  0
    0.8388   -5.8417   27.5264 C   0  0  0  0  0  0  0  0  0  0  0  0
   -2.0709   -7.6637   18.7817 C   0  0  0  0  0  0  0  0  0  0  0  0
   -0.5279   -8.2168   17.0717 C   0  0  0  0  0  0  0  0  0  0  0  0
    6.9694   -4.0191   27.8190 C   0  0  0  0  0  0  0  0  0  0  0  0
    5.1733   -4.5469   29.8123 C   0  0  0  0  0  0  0  0  0  0  0  0
   -1.7508  -11.3016   18.6072 C   0  0  0  0  0  0  0  0  0  0  0  0
    1.7497   -5.6771   26.4971 C   0  0  0  0  0  0  0  0  0  0  0  0
   -1.5799   -9.9322   18.3468 C   0  0  0  0  0  0  0  0  0  0  0  0
   -1.0871  -12.2214   17.8851 C   0  0  0  0  0  0  0  0  0  0  0  0
   -2.2706   -8.9669   19.0691 C   0  0  0  0  0  0  0  0  0  0  0  0
    3.0279   -5.3073   26.8197 C   0  0  0  0  0  0  0  0  0  0  0  0
    7.3282   -3.8948   29.1186 C   0  0  0  0  0  0  0  0  0  0  0  0
  1  3  4  0
  1  7  4  0
  2  3  1  0
  2  6  4  0
  2 16  4  0
  3 22  4  0
  4  9  4  0
  4 10  1  0
  4 20  4  0
  5 16  4  0
  5 23  4  0
  6 15  4  0
  7 12  4  0
  8 13  4  0
  8 14  4  0
  9 11  4  0
 11 14  4  0
 11 19  4  0
 12 18  4  0
 13 21  4  0
 15 23  4  0
 17 19  4  0
 17 20  4  0
 18 22  4  0
 19 21  4  0
M  END
$$$$

 Created by Python create_sdf_string function

 23 25  0  0  0  0  0  0  0  0999 V2000
    2.4610   -5.3070   29.1240 C   0  0  0  0  0  0  0  0  0  0  0  0
    4.7710   -4.6952   28.4803 C   0  0  0  0  0  0  0  0  0  0  0  0
    3.4047   -5.1087   28.1314 C   0  0  0  0  0  0  0  0  0  0  0  0
   -0.2234  -11.8615   16.8874 C   0  0  0  0  0  0  0  0  0  0  0  0
    6.4491   -4.1532   30.1213 C   0  0  0  0  0  0  0  0  0  0  0  0
    5.7060   -4.4340   27.4975 C   0  0  0  0  0  0  0  0  0  0  0  0
    1.1818   -5.6612   28.8399 C   0  0  0  0  0  0  0  0  0  0  0  0
   -1.2067   -7.3287   17.7772 C   0  0  0  0  0  0  0  0  0  0  0  0
   -0.0206  -10.5585   16.6210 C   0  0  0  0  0  0  0  0  0  0  0  0
    0.3696  -12.7626   16.2169 O   0  0  0  0  0  0  0  0  0  0  0  0
   -0.6895   -9.5676   17.3297 C   0  0  0  0  0  0  0  0  0  0  0  0
    0.8388   -5.8417   27.5264 C   0  0  0  0  0  0  0  0  0  0  0  0
   -2.0709   -7.6637   18.7817 C   0  0  0  0  0  0  0  0  0  0  0  0
   -0.5279   -8.2168   17.0717 C   0  0  0  0  0  0  0  0  0  0  0  0
    6.9694   -4.0191   27.8190 C   0  0  0  0  0  0  0  0  0  0  0  0
    5.1733   -4.5469   29.8123 C   0  0  0  0  0  0  0  0  0  0  0  0
   -1.7508  -11.3016   18.6072 C   0  0  0  0  0  0  0  0  0  0  0  0
    1.7497   -5.6771   26.4971 C   0  0  0  0  0  0  0  0  0  0  0  0
   -1.5799   -9.9322   18.3468 C   0  0  0  0  0  0  0  0  0  0  0  0
   -1.0871  -12.2214   17.8851 C   0  0  0  0  0  0  0  0  0  0  0  0
   -2.2706   -8.9669   19.0691 C   0  0  0  0  0  0  0  0  0  0  0  0
    3.0279   -5.3073   26.8197 C   0  0  0  0  0  0  0  0  0  0  0  0
    7.3282   -3.8948   29.1186 C   0  0  0  0  0  0  0  0  0  0  0  0
  1  3  4  0
  1  7  4  0
  2  3  1  0
  2  6  4  0
  2 16  4  0
  3 22  4  0
  4  9  4  0
  4 10  1  0
  4 20  4  0
  5 16  4  0
  5 23  4  0
  6 15  4  0
  7 12  4  0
  8 13  4  0
  8 14  4  0
  9 11  4  0
 11 14  4  0
 11 19  4  0
 12 18  4  0
 13 21  4  0
 15 23  4  0
 17 19  4  0
 17 20  4  0
 18 22  4  0
 19 21  4  0
M  END
$$$$

 Created by Python create_sdf_string function

 23 25  0  0  0  0  0  0  0  0999 V2000
    2.4610   -5.3070   29.1240 C   0  0  0  0  0  0  0  0  0  0  0  0
    4.7710   -4.6952   28.4803 C   0  0  0  0  0  0  0  0  0  0  0  0
    3.4047   -5.1087   28.1314 C   0  0  0  0  0  0  0  0  0  0  0  0
   -0.2234  -11.8615   16.8874 C   0  0  0  0  0  0  0  0  0  0  0  0
    6.4491   -4.1532   30.1213 C   0  0  0  0  0  0  0  0  0  0  0  0
    5.7060   -4.4340   27.4975 C   0  0  0  0  0  0  0  0  0  0  0  0
    1.1818   -5.6612   28.8399 C   0  0  0  0  0  0  0  0  0  0  0  0
   -1.2067   -7.3287   17.7772 C   0  0  0  0  0  0  0  0  0  0  0  0
   -0.0206  -10.5585   16.6210 C   0  0  0  0  0  0  0  0  0  0  0  0
    0.3696  -12.7626   16.2169 O   0  0  0  0  0  0  0  0  0  0  0  0
   -0.6895   -9.5676   17.3297 C   0  0  0  0  0  0  0  0  0  0  0  0
    0.8388   -5.8417   27.5264 C   0  0  0  0  0  0  0  0  0  0  0  0
   -2.0709   -7.6637   18.7817 C   0  0  0  0  0  0  0  0  0  0  0  0
   -0.5279   -8.2168   17.0717 C   0  0  0  0  0  0  0  0  0  0  0  0
    6.9694   -4.0191   27.8190 C   0  0  0  0  0  0  0  0  0  0  0  0
    5.1733   -4.5469   29.8123 C   0  0  0  0  0  0  0  0  0  0  0  0
   -1.7508  -11.3016   18.6072 C   0  0  0  0  0  0  0  0  0  0  0  0
    1.7497   -5.6771   26.4971 C   0  0  0  0  0  0  0  0  0  0  0  0
   -1.5799   -9.9322   18.3468 C   0  0  0  0  0  0  0  0  0  0  0  0
   -1.0871  -12.2214   17.8851 C   0  0  0  0  0  0  0  0  0  0  0  0
   -2.2706   -8.9669   19.0691 C   0  0  0  0  0  0  0  0  0  0  0  0
    3.0279   -5.3073   26.8197 C   0  0  0  0  0  0  0  0  0  0  0  0
    7.3282   -3.8948   29.1186 C   0  0  0  0  0  0  0  0  0  0  0  0
  1  3  4  0
  1  7  4  0
  2  3  1  0
  2  6  4  0
  2 16  4  0
  3 22  4  0
  4  9  4  0
  4 10  1  0
  4 20  4  0
  5 16  4  0
  5 23  4  0
  6 15  4  0
  7 12  4  0
  8 13  4  0
  8 14  4  0
  9 11  4  0
 11 14  4  0
 11 19  4  0
 12 18  4  0
 13 21  4  0
 15 23  4  0
 17 19  4  0
 17 20  4  0
 18 22  4  0
 19 21  4  0
M  END
$$$$

 Created by Python create_sdf_string function

 23 25  0  0  0  0  0  0  0  0999 V2000
    2.4610   -5.3070   29.1240 C   0  0  0  0  0  0  0  0  0  0  0  0
    4.7710   -4.6952   28.4803 C   0  0  0  0  0  0  0  0  0  0  0  0
    3.4047   -5.1087   28.1314 C   0  0  0  0  0  0  0  0  0  0  0  0
   -0.2234  -11.8615   16.8874 C   0  0  0  0  0  0  0  0  0  0  0  0
    6.4491   -4.1532   30.1213 C   0  0  0  0  0  0  0  0  0  0  0  0
    5.7060   -4.4340   27.4975 C   0  0  0  0  0  0  0  0  0  0  0  0
    1.1818   -5.6612   28.8399 C   0  0  0  0  0  0  0  0  0  0  0  0
   -1.2067   -7.3287   17.7772 C   0  0  0  0  0  0  0  0  0  0  0  0
   -0.0206  -10.5585   16.6210 C   0  0  0  0  0  0  0  0  0  0  0  0
    0.3696  -12.7626   16.2169 O   0  0  0  0  0  0  0  0  0  0  0  0
   -0.6895   -9.5676   17.3297 C   0  0  0  0  0  0  0  0  0  0  0  0
    0.8388   -5.8417   27.5264 C   0  0  0  0  0  0  0  0  0  0  0  0
   -2.0709   -7.6637   18.7817 C   0  0  0  0  0  0  0  0  0  0  0  0
   -0.5279   -8.2168   17.0717 C   0  0  0  0  0  0  0  0  0  0  0  0
    6.9694   -4.0191   27.8190 C   0  0  0  0  0  0  0  0  0  0  0  0
    5.1733   -4.5469   29.8123 C   0  0  0  0  0  0  0  0  0  0  0  0
   -1.7508  -11.3016   18.6072 C   0  0  0  0  0  0  0  0  0  0  0  0
    1.7497   -5.6771   26.4971 C   0  0  0  0  0  0  0  0  0  0  0  0
   -1.5799   -9.9322   18.3468 C   0  0  0  0  0  0  0  0  0  0  0  0
   -1.0871  -12.2214   17.8851 C   0  0  0  0  0  0  0  0  0  0  0  0
   -2.2706   -8.9669   19.0691 C   0  0  0  0  0  0  0  0  0  0  0  0
    3.0279   -5.3073   26.8197 C   0  0  0  0  0  0  0  0  0  0  0  0
    7.3282   -3.8948   29.1186 C   0  0  0  0  0  0  0  0  0  0  0  0
  1  3  4  0
  1  7  4  0
  2  3  1  0
  2  6  4  0
  2 16  4  0
  3 22  4  0
  4  9  4  0
  4 10  1  0
  4 20  4  0
  5 16  4  0
  5 23  4  0
  6 15  4  0
  7 12  4  0
  8 13  4  0
  8 14  4  0
  9 11  4  0
 11 14  4  0
 11 19  4  0
 12 18  4  0
 13 21  4  0
 15 23  4  0
 17 19  4  0
 17 20  4  0
 18 22  4  0
 19 21  4  0
M  END
$$$$

 Created by Python create_sdf_string function

 23 25  0  0  0  0  0  0  0  0999 V2000
    2.4610   -5.3070   29.1240 C   0  0  0  0  0  0  0  0  0  0  0  0
    4.7710   -4.6952   28.4803 C   0  0  0  0  0  0  0  0  0  0  0  0
    3.4047   -5.1087   28.1314 C   0  0  0  0  0  0  0  0  0  0  0  0
   -0.2234  -11.8615   16.8874 C   0  0  0  0  0  0  0  0  0  0  0  0
    6.4491   -4.1532   30.1213 C   0  0  0  0  0  0  0  0  0  0  0  0
    5.7060   -4.4340   27.4975 C   0  0  0  0  0  0  0  0  0  0  0  0
    1.1818   -5.6612   28.8399 C   0  0  0  0  0  0  0  0  0  0  0  0
   -1.2067   -7.3287   17.7772 C   0  0  0  0  0  0  0  0  0  0  0  0
   -0.0206  -10.5585   16.6210 C   0  0  0  0  0  0  0  0  0  0  0  0
    0.3696  -12.7626   16.2169 O   0  0  0  0  0  0  0  0  0  0  0  0
   -0.6895   -9.5676   17.3297 C   0  0  0  0  0  0  0  0  0  0  0  0
    0.8388   -5.8417   27.5264 C   0  0  0  0  0  0  0  0  0  0  0  0
   -2.0709   -7.6637   18.7817 C   0  0  0  0  0  0  0  0  0  0  0  0
   -0.5279   -8.2168   17.0717 C   0  0  0  0  0  0  0  0  0  0  0  0
    6.9694   -4.0191   27.8190 C   0  0  0  0  0  0  0  0  0  0  0  0
    5.1733   -4.5469   29.8123 C   0  0  0  0  0  0  0  0  0  0  0  0
   -1.7508  -11.3016   18.6072 C   0  0  0  0  0  0  0  0  0  0  0  0
    1.7497   -5.6771   26.4971 C   0  0  0  0  0  0  0  0  0  0  0  0
   -1.5799   -9.9322   18.3468 C   0  0  0  0  0  0  0  0  0  0  0  0
   -1.0871  -12.2214   17.8851 C   0  0  0  0  0  0  0  0  0  0  0  0
   -2.2706   -8.9669   19.0691 C   0  0  0  0  0  0  0  0  0  0  0  0
    3.0279   -5.3073   26.8197 C   0  0  0  0  0  0  0  0  0  0  0  0
    7.3282   -3.8948   29.1186 C   0  0  0  0  0  0  0  0  0  0  0  0
  1  3  4  0
  1  7  4  0
  2  3  1  0
  2  6  4  0
  2 16  4  0
  3 22  4  0
  4  9  4  0
  4 10  1  0
  4 20  4  0
  5 16  4  0
  5 23  4  0
  6 15  4  0
  7 12  4  0
  8 13  4  0
  8 14  4  0
  9 11  4  0
 11 14  4  0
 11 19  4  0
 12 18  4  0
 13 21  4  0
 15 23  4  0
 17 19  4  0
 17 20  4  0
 18 22  4  0
 19 21  4  0
M  END
$$$$

 Created by Python create_sdf_string function

 23 25  0  0  0  0  0  0  0  0999 V2000
    2.4610   -5.3070   29.1240 C   0  0  0  0  0  0  0  0  0  0  0  0
    4.7710   -4.6952   28.4803 C   0  0  0  0  0  0  0  0  0  0  0  0
    3.4047   -5.1087   28.1314 C   0  0  0  0  0  0  0  0  0  0  0  0
   -0.2234  -11.8615   16.8874 C   0  0  0  0  0  0  0  0  0  0  0  0
    6.4491   -4.1532   30.1213 C   0  0  0  0  0  0  0  0  0  0  0  0
    5.7060   -4.4340   27.4975 C   0  0  0  0  0  0  0  0  0  0  0  0
    1.1818   -5.6612   28.8399 C   0  0  0  0  0  0  0  0  0  0  0  0
   -1.2067   -7.3287   17.7772 C   0  0  0  0  0  0  0  0  0  0  0  0
   -0.0206  -10.5585   16.6210 C   0  0  0  0  0  0  0  0  0  0  0  0
    0.3696  -12.7626   16.2169 O   0  0  0  0  0  0  0  0  0  0  0  0
   -0.6895   -9.5676   17.3297 C   0  0  0  0  0  0  0  0  0  0  0  0
    0.8388   -5.8417   27.5264 C   0  0  0  0  0  0  0  0  0  0  0  0
   -2.0709   -7.6637   18.7817 C   0  0  0  0  0  0  0  0  0  0  0  0
   -0.5279   -8.2168   17.0717 C   0  0  0  0  0  0  0  0  0  0  0  0
    6.9694   -4.0191   27.8190 C   0  0  0  0  0  0  0  0  0  0  0  0
    5.1733   -4.5469   29.8123 C   0  0  0  0  0  0  0  0  0  0  0  0
   -1.7508  -11.3016   18.6072 C   0  0  0  0  0  0  0  0  0  0  0  0
    1.7497   -5.6771   26.4971 C   0  0  0  0  0  0  0  0  0  0  0  0
   -1.5799   -9.9322   18.3468 C   0  0  0  0  0  0  0  0  0  0  0  0
   -1.0871  -12.2214   17.8851 C   0  0  0  0  0  0  0  0  0  0  0  0
   -2.2706   -8.9669   19.0691 C   0  0  0  0  0  0  0  0  0  0  0  0
    3.0279   -5.3073   26.8197 C   0  0  0  0  0  0  0  0  0  0  0  0
    7.3282   -3.8948   29.1186 C   0  0  0  0  0  0  0  0  0  0  0  0
  1  3  4  0
  1  7  4  0
  2  3  1  0
  2  6  4  0
  2 16  4  0
  3 22  4  0
  4  9  4  0
  4 10  1  0
  4 20  4  0
  5 16  4  0
  5 23  4  0
  6 15  4  0
  7 12  4  0
  8 13  4  0
  8 14  4  0
  9 11  4  0
 11 14  4  0
 11 19  4  0
 12 18  4  0
 13 21  4  0
 15 23  4  0
 17 19  4  0
 17 20  4  0
 18 22  4  0
 19 21  4  0
M  END
$$$$

 Created by Python create_sdf_string function

 23 25  0  0  0  0  0  0  0  0999 V2000
    2.4610   -5.3070   29.1240 C   0  0  0  0  0  0  0  0  0  0  0  0
    4.7710   -4.6952   28.4803 C   0  0  0  0  0  0  0  0  0  0  0  0
    3.4047   -5.1087   28.1314 C   0  0  0  0  0  0  0  0  0  0  0  0
   -0.2234  -11.8615   16.8874 C   0  0  0  0  0  0  0  0  0  0  0  0
    6.4491   -4.1532   30.1213 C   0  0  0  0  0  0  0  0  0  0  0  0
    5.7060   -4.4340   27.4975 C   0  0  0  0  0  0  0  0  0  0  0  0
    1.1818   -5.6612   28.8399 C   0  0  0  0  0  0  0  0  0  0  0  0
   -1.2067   -7.3287   17.7772 C   0  0  0  0  0  0  0  0  0  0  0  0
   -0.0206  -10.5585   16.6210 C   0  0  0  0  0  0  0  0  0  0  0  0
    0.3696  -12.7626   16.2169 O   0  0  0  0  0  0  0  0  0  0  0  0
   -0.6895   -9.5676   17.3297 C   0  0  0  0  0  0  0  0  0  0  0  0
    0.8388   -5.8417   27.5264 C   0  0  0  0  0  0  0  0  0  0  0  0
   -2.0709   -7.6637   18.7817 C   0  0  0  0  0  0  0  0  0  0  0  0
   -0.5279   -8.2168   17.0717 C   0  0  0  0  0  0  0  0  0  0  0  0
    6.9694   -4.0191   27.8190 C   0  0  0  0  0  0  0  0  0  0  0  0
    5.1733   -4.5469   29.8123 C   0  0  0  0  0  0  0  0  0  0  0  0
   -1.7508  -11.3016   18.6072 C   0  0  0  0  0  0  0  0  0  0  0  0
    1.7497   -5.6771   26.4971 C   0  0  0  0  0  0  0  0  0  0  0  0
   -1.5799   -9.9322   18.3468 C   0  0  0  0  0  0  0  0  0  0  0  0
   -1.0871  -12.2214   17.8851 C   0  0  0  0  0  0  0  0  0  0  0  0
   -2.2706   -8.9669   19.0691 C   0  0  0  0  0  0  0  0  0  0  0  0
    3.0279   -5.3073   26.8197 C   0  0  0  0  0  0  0  0  0  0  0  0
    7.3282   -3.8948   29.1186 C   0  0  0  0  0  0  0  0  0  0  0  0
  1  3  4  0
  1  7  4  0
  2  3  1  0
  2  6  4  0
  2 16  4  0
  3 22  4  0
  4  9  4  0
  4 10  1  0
  4 20  4  0
  5 16  4  0
  5 23  4  0
  6 15  4  0
  7 12  4  0
  8 13  4  0
  8 14  4  0
  9 11  4  0
 11 14  4  0
 11 19  4  0
 12 18  4  0
 13 21  4  0
 15 23  4  0
 17 19  4  0
 17 20  4  0
 18 22  4  0
 19 21  4  0
M  END
$$$$

 Created by Python create_sdf_string function

 23 25  0  0  0  0  0  0  0  0999 V2000
    2.4610   -5.3070   29.1240 C   0  0  0  0  0  0  0  0  0  0  0  0
    4.7710   -4.6952   28.4803 C   0  0  0  0  0  0  0  0  0  0  0  0
    3.4047   -5.1087   28.1314 C   0  0  0  0  0  0  0  0  0  0  0  0
   -0.2234  -11.8615   16.8874 C   0  0  0  0  0  0  0  0  0  0  0  0
    6.4491   -4.1532   30.1213 C   0  0  0  0  0  0  0  0  0  0  0  0
    5.7060   -4.4340   27.4975 C   0  0  0  0  0  0  0  0  0  0  0  0
    1.1818   -5.6612   28.8399 C   0  0  0  0  0  0  0  0  0  0  0  0
   -1.2067   -7.3287   17.7772 C   0  0  0  0  0  0  0  0  0  0  0  0
   -0.0206  -10.5585   16.6210 C   0  0  0  0  0  0  0  0  0  0  0  0
    0.3696  -12.7626   16.2169 O   0  0  0  0  0  0  0  0  0  0  0  0
   -0.6895   -9.5676   17.3297 C   0  0  0  0  0  0  0  0  0  0  0  0
    0.8388   -5.8417   27.5264 C   0  0  0  0  0  0  0  0  0  0  0  0
   -2.0709   -7.6637   18.7817 C   0  0  0  0  0  0  0  0  0  0  0  0
   -0.5279   -8.2168   17.0717 C   0  0  0  0  0  0  0  0  0  0  0  0
    6.9694   -4.0191   27.8190 C   0  0  0  0  0  0  0  0  0  0  0  0
    5.1733   -4.5469   29.8123 C   0  0  0  0  0  0  0  0  0  0  0  0
   -1.7508  -11.3016   18.6072 C   0  0  0  0  0  0  0  0  0  0  0  0
    1.7497   -5.6771   26.4971 C   0  0  0  0  0  0  0  0  0  0  0  0
   -1.5799   -9.9322   18.3468 C   0  0  0  0  0  0  0  0  0  0  0  0
   -1.0871  -12.2214   17.8851 C   0  0  0  0  0  0  0  0  0  0  0  0
   -2.2706   -8.9669   19.0691 C   0  0  0  0  0  0  0  0  0  0  0  0
    3.0279   -5.3073   26.8197 C   0  0  0  0  0  0  0  0  0  0  0  0
    7.3282   -3.8948   29.1186 C   0  0  0  0  0  0  0  0  0  0  0  0
  1  3  4  0
  1  7  4  0
  2  3  1  0
  2  6  4  0
  2 16  4  0
  3 22  4  0
  4  9  4  0
  4 10  1  0
  4 20  4  0
  5 16  4  0
  5 23  4  0
  6 15  4  0
  7 12  4  0
  8 13  4  0
  8 14  4  0
  9 11  4  0
 11 14  4  0
 11 19  4  0
 12 18  4  0
 13 21  4  0
 15 23  4  0
 17 19  4  0
 17 20  4  0
 18 22  4  0
 19 21  4  0
M  END
$$$$

 Created by Python create_sdf_string function

 23 25  0  0  0  0  0  0  0  0999 V2000
    2.4610   -5.3070   29.1240 C   0  0  0  0  0  0  0  0  0  0  0  0
    4.7710   -4.6952   28.4803 C   0  0  0  0  0  0  0  0  0  0  0  0
    3.4047   -5.1087   28.1314 C   0  0  0  0  0  0  0  0  0  0  0  0
   -0.2234  -11.8615   16.8874 C   0  0  0  0  0  0  0  0  0  0  0  0
    6.4491   -4.1532   30.1213 C   0  0  0  0  0  0  0  0  0  0  0  0
    5.7060   -4.4340   27.4975 C   0  0  0  0  0  0  0  0  0  0  0  0
    1.1818   -5.6612   28.8399 C   0  0  0  0  0  0  0  0  0  0  0  0
   -1.2067   -7.3287   17.7772 C   0  0  0  0  0  0  0  0  0  0  0  0
   -0.0206  -10.5585   16.6210 C   0  0  0  0  0  0  0  0  0  0  0  0
    0.3696  -12.7626   16.2169 O   0  0  0  0  0  0  0  0  0  0  0  0
   -0.6895   -9.5676   17.3297 C   0  0  0  0  0  0  0  0  0  0  0  0
    0.8388   -5.8417   27.5264 C   0  0  0  0  0  0  0  0  0  0  0  0
   -2.0709   -7.6637   18.7817 C   0  0  0  0  0  0  0  0  0  0  0  0
   -0.5279   -8.2168   17.0717 C   0  0  0  0  0  0  0  0  0  0  0  0
    6.9694   -4.0191   27.8190 C   0  0  0  0  0  0  0  0  0  0  0  0
    5.1733   -4.5469   29.8123 C   0  0  0  0  0  0  0  0  0  0  0  0
   -1.7508  -11.3016   18.6072 C   0  0  0  0  0  0  0  0  0  0  0  0
    1.7497   -5.6771   26.4971 C   0  0  0  0  0  0  0  0  0  0  0  0
   -1.5799   -9.9322   18.3468 C   0  0  0  0  0  0  0  0  0  0  0  0
   -1.0871  -12.2214   17.8851 C   0  0  0  0  0  0  0  0  0  0  0  0
   -2.2706   -8.9669   19.0691 C   0  0  0  0  0  0  0  0  0  0  0  0
    3.0279   -5.3073   26.8197 C   0  0  0  0  0  0  0  0  0  0  0  0
    7.3282   -3.8948   29.1186 C   0  0  0  0  0  0  0  0  0  0  0  0
  1  3  4  0
  1  7  4  0
  2  3  1  0
  2  6  4  0
  2 16  4  0
  3 22  4  0
  4  9  4  0
  4 10  1  0
  4 20  4  0
  5 16  4  0
  5 23  4  0
  6 15  4  0
  7 12  4  0
  8 13  4  0
  8 14  4  0
  9 11  4  0
 11 14  4  0
 11 19  4  0
 12 18  4  0
 13 21  4  0
 15 23  4  0
 17 19  4  0
 17 20  4  0
 18 22  4  0
 19 21  4  0
M  END
$$$$

 Created by Python create_sdf_string function

 23 25  0  0  0  0  0  0  0  0999 V2000
    2.4610   -5.3070   29.1240 C   0  0  0  0  0  0  0  0  0  0  0  0
    4.7710   -4.6952   28.4803 C   0  0  0  0  0  0  0  0  0  0  0  0
    3.4047   -5.1087   28.1314 C   0  0  0  0  0  0  0  0  0  0  0  0
   -0.2234  -11.8615   16.8874 C   0  0  0  0  0  0  0  0  0  0  0  0
    6.4491   -4.1532   30.1213 C   0  0  0  0  0  0  0  0  0  0  0  0
    5.7060   -4.4340   27.4975 C   0  0  0  0  0  0  0  0  0  0  0  0
    1.1818   -5.6612   28.8399 C   0  0  0  0  0  0  0  0  0  0  0  0
   -1.2067   -7.3287   17.7772 C   0  0  0  0  0  0  0  0  0  0  0  0
   -0.0206  -10.5585   16.6210 C   0  0  0  0  0  0  0  0  0  0  0  0
    0.3696  -12.7626   16.2169 O   0  0  0  0  0  0  0  0  0  0  0  0
   -0.6895   -9.5676   17.3297 C   0  0  0  0  0  0  0  0  0  0  0  0
    0.8388   -5.8417   27.5264 C   0  0  0  0  0  0  0  0  0  0  0  0
   -2.0709   -7.6637   18.7817 C   0  0  0  0  0  0  0  0  0  0  0  0
   -0.5279   -8.2168   17.0717 C   0  0  0  0  0  0  0  0  0  0  0  0
    6.9694   -4.0191   27.8190 C   0  0  0  0  0  0  0  0  0  0  0  0
    5.1733   -4.5469   29.8123 C   0  0  0  0  0  0  0  0  0  0  0  0
   -1.7508  -11.3016   18.6072 C   0  0  0  0  0  0  0  0  0  0  0  0
    1.7497   -5.6771   26.4971 C   0  0  0  0  0  0  0  0  0  0  0  0
   -1.5799   -9.9322   18.3468 C   0  0  0  0  0  0  0  0  0  0  0  0
   -1.0871  -12.2214   17.8851 C   0  0  0  0  0  0  0  0  0  0  0  0
   -2.2706   -8.9669   19.0691 C   0  0  0  0  0  0  0  0  0  0  0  0
    3.0279   -5.3073   26.8197 C   0  0  0  0  0  0  0  0  0  0  0  0
    7.3282   -3.8948   29.1186 C   0  0  0  0  0  0  0  0  0  0  0  0
  1  3  4  0
  1  7  4  0
  2  3  1  0
  2  6  4  0
  2 16  4  0
  3 22  4  0
  4  9  4  0
  4 10  1  0
  4 20  4  0
  5 16  4  0
  5 23  4  0
  6 15  4  0
  7 12  4  0
  8 13  4  0
  8 14  4  0
  9 11  4  0
 11 14  4  0
 11 19  4  0
 12 18  4  0
 13 21  4  0
 15 23  4  0
 17 19  4  0
 17 20  4  0
 18 22  4  0
 19 21  4  0
M  END
$$$$

 Created by Python create_sdf_string function

 23 25  0  0  0  0  0  0  0  0999 V2000
    2.4610   -5.3070   29.1240 C   0  0  0  0  0  0  0  0  0  0  0  0
    4.7710   -4.6952   28.4803 C   0  0  0  0  0  0  0  0  0  0  0  0
    3.4047   -5.1087   28.1314 C   0  0  0  0  0  0  0  0  0  0  0  0
   -0.2234  -11.8615   16.8874 C   0  0  0  0  0  0  0  0  0  0  0  0
    6.4491   -4.1532   30.1213 C   0  0  0  0  0  0  0  0  0  0  0  0
    5.7060   -4.4340   27.4975 C   0  0  0  0  0  0  0  0  0  0  0  0
    1.1818   -5.6612   28.8399 C   0  0  0  0  0  0  0  0  0  0  0  0
   -1.2067   -7.3287   17.7772 C   0  0  0  0  0  0  0  0  0  0  0  0
   -0.0206  -10.5585   16.6210 C   0  0  0  0  0  0  0  0  0  0  0  0
    0.3696  -12.7626   16.2169 O   0  0  0  0  0  0  0  0  0  0  0  0
   -0.6895   -9.5676   17.3297 C   0  0  0  0  0  0  0  0  0  0  0  0
    0.8388   -5.8417   27.5264 C   0  0  0  0  0  0  0  0  0  0  0  0
   -2.0709   -7.6637   18.7817 C   0  0  0  0  0  0  0  0  0  0  0  0
   -0.5279   -8.2168   17.0717 C   0  0  0  0  0  0  0  0  0  0  0  0
    6.9694   -4.0191   27.8190 C   0  0  0  0  0  0  0  0  0  0  0  0
    5.1733   -4.5469   29.8123 C   0  0  0  0  0  0  0  0  0  0  0  0
   -1.7508  -11.3016   18.6072 C   0  0  0  0  0  0  0  0  0  0  0  0
    1.7497   -5.6771   26.4971 C   0  0  0  0  0  0  0  0  0  0  0  0
   -1.5799   -9.9322   18.3468 C   0  0  0  0  0  0  0  0  0  0  0  0
   -1.0871  -12.2214   17.8851 C   0  0  0  0  0  0  0  0  0  0  0  0
   -2.2706   -8.9669   19.0691 C   0  0  0  0  0  0  0  0  0  0  0  0
    3.0279   -5.3073   26.8197 C   0  0  0  0  0  0  0  0  0  0  0  0
    7.3282   -3.8948   29.1186 C   0  0  0  0  0  0  0  0  0  0  0  0
  1  3  4  0
  1  7  4  0
  2  3  1  0
  2  6  4  0
  2 16  4  0
  3 22  4  0
  4  9  4  0
  4 10  1  0
  4 20  4  0
  5 16  4  0
  5 23  4  0
  6 15  4  0
  7 12  4  0
  8 13  4  0
  8 14  4  0
  9 11  4  0
 11 14  4  0
 11 19  4  0
 12 18  4  0
 13 21  4  0
 15 23  4  0
 17 19  4  0
 17 20  4  0
 18 22  4  0
 19 21  4  0
M  END
$$$$

 Created by Python create_sdf_string function

 23 25  0  0  0  0  0  0  0  0999 V2000
    2.4610   -5.3070   29.1240 C   0  0  0  0  0  0  0  0  0  0  0  0
    4.7710   -4.6952   28.4803 C   0  0  0  0  0  0  0  0  0  0  0  0
    3.4047   -5.1087   28.1314 C   0  0  0  0  0  0  0  0  0  0  0  0
   -0.2234  -11.8615   16.8874 C   0  0  0  0  0  0  0  0  0  0  0  0
    6.4491   -4.1532   30.1213 C   0  0  0  0  0  0  0  0  0  0  0  0
    5.7060   -4.4340   27.4975 C   0  0  0  0  0  0  0  0  0  0  0  0
    1.1818   -5.6612   28.8399 C   0  0  0  0  0  0  0  0  0  0  0  0
   -1.2067   -7.3287   17.7772 C   0  0  0  0  0  0  0  0  0  0  0  0
   -0.0206  -10.5585   16.6210 C   0  0  0  0  0  0  0  0  0  0  0  0
    0.3696  -12.7626   16.2169 O   0  0  0  0  0  0  0  0  0  0  0  0
   -0.6895   -9.5676   17.3297 C   0  0  0  0  0  0  0  0  0  0  0  0
    0.8388   -5.8417   27.5264 C   0  0  0  0  0  0  0  0  0  0  0  0
   -2.0709   -7.6637   18.7817 C   0  0  0  0  0  0  0  0  0  0  0  0
   -0.5279   -8.2168   17.0717 C   0  0  0  0  0  0  0  0  0  0  0  0
    6.9694   -4.0191   27.8190 C   0  0  0  0  0  0  0  0  0  0  0  0
    5.1733   -4.5469   29.8123 C   0  0  0  0  0  0  0  0  0  0  0  0
   -1.7508  -11.3016   18.6072 C   0  0  0  0  0  0  0  0  0  0  0  0
    1.7497   -5.6771   26.4971 C   0  0  0  0  0  0  0  0  0  0  0  0
   -1.5799   -9.9322   18.3468 C   0  0  0  0  0  0  0  0  0  0  0  0
   -1.0871  -12.2214   17.8851 C   0  0  0  0  0  0  0  0  0  0  0  0
   -2.2706   -8.9669   19.0691 C   0  0  0  0  0  0  0  0  0  0  0  0
    3.0279   -5.3073   26.8197 C   0  0  0  0  0  0  0  0  0  0  0  0
    7.3282   -3.8948   29.1186 C   0  0  0  0  0  0  0  0  0  0  0  0
  1  3  4  0
  1  7  4  0
  2  3  1  0
  2  6  4  0
  2 16  4  0
  3 22  4  0
  4  9  4  0
  4 10  1  0
  4 20  4  0
  5 16  4  0
  5 23  4  0
  6 15  4  0
  7 12  4  0
  8 13  4  0
  8 14  4  0
  9 11  4  0
 11 14  4  0
 11 19  4  0
 12 18  4  0
 13 21  4  0
 15 23  4  0
 17 19  4  0
 17 20  4  0
 18 22  4  0
 19 21  4  0
M  END
$$$$

 Created by Python create_sdf_string function

 23 25  0  0  0  0  0  0  0  0999 V2000
    2.4610   -5.3070   29.1240 C   0  0  0  0  0  0  0  0  0  0  0  0
    4.7710   -4.6952   28.4803 C   0  0  0  0  0  0  0  0  0  0  0  0
    3.4047   -5.1087   28.1314 C   0  0  0  0  0  0  0  0  0  0  0  0
   -0.2234  -11.8615   16.8874 C   0  0  0  0  0  0  0  0  0  0  0  0
    6.4491   -4.1532   30.1213 C   0  0  0  0  0  0  0  0  0  0  0  0
    5.7060   -4.4340   27.4975 C   0  0  0  0  0  0  0  0  0  0  0  0
    1.1818   -5.6612   28.8399 C   0  0  0  0  0  0  0  0  0  0  0  0
   -1.2067   -7.3287   17.7772 C   0  0  0  0  0  0  0  0  0  0  0  0
   -0.0206  -10.5585   16.6210 C   0  0  0  0  0  0  0  0  0  0  0  0
    0.3696  -12.7626   16.2169 O   0  0  0  0  0  0  0  0  0  0  0  0
   -0.6895   -9.5676   17.3297 C   0  0  0  0  0  0  0  0  0  0  0  0
    0.8388   -5.8417   27.5264 C   0  0  0  0  0  0  0  0  0  0  0  0
   -2.0709   -7.6637   18.7817 C   0  0  0  0  0  0  0  0  0  0  0  0
   -0.5279   -8.2168   17.0717 C   0  0  0  0  0  0  0  0  0  0  0  0
    6.9694   -4.0191   27.8190 C   0  0  0  0  0  0  0  0  0  0  0  0
    5.1733   -4.5469   29.8123 C   0  0  0  0  0  0  0  0  0  0  0  0
   -1.7508  -11.3016   18.6072 C   0  0  0  0  0  0  0  0  0  0  0  0
    1.7497   -5.6771   26.4971 C   0  0  0  0  0  0  0  0  0  0  0  0
   -1.5799   -9.9322   18.3468 C   0  0  0  0  0  0  0  0  0  0  0  0
   -1.0871  -12.2214   17.8851 C   0  0  0  0  0  0  0  0  0  0  0  0
   -2.2706   -8.9669   19.0691 C   0  0  0  0  0  0  0  0  0  0  0  0
    3.0279   -5.3073   26.8197 C   0  0  0  0  0  0  0  0  0  0  0  0
    7.3282   -3.8948   29.1186 C   0  0  0  0  0  0  0  0  0  0  0  0
  1  3  4  0
  1  7  4  0
  2  3  1  0
  2  6  4  0
  2 16  4  0
  3 22  4  0
  4  9  4  0
  4 10  1  0
  4 20  4  0
  5 16  4  0
  5 23  4  0
  6 15  4  0
  7 12  4  0
  8 13  4  0
  8 14  4  0
  9 11  4  0
 11 14  4  0
 11 19  4  0
 12 18  4  0
 13 21  4  0
 15 23  4  0
 17 19  4  0
 17 20  4  0
 18 22  4  0
 19 21  4  0
M  END
$$$$

 Created by Python create_sdf_string function

 23 25  0  0  0  0  0  0  0  0999 V2000
    2.4610   -5.3070   29.1240 C   0  0  0  0  0  0  0  0  0  0  0  0
    4.7710   -4.6952   28.4803 C   0  0  0  0  0  0  0  0  0  0  0  0
    3.4047   -5.1087   28.1314 C   0  0  0  0  0  0  0  0  0  0  0  0
   -0.2234  -11.8615   16.8874 C   0  0  0  0  0  0  0  0  0  0  0  0
    6.4491   -4.1532   30.1213 C   0  0  0  0  0  0  0  0  0  0  0  0
    5.7060   -4.4340   27.4975 C   0  0  0  0  0  0  0  0  0  0  0  0
    1.1818   -5.6612   28.8399 C   0  0  0  0  0  0  0  0  0  0  0  0
   -1.2067   -7.3287   17.7772 C   0  0  0  0  0  0  0  0  0  0  0  0
   -0.0206  -10.5585   16.6210 C   0  0  0  0  0  0  0  0  0  0  0  0
    0.3696  -12.7626   16.2169 O   0  0  0  0  0  0  0  0  0  0  0  0
   -0.6895   -9.5676   17.3297 C   0  0  0  0  0  0  0  0  0  0  0  0
    0.8388   -5.8417   27.5264 C   0  0  0  0  0  0  0  0  0  0  0  0
   -2.0709   -7.6637   18.7817 C   0  0  0  0  0  0  0  0  0  0  0  0
   -0.5279   -8.2168   17.0717 C   0  0  0  0  0  0  0  0  0  0  0  0
    6.9694   -4.0191   27.8190 C   0  0  0  0  0  0  0  0  0  0  0  0
    5.1733   -4.5469   29.8123 C   0  0  0  0  0  0  0  0  0  0  0  0
   -1.7508  -11.3016   18.6072 C   0  0  0  0  0  0  0  0  0  0  0  0
    1.7497   -5.6771   26.4971 C   0  0  0  0  0  0  0  0  0  0  0  0
   -1.5799   -9.9322   18.3468 C   0  0  0  0  0  0  0  0  0  0  0  0
   -1.0871  -12.2214   17.8851 C   0  0  0  0  0  0  0  0  0  0  0  0
   -2.2706   -8.9669   19.0691 C   0  0  0  0  0  0  0  0  0  0  0  0
    3.0279   -5.3073   26.8197 C   0  0  0  0  0  0  0  0  0  0  0  0
    7.3282   -3.8948   29.1186 C   0  0  0  0  0  0  0  0  0  0  0  0
  1  3  4  0
  1  7  4  0
  2  3  1  0
  2  6  4  0
  2 16  4  0
  3 22  4  0
  4  9  4  0
  4 10  1  0
  4 20  4  0
  5 16  4  0
  5 23  4  0
  6 15  4  0
  7 12  4  0
  8 13  4  0
  8 14  4  0
  9 11  4  0
 11 14  4  0
 11 19  4  0
 12 18  4  0
 13 21  4  0
 15 23  4  0
 17 19  4  0
 17 20  4  0
 18 22  4  0
 19 21  4  0
M  END
$$$$

 Created by Python create_sdf_string function

 23 25  0  0  0  0  0  0  0  0999 V2000
    2.4610   -5.3070   29.1240 C   0  0  0  0  0  0  0  0  0  0  0  0
    4.7710   -4.6952   28.4803 C   0  0  0  0  0  0  0  0  0  0  0  0
    3.4047   -5.1087   28.1314 C   0  0  0  0  0  0  0  0  0  0  0  0
   -0.2234  -11.8615   16.8874 C   0  0  0  0  0  0  0  0  0  0  0  0
    6.4491   -4.1532   30.1213 C   0  0  0  0  0  0  0  0  0  0  0  0
    5.7060   -4.4340   27.4975 C   0  0  0  0  0  0  0  0  0  0  0  0
    1.1818   -5.6612   28.8399 C   0  0  0  0  0  0  0  0  0  0  0  0
   -1.2067   -7.3287   17.7772 C   0  0  0  0  0  0  0  0  0  0  0  0
   -0.0206  -10.5585   16.6210 C   0  0  0  0  0  0  0  0  0  0  0  0
    0.3696  -12.7626   16.2169 O   0  0  0  0  0  0  0  0  0  0  0  0
   -0.6895   -9.5676   17.3297 C   0  0  0  0  0  0  0  0  0  0  0  0
    0.8388   -5.8417   27.5264 C   0  0  0  0  0  0  0  0  0  0  0  0
   -2.0709   -7.6637   18.7817 C   0  0  0  0  0  0  0  0  0  0  0  0
   -0.5279   -8.2168   17.0717 C   0  0  0  0  0  0  0  0  0  0  0  0
    6.9694   -4.0191   27.8190 C   0  0  0  0  0  0  0  0  0  0  0  0
    5.1733   -4.5469   29.8123 C   0  0  0  0  0  0  0  0  0  0  0  0
   -1.7508  -11.3016   18.6072 C   0  0  0  0  0  0  0  0  0  0  0  0
    1.7497   -5.6771   26.4971 C   0  0  0  0  0  0  0  0  0  0  0  0
   -1.5799   -9.9322   18.3468 C   0  0  0  0  0  0  0  0  0  0  0  0
   -1.0871  -12.2214   17.8851 C   0  0  0  0  0  0  0  0  0  0  0  0
   -2.2706   -8.9669   19.0691 C   0  0  0  0  0  0  0  0  0  0  0  0
    3.0279   -5.3073   26.8197 C   0  0  0  0  0  0  0  0  0  0  0  0
    7.3282   -3.8948   29.1186 C   0  0  0  0  0  0  0  0  0  0  0  0
  1  3  4  0
  1  7  4  0
  2  3  1  0
  2  6  4  0
  2 16  4  0
  3 22  4  0
  4  9  4  0
  4 10  1  0
  4 20  4  0
  5 16  4  0
  5 23  4  0
  6 15  4  0
  7 12  4  0
  8 13  4  0
  8 14  4  0
  9 11  4  0
 11 14  4  0
 11 19  4  0
 12 18  4  0
 13 21  4  0
 15 23  4  0
 17 19  4  0
 17 20  4  0
 18 22  4  0
 19 21  4  0
M  END
$$$$

 Created by Python create_sdf_string function

 23 25  0  0  0  0  0  0  0  0999 V2000
    2.4610   -5.3070   29.1240 C   0  0  0  0  0  0  0  0  0  0  0  0
    4.7710   -4.6952   28.4803 C   0  0  0  0  0  0  0  0  0  0  0  0
    3.4047   -5.1087   28.1314 C   0  0  0  0  0  0  0  0  0  0  0  0
   -0.2234  -11.8615   16.8874 C   0  0  0  0  0  0  0  0  0  0  0  0
    6.4491   -4.1532   30.1213 C   0  0  0  0  0  0  0  0  0  0  0  0
    5.7060   -4.4340   27.4975 C   0  0  0  0  0  0  0  0  0  0  0  0
    1.1818   -5.6612   28.8399 C   0  0  0  0  0  0  0  0  0  0  0  0
   -1.2067   -7.3287   17.7772 C   0  0  0  0  0  0  0  0  0  0  0  0
   -0.0206  -10.5585   16.6210 C   0  0  0  0  0  0  0  0  0  0  0  0
    0.3696  -12.7626   16.2169 O   0  0  0  0  0  0  0  0  0  0  0  0
   -0.6895   -9.5676   17.3297 C   0  0  0  0  0  0  0  0  0  0  0  0
    0.8388   -5.8417   27.5264 C   0  0  0  0  0  0  0  0  0  0  0  0
   -2.0709   -7.6637   18.7817 C   0  0  0  0  0  0  0  0  0  0  0  0
   -0.5279   -8.2168   17.0717 C   0  0  0  0  0  0  0  0  0  0  0  0
    6.9694   -4.0191   27.8190 C   0  0  0  0  0  0  0  0  0  0  0  0
    5.1733   -4.5469   29.8123 C   0  0  0  0  0  0  0  0  0  0  0  0
   -1.7508  -11.3016   18.6072 C   0  0  0  0  0  0  0  0  0  0  0  0
    1.7497   -5.6771   26.4971 C   0  0  0  0  0  0  0  0  0  0  0  0
   -1.5799   -9.9322   18.3468 C   0  0  0  0  0  0  0  0  0  0  0  0
   -1.0871  -12.2214   17.8851 C   0  0  0  0  0  0  0  0  0  0  0  0
   -2.2706   -8.9669   19.0691 C   0  0  0  0  0  0  0  0  0  0  0  0
    3.0279   -5.3073   26.8197 C   0  0  0  0  0  0  0  0  0  0  0  0
    7.3282   -3.8948   29.1186 C   0  0  0  0  0  0  0  0  0  0  0  0
  1  3  4  0
  1  7  4  0
  2  3  1  0
  2  6  4  0
  2 16  4  0
  3 22  4  0
  4  9  4  0
  4 10  1  0
  4 20  4  0
  5 16  4  0
  5 23  4  0
  6 15  4  0
  7 12  4  0
  8 13  4  0
  8 14  4  0
  9 11  4  0
 11 14  4  0
 11 19  4  0
 12 18  4  0
 13 21  4  0
 15 23  4  0
 17 19  4  0
 17 20  4  0
 18 22  4  0
 19 21  4  0
M  END
$$$$

 Created by Python create_sdf_string function

 23 25  0  0  0  0  0  0  0  0999 V2000
    2.4610   -5.3070   29.1240 C   0  0  0  0  0  0  0  0  0  0  0  0
    4.7710   -4.6952   28.4803 C   0  0  0  0  0  0  0  0  0  0  0  0
    3.4047   -5.1087   28.1314 C   0  0  0  0  0  0  0  0  0  0  0  0
   -0.2234  -11.8615   16.8874 C   0  0  0  0  0  0  0  0  0  0  0  0
    6.4491   -4.1532   30.1213 C   0  0  0  0  0  0  0  0  0  0  0  0
    5.7060   -4.4340   27.4975 C   0  0  0  0  0  0  0  0  0  0  0  0
    1.1818   -5.6612   28.8399 C   0  0  0  0  0  0  0  0  0  0  0  0
   -1.2067   -7.3287   17.7772 C   0  0  0  0  0  0  0  0  0  0  0  0
   -0.0206  -10.5585   16.6210 C   0  0  0  0  0  0  0  0  0  0  0  0
    0.3696  -12.7626   16.2169 O   0  0  0  0  0  0  0  0  0  0  0  0
   -0.6895   -9.5676   17.3297 C   0  0  0  0  0  0  0  0  0  0  0  0
    0.8388   -5.8417   27.5264 C   0  0  0  0  0  0  0  0  0  0  0  0
   -2.0709   -7.6637   18.7817 C   0  0  0  0  0  0  0  0  0  0  0  0
   -0.5279   -8.2168   17.0717 C   0  0  0  0  0  0  0  0  0  0  0  0
    6.9694   -4.0191   27.8190 C   0  0  0  0  0  0  0  0  0  0  0  0
    5.1733   -4.5469   29.8123 C   0  0  0  0  0  0  0  0  0  0  0  0
   -1.7508  -11.3016   18.6072 C   0  0  0  0  0  0  0  0  0  0  0  0
    1.7497   -5.6771   26.4971 C   0  0  0  0  0  0  0  0  0  0  0  0
   -1.5799   -9.9322   18.3468 C   0  0  0  0  0  0  0  0  0  0  0  0
   -1.0871  -12.2214   17.8851 C   0  0  0  0  0  0  0  0  0  0  0  0
   -2.2706   -8.9669   19.0691 C   0  0  0  0  0  0  0  0  0  0  0  0
    3.0279   -5.3073   26.8197 C   0  0  0  0  0  0  0  0  0  0  0  0
    7.3282   -3.8948   29.1186 C   0  0  0  0  0  0  0  0  0  0  0  0
  1  3  4  0
  1  7  4  0
  2  3  1  0
  2  6  4  0
  2 16  4  0
  3 22  4  0
  4  9  4  0
  4 10  1  0
  4 20  4  0
  5 16  4  0
  5 23  4  0
  6 15  4  0
  7 12  4  0
  8 13  4  0
  8 14  4  0
  9 11  4  0
 11 14  4  0
 11 19  4  0
 12 18  4  0
 13 21  4  0
 15 23  4  0
 17 19  4  0
 17 20  4  0
 18 22  4  0
 19 21  4  0
M  END
$$$$

 Created by Python create_sdf_string function

 23 25  0  0  0  0  0  0  0  0999 V2000
    2.4610   -5.3070   29.1240 C   0  0  0  0  0  0  0  0  0  0  0  0
    4.7710   -4.6952   28.4803 C   0  0  0  0  0  0  0  0  0  0  0  0
    3.4047   -5.1087   28.1314 C   0  0  0  0  0  0  0  0  0  0  0  0
   -0.2234  -11.8615   16.8874 C   0  0  0  0  0  0  0  0  0  0  0  0
    6.4491   -4.1532   30.1213 C   0  0  0  0  0  0  0  0  0  0  0  0
    5.7060   -4.4340   27.4975 C   0  0  0  0  0  0  0  0  0  0  0  0
    1.1818   -5.6612   28.8399 C   0  0  0  0  0  0  0  0  0  0  0  0
   -1.2067   -7.3287   17.7772 C   0  0  0  0  0  0  0  0  0  0  0  0
   -0.0206  -10.5585   16.6210 C   0  0  0  0  0  0  0  0  0  0  0  0
    0.3696  -12.7626   16.2169 O   0  0  0  0  0  0  0  0  0  0  0  0
   -0.6895   -9.5676   17.3297 C   0  0  0  0  0  0  0  0  0  0  0  0
    0.8388   -5.8417   27.5264 C   0  0  0  0  0  0  0  0  0  0  0  0
   -2.0709   -7.6637   18.7817 C   0  0  0  0  0  0  0  0  0  0  0  0
   -0.5279   -8.2168   17.0717 C   0  0  0  0  0  0  0  0  0  0  0  0
    6.9694   -4.0191   27.8190 C   0  0  0  0  0  0  0  0  0  0  0  0
    5.1733   -4.5469   29.8123 C   0  0  0  0  0  0  0  0  0  0  0  0
   -1.7508  -11.3016   18.6072 C   0  0  0  0  0  0  0  0  0  0  0  0
    1.7497   -5.6771   26.4971 C   0  0  0  0  0  0  0  0  0  0  0  0
   -1.5799   -9.9322   18.3468 C   0  0  0  0  0  0  0  0  0  0  0  0
   -1.0871  -12.2214   17.8851 C   0  0  0  0  0  0  0  0  0  0  0  0
   -2.2706   -8.9669   19.0691 C   0  0  0  0  0  0  0  0  0  0  0  0
    3.0279   -5.3073   26.8197 C   0  0  0  0  0  0  0  0  0  0  0  0
    7.3282   -3.8948   29.1186 C   0  0  0  0  0  0  0  0  0  0  0  0
  1  3  4  0
  1  7  4  0
  2  3  1  0
  2  6  4  0
  2 16  4  0
  3 22  4  0
  4  9  4  0
  4 10  1  0
  4 20  4  0
  5 16  4  0
  5 23  4  0
  6 15  4  0
  7 12  4  0
  8 13  4  0
  8 14  4  0
  9 11  4  0
 11 14  4  0
 11 19  4  0
 12 18  4  0
 13 21  4  0
 15 23  4  0
 17 19  4  0
 17 20  4  0
 18 22  4  0
 19 21  4  0
M  END
$$$$

 Created by Python create_sdf_string function

 23 25  0  0  0  0  0  0  0  0999 V2000
    2.4610   -5.3070   29.1240 C   0  0  0  0  0  0  0  0  0  0  0  0
    4.7710   -4.6952   28.4803 C   0  0  0  0  0  0  0  0  0  0  0  0
    3.4047   -5.1087   28.1314 C   0  0  0  0  0  0  0  0  0  0  0  0
   -0.2234  -11.8615   16.8874 C   0  0  0  0  0  0  0  0  0  0  0  0
    6.4491   -4.1532   30.1213 C   0  0  0  0  0  0  0  0  0  0  0  0
    5.7060   -4.4340   27.4975 C   0  0  0  0  0  0  0  0  0  0  0  0
    1.1818   -5.6612   28.8399 C   0  0  0  0  0  0  0  0  0  0  0  0
   -1.2067   -7.3287   17.7772 C   0  0  0  0  0  0  0  0  0  0  0  0
   -0.0206  -10.5585   16.6210 C   0  0  0  0  0  0  0  0  0  0  0  0
    0.3696  -12.7626   16.2169 O   0  0  0  0  0  0  0  0  0  0  0  0
   -0.6895   -9.5676   17.3297 C   0  0  0  0  0  0  0  0  0  0  0  0
    0.8388   -5.8417   27.5264 C   0  0  0  0  0  0  0  0  0  0  0  0
   -2.0709   -7.6637   18.7817 C   0  0  0  0  0  0  0  0  0  0  0  0
   -0.5279   -8.2168   17.0717 C   0  0  0  0  0  0  0  0  0  0  0  0
    6.9694   -4.0191   27.8190 C   0  0  0  0  0  0  0  0  0  0  0  0
    5.1733   -4.5469   29.8123 C   0  0  0  0  0  0  0  0  0  0  0  0
   -1.7508  -11.3016   18.6072 C   0  0  0  0  0  0  0  0  0  0  0  0
    1.7497   -5.6771   26.4971 C   0  0  0  0  0  0  0  0  0  0  0  0
   -1.5799   -9.9322   18.3468 C   0  0  0  0  0  0  0  0  0  0  0  0
   -1.0871  -12.2214   17.8851 C   0  0  0  0  0  0  0  0  0  0  0  0
   -2.2706   -8.9669   19.0691 C   0  0  0  0  0  0  0  0  0  0  0  0
    3.0279   -5.3073   26.8197 C   0  0  0  0  0  0  0  0  0  0  0  0
    7.3282   -3.8948   29.1186 C   0  0  0  0  0  0  0  0  0  0  0  0
  1  3  4  0
  1  7  4  0
  2  3  1  0
  2  6  4  0
  2 16  4  0
  3 22  4  0
  4  9  4  0
  4 10  1  0
  4 20  4  0
  5 16  4  0
  5 23  4  0
  6 15  4  0
  7 12  4  0
  8 13  4  0
  8 14  4  0
  9 11  4  0
 11 14  4  0
 11 19  4  0
 12 18  4  0
 13 21  4  0
 15 23  4  0
 17 19  4  0
 17 20  4  0
 18 22  4  0
 19 21  4  0
M  END
$$$$

 Created by Python create_sdf_string function

 23 25  0  0  0  0  0  0  0  0999 V2000
    2.4610   -5.3070   29.1240 C   0  0  0  0  0  0  0  0  0  0  0  0
    4.7710   -4.6952   28.4803 C   0  0  0  0  0  0  0  0  0  0  0  0
    3.4047   -5.1087   28.1314 C   0  0  0  0  0  0  0  0  0  0  0  0
   -0.2234  -11.8615   16.8874 C   0  0  0  0  0  0  0  0  0  0  0  0
    6.4491   -4.1532   30.1213 C   0  0  0  0  0  0  0  0  0  0  0  0
    5.7060   -4.4340   27.4975 C   0  0  0  0  0  0  0  0  0  0  0  0
    1.1818   -5.6612   28.8399 C   0  0  0  0  0  0  0  0  0  0  0  0
   -1.2067   -7.3287   17.7772 C   0  0  0  0  0  0  0  0  0  0  0  0
   -0.0206  -10.5585   16.6210 C   0  0  0  0  0  0  0  0  0  0  0  0
    0.3696  -12.7626   16.2169 O   0  0  0  0  0  0  0  0  0  0  0  0
   -0.6895   -9.5676   17.3297 C   0  0  0  0  0  0  0  0  0  0  0  0
    0.8388   -5.8417   27.5264 C   0  0  0  0  0  0  0  0  0  0  0  0
   -2.0709   -7.6637   18.7817 C   0  0  0  0  0  0  0  0  0  0  0  0
   -0.5279   -8.2168   17.0717 C   0  0  0  0  0  0  0  0  0  0  0  0
    6.9694   -4.0191   27.8190 C   0  0  0  0  0  0  0  0  0  0  0  0
    5.1733   -4.5469   29.8123 C   0  0  0  0  0  0  0  0  0  0  0  0
   -1.7508  -11.3016   18.6072 C   0  0  0  0  0  0  0  0  0  0  0  0
    1.7497   -5.6771   26.4971 C   0  0  0  0  0  0  0  0  0  0  0  0
   -1.5799   -9.9322   18.3468 C   0  0  0  0  0  0  0  0  0  0  0  0
   -1.0871  -12.2214   17.8851 C   0  0  0  0  0  0  0  0  0  0  0  0
   -2.2706   -8.9669   19.0691 C   0  0  0  0  0  0  0  0  0  0  0  0
    3.0279   -5.3073   26.8197 C   0  0  0  0  0  0  0  0  0  0  0  0
    7.3282   -3.8948   29.1186 C   0  0  0  0  0  0  0  0  0  0  0  0
  1  3  4  0
  1  7  4  0
  2  3  1  0
  2  6  4  0
  2 16  4  0
  3 22  4  0
  4  9  4  0
  4 10  1  0
  4 20  4  0
  5 16  4  0
  5 23  4  0
  6 15  4  0
  7 12  4  0
  8 13  4  0
  8 14  4  0
  9 11  4  0
 11 14  4  0
 11 19  4  0
 12 18  4  0
 13 21  4  0
 15 23  4  0
 17 19  4  0
 17 20  4  0
 18 22  4  0
 19 21  4  0
M  END
$$$$

 Created by Python create_sdf_string function

 23 25  0  0  0  0  0  0  0  0999 V2000
    2.4610   -5.3070   29.1240 C   0  0  0  0  0  0  0  0  0  0  0  0
    4.7710   -4.6952   28.4803 C   0  0  0  0  0  0  0  0  0  0  0  0
    3.4047   -5.1087   28.1314 C   0  0  0  0  0  0  0  0  0  0  0  0
   -0.2234  -11.8615   16.8874 C   0  0  0  0  0  0  0  0  0  0  0  0
    6.4491   -4.1532   30.1213 C   0  0  0  0  0  0  0  0  0  0  0  0
    5.7060   -4.4340   27.4975 C   0  0  0  0  0  0  0  0  0  0  0  0
    1.1818   -5.6612   28.8399 C   0  0  0  0  0  0  0  0  0  0  0  0
   -1.2067   -7.3287   17.7772 C   0  0  0  0  0  0  0  0  0  0  0  0
   -0.0206  -10.5585   16.6210 C   0  0  0  0  0  0  0  0  0  0  0  0
    0.3696  -12.7626   16.2169 O   0  0  0  0  0  0  0  0  0  0  0  0
   -0.6895   -9.5676   17.3297 C   0  0  0  0  0  0  0  0  0  0  0  0
    0.8388   -5.8417   27.5264 C   0  0  0  0  0  0  0  0  0  0  0  0
   -2.0709   -7.6637   18.7817 C   0  0  0  0  0  0  0  0  0  0  0  0
   -0.5279   -8.2168   17.0717 C   0  0  0  0  0  0  0  0  0  0  0  0
    6.9694   -4.0191   27.8190 C   0  0  0  0  0  0  0  0  0  0  0  0
    5.1733   -4.5469   29.8123 C   0  0  0  0  0  0  0  0  0  0  0  0
   -1.7508  -11.3016   18.6072 C   0  0  0  0  0  0  0  0  0  0  0  0
    1.7497   -5.6771   26.4971 C   0  0  0  0  0  0  0  0  0  0  0  0
   -1.5799   -9.9322   18.3468 C   0  0  0  0  0  0  0  0  0  0  0  0
   -1.0871  -12.2214   17.8851 C   0  0  0  0  0  0  0  0  0  0  0  0
   -2.2706   -8.9669   19.0691 C   0  0  0  0  0  0  0  0  0  0  0  0
    3.0279   -5.3073   26.8197 C   0  0  0  0  0  0  0  0  0  0  0  0
    7.3282   -3.8948   29.1186 C   0  0  0  0  0  0  0  0  0  0  0  0
  1  3  4  0
  1  7  4  0
  2  3  1  0
  2  6  4  0
  2 16  4  0
  3 22  4  0
  4  9  4  0
  4 10  1  0
  4 20  4  0
  5 16  4  0
  5 23  4  0
  6 15  4  0
  7 12  4  0
  8 13  4  0
  8 14  4  0
  9 11  4  0
 11 14  4  0
 11 19  4  0
 12 18  4  0
 13 21  4  0
 15 23  4  0
 17 19  4  0
 17 20  4  0
 18 22  4  0
 19 21  4  0
M  END
$$$$

 Created by Python create_sdf_string function

 23 25  0  0  0  0  0  0  0  0999 V2000
    2.4610   -5.3070   29.1240 C   0  0  0  0  0  0  0  0  0  0  0  0
    4.7710   -4.6952   28.4803 C   0  0  0  0  0  0  0  0  0  0  0  0
    3.4047   -5.1087   28.1314 C   0  0  0  0  0  0  0  0  0  0  0  0
   -0.2234  -11.8615   16.8874 C   0  0  0  0  0  0  0  0  0  0  0  0
    6.4491   -4.1532   30.1213 C   0  0  0  0  0  0  0  0  0  0  0  0
    5.7060   -4.4340   27.4975 C   0  0  0  0  0  0  0  0  0  0  0  0
    1.1818   -5.6612   28.8399 C   0  0  0  0  0  0  0  0  0  0  0  0
   -1.2067   -7.3287   17.7772 C   0  0  0  0  0  0  0  0  0  0  0  0
   -0.0206  -10.5585   16.6210 C   0  0  0  0  0  0  0  0  0  0  0  0
    0.3696  -12.7626   16.2169 O   0  0  0  0  0  0  0  0  0  0  0  0
   -0.6895   -9.5676   17.3297 C   0  0  0  0  0  0  0  0  0  0  0  0
    0.8388   -5.8417   27.5264 C   0  0  0  0  0  0  0  0  0  0  0  0
   -2.0709   -7.6637   18.7817 C   0  0  0  0  0  0  0  0  0  0  0  0
   -0.5279   -8.2168   17.0717 C   0  0  0  0  0  0  0  0  0  0  0  0
    6.9694   -4.0191   27.8190 C   0  0  0  0  0  0  0  0  0  0  0  0
    5.1733   -4.5469   29.8123 C   0  0  0  0  0  0  0  0  0  0  0  0
   -1.7508  -11.3016   18.6072 C   0  0  0  0  0  0  0  0  0  0  0  0
    1.7497   -5.6771   26.4971 C   0  0  0  0  0  0  0  0  0  0  0  0
   -1.5799   -9.9322   18.3468 C   0  0  0  0  0  0  0  0  0  0  0  0
   -1.0871  -12.2214   17.8851 C   0  0  0  0  0  0  0  0  0  0  0  0
   -2.2706   -8.9669   19.0691 C   0  0  0  0  0  0  0  0  0  0  0  0
    3.0279   -5.3073   26.8197 C   0  0  0  0  0  0  0  0  0  0  0  0
    7.3282   -3.8948   29.1186 C   0  0  0  0  0  0  0  0  0  0  0  0
  1  3  4  0
  1  7  4  0
  2  3  1  0
  2  6  4  0
  2 16  4  0
  3 22  4  0
  4  9  4  0
  4 10  1  0
  4 20  4  0
  5 16  4  0
  5 23  4  0
  6 15  4  0
  7 12  4  0
  8 13  4  0
  8 14  4  0
  9 11  4  0
 11 14  4  0
 11 19  4  0
 12 18  4  0
 13 21  4  0
 15 23  4  0
 17 19  4  0
 17 20  4  0
 18 22  4  0
 19 21  4  0
M  END
$$$$

 Created by Python create_sdf_string function

 23 25  0  0  0  0  0  0  0  0999 V2000
    2.4610   -5.3070   29.1240 C   0  0  0  0  0  0  0  0  0  0  0  0
    4.7710   -4.6952   28.4803 C   0  0  0  0  0  0  0  0  0  0  0  0
    3.4047   -5.1087   28.1314 C   0  0  0  0  0  0  0  0  0  0  0  0
   -0.2234  -11.8615   16.8874 C   0  0  0  0  0  0  0  0  0  0  0  0
    6.4491   -4.1532   30.1213 C   0  0  0  0  0  0  0  0  0  0  0  0
    5.7060   -4.4340   27.4975 C   0  0  0  0  0  0  0  0  0  0  0  0
    1.1818   -5.6612   28.8399 C   0  0  0  0  0  0  0  0  0  0  0  0
   -1.2067   -7.3287   17.7772 C   0  0  0  0  0  0  0  0  0  0  0  0
   -0.0206  -10.5585   16.6210 C   0  0  0  0  0  0  0  0  0  0  0  0
    0.3696  -12.7626   16.2169 O   0  0  0  0  0  0  0  0  0  0  0  0
   -0.6895   -9.5676   17.3297 C   0  0  0  0  0  0  0  0  0  0  0  0
    0.8388   -5.8417   27.5264 C   0  0  0  0  0  0  0  0  0  0  0  0
   -2.0709   -7.6637   18.7817 C   0  0  0  0  0  0  0  0  0  0  0  0
   -0.5279   -8.2168   17.0717 C   0  0  0  0  0  0  0  0  0  0  0  0
    6.9694   -4.0191   27.8190 C   0  0  0  0  0  0  0  0  0  0  0  0
    5.1733   -4.5469   29.8123 C   0  0  0  0  0  0  0  0  0  0  0  0
   -1.7508  -11.3016   18.6072 C   0  0  0  0  0  0  0  0  0  0  0  0
    1.7497   -5.6771   26.4971 C   0  0  0  0  0  0  0  0  0  0  0  0
   -1.5799   -9.9322   18.3468 C   0  0  0  0  0  0  0  0  0  0  0  0
   -1.0871  -12.2214   17.8851 C   0  0  0  0  0  0  0  0  0  0  0  0
   -2.2706   -8.9669   19.0691 C   0  0  0  0  0  0  0  0  0  0  0  0
    3.0279   -5.3073   26.8197 C   0  0  0  0  0  0  0  0  0  0  0  0
    7.3282   -3.8948   29.1186 C   0  0  0  0  0  0  0  0  0  0  0  0
  1  3  4  0
  1  7  4  0
  2  3  1  0
  2  6  4  0
  2 16  4  0
  3 22  4  0
  4  9  4  0
  4 10  1  0
  4 20  4  0
  5 16  4  0
  5 23  4  0
  6 15  4  0
  7 12  4  0
  8 13  4  0
  8 14  4  0
  9 11  4  0
 11 14  4  0
 11 19  4  0
 12 18  4  0
 13 21  4  0
 15 23  4  0
 17 19  4  0
 17 20  4  0
 18 22  4  0
 19 21  4  0
M  END
$$$$

 Created by Python create_sdf_string function

 23 25  0  0  0  0  0  0  0  0999 V2000
    2.4610   -5.3070   29.1240 C   0  0  0  0  0  0  0  0  0  0  0  0
    4.7710   -4.6952   28.4803 C   0  0  0  0  0  0  0  0  0  0  0  0
    3.4047   -5.1087   28.1314 C   0  0  0  0  0  0  0  0  0  0  0  0
   -0.2234  -11.8615   16.8874 C   0  0  0  0  0  0  0  0  0  0  0  0
    6.4491   -4.1532   30.1213 C   0  0  0  0  0  0  0  0  0  0  0  0
    5.7060   -4.4340   27.4975 C   0  0  0  0  0  0  0  0  0  0  0  0
    1.1818   -5.6612   28.8399 C   0  0  0  0  0  0  0  0  0  0  0  0
   -1.2067   -7.3287   17.7772 C   0  0  0  0  0  0  0  0  0  0  0  0
   -0.0206  -10.5585   16.6210 C   0  0  0  0  0  0  0  0  0  0  0  0
    0.3696  -12.7626   16.2169 O   0  0  0  0  0  0  0  0  0  0  0  0
   -0.6895   -9.5676   17.3297 C   0  0  0  0  0  0  0  0  0  0  0  0
    0.8388   -5.8417   27.5264 C   0  0  0  0  0  0  0  0  0  0  0  0
   -2.0709   -7.6637   18.7817 C   0  0  0  0  0  0  0  0  0  0  0  0
   -0.5279   -8.2168   17.0717 C   0  0  0  0  0  0  0  0  0  0  0  0
    6.9694   -4.0191   27.8190 C   0  0  0  0  0  0  0  0  0  0  0  0
    5.1733   -4.5469   29.8123 C   0  0  0  0  0  0  0  0  0  0  0  0
   -1.7508  -11.3016   18.6072 C   0  0  0  0  0  0  0  0  0  0  0  0
    1.7497   -5.6771   26.4971 C   0  0  0  0  0  0  0  0  0  0  0  0
   -1.5799   -9.9322   18.3468 C   0  0  0  0  0  0  0  0  0  0  0  0
   -1.0871  -12.2214   17.8851 C   0  0  0  0  0  0  0  0  0  0  0  0
   -2.2706   -8.9669   19.0691 C   0  0  0  0  0  0  0  0  0  0  0  0
    3.0279   -5.3073   26.8197 C   0  0  0  0  0  0  0  0  0  0  0  0
    7.3282   -3.8948   29.1186 C   0  0  0  0  0  0  0  0  0  0  0  0
  1  3  4  0
  1  7  4  0
  2  3  1  0
  2  6  4  0
  2 16  4  0
  3 22  4  0
  4  9  4  0
  4 10  1  0
  4 20  4  0
  5 16  4  0
  5 23  4  0
  6 15  4  0
  7 12  4  0
  8 13  4  0
  8 14  4  0
  9 11  4  0
 11 14  4  0
 11 19  4  0
 12 18  4  0
 13 21  4  0
 15 23  4  0
 17 19  4  0
 17 20  4  0
 18 22  4  0
 19 21  4  0
M  END
$$$$

 Created by Python create_sdf_string function

 23 25  0  0  0  0  0  0  0  0999 V2000
    2.4610   -5.3070   29.1240 C   0  0  0  0  0  0  0  0  0  0  0  0
    4.7710   -4.6952   28.4803 C   0  0  0  0  0  0  0  0  0  0  0  0
    3.4047   -5.1087   28.1314 C   0  0  0  0  0  0  0  0  0  0  0  0
   -0.2234  -11.8615   16.8874 C   0  0  0  0  0  0  0  0  0  0  0  0
    6.4491   -4.1532   30.1213 C   0  0  0  0  0  0  0  0  0  0  0  0
    5.7060   -4.4340   27.4975 C   0  0  0  0  0  0  0  0  0  0  0  0
    1.1818   -5.6612   28.8399 C   0  0  0  0  0  0  0  0  0  0  0  0
   -1.2067   -7.3287   17.7772 C   0  0  0  0  0  0  0  0  0  0  0  0
   -0.0206  -10.5585   16.6210 C   0  0  0  0  0  0  0  0  0  0  0  0
    0.3696  -12.7626   16.2169 O   0  0  0  0  0  0  0  0  0  0  0  0
   -0.6895   -9.5676   17.3297 C   0  0  0  0  0  0  0  0  0  0  0  0
    0.8388   -5.8417   27.5264 C   0  0  0  0  0  0  0  0  0  0  0  0
   -2.0709   -7.6637   18.7817 C   0  0  0  0  0  0  0  0  0  0  0  0
   -0.5279   -8.2168   17.0717 C   0  0  0  0  0  0  0  0  0  0  0  0
    6.9694   -4.0191   27.8190 C   0  0  0  0  0  0  0  0  0  0  0  0
    5.1733   -4.5469   29.8123 C   0  0  0  0  0  0  0  0  0  0  0  0
   -1.7508  -11.3016   18.6072 C   0  0  0  0  0  0  0  0  0  0  0  0
    1.7497   -5.6771   26.4971 C   0  0  0  0  0  0  0  0  0  0  0  0
   -1.5799   -9.9322   18.3468 C   0  0  0  0  0  0  0  0  0  0  0  0
   -1.0871  -12.2214   17.8851 C   0  0  0  0  0  0  0  0  0  0  0  0
   -2.2706   -8.9669   19.0691 C   0  0  0  0  0  0  0  0  0  0  0  0
    3.0279   -5.3073   26.8197 C   0  0  0  0  0  0  0  0  0  0  0  0
    7.3282   -3.8948   29.1186 C   0  0  0  0  0  0  0  0  0  0  0  0
  1  3  4  0
  1  7  4  0
  2  3  1  0
  2  6  4  0
  2 16  4  0
  3 22  4  0
  4  9  4  0
  4 10  1  0
  4 20  4  0
  5 16  4  0
  5 23  4  0
  6 15  4  0
  7 12  4  0
  8 13  4  0
  8 14  4  0
  9 11  4  0
 11 14  4  0
 11 19  4  0
 12 18  4  0
 13 21  4  0
 15 23  4  0
 17 19  4  0
 17 20  4  0
 18 22  4  0
 19 21  4  0
M  END
$$$$

 Created by Python create_sdf_string function

 23 25  0  0  0  0  0  0  0  0999 V2000
    2.4610   -5.3070   29.1240 C   0  0  0  0  0  0  0  0  0  0  0  0
    4.7710   -4.6952   28.4803 C   0  0  0  0  0  0  0  0  0  0  0  0
    3.4047   -5.1087   28.1314 C   0  0  0  0  0  0  0  0  0  0  0  0
   -0.2234  -11.8615   16.8874 C   0  0  0  0  0  0  0  0  0  0  0  0
    6.4491   -4.1532   30.1213 C   0  0  0  0  0  0  0  0  0  0  0  0
    5.7060   -4.4340   27.4975 C   0  0  0  0  0  0  0  0  0  0  0  0
    1.1818   -5.6612   28.8399 C   0  0  0  0  0  0  0  0  0  0  0  0
   -1.2067   -7.3287   17.7772 C   0  0  0  0  0  0  0  0  0  0  0  0
   -0.0206  -10.5585   16.6210 C   0  0  0  0  0  0  0  0  0  0  0  0
    0.3696  -12.7626   16.2169 O   0  0  0  0  0  0  0  0  0  0  0  0
   -0.6895   -9.5676   17.3297 C   0  0  0  0  0  0  0  0  0  0  0  0
    0.8388   -5.8417   27.5264 C   0  0  0  0  0  0  0  0  0  0  0  0
   -2.0709   -7.6637   18.7817 C   0  0  0  0  0  0  0  0  0  0  0  0
   -0.5279   -8.2168   17.0717 C   0  0  0  0  0  0  0  0  0  0  0  0
    6.9694   -4.0191   27.8190 C   0  0  0  0  0  0  0  0  0  0  0  0
    5.1733   -4.5469   29.8123 C   0  0  0  0  0  0  0  0  0  0  0  0
   -1.7508  -11.3016   18.6072 C   0  0  0  0  0  0  0  0  0  0  0  0
    1.7497   -5.6771   26.4971 C   0  0  0  0  0  0  0  0  0  0  0  0
   -1.5799   -9.9322   18.3468 C   0  0  0  0  0  0  0  0  0  0  0  0
   -1.0871  -12.2214   17.8851 C   0  0  0  0  0  0  0  0  0  0  0  0
   -2.2706   -8.9669   19.0691 C   0  0  0  0  0  0  0  0  0  0  0  0
    3.0279   -5.3073   26.8197 C   0  0  0  0  0  0  0  0  0  0  0  0
    7.3282   -3.8948   29.1186 C   0  0  0  0  0  0  0  0  0  0  0  0
  1  3  4  0
  1  7  4  0
  2  3  1  0
  2  6  4  0
  2 16  4  0
  3 22  4  0
  4  9  4  0
  4 10  1  0
  4 20  4  0
  5 16  4  0
  5 23  4  0
  6 15  4  0
  7 12  4  0
  8 13  4  0
  8 14  4  0
  9 11  4  0
 11 14  4  0
 11 19  4  0
 12 18  4  0
 13 21  4  0
 15 23  4  0
 17 19  4  0
 17 20  4  0
 18 22  4  0
 19 21  4  0
M  END
$$$$

 Created by Python create_sdf_string function

 23 25  0  0  0  0  0  0  0  0999 V2000
    2.4610   -5.3070   29.1240 C   0  0  0  0  0  0  0  0  0  0  0  0
    4.7710   -4.6952   28.4803 C   0  0  0  0  0  0  0  0  0  0  0  0
    3.4047   -5.1087   28.1314 C   0  0  0  0  0  0  0  0  0  0  0  0
   -0.2234  -11.8615   16.8874 C   0  0  0  0  0  0  0  0  0  0  0  0
    6.4491   -4.1532   30.1213 C   0  0  0  0  0  0  0  0  0  0  0  0
    5.7060   -4.4340   27.4975 C   0  0  0  0  0  0  0  0  0  0  0  0
    1.1818   -5.6612   28.8399 C   0  0  0  0  0  0  0  0  0  0  0  0
   -1.2067   -7.3287   17.7772 C   0  0  0  0  0  0  0  0  0  0  0  0
   -0.0206  -10.5585   16.6210 C   0  0  0  0  0  0  0  0  0  0  0  0
    0.3696  -12.7626   16.2169 O   0  0  0  0  0  0  0  0  0  0  0  0
   -0.6895   -9.5676   17.3297 C   0  0  0  0  0  0  0  0  0  0  0  0
    0.8388   -5.8417   27.5264 C   0  0  0  0  0  0  0  0  0  0  0  0
   -2.0709   -7.6637   18.7817 C   0  0  0  0  0  0  0  0  0  0  0  0
   -0.5279   -8.2168   17.0717 C   0  0  0  0  0  0  0  0  0  0  0  0
    6.9694   -4.0191   27.8190 C   0  0  0  0  0  0  0  0  0  0  0  0
    5.1733   -4.5469   29.8123 C   0  0  0  0  0  0  0  0  0  0  0  0
   -1.7508  -11.3016   18.6072 C   0  0  0  0  0  0  0  0  0  0  0  0
    1.7497   -5.6771   26.4971 C   0  0  0  0  0  0  0  0  0  0  0  0
   -1.5799   -9.9322   18.3468 C   0  0  0  0  0  0  0  0  0  0  0  0
   -1.0871  -12.2214   17.8851 C   0  0  0  0  0  0  0  0  0  0  0  0
   -2.2706   -8.9669   19.0691 C   0  0  0  0  0  0  0  0  0  0  0  0
    3.0279   -5.3073   26.8197 C   0  0  0  0  0  0  0  0  0  0  0  0
    7.3282   -3.8948   29.1186 C   0  0  0  0  0  0  0  0  0  0  0  0
  1  3  4  0
  1  7  4  0
  2  3  1  0
  2  6  4  0
  2 16  4  0
  3 22  4  0
  4  9  4  0
  4 10  1  0
  4 20  4  0
  5 16  4  0
  5 23  4  0
  6 15  4  0
  7 12  4  0
  8 13  4  0
  8 14  4  0
  9 11  4  0
 11 14  4  0
 11 19  4  0
 12 18  4  0
 13 21  4  0
 15 23  4  0
 17 19  4  0
 17 20  4  0
 18 22  4  0
 19 21  4  0
M  END
$$$$

 Created by Python create_sdf_string function

 23 25  0  0  0  0  0  0  0  0999 V2000
    2.4610   -5.3070   29.1240 C   0  0  0  0  0  0  0  0  0  0  0  0
    4.7710   -4.6952   28.4803 C   0  0  0  0  0  0  0  0  0  0  0  0
    3.4047   -5.1087   28.1314 C   0  0  0  0  0  0  0  0  0  0  0  0
   -0.2234  -11.8615   16.8874 C   0  0  0  0  0  0  0  0  0  0  0  0
    6.4491   -4.1532   30.1213 C   0  0  0  0  0  0  0  0  0  0  0  0
    5.7060   -4.4340   27.4975 C   0  0  0  0  0  0  0  0  0  0  0  0
    1.1818   -5.6612   28.8399 C   0  0  0  0  0  0  0  0  0  0  0  0
   -1.2067   -7.3287   17.7772 C   0  0  0  0  0  0  0  0  0  0  0  0
   -0.0206  -10.5585   16.6210 C   0  0  0  0  0  0  0  0  0  0  0  0
    0.3696  -12.7626   16.2169 O   0  0  0  0  0  0  0  0  0  0  0  0
   -0.6895   -9.5676   17.3297 C   0  0  0  0  0  0  0  0  0  0  0  0
    0.8388   -5.8417   27.5264 C   0  0  0  0  0  0  0  0  0  0  0  0
   -2.0709   -7.6637   18.7817 C   0  0  0  0  0  0  0  0  0  0  0  0
   -0.5279   -8.2168   17.0717 C   0  0  0  0  0  0  0  0  0  0  0  0
    6.9694   -4.0191   27.8190 C   0  0  0  0  0  0  0  0  0  0  0  0
    5.1733   -4.5469   29.8123 C   0  0  0  0  0  0  0  0  0  0  0  0
   -1.7508  -11.3016   18.6072 C   0  0  0  0  0  0  0  0  0  0  0  0
    1.7497   -5.6771   26.4971 C   0  0  0  0  0  0  0  0  0  0  0  0
   -1.5799   -9.9322   18.3468 C   0  0  0  0  0  0  0  0  0  0  0  0
   -1.0871  -12.2214   17.8851 C   0  0  0  0  0  0  0  0  0  0  0  0
   -2.2706   -8.9669   19.0691 C   0  0  0  0  0  0  0  0  0  0  0  0
    3.0279   -5.3073   26.8197 C   0  0  0  0  0  0  0  0  0  0  0  0
    7.3282   -3.8948   29.1186 C   0  0  0  0  0  0  0  0  0  0  0  0
  1  3  4  0
  1  7  4  0
  2  3  1  0
  2  6  4  0
  2 16  4  0
  3 22  4  0
  4  9  4  0
  4 10  1  0
  4 20  4  0
  5 16  4  0
  5 23  4  0
  6 15  4  0
  7 12  4  0
  8 13  4  0
  8 14  4  0
  9 11  4  0
 11 14  4  0
 11 19  4  0
 12 18  4  0
 13 21  4  0
 15 23  4  0
 17 19  4  0
 17 20  4  0
 18 22  4  0
 19 21  4  0
M  END
$$$$

 Created by Python create_sdf_string function

 23 25  0  0  0  0  0  0  0  0999 V2000
    2.4610   -5.3070   29.1240 C   0  0  0  0  0  0  0  0  0  0  0  0
    4.7710   -4.6952   28.4803 C   0  0  0  0  0  0  0  0  0  0  0  0
    3.4047   -5.1087   28.1314 C   0  0  0  0  0  0  0  0  0  0  0  0
   -0.2234  -11.8615   16.8874 C   0  0  0  0  0  0  0  0  0  0  0  0
    6.4491   -4.1532   30.1213 C   0  0  0  0  0  0  0  0  0  0  0  0
    5.7060   -4.4340   27.4975 C   0  0  0  0  0  0  0  0  0  0  0  0
    1.1818   -5.6612   28.8399 C   0  0  0  0  0  0  0  0  0  0  0  0
   -1.2067   -7.3287   17.7772 C   0  0  0  0  0  0  0  0  0  0  0  0
   -0.0206  -10.5585   16.6210 C   0  0  0  0  0  0  0  0  0  0  0  0
    0.3696  -12.7626   16.2169 O   0  0  0  0  0  0  0  0  0  0  0  0
   -0.6895   -9.5676   17.3297 C   0  0  0  0  0  0  0  0  0  0  0  0
    0.8388   -5.8417   27.5264 C   0  0  0  0  0  0  0  0  0  0  0  0
   -2.0709   -7.6637   18.7817 C   0  0  0  0  0  0  0  0  0  0  0  0
   -0.5279   -8.2168   17.0717 C   0  0  0  0  0  0  0  0  0  0  0  0
    6.9694   -4.0191   27.8190 C   0  0  0  0  0  0  0  0  0  0  0  0
    5.1733   -4.5469   29.8123 C   0  0  0  0  0  0  0  0  0  0  0  0
   -1.7508  -11.3016   18.6072 C   0  0  0  0  0  0  0  0  0  0  0  0
    1.7497   -5.6771   26.4971 C   0  0  0  0  0  0  0  0  0  0  0  0
   -1.5799   -9.9322   18.3468 C   0  0  0  0  0  0  0  0  0  0  0  0
   -1.0871  -12.2214   17.8851 C   0  0  0  0  0  0  0  0  0  0  0  0
   -2.2706   -8.9669   19.0691 C   0  0  0  0  0  0  0  0  0  0  0  0
    3.0279   -5.3073   26.8197 C   0  0  0  0  0  0  0  0  0  0  0  0
    7.3282   -3.8948   29.1186 C   0  0  0  0  0  0  0  0  0  0  0  0
  1  3  4  0
  1  7  4  0
  2  3  1  0
  2  6  4  0
  2 16  4  0
  3 22  4  0
  4  9  4  0
  4 10  1  0
  4 20  4  0
  5 16  4  0
  5 23  4  0
  6 15  4  0
  7 12  4  0
  8 13  4  0
  8 14  4  0
  9 11  4  0
 11 14  4  0
 11 19  4  0
 12 18  4  0
 13 21  4  0
 15 23  4  0
 17 19  4  0
 17 20  4  0
 18 22  4  0
 19 21  4  0
M  END
$$$$

 Created by Python create_sdf_string function

 23 25  0  0  0  0  0  0  0  0999 V2000
    2.4610   -5.3070   29.1240 C   0  0  0  0  0  0  0  0  0  0  0  0
    4.7710   -4.6952   28.4803 C   0  0  0  0  0  0  0  0  0  0  0  0
    3.4047   -5.1087   28.1314 C   0  0  0  0  0  0  0  0  0  0  0  0
   -0.2234  -11.8615   16.8874 C   0  0  0  0  0  0  0  0  0  0  0  0
    6.4491   -4.1532   30.1213 C   0  0  0  0  0  0  0  0  0  0  0  0
    5.7060   -4.4340   27.4975 C   0  0  0  0  0  0  0  0  0  0  0  0
    1.1818   -5.6612   28.8399 C   0  0  0  0  0  0  0  0  0  0  0  0
   -1.2067   -7.3287   17.7772 C   0  0  0  0  0  0  0  0  0  0  0  0
   -0.0206  -10.5585   16.6210 C   0  0  0  0  0  0  0  0  0  0  0  0
    0.3696  -12.7626   16.2169 O   0  0  0  0  0  0  0  0  0  0  0  0
   -0.6895   -9.5676   17.3297 C   0  0  0  0  0  0  0  0  0  0  0  0
    0.8388   -5.8417   27.5264 C   0  0  0  0  0  0  0  0  0  0  0  0
   -2.0709   -7.6637   18.7817 C   0  0  0  0  0  0  0  0  0  0  0  0
   -0.5279   -8.2168   17.0717 C   0  0  0  0  0  0  0  0  0  0  0  0
    6.9694   -4.0191   27.8190 C   0  0  0  0  0  0  0  0  0  0  0  0
    5.1733   -4.5469   29.8123 C   0  0  0  0  0  0  0  0  0  0  0  0
   -1.7508  -11.3016   18.6072 C   0  0  0  0  0  0  0  0  0  0  0  0
    1.7497   -5.6771   26.4971 C   0  0  0  0  0  0  0  0  0  0  0  0
   -1.5799   -9.9322   18.3468 C   0  0  0  0  0  0  0  0  0  0  0  0
   -1.0871  -12.2214   17.8851 C   0  0  0  0  0  0  0  0  0  0  0  0
   -2.2706   -8.9669   19.0691 C   0  0  0  0  0  0  0  0  0  0  0  0
    3.0279   -5.3073   26.8197 C   0  0  0  0  0  0  0  0  0  0  0  0
    7.3282   -3.8948   29.1186 C   0  0  0  0  0  0  0  0  0  0  0  0
  1  3  4  0
  1  7  4  0
  2  3  1  0
  2  6  4  0
  2 16  4  0
  3 22  4  0
  4  9  4  0
  4 10  1  0
  4 20  4  0
  5 16  4  0
  5 23  4  0
  6 15  4  0
  7 12  4  0
  8 13  4  0
  8 14  4  0
  9 11  4  0
 11 14  4  0
 11 19  4  0
 12 18  4  0
 13 21  4  0
 15 23  4  0
 17 19  4  0
 17 20  4  0
 18 22  4  0
 19 21  4  0
M  END
$$$$

 Created by Python create_sdf_string function

 23 25  0  0  0  0  0  0  0  0999 V2000
    2.4610   -5.3070   29.1240 C   0  0  0  0  0  0  0  0  0  0  0  0
    4.7710   -4.6952   28.4803 C   0  0  0  0  0  0  0  0  0  0  0  0
    3.4047   -5.1087   28.1314 C   0  0  0  0  0  0  0  0  0  0  0  0
   -0.2234  -11.8615   16.8874 C   0  0  0  0  0  0  0  0  0  0  0  0
    6.4491   -4.1532   30.1213 C   0  0  0  0  0  0  0  0  0  0  0  0
    5.7060   -4.4340   27.4975 C   0  0  0  0  0  0  0  0  0  0  0  0
    1.1818   -5.6612   28.8399 C   0  0  0  0  0  0  0  0  0  0  0  0
   -1.2067   -7.3287   17.7772 C   0  0  0  0  0  0  0  0  0  0  0  0
   -0.0206  -10.5585   16.6210 C   0  0  0  0  0  0  0  0  0  0  0  0
    0.3696  -12.7626   16.2169 O   0  0  0  0  0  0  0  0  0  0  0  0
   -0.6895   -9.5676   17.3297 C   0  0  0  0  0  0  0  0  0  0  0  0
    0.8388   -5.8417   27.5264 C   0  0  0  0  0  0  0  0  0  0  0  0
   -2.0709   -7.6637   18.7817 C   0  0  0  0  0  0  0  0  0  0  0  0
   -0.5279   -8.2168   17.0717 C   0  0  0  0  0  0  0  0  0  0  0  0
    6.9694   -4.0191   27.8190 C   0  0  0  0  0  0  0  0  0  0  0  0
    5.1733   -4.5469   29.8123 C   0  0  0  0  0  0  0  0  0  0  0  0
   -1.7508  -11.3016   18.6072 C   0  0  0  0  0  0  0  0  0  0  0  0
    1.7497   -5.6771   26.4971 C   0  0  0  0  0  0  0  0  0  0  0  0
   -1.5799   -9.9322   18.3468 C   0  0  0  0  0  0  0  0  0  0  0  0
   -1.0871  -12.2214   17.8851 C   0  0  0  0  0  0  0  0  0  0  0  0
   -2.2706   -8.9669   19.0691 C   0  0  0  0  0  0  0  0  0  0  0  0
    3.0279   -5.3073   26.8197 C   0  0  0  0  0  0  0  0  0  0  0  0
    7.3282   -3.8948   29.1186 C   0  0  0  0  0  0  0  0  0  0  0  0
  1  3  4  0
  1  7  4  0
  2  3  1  0
  2  6  4  0
  2 16  4  0
  3 22  4  0
  4  9  4  0
  4 10  1  0
  4 20  4  0
  5 16  4  0
  5 23  4  0
  6 15  4  0
  7 12  4  0
  8 13  4  0
  8 14  4  0
  9 11  4  0
 11 14  4  0
 11 19  4  0
 12 18  4  0
 13 21  4  0
 15 23  4  0
 17 19  4  0
 17 20  4  0
 18 22  4  0
 19 21  4  0
M  END
$$$$

 Created by Python create_sdf_string function

 23 25  0  0  0  0  0  0  0  0999 V2000
    2.4610   -5.3070   29.1240 C   0  0  0  0  0  0  0  0  0  0  0  0
    4.7710   -4.6952   28.4803 C   0  0  0  0  0  0  0  0  0  0  0  0
    3.4047   -5.1087   28.1314 C   0  0  0  0  0  0  0  0  0  0  0  0
   -0.2234  -11.8615   16.8874 C   0  0  0  0  0  0  0  0  0  0  0  0
    6.4491   -4.1532   30.1213 C   0  0  0  0  0  0  0  0  0  0  0  0
    5.7060   -4.4340   27.4975 C   0  0  0  0  0  0  0  0  0  0  0  0
    1.1818   -5.6612   28.8399 C   0  0  0  0  0  0  0  0  0  0  0  0
   -1.2067   -7.3287   17.7772 C   0  0  0  0  0  0  0  0  0  0  0  0
   -0.0206  -10.5585   16.6210 C   0  0  0  0  0  0  0  0  0  0  0  0
    0.3696  -12.7626   16.2169 O   0  0  0  0  0  0  0  0  0  0  0  0
   -0.6895   -9.5676   17.3297 C   0  0  0  0  0  0  0  0  0  0  0  0
    0.8388   -5.8417   27.5264 C   0  0  0  0  0  0  0  0  0  0  0  0
   -2.0709   -7.6637   18.7817 C   0  0  0  0  0  0  0  0  0  0  0  0
   -0.5279   -8.2168   17.0717 C   0  0  0  0  0  0  0  0  0  0  0  0
    6.9694   -4.0191   27.8190 C   0  0  0  0  0  0  0  0  0  0  0  0
    5.1733   -4.5469   29.8123 C   0  0  0  0  0  0  0  0  0  0  0  0
   -1.7508  -11.3016   18.6072 C   0  0  0  0  0  0  0  0  0  0  0  0
    1.7497   -5.6771   26.4971 C   0  0  0  0  0  0  0  0  0  0  0  0
   -1.5799   -9.9322   18.3468 C   0  0  0  0  0  0  0  0  0  0  0  0
   -1.0871  -12.2214   17.8851 C   0  0  0  0  0  0  0  0  0  0  0  0
   -2.2706   -8.9669   19.0691 C   0  0  0  0  0  0  0  0  0  0  0  0
    3.0279   -5.3073   26.8197 C   0  0  0  0  0  0  0  0  0  0  0  0
    7.3282   -3.8948   29.1186 C   0  0  0  0  0  0  0  0  0  0  0  0
  1  3  4  0
  1  7  4  0
  2  3  1  0
  2  6  4  0
  2 16  4  0
  3 22  4  0
  4  9  4  0
  4 10  1  0
  4 20  4  0
  5 16  4  0
  5 23  4  0
  6 15  4  0
  7 12  4  0
  8 13  4  0
  8 14  4  0
  9 11  4  0
 11 14  4  0
 11 19  4  0
 12 18  4  0
 13 21  4  0
 15 23  4  0
 17 19  4  0
 17 20  4  0
 18 22  4  0
 19 21  4  0
M  END
$$$$

 Created by Python create_sdf_string function

 23 25  0  0  0  0  0  0  0  0999 V2000
    2.4610   -5.3070   29.1240 C   0  0  0  0  0  0  0  0  0  0  0  0
    4.7710   -4.6952   28.4803 C   0  0  0  0  0  0  0  0  0  0  0  0
    3.4047   -5.1087   28.1314 C   0  0  0  0  0  0  0  0  0  0  0  0
   -0.2234  -11.8615   16.8874 C   0  0  0  0  0  0  0  0  0  0  0  0
    6.4491   -4.1532   30.1213 C   0  0  0  0  0  0  0  0  0  0  0  0
    5.7060   -4.4340   27.4975 C   0  0  0  0  0  0  0  0  0  0  0  0
    1.1818   -5.6612   28.8399 C   0  0  0  0  0  0  0  0  0  0  0  0
   -1.2067   -7.3287   17.7772 C   0  0  0  0  0  0  0  0  0  0  0  0
   -0.0206  -10.5585   16.6210 C   0  0  0  0  0  0  0  0  0  0  0  0
    0.3696  -12.7626   16.2169 O   0  0  0  0  0  0  0  0  0  0  0  0
   -0.6895   -9.5676   17.3297 C   0  0  0  0  0  0  0  0  0  0  0  0
    0.8388   -5.8417   27.5264 C   0  0  0  0  0  0  0  0  0  0  0  0
   -2.0709   -7.6637   18.7817 C   0  0  0  0  0  0  0  0  0  0  0  0
   -0.5279   -8.2168   17.0717 C   0  0  0  0  0  0  0  0  0  0  0  0
    6.9694   -4.0191   27.8190 C   0  0  0  0  0  0  0  0  0  0  0  0
    5.1733   -4.5469   29.8123 C   0  0  0  0  0  0  0  0  0  0  0  0
   -1.7508  -11.3016   18.6072 C   0  0  0  0  0  0  0  0  0  0  0  0
    1.7497   -5.6771   26.4971 C   0  0  0  0  0  0  0  0  0  0  0  0
   -1.5799   -9.9322   18.3468 C   0  0  0  0  0  0  0  0  0  0  0  0
   -1.0871  -12.2214   17.8851 C   0  0  0  0  0  0  0  0  0  0  0  0
   -2.2706   -8.9669   19.0691 C   0  0  0  0  0  0  0  0  0  0  0  0
    3.0279   -5.3073   26.8197 C   0  0  0  0  0  0  0  0  0  0  0  0
    7.3282   -3.8948   29.1186 C   0  0  0  0  0  0  0  0  0  0  0  0
  1  3  4  0
  1  7  4  0
  2  3  1  0
  2  6  4  0
  2 16  4  0
  3 22  4  0
  4  9  4  0
  4 10  1  0
  4 20  4  0
  5 16  4  0
  5 23  4  0
  6 15  4  0
  7 12  4  0
  8 13  4  0
  8 14  4  0
  9 11  4  0
 11 14  4  0
 11 19  4  0
 12 18  4  0
 13 21  4  0
 15 23  4  0
 17 19  4  0
 17 20  4  0
 18 22  4  0
 19 21  4  0
M  END
$$$$

 Created by Python create_sdf_string function

 23 25  0  0  0  0  0  0  0  0999 V2000
    2.4610   -5.3070   29.1240 C   0  0  0  0  0  0  0  0  0  0  0  0
    4.7710   -4.6952   28.4803 C   0  0  0  0  0  0  0  0  0  0  0  0
    3.4047   -5.1087   28.1314 C   0  0  0  0  0  0  0  0  0  0  0  0
   -0.2234  -11.8615   16.8874 C   0  0  0  0  0  0  0  0  0  0  0  0
    6.4491   -4.1532   30.1213 C   0  0  0  0  0  0  0  0  0  0  0  0
    5.7060   -4.4340   27.4975 C   0  0  0  0  0  0  0  0  0  0  0  0
    1.1818   -5.6612   28.8399 C   0  0  0  0  0  0  0  0  0  0  0  0
   -1.2067   -7.3287   17.7772 C   0  0  0  0  0  0  0  0  0  0  0  0
   -0.0206  -10.5585   16.6210 C   0  0  0  0  0  0  0  0  0  0  0  0
    0.3696  -12.7626   16.2169 O   0  0  0  0  0  0  0  0  0  0  0  0
   -0.6895   -9.5676   17.3297 C   0  0  0  0  0  0  0  0  0  0  0  0
    0.8388   -5.8417   27.5264 C   0  0  0  0  0  0  0  0  0  0  0  0
   -2.0709   -7.6637   18.7817 C   0  0  0  0  0  0  0  0  0  0  0  0
   -0.5279   -8.2168   17.0717 C   0  0  0  0  0  0  0  0  0  0  0  0
    6.9694   -4.0191   27.8190 C   0  0  0  0  0  0  0  0  0  0  0  0
    5.1733   -4.5469   29.8123 C   0  0  0  0  0  0  0  0  0  0  0  0
   -1.7508  -11.3016   18.6072 C   0  0  0  0  0  0  0  0  0  0  0  0
    1.7497   -5.6771   26.4971 C   0  0  0  0  0  0  0  0  0  0  0  0
   -1.5799   -9.9322   18.3468 C   0  0  0  0  0  0  0  0  0  0  0  0
   -1.0871  -12.2214   17.8851 C   0  0  0  0  0  0  0  0  0  0  0  0
   -2.2706   -8.9669   19.0691 C   0  0  0  0  0  0  0  0  0  0  0  0
    3.0279   -5.3073   26.8197 C   0  0  0  0  0  0  0  0  0  0  0  0
    7.3282   -3.8948   29.1186 C   0  0  0  0  0  0  0  0  0  0  0  0
  1  3  4  0
  1  7  4  0
  2  3  1  0
  2  6  4  0
  2 16  4  0
  3 22  4  0
  4  9  4  0
  4 10  1  0
  4 20  4  0
  5 16  4  0
  5 23  4  0
  6 15  4  0
  7 12  4  0
  8 13  4  0
  8 14  4  0
  9 11  4  0
 11 14  4  0
 11 19  4  0
 12 18  4  0
 13 21  4  0
 15 23  4  0
 17 19  4  0
 17 20  4  0
 18 22  4  0
 19 21  4  0
M  END
$$$$

 Created by Python create_sdf_string function

 23 25  0  0  0  0  0  0  0  0999 V2000
    2.4610   -5.3070   29.1240 C   0  0  0  0  0  0  0  0  0  0  0  0
    4.7710   -4.6952   28.4803 C   0  0  0  0  0  0  0  0  0  0  0  0
    3.4047   -5.1087   28.1314 C   0  0  0  0  0  0  0  0  0  0  0  0
   -0.2234  -11.8615   16.8874 C   0  0  0  0  0  0  0  0  0  0  0  0
    6.4491   -4.1532   30.1213 C   0  0  0  0  0  0  0  0  0  0  0  0
    5.7060   -4.4340   27.4975 C   0  0  0  0  0  0  0  0  0  0  0  0
    1.1818   -5.6612   28.8399 C   0  0  0  0  0  0  0  0  0  0  0  0
   -1.2067   -7.3287   17.7772 C   0  0  0  0  0  0  0  0  0  0  0  0
   -0.0206  -10.5585   16.6210 C   0  0  0  0  0  0  0  0  0  0  0  0
    0.3696  -12.7626   16.2169 O   0  0  0  0  0  0  0  0  0  0  0  0
   -0.6895   -9.5676   17.3297 C   0  0  0  0  0  0  0  0  0  0  0  0
    0.8388   -5.8417   27.5264 C   0  0  0  0  0  0  0  0  0  0  0  0
   -2.0709   -7.6637   18.7817 C   0  0  0  0  0  0  0  0  0  0  0  0
   -0.5279   -8.2168   17.0717 C   0  0  0  0  0  0  0  0  0  0  0  0
    6.9694   -4.0191   27.8190 C   0  0  0  0  0  0  0  0  0  0  0  0
    5.1733   -4.5469   29.8123 C   0  0  0  0  0  0  0  0  0  0  0  0
   -1.7508  -11.3016   18.6072 C   0  0  0  0  0  0  0  0  0  0  0  0
    1.7497   -5.6771   26.4971 C   0  0  0  0  0  0  0  0  0  0  0  0
   -1.5799   -9.9322   18.3468 C   0  0  0  0  0  0  0  0  0  0  0  0
   -1.0871  -12.2214   17.8851 C   0  0  0  0  0  0  0  0  0  0  0  0
   -2.2706   -8.9669   19.0691 C   0  0  0  0  0  0  0  0  0  0  0  0
    3.0279   -5.3073   26.8197 C   0  0  0  0  0  0  0  0  0  0  0  0
    7.3282   -3.8948   29.1186 C   0  0  0  0  0  0  0  0  0  0  0  0
  1  3  4  0
  1  7  4  0
  2  3  1  0
  2  6  4  0
  2 16  4  0
  3 22  4  0
  4  9  4  0
  4 10  1  0
  4 20  4  0
  5 16  4  0
  5 23  4  0
  6 15  4  0
  7 12  4  0
  8 13  4  0
  8 14  4  0
  9 11  4  0
 11 14  4  0
 11 19  4  0
 12 18  4  0
 13 21  4  0
 15 23  4  0
 17 19  4  0
 17 20  4  0
 18 22  4  0
 19 21  4  0
M  END
$$$$

 Created by Python create_sdf_string function

 23 25  0  0  0  0  0  0  0  0999 V2000
    2.4610   -5.3070   29.1240 C   0  0  0  0  0  0  0  0  0  0  0  0
    4.7710   -4.6952   28.4803 C   0  0  0  0  0  0  0  0  0  0  0  0
    3.4047   -5.1087   28.1314 C   0  0  0  0  0  0  0  0  0  0  0  0
   -0.2234  -11.8615   16.8874 C   0  0  0  0  0  0  0  0  0  0  0  0
    6.4491   -4.1532   30.1213 C   0  0  0  0  0  0  0  0  0  0  0  0
    5.7060   -4.4340   27.4975 C   0  0  0  0  0  0  0  0  0  0  0  0
    1.1818   -5.6612   28.8399 C   0  0  0  0  0  0  0  0  0  0  0  0
   -1.2067   -7.3287   17.7772 C   0  0  0  0  0  0  0  0  0  0  0  0
   -0.0206  -10.5585   16.6210 C   0  0  0  0  0  0  0  0  0  0  0  0
    0.3696  -12.7626   16.2169 O   0  0  0  0  0  0  0  0  0  0  0  0
   -0.6895   -9.5676   17.3297 C   0  0  0  0  0  0  0  0  0  0  0  0
    0.8388   -5.8417   27.5264 C   0  0  0  0  0  0  0  0  0  0  0  0
   -2.0709   -7.6637   18.7817 C   0  0  0  0  0  0  0  0  0  0  0  0
   -0.5279   -8.2168   17.0717 C   0  0  0  0  0  0  0  0  0  0  0  0
    6.9694   -4.0191   27.8190 C   0  0  0  0  0  0  0  0  0  0  0  0
    5.1733   -4.5469   29.8123 C   0  0  0  0  0  0  0  0  0  0  0  0
   -1.7508  -11.3016   18.6072 C   0  0  0  0  0  0  0  0  0  0  0  0
    1.7497   -5.6771   26.4971 C   0  0  0  0  0  0  0  0  0  0  0  0
   -1.5799   -9.9322   18.3468 C   0  0  0  0  0  0  0  0  0  0  0  0
   -1.0871  -12.2214   17.8851 C   0  0  0  0  0  0  0  0  0  0  0  0
   -2.2706   -8.9669   19.0691 C   0  0  0  0  0  0  0  0  0  0  0  0
    3.0279   -5.3073   26.8197 C   0  0  0  0  0  0  0  0  0  0  0  0
    7.3282   -3.8948   29.1186 C   0  0  0  0  0  0  0  0  0  0  0  0
  1  3  4  0
  1  7  4  0
  2  3  1  0
  2  6  4  0
  2 16  4  0
  3 22  4  0
  4  9  4  0
  4 10  1  0
  4 20  4  0
  5 16  4  0
  5 23  4  0
  6 15  4  0
  7 12  4  0
  8 13  4  0
  8 14  4  0
  9 11  4  0
 11 14  4  0
 11 19  4  0
 12 18  4  0
 13 21  4  0
 15 23  4  0
 17 19  4  0
 17 20  4  0
 18 22  4  0
 19 21  4  0
M  END
$$$$

 Created by Python create_sdf_string function

 23 25  0  0  0  0  0  0  0  0999 V2000
    2.4610   -5.3070   29.1240 C   0  0  0  0  0  0  0  0  0  0  0  0
    4.7710   -4.6952   28.4803 C   0  0  0  0  0  0  0  0  0  0  0  0
    3.4047   -5.1087   28.1314 C   0  0  0  0  0  0  0  0  0  0  0  0
   -0.2234  -11.8615   16.8874 C   0  0  0  0  0  0  0  0  0  0  0  0
    6.4491   -4.1532   30.1213 C   0  0  0  0  0  0  0  0  0  0  0  0
    5.7060   -4.4340   27.4975 C   0  0  0  0  0  0  0  0  0  0  0  0
    1.1818   -5.6612   28.8399 C   0  0  0  0  0  0  0  0  0  0  0  0
   -1.2067   -7.3287   17.7772 C   0  0  0  0  0  0  0  0  0  0  0  0
   -0.0206  -10.5585   16.6210 C   0  0  0  0  0  0  0  0  0  0  0  0
    0.3696  -12.7626   16.2169 O   0  0  0  0  0  0  0  0  0  0  0  0
   -0.6895   -9.5676   17.3297 C   0  0  0  0  0  0  0  0  0  0  0  0
    0.8388   -5.8417   27.5264 C   0  0  0  0  0  0  0  0  0  0  0  0
   -2.0709   -7.6637   18.7817 C   0  0  0  0  0  0  0  0  0  0  0  0
   -0.5279   -8.2168   17.0717 C   0  0  0  0  0  0  0  0  0  0  0  0
    6.9694   -4.0191   27.8190 C   0  0  0  0  0  0  0  0  0  0  0  0
    5.1733   -4.5469   29.8123 C   0  0  0  0  0  0  0  0  0  0  0  0
   -1.7508  -11.3016   18.6072 C   0  0  0  0  0  0  0  0  0  0  0  0
    1.7497   -5.6771   26.4971 C   0  0  0  0  0  0  0  0  0  0  0  0
   -1.5799   -9.9322   18.3468 C   0  0  0  0  0  0  0  0  0  0  0  0
   -1.0871  -12.2214   17.8851 C   0  0  0  0  0  0  0  0  0  0  0  0
   -2.2706   -8.9669   19.0691 C   0  0  0  0  0  0  0  0  0  0  0  0
    3.0279   -5.3073   26.8197 C   0  0  0  0  0  0  0  0  0  0  0  0
    7.3282   -3.8948   29.1186 C   0  0  0  0  0  0  0  0  0  0  0  0
  1  3  4  0
  1  7  4  0
  2  3  1  0
  2  6  4  0
  2 16  4  0
  3 22  4  0
  4  9  4  0
  4 10  1  0
  4 20  4  0
  5 16  4  0
  5 23  4  0
  6 15  4  0
  7 12  4  0
  8 13  4  0
  8 14  4  0
  9 11  4  0
 11 14  4  0
 11 19  4  0
 12 18  4  0
 13 21  4  0
 15 23  4  0
 17 19  4  0
 17 20  4  0
 18 22  4  0
 19 21  4  0
M  END
$$$$

 Created by Python create_sdf_string function

 23 25  0  0  0  0  0  0  0  0999 V2000
    2.4610   -5.3070   29.1240 C   0  0  0  0  0  0  0  0  0  0  0  0
    4.7710   -4.6952   28.4803 C   0  0  0  0  0  0  0  0  0  0  0  0
    3.4047   -5.1087   28.1314 C   0  0  0  0  0  0  0  0  0  0  0  0
   -0.2234  -11.8615   16.8874 C   0  0  0  0  0  0  0  0  0  0  0  0
    6.4491   -4.1532   30.1213 C   0  0  0  0  0  0  0  0  0  0  0  0
    5.7060   -4.4340   27.4975 C   0  0  0  0  0  0  0  0  0  0  0  0
    1.1818   -5.6612   28.8399 C   0  0  0  0  0  0  0  0  0  0  0  0
   -1.2067   -7.3287   17.7772 C   0  0  0  0  0  0  0  0  0  0  0  0
   -0.0206  -10.5585   16.6210 C   0  0  0  0  0  0  0  0  0  0  0  0
    0.3696  -12.7626   16.2169 O   0  0  0  0  0  0  0  0  0  0  0  0
   -0.6895   -9.5676   17.3297 C   0  0  0  0  0  0  0  0  0  0  0  0
    0.8388   -5.8417   27.5264 C   0  0  0  0  0  0  0  0  0  0  0  0
   -2.0709   -7.6637   18.7817 C   0  0  0  0  0  0  0  0  0  0  0  0
   -0.5279   -8.2168   17.0717 C   0  0  0  0  0  0  0  0  0  0  0  0
    6.9694   -4.0191   27.8190 C   0  0  0  0  0  0  0  0  0  0  0  0
    5.1733   -4.5469   29.8123 C   0  0  0  0  0  0  0  0  0  0  0  0
   -1.7508  -11.3016   18.6072 C   0  0  0  0  0  0  0  0  0  0  0  0
    1.7497   -5.6771   26.4971 C   0  0  0  0  0  0  0  0  0  0  0  0
   -1.5799   -9.9322   18.3468 C   0  0  0  0  0  0  0  0  0  0  0  0
   -1.0871  -12.2214   17.8851 C   0  0  0  0  0  0  0  0  0  0  0  0
   -2.2706   -8.9669   19.0691 C   0  0  0  0  0  0  0  0  0  0  0  0
    3.0279   -5.3073   26.8197 C   0  0  0  0  0  0  0  0  0  0  0  0
    7.3282   -3.8948   29.1186 C   0  0  0  0  0  0  0  0  0  0  0  0
  1  3  4  0
  1  7  4  0
  2  3  1  0
  2  6  4  0
  2 16  4  0
  3 22  4  0
  4  9  4  0
  4 10  1  0
  4 20  4  0
  5 16  4  0
  5 23  4  0
  6 15  4  0
  7 12  4  0
  8 13  4  0
  8 14  4  0
  9 11  4  0
 11 14  4  0
 11 19  4  0
 12 18  4  0
 13 21  4  0
 15 23  4  0
 17 19  4  0
 17 20  4  0
 18 22  4  0
 19 21  4  0
M  END
$$$$

 Created by Python create_sdf_string function

 23 25  0  0  0  0  0  0  0  0999 V2000
    2.4610   -5.3070   29.1240 C   0  0  0  0  0  0  0  0  0  0  0  0
    4.7710   -4.6952   28.4803 C   0  0  0  0  0  0  0  0  0  0  0  0
    3.4047   -5.1087   28.1314 C   0  0  0  0  0  0  0  0  0  0  0  0
   -0.2234  -11.8615   16.8874 C   0  0  0  0  0  0  0  0  0  0  0  0
    6.4491   -4.1532   30.1213 C   0  0  0  0  0  0  0  0  0  0  0  0
    5.7060   -4.4340   27.4975 C   0  0  0  0  0  0  0  0  0  0  0  0
    1.1818   -5.6612   28.8399 C   0  0  0  0  0  0  0  0  0  0  0  0
   -1.2067   -7.3287   17.7772 C   0  0  0  0  0  0  0  0  0  0  0  0
   -0.0206  -10.5585   16.6210 C   0  0  0  0  0  0  0  0  0  0  0  0
    0.3696  -12.7626   16.2169 O   0  0  0  0  0  0  0  0  0  0  0  0
   -0.6895   -9.5676   17.3297 C   0  0  0  0  0  0  0  0  0  0  0  0
    0.8388   -5.8417   27.5264 C   0  0  0  0  0  0  0  0  0  0  0  0
   -2.0709   -7.6637   18.7817 C   0  0  0  0  0  0  0  0  0  0  0  0
   -0.5279   -8.2168   17.0717 C   0  0  0  0  0  0  0  0  0  0  0  0
    6.9694   -4.0191   27.8190 C   0  0  0  0  0  0  0  0  0  0  0  0
    5.1733   -4.5469   29.8123 C   0  0  0  0  0  0  0  0  0  0  0  0
   -1.7508  -11.3016   18.6072 C   0  0  0  0  0  0  0  0  0  0  0  0
    1.7497   -5.6771   26.4971 C   0  0  0  0  0  0  0  0  0  0  0  0
   -1.5799   -9.9322   18.3468 C   0  0  0  0  0  0  0  0  0  0  0  0
   -1.0871  -12.2214   17.8851 C   0  0  0  0  0  0  0  0  0  0  0  0
   -2.2706   -8.9669   19.0691 C   0  0  0  0  0  0  0  0  0  0  0  0
    3.0279   -5.3073   26.8197 C   0  0  0  0  0  0  0  0  0  0  0  0
    7.3282   -3.8948   29.1186 C   0  0  0  0  0  0  0  0  0  0  0  0
  1  3  4  0
  1  7  4  0
  2  3  1  0
  2  6  4  0
  2 16  4  0
  3 22  4  0
  4  9  4  0
  4 10  1  0
  4 20  4  0
  5 16  4  0
  5 23  4  0
  6 15  4  0
  7 12  4  0
  8 13  4  0
  8 14  4  0
  9 11  4  0
 11 14  4  0
 11 19  4  0
 12 18  4  0
 13 21  4  0
 15 23  4  0
 17 19  4  0
 17 20  4  0
 18 22  4  0
 19 21  4  0
M  END
$$$$

 Created by Python create_sdf_string function

 23 25  0  0  0  0  0  0  0  0999 V2000
    2.4610   -5.3070   29.1240 C   0  0  0  0  0  0  0  0  0  0  0  0
    4.7710   -4.6952   28.4803 C   0  0  0  0  0  0  0  0  0  0  0  0
    3.4047   -5.1087   28.1314 C   0  0  0  0  0  0  0  0  0  0  0  0
   -0.2234  -11.8615   16.8874 C   0  0  0  0  0  0  0  0  0  0  0  0
    6.4491   -4.1532   30.1213 C   0  0  0  0  0  0  0  0  0  0  0  0
    5.7060   -4.4340   27.4975 C   0  0  0  0  0  0  0  0  0  0  0  0
    1.1818   -5.6612   28.8399 C   0  0  0  0  0  0  0  0  0  0  0  0
   -1.2067   -7.3287   17.7772 C   0  0  0  0  0  0  0  0  0  0  0  0
   -0.0206  -10.5585   16.6210 C   0  0  0  0  0  0  0  0  0  0  0  0
    0.3696  -12.7626   16.2169 O   0  0  0  0  0  0  0  0  0  0  0  0
   -0.6895   -9.5676   17.3297 C   0  0  0  0  0  0  0  0  0  0  0  0
    0.8388   -5.8417   27.5264 C   0  0  0  0  0  0  0  0  0  0  0  0
   -2.0709   -7.6637   18.7817 C   0  0  0  0  0  0  0  0  0  0  0  0
   -0.5279   -8.2168   17.0717 C   0  0  0  0  0  0  0  0  0  0  0  0
    6.9694   -4.0191   27.8190 C   0  0  0  0  0  0  0  0  0  0  0  0
    5.1733   -4.5469   29.8123 C   0  0  0  0  0  0  0  0  0  0  0  0
   -1.7508  -11.3016   18.6072 C   0  0  0  0  0  0  0  0  0  0  0  0
    1.7497   -5.6771   26.4971 C   0  0  0  0  0  0  0  0  0  0  0  0
   -1.5799   -9.9322   18.3468 C   0  0  0  0  0  0  0  0  0  0  0  0
   -1.0871  -12.2214   17.8851 C   0  0  0  0  0  0  0  0  0  0  0  0
   -2.2706   -8.9669   19.0691 C   0  0  0  0  0  0  0  0  0  0  0  0
    3.0279   -5.3073   26.8197 C   0  0  0  0  0  0  0  0  0  0  0  0
    7.3282   -3.8948   29.1186 C   0  0  0  0  0  0  0  0  0  0  0  0
  1  3  4  0
  1  7  4  0
  2  3  1  0
  2  6  4  0
  2 16  4  0
  3 22  4  0
  4  9  4  0
  4 10  1  0
  4 20  4  0
  5 16  4  0
  5 23  4  0
  6 15  4  0
  7 12  4  0
  8 13  4  0
  8 14  4  0
  9 11  4  0
 11 14  4  0
 11 19  4  0
 12 18  4  0
 13 21  4  0
 15 23  4  0
 17 19  4  0
 17 20  4  0
 18 22  4  0
 19 21  4  0
M  END
$$$$

 Created by Python create_sdf_string function

 23 25  0  0  0  0  0  0  0  0999 V2000
    2.4610   -5.3070   29.1240 C   0  0  0  0  0  0  0  0  0  0  0  0
    4.7710   -4.6952   28.4803 C   0  0  0  0  0  0  0  0  0  0  0  0
    3.4047   -5.1087   28.1314 C   0  0  0  0  0  0  0  0  0  0  0  0
   -0.2234  -11.8615   16.8874 C   0  0  0  0  0  0  0  0  0  0  0  0
    6.4491   -4.1532   30.1213 C   0  0  0  0  0  0  0  0  0  0  0  0
    5.7060   -4.4340   27.4975 C   0  0  0  0  0  0  0  0  0  0  0  0
    1.1818   -5.6612   28.8399 C   0  0  0  0  0  0  0  0  0  0  0  0
   -1.2067   -7.3287   17.7772 C   0  0  0  0  0  0  0  0  0  0  0  0
   -0.0206  -10.5585   16.6210 C   0  0  0  0  0  0  0  0  0  0  0  0
    0.3696  -12.7626   16.2169 O   0  0  0  0  0  0  0  0  0  0  0  0
   -0.6895   -9.5676   17.3297 C   0  0  0  0  0  0  0  0  0  0  0  0
    0.8388   -5.8417   27.5264 C   0  0  0  0  0  0  0  0  0  0  0  0
   -2.0709   -7.6637   18.7817 C   0  0  0  0  0  0  0  0  0  0  0  0
   -0.5279   -8.2168   17.0717 C   0  0  0  0  0  0  0  0  0  0  0  0
    6.9694   -4.0191   27.8190 C   0  0  0  0  0  0  0  0  0  0  0  0
    5.1733   -4.5469   29.8123 C   0  0  0  0  0  0  0  0  0  0  0  0
   -1.7508  -11.3016   18.6072 C   0  0  0  0  0  0  0  0  0  0  0  0
    1.7497   -5.6771   26.4971 C   0  0  0  0  0  0  0  0  0  0  0  0
   -1.5799   -9.9322   18.3468 C   0  0  0  0  0  0  0  0  0  0  0  0
   -1.0871  -12.2214   17.8851 C   0  0  0  0  0  0  0  0  0  0  0  0
   -2.2706   -8.9669   19.0691 C   0  0  0  0  0  0  0  0  0  0  0  0
    3.0279   -5.3073   26.8197 C   0  0  0  0  0  0  0  0  0  0  0  0
    7.3282   -3.8948   29.1186 C   0  0  0  0  0  0  0  0  0  0  0  0
  1  3  4  0
  1  7  4  0
  2  3  1  0
  2  6  4  0
  2 16  4  0
  3 22  4  0
  4  9  4  0
  4 10  1  0
  4 20  4  0
  5 16  4  0
  5 23  4  0
  6 15  4  0
  7 12  4  0
  8 13  4  0
  8 14  4  0
  9 11  4  0
 11 14  4  0
 11 19  4  0
 12 18  4  0
 13 21  4  0
 15 23  4  0
 17 19  4  0
 17 20  4  0
 18 22  4  0
 19 21  4  0
M  END
$$$$

 Created by Python create_sdf_string function

 23 25  0  0  0  0  0  0  0  0999 V2000
    2.4610   -5.3070   29.1240 C   0  0  0  0  0  0  0  0  0  0  0  0
    4.7710   -4.6952   28.4803 C   0  0  0  0  0  0  0  0  0  0  0  0
    3.4047   -5.1087   28.1314 C   0  0  0  0  0  0  0  0  0  0  0  0
   -0.2234  -11.8615   16.8874 C   0  0  0  0  0  0  0  0  0  0  0  0
    6.4491   -4.1532   30.1213 C   0  0  0  0  0  0  0  0  0  0  0  0
    5.7060   -4.4340   27.4975 C   0  0  0  0  0  0  0  0  0  0  0  0
    1.1818   -5.6612   28.8399 C   0  0  0  0  0  0  0  0  0  0  0  0
   -1.2067   -7.3287   17.7772 C   0  0  0  0  0  0  0  0  0  0  0  0
   -0.0206  -10.5585   16.6210 C   0  0  0  0  0  0  0  0  0  0  0  0
    0.3696  -12.7626   16.2169 O   0  0  0  0  0  0  0  0  0  0  0  0
   -0.6895   -9.5676   17.3297 C   0  0  0  0  0  0  0  0  0  0  0  0
    0.8388   -5.8417   27.5264 C   0  0  0  0  0  0  0  0  0  0  0  0
   -2.0709   -7.6637   18.7817 C   0  0  0  0  0  0  0  0  0  0  0  0
   -0.5279   -8.2168   17.0717 C   0  0  0  0  0  0  0  0  0  0  0  0
    6.9694   -4.0191   27.8190 C   0  0  0  0  0  0  0  0  0  0  0  0
    5.1733   -4.5469   29.8123 C   0  0  0  0  0  0  0  0  0  0  0  0
   -1.7508  -11.3016   18.6072 C   0  0  0  0  0  0  0  0  0  0  0  0
    1.7497   -5.6771   26.4971 C   0  0  0  0  0  0  0  0  0  0  0  0
   -1.5799   -9.9322   18.3468 C   0  0  0  0  0  0  0  0  0  0  0  0
   -1.0871  -12.2214   17.8851 C   0  0  0  0  0  0  0  0  0  0  0  0
   -2.2706   -8.9669   19.0691 C   0  0  0  0  0  0  0  0  0  0  0  0
    3.0279   -5.3073   26.8197 C   0  0  0  0  0  0  0  0  0  0  0  0
    7.3282   -3.8948   29.1186 C   0  0  0  0  0  0  0  0  0  0  0  0
  1  3  4  0
  1  7  4  0
  2  3  1  0
  2  6  4  0
  2 16  4  0
  3 22  4  0
  4  9  4  0
  4 10  1  0
  4 20  4  0
  5 16  4  0
  5 23  4  0
  6 15  4  0
  7 12  4  0
  8 13  4  0
  8 14  4  0
  9 11  4  0
 11 14  4  0
 11 19  4  0
 12 18  4  0
 13 21  4  0
 15 23  4  0
 17 19  4  0
 17 20  4  0
 18 22  4  0
 19 21  4  0
M  END
$$$$

 Created by Python create_sdf_string function

 23 25  0  0  0  0  0  0  0  0999 V2000
    2.4610   -5.3070   29.1240 C   0  0  0  0  0  0  0  0  0  0  0  0
    4.7710   -4.6952   28.4803 C   0  0  0  0  0  0  0  0  0  0  0  0
    3.4047   -5.1087   28.1314 C   0  0  0  0  0  0  0  0  0  0  0  0
   -0.2234  -11.8615   16.8874 C   0  0  0  0  0  0  0  0  0  0  0  0
    6.4491   -4.1532   30.1213 C   0  0  0  0  0  0  0  0  0  0  0  0
    5.7060   -4.4340   27.4975 C   0  0  0  0  0  0  0  0  0  0  0  0
    1.1818   -5.6612   28.8399 C   0  0  0  0  0  0  0  0  0  0  0  0
   -1.2067   -7.3287   17.7772 C   0  0  0  0  0  0  0  0  0  0  0  0
   -0.0206  -10.5585   16.6210 C   0  0  0  0  0  0  0  0  0  0  0  0
    0.3696  -12.7626   16.2169 O   0  0  0  0  0  0  0  0  0  0  0  0
   -0.6895   -9.5676   17.3297 C   0  0  0  0  0  0  0  0  0  0  0  0
    0.8388   -5.8417   27.5264 C   0  0  0  0  0  0  0  0  0  0  0  0
   -2.0709   -7.6637   18.7817 C   0  0  0  0  0  0  0  0  0  0  0  0
   -0.5279   -8.2168   17.0717 C   0  0  0  0  0  0  0  0  0  0  0  0
    6.9694   -4.0191   27.8190 C   0  0  0  0  0  0  0  0  0  0  0  0
    5.1733   -4.5469   29.8123 C   0  0  0  0  0  0  0  0  0  0  0  0
   -1.7508  -11.3016   18.6072 C   0  0  0  0  0  0  0  0  0  0  0  0
    1.7497   -5.6771   26.4971 C   0  0  0  0  0  0  0  0  0  0  0  0
   -1.5799   -9.9322   18.3468 C   0  0  0  0  0  0  0  0  0  0  0  0
   -1.0871  -12.2214   17.8851 C   0  0  0  0  0  0  0  0  0  0  0  0
   -2.2706   -8.9669   19.0691 C   0  0  0  0  0  0  0  0  0  0  0  0
    3.0279   -5.3073   26.8197 C   0  0  0  0  0  0  0  0  0  0  0  0
    7.3282   -3.8948   29.1186 C   0  0  0  0  0  0  0  0  0  0  0  0
  1  3  4  0
  1  7  4  0
  2  3  1  0
  2  6  4  0
  2 16  4  0
  3 22  4  0
  4  9  4  0
  4 10  1  0
  4 20  4  0
  5 16  4  0
  5 23  4  0
  6 15  4  0
  7 12  4  0
  8 13  4  0
  8 14  4  0
  9 11  4  0
 11 14  4  0
 11 19  4  0
 12 18  4  0
 13 21  4  0
 15 23  4  0
 17 19  4  0
 17 20  4  0
 18 22  4  0
 19 21  4  0
M  END
$$$$

 Created by Python create_sdf_string function

 23 25  0  0  0  0  0  0  0  0999 V2000
    2.4610   -5.3070   29.1240 C   0  0  0  0  0  0  0  0  0  0  0  0
    4.7710   -4.6952   28.4803 C   0  0  0  0  0  0  0  0  0  0  0  0
    3.4047   -5.1087   28.1314 C   0  0  0  0  0  0  0  0  0  0  0  0
   -0.2234  -11.8615   16.8874 C   0  0  0  0  0  0  0  0  0  0  0  0
    6.4491   -4.1532   30.1213 C   0  0  0  0  0  0  0  0  0  0  0  0
    5.7060   -4.4340   27.4975 C   0  0  0  0  0  0  0  0  0  0  0  0
    1.1818   -5.6612   28.8399 C   0  0  0  0  0  0  0  0  0  0  0  0
   -1.2067   -7.3287   17.7772 C   0  0  0  0  0  0  0  0  0  0  0  0
   -0.0206  -10.5585   16.6210 C   0  0  0  0  0  0  0  0  0  0  0  0
    0.3696  -12.7626   16.2169 O   0  0  0  0  0  0  0  0  0  0  0  0
   -0.6895   -9.5676   17.3297 C   0  0  0  0  0  0  0  0  0  0  0  0
    0.8388   -5.8417   27.5264 C   0  0  0  0  0  0  0  0  0  0  0  0
   -2.0709   -7.6637   18.7817 C   0  0  0  0  0  0  0  0  0  0  0  0
   -0.5279   -8.2168   17.0717 C   0  0  0  0  0  0  0  0  0  0  0  0
    6.9694   -4.0191   27.8190 C   0  0  0  0  0  0  0  0  0  0  0  0
    5.1733   -4.5469   29.8123 C   0  0  0  0  0  0  0  0  0  0  0  0
   -1.7508  -11.3016   18.6072 C   0  0  0  0  0  0  0  0  0  0  0  0
    1.7497   -5.6771   26.4971 C   0  0  0  0  0  0  0  0  0  0  0  0
   -1.5799   -9.9322   18.3468 C   0  0  0  0  0  0  0  0  0  0  0  0
   -1.0871  -12.2214   17.8851 C   0  0  0  0  0  0  0  0  0  0  0  0
   -2.2706   -8.9669   19.0691 C   0  0  0  0  0  0  0  0  0  0  0  0
    3.0279   -5.3073   26.8197 C   0  0  0  0  0  0  0  0  0  0  0  0
    7.3282   -3.8948   29.1186 C   0  0  0  0  0  0  0  0  0  0  0  0
  1  3  4  0
  1  7  4  0
  2  3  1  0
  2  6  4  0
  2 16  4  0
  3 22  4  0
  4  9  4  0
  4 10  1  0
  4 20  4  0
  5 16  4  0
  5 23  4  0
  6 15  4  0
  7 12  4  0
  8 13  4  0
  8 14  4  0
  9 11  4  0
 11 14  4  0
 11 19  4  0
 12 18  4  0
 13 21  4  0
 15 23  4  0
 17 19  4  0
 17 20  4  0
 18 22  4  0
 19 21  4  0
M  END
$$$$

 Created by Python create_sdf_string function

 23 25  0  0  0  0  0  0  0  0999 V2000
    2.4610   -5.3070   29.1240 C   0  0  0  0  0  0  0  0  0  0  0  0
    4.7710   -4.6952   28.4803 C   0  0  0  0  0  0  0  0  0  0  0  0
    3.4047   -5.1087   28.1314 C   0  0  0  0  0  0  0  0  0  0  0  0
   -0.2234  -11.8615   16.8874 C   0  0  0  0  0  0  0  0  0  0  0  0
    6.4491   -4.1532   30.1213 C   0  0  0  0  0  0  0  0  0  0  0  0
    5.7060   -4.4340   27.4975 C   0  0  0  0  0  0  0  0  0  0  0  0
    1.1818   -5.6612   28.8399 C   0  0  0  0  0  0  0  0  0  0  0  0
   -1.2067   -7.3287   17.7772 C   0  0  0  0  0  0  0  0  0  0  0  0
   -0.0206  -10.5585   16.6210 C   0  0  0  0  0  0  0  0  0  0  0  0
    0.3696  -12.7626   16.2169 O   0  0  0  0  0  0  0  0  0  0  0  0
   -0.6895   -9.5676   17.3297 C   0  0  0  0  0  0  0  0  0  0  0  0
    0.8388   -5.8417   27.5264 C   0  0  0  0  0  0  0  0  0  0  0  0
   -2.0709   -7.6637   18.7817 C   0  0  0  0  0  0  0  0  0  0  0  0
   -0.5279   -8.2168   17.0717 C   0  0  0  0  0  0  0  0  0  0  0  0
    6.9694   -4.0191   27.8190 C   0  0  0  0  0  0  0  0  0  0  0  0
    5.1733   -4.5469   29.8123 C   0  0  0  0  0  0  0  0  0  0  0  0
   -1.7508  -11.3016   18.6072 C   0  0  0  0  0  0  0  0  0  0  0  0
    1.7497   -5.6771   26.4971 C   0  0  0  0  0  0  0  0  0  0  0  0
   -1.5799   -9.9322   18.3468 C   0  0  0  0  0  0  0  0  0  0  0  0
   -1.0871  -12.2214   17.8851 C   0  0  0  0  0  0  0  0  0  0  0  0
   -2.2706   -8.9669   19.0691 C   0  0  0  0  0  0  0  0  0  0  0  0
    3.0279   -5.3073   26.8197 C   0  0  0  0  0  0  0  0  0  0  0  0
    7.3282   -3.8948   29.1186 C   0  0  0  0  0  0  0  0  0  0  0  0
  1  3  4  0
  1  7  4  0
  2  3  1  0
  2  6  4  0
  2 16  4  0
  3 22  4  0
  4  9  4  0
  4 10  1  0
  4 20  4  0
  5 16  4  0
  5 23  4  0
  6 15  4  0
  7 12  4  0
  8 13  4  0
  8 14  4  0
  9 11  4  0
 11 14  4  0
 11 19  4  0
 12 18  4  0
 13 21  4  0
 15 23  4  0
 17 19  4  0
 17 20  4  0
 18 22  4  0
 19 21  4  0
M  END
$$$$

 Created by Python create_sdf_string function

 23 25  0  0  0  0  0  0  0  0999 V2000
    2.4610   -5.3070   29.1240 C   0  0  0  0  0  0  0  0  0  0  0  0
    4.7710   -4.6952   28.4803 C   0  0  0  0  0  0  0  0  0  0  0  0
    3.4047   -5.1087   28.1314 C   0  0  0  0  0  0  0  0  0  0  0  0
   -0.2234  -11.8615   16.8874 C   0  0  0  0  0  0  0  0  0  0  0  0
    6.4491   -4.1532   30.1213 C   0  0  0  0  0  0  0  0  0  0  0  0
    5.7060   -4.4340   27.4975 C   0  0  0  0  0  0  0  0  0  0  0  0
    1.1818   -5.6612   28.8399 C   0  0  0  0  0  0  0  0  0  0  0  0
   -1.2067   -7.3287   17.7772 C   0  0  0  0  0  0  0  0  0  0  0  0
   -0.0206  -10.5585   16.6210 C   0  0  0  0  0  0  0  0  0  0  0  0
    0.3696  -12.7626   16.2169 O   0  0  0  0  0  0  0  0  0  0  0  0
   -0.6895   -9.5676   17.3297 C   0  0  0  0  0  0  0  0  0  0  0  0
    0.8388   -5.8417   27.5264 C   0  0  0  0  0  0  0  0  0  0  0  0
   -2.0709   -7.6637   18.7817 C   0  0  0  0  0  0  0  0  0  0  0  0
   -0.5279   -8.2168   17.0717 C   0  0  0  0  0  0  0  0  0  0  0  0
    6.9694   -4.0191   27.8190 C   0  0  0  0  0  0  0  0  0  0  0  0
    5.1733   -4.5469   29.8123 C   0  0  0  0  0  0  0  0  0  0  0  0
   -1.7508  -11.3016   18.6072 C   0  0  0  0  0  0  0  0  0  0  0  0
    1.7497   -5.6771   26.4971 C   0  0  0  0  0  0  0  0  0  0  0  0
   -1.5799   -9.9322   18.3468 C   0  0  0  0  0  0  0  0  0  0  0  0
   -1.0871  -12.2214   17.8851 C   0  0  0  0  0  0  0  0  0  0  0  0
   -2.2706   -8.9669   19.0691 C   0  0  0  0  0  0  0  0  0  0  0  0
    3.0279   -5.3073   26.8197 C   0  0  0  0  0  0  0  0  0  0  0  0
    7.3282   -3.8948   29.1186 C   0  0  0  0  0  0  0  0  0  0  0  0
  1  3  4  0
  1  7  4  0
  2  3  1  0
  2  6  4  0
  2 16  4  0
  3 22  4  0
  4  9  4  0
  4 10  1  0
  4 20  4  0
  5 16  4  0
  5 23  4  0
  6 15  4  0
  7 12  4  0
  8 13  4  0
  8 14  4  0
  9 11  4  0
 11 14  4  0
 11 19  4  0
 12 18  4  0
 13 21  4  0
 15 23  4  0
 17 19  4  0
 17 20  4  0
 18 22  4  0
 19 21  4  0
M  END
$$$$

 Created by Python create_sdf_string function

 23 25  0  0  0  0  0  0  0  0999 V2000
    2.4610   -5.3070   29.1240 C   0  0  0  0  0  0  0  0  0  0  0  0
    4.7710   -4.6952   28.4803 C   0  0  0  0  0  0  0  0  0  0  0  0
    3.4047   -5.1087   28.1314 C   0  0  0  0  0  0  0  0  0  0  0  0
   -0.2234  -11.8615   16.8874 C   0  0  0  0  0  0  0  0  0  0  0  0
    6.4491   -4.1532   30.1213 C   0  0  0  0  0  0  0  0  0  0  0  0
    5.7060   -4.4340   27.4975 C   0  0  0  0  0  0  0  0  0  0  0  0
    1.1818   -5.6612   28.8399 C   0  0  0  0  0  0  0  0  0  0  0  0
   -1.2067   -7.3287   17.7772 C   0  0  0  0  0  0  0  0  0  0  0  0
   -0.0206  -10.5585   16.6210 C   0  0  0  0  0  0  0  0  0  0  0  0
    0.3696  -12.7626   16.2169 O   0  0  0  0  0  0  0  0  0  0  0  0
   -0.6895   -9.5676   17.3297 C   0  0  0  0  0  0  0  0  0  0  0  0
    0.8388   -5.8417   27.5264 C   0  0  0  0  0  0  0  0  0  0  0  0
   -2.0709   -7.6637   18.7817 C   0  0  0  0  0  0  0  0  0  0  0  0
   -0.5279   -8.2168   17.0717 C   0  0  0  0  0  0  0  0  0  0  0  0
    6.9694   -4.0191   27.8190 C   0  0  0  0  0  0  0  0  0  0  0  0
    5.1733   -4.5469   29.8123 C   0  0  0  0  0  0  0  0  0  0  0  0
   -1.7508  -11.3016   18.6072 C   0  0  0  0  0  0  0  0  0  0  0  0
    1.7497   -5.6771   26.4971 C   0  0  0  0  0  0  0  0  0  0  0  0
   -1.5799   -9.9322   18.3468 C   0  0  0  0  0  0  0  0  0  0  0  0
   -1.0871  -12.2214   17.8851 C   0  0  0  0  0  0  0  0  0  0  0  0
   -2.2706   -8.9669   19.0691 C   0  0  0  0  0  0  0  0  0  0  0  0
    3.0279   -5.3073   26.8197 C   0  0  0  0  0  0  0  0  0  0  0  0
    7.3282   -3.8948   29.1186 C   0  0  0  0  0  0  0  0  0  0  0  0
  1  3  4  0
  1  7  4  0
  2  3  1  0
  2  6  4  0
  2 16  4  0
  3 22  4  0
  4  9  4  0
  4 10  1  0
  4 20  4  0
  5 16  4  0
  5 23  4  0
  6 15  4  0
  7 12  4  0
  8 13  4  0
  8 14  4  0
  9 11  4  0
 11 14  4  0
 11 19  4  0
 12 18  4  0
 13 21  4  0
 15 23  4  0
 17 19  4  0
 17 20  4  0
 18 22  4  0
 19 21  4  0
M  END
$$$$

 Created by Python create_sdf_string function

 23 25  0  0  0  0  0  0  0  0999 V2000
    2.4610   -5.3070   29.1240 C   0  0  0  0  0  0  0  0  0  0  0  0
    4.7710   -4.6952   28.4803 C   0  0  0  0  0  0  0  0  0  0  0  0
    3.4047   -5.1087   28.1314 C   0  0  0  0  0  0  0  0  0  0  0  0
   -0.2234  -11.8615   16.8874 C   0  0  0  0  0  0  0  0  0  0  0  0
    6.4491   -4.1532   30.1213 C   0  0  0  0  0  0  0  0  0  0  0  0
    5.7060   -4.4340   27.4975 C   0  0  0  0  0  0  0  0  0  0  0  0
    1.1818   -5.6612   28.8399 C   0  0  0  0  0  0  0  0  0  0  0  0
   -1.2067   -7.3287   17.7772 C   0  0  0  0  0  0  0  0  0  0  0  0
   -0.0206  -10.5585   16.6210 C   0  0  0  0  0  0  0  0  0  0  0  0
    0.3696  -12.7626   16.2169 O   0  0  0  0  0  0  0  0  0  0  0  0
   -0.6895   -9.5676   17.3297 C   0  0  0  0  0  0  0  0  0  0  0  0
    0.8388   -5.8417   27.5264 C   0  0  0  0  0  0  0  0  0  0  0  0
   -2.0709   -7.6637   18.7817 C   0  0  0  0  0  0  0  0  0  0  0  0
   -0.5279   -8.2168   17.0717 C   0  0  0  0  0  0  0  0  0  0  0  0
    6.9694   -4.0191   27.8190 C   0  0  0  0  0  0  0  0  0  0  0  0
    5.1733   -4.5469   29.8123 C   0  0  0  0  0  0  0  0  0  0  0  0
   -1.7508  -11.3016   18.6072 C   0  0  0  0  0  0  0  0  0  0  0  0
    1.7497   -5.6771   26.4971 C   0  0  0  0  0  0  0  0  0  0  0  0
   -1.5799   -9.9322   18.3468 C   0  0  0  0  0  0  0  0  0  0  0  0
   -1.0871  -12.2214   17.8851 C   0  0  0  0  0  0  0  0  0  0  0  0
   -2.2706   -8.9669   19.0691 C   0  0  0  0  0  0  0  0  0  0  0  0
    3.0279   -5.3073   26.8197 C   0  0  0  0  0  0  0  0  0  0  0  0
    7.3282   -3.8948   29.1186 C   0  0  0  0  0  0  0  0  0  0  0  0
  1  3  4  0
  1  7  4  0
  2  3  1  0
  2  6  4  0
  2 16  4  0
  3 22  4  0
  4  9  4  0
  4 10  1  0
  4 20  4  0
  5 16  4  0
  5 23  4  0
  6 15  4  0
  7 12  4  0
  8 13  4  0
  8 14  4  0
  9 11  4  0
 11 14  4  0
 11 19  4  0
 12 18  4  0
 13 21  4  0
 15 23  4  0
 17 19  4  0
 17 20  4  0
 18 22  4  0
 19 21  4  0
M  END
$$$$

 Created by Python create_sdf_string function

 23 25  0  0  0  0  0  0  0  0999 V2000
    2.4610   -5.3070   29.1240 C   0  0  0  0  0  0  0  0  0  0  0  0
    4.7710   -4.6952   28.4803 C   0  0  0  0  0  0  0  0  0  0  0  0
    3.4047   -5.1087   28.1314 C   0  0  0  0  0  0  0  0  0  0  0  0
   -0.2234  -11.8615   16.8874 C   0  0  0  0  0  0  0  0  0  0  0  0
    6.4491   -4.1532   30.1213 C   0  0  0  0  0  0  0  0  0  0  0  0
    5.7060   -4.4340   27.4975 C   0  0  0  0  0  0  0  0  0  0  0  0
    1.1818   -5.6612   28.8399 C   0  0  0  0  0  0  0  0  0  0  0  0
   -1.2067   -7.3287   17.7772 C   0  0  0  0  0  0  0  0  0  0  0  0
   -0.0206  -10.5585   16.6210 C   0  0  0  0  0  0  0  0  0  0  0  0
    0.3696  -12.7626   16.2169 O   0  0  0  0  0  0  0  0  0  0  0  0
   -0.6895   -9.5676   17.3297 C   0  0  0  0  0  0  0  0  0  0  0  0
    0.8388   -5.8417   27.5264 C   0  0  0  0  0  0  0  0  0  0  0  0
   -2.0709   -7.6637   18.7817 C   0  0  0  0  0  0  0  0  0  0  0  0
   -0.5279   -8.2168   17.0717 C   0  0  0  0  0  0  0  0  0  0  0  0
    6.9694   -4.0191   27.8190 C   0  0  0  0  0  0  0  0  0  0  0  0
    5.1733   -4.5469   29.8123 C   0  0  0  0  0  0  0  0  0  0  0  0
   -1.7508  -11.3016   18.6072 C   0  0  0  0  0  0  0  0  0  0  0  0
    1.7497   -5.6771   26.4971 C   0  0  0  0  0  0  0  0  0  0  0  0
   -1.5799   -9.9322   18.3468 C   0  0  0  0  0  0  0  0  0  0  0  0
   -1.0871  -12.2214   17.8851 C   0  0  0  0  0  0  0  0  0  0  0  0
   -2.2706   -8.9669   19.0691 C   0  0  0  0  0  0  0  0  0  0  0  0
    3.0279   -5.3073   26.8197 C   0  0  0  0  0  0  0  0  0  0  0  0
    7.3282   -3.8948   29.1186 C   0  0  0  0  0  0  0  0  0  0  0  0
  1  3  4  0
  1  7  4  0
  2  3  1  0
  2  6  4  0
  2 16  4  0
  3 22  4  0
  4  9  4  0
  4 10  1  0
  4 20  4  0
  5 16  4  0
  5 23  4  0
  6 15  4  0
  7 12  4  0
  8 13  4  0
  8 14  4  0
  9 11  4  0
 11 14  4  0
 11 19  4  0
 12 18  4  0
 13 21  4  0
 15 23  4  0
 17 19  4  0
 17 20  4  0
 18 22  4  0
 19 21  4  0
M  END
$$$$

 Created by Python create_sdf_string function

 23 25  0  0  0  0  0  0  0  0999 V2000
    2.4610   -5.3070   29.1240 C   0  0  0  0  0  0  0  0  0  0  0  0
    4.7710   -4.6952   28.4803 C   0  0  0  0  0  0  0  0  0  0  0  0
    3.4047   -5.1087   28.1314 C   0  0  0  0  0  0  0  0  0  0  0  0
   -0.2234  -11.8615   16.8874 C   0  0  0  0  0  0  0  0  0  0  0  0
    6.4491   -4.1532   30.1213 C   0  0  0  0  0  0  0  0  0  0  0  0
    5.7060   -4.4340   27.4975 C   0  0  0  0  0  0  0  0  0  0  0  0
    1.1818   -5.6612   28.8399 C   0  0  0  0  0  0  0  0  0  0  0  0
   -1.2067   -7.3287   17.7772 C   0  0  0  0  0  0  0  0  0  0  0  0
   -0.0206  -10.5585   16.6210 C   0  0  0  0  0  0  0  0  0  0  0  0
    0.3696  -12.7626   16.2169 O   0  0  0  0  0  0  0  0  0  0  0  0
   -0.6895   -9.5676   17.3297 C   0  0  0  0  0  0  0  0  0  0  0  0
    0.8388   -5.8417   27.5264 C   0  0  0  0  0  0  0  0  0  0  0  0
   -2.0709   -7.6637   18.7817 C   0  0  0  0  0  0  0  0  0  0  0  0
   -0.5279   -8.2168   17.0717 C   0  0  0  0  0  0  0  0  0  0  0  0
    6.9694   -4.0191   27.8190 C   0  0  0  0  0  0  0  0  0  0  0  0
    5.1733   -4.5469   29.8123 C   0  0  0  0  0  0  0  0  0  0  0  0
   -1.7508  -11.3016   18.6072 C   0  0  0  0  0  0  0  0  0  0  0  0
    1.7497   -5.6771   26.4971 C   0  0  0  0  0  0  0  0  0  0  0  0
   -1.5799   -9.9322   18.3468 C   0  0  0  0  0  0  0  0  0  0  0  0
   -1.0871  -12.2214   17.8851 C   0  0  0  0  0  0  0  0  0  0  0  0
   -2.2706   -8.9669   19.0691 C   0  0  0  0  0  0  0  0  0  0  0  0
    3.0279   -5.3073   26.8197 C   0  0  0  0  0  0  0  0  0  0  0  0
    7.3282   -3.8948   29.1186 C   0  0  0  0  0  0  0  0  0  0  0  0
  1  3  4  0
  1  7  4  0
  2  3  1  0
  2  6  4  0
  2 16  4  0
  3 22  4  0
  4  9  4  0
  4 10  1  0
  4 20  4  0
  5 16  4  0
  5 23  4  0
  6 15  4  0
  7 12  4  0
  8 13  4  0
  8 14  4  0
  9 11  4  0
 11 14  4  0
 11 19  4  0
 12 18  4  0
 13 21  4  0
 15 23  4  0
 17 19  4  0
 17 20  4  0
 18 22  4  0
 19 21  4  0
M  END
$$$$

 Created by Python create_sdf_string function

 23 25  0  0  0  0  0  0  0  0999 V2000
    2.4610   -5.3070   29.1240 C   0  0  0  0  0  0  0  0  0  0  0  0
    4.7710   -4.6952   28.4803 C   0  0  0  0  0  0  0  0  0  0  0  0
    3.4047   -5.1087   28.1314 C   0  0  0  0  0  0  0  0  0  0  0  0
   -0.2234  -11.8615   16.8874 C   0  0  0  0  0  0  0  0  0  0  0  0
    6.4491   -4.1532   30.1213 C   0  0  0  0  0  0  0  0  0  0  0  0
    5.7060   -4.4340   27.4975 C   0  0  0  0  0  0  0  0  0  0  0  0
    1.1818   -5.6612   28.8399 C   0  0  0  0  0  0  0  0  0  0  0  0
   -1.2067   -7.3287   17.7772 C   0  0  0  0  0  0  0  0  0  0  0  0
   -0.0206  -10.5585   16.6210 C   0  0  0  0  0  0  0  0  0  0  0  0
    0.3696  -12.7626   16.2169 O   0  0  0  0  0  0  0  0  0  0  0  0
   -0.6895   -9.5676   17.3297 C   0  0  0  0  0  0  0  0  0  0  0  0
    0.8388   -5.8417   27.5264 C   0  0  0  0  0  0  0  0  0  0  0  0
   -2.0709   -7.6637   18.7817 C   0  0  0  0  0  0  0  0  0  0  0  0
   -0.5279   -8.2168   17.0717 C   0  0  0  0  0  0  0  0  0  0  0  0
    6.9694   -4.0191   27.8190 C   0  0  0  0  0  0  0  0  0  0  0  0
    5.1733   -4.5469   29.8123 C   0  0  0  0  0  0  0  0  0  0  0  0
   -1.7508  -11.3016   18.6072 C   0  0  0  0  0  0  0  0  0  0  0  0
    1.7497   -5.6771   26.4971 C   0  0  0  0  0  0  0  0  0  0  0  0
   -1.5799   -9.9322   18.3468 C   0  0  0  0  0  0  0  0  0  0  0  0
   -1.0871  -12.2214   17.8851 C   0  0  0  0  0  0  0  0  0  0  0  0
   -2.2706   -8.9669   19.0691 C   0  0  0  0  0  0  0  0  0  0  0  0
    3.0279   -5.3073   26.8197 C   0  0  0  0  0  0  0  0  0  0  0  0
    7.3282   -3.8948   29.1186 C   0  0  0  0  0  0  0  0  0  0  0  0
  1  3  4  0
  1  7  4  0
  2  3  1  0
  2  6  4  0
  2 16  4  0
  3 22  4  0
  4  9  4  0
  4 10  1  0
  4 20  4  0
  5 16  4  0
  5 23  4  0
  6 15  4  0
  7 12  4  0
  8 13  4  0
  8 14  4  0
  9 11  4  0
 11 14  4  0
 11 19  4  0
 12 18  4  0
 13 21  4  0
 15 23  4  0
 17 19  4  0
 17 20  4  0
 18 22  4  0
 19 21  4  0
M  END
$$$$

 Created by Python create_sdf_string function

 23 25  0  0  0  0  0  0  0  0999 V2000
    2.4610   -5.3070   29.1240 C   0  0  0  0  0  0  0  0  0  0  0  0
    4.7710   -4.6952   28.4803 C   0  0  0  0  0  0  0  0  0  0  0  0
    3.4047   -5.1087   28.1314 C   0  0  0  0  0  0  0  0  0  0  0  0
   -0.2234  -11.8615   16.8874 C   0  0  0  0  0  0  0  0  0  0  0  0
    6.4491   -4.1532   30.1213 C   0  0  0  0  0  0  0  0  0  0  0  0
    5.7060   -4.4340   27.4975 C   0  0  0  0  0  0  0  0  0  0  0  0
    1.1818   -5.6612   28.8399 C   0  0  0  0  0  0  0  0  0  0  0  0
   -1.2067   -7.3287   17.7772 C   0  0  0  0  0  0  0  0  0  0  0  0
   -0.0206  -10.5585   16.6210 C   0  0  0  0  0  0  0  0  0  0  0  0
    0.3696  -12.7626   16.2169 O   0  0  0  0  0  0  0  0  0  0  0  0
   -0.6895   -9.5676   17.3297 C   0  0  0  0  0  0  0  0  0  0  0  0
    0.8388   -5.8417   27.5264 C   0  0  0  0  0  0  0  0  0  0  0  0
   -2.0709   -7.6637   18.7817 C   0  0  0  0  0  0  0  0  0  0  0  0
   -0.5279   -8.2168   17.0717 C   0  0  0  0  0  0  0  0  0  0  0  0
    6.9694   -4.0191   27.8190 C   0  0  0  0  0  0  0  0  0  0  0  0
    5.1733   -4.5469   29.8123 C   0  0  0  0  0  0  0  0  0  0  0  0
   -1.7508  -11.3016   18.6072 C   0  0  0  0  0  0  0  0  0  0  0  0
    1.7497   -5.6771   26.4971 C   0  0  0  0  0  0  0  0  0  0  0  0
   -1.5799   -9.9322   18.3468 C   0  0  0  0  0  0  0  0  0  0  0  0
   -1.0871  -12.2214   17.8851 C   0  0  0  0  0  0  0  0  0  0  0  0
   -2.2706   -8.9669   19.0691 C   0  0  0  0  0  0  0  0  0  0  0  0
    3.0279   -5.3073   26.8197 C   0  0  0  0  0  0  0  0  0  0  0  0
    7.3282   -3.8948   29.1186 C   0  0  0  0  0  0  0  0  0  0  0  0
  1  3  4  0
  1  7  4  0
  2  3  1  0
  2  6  4  0
  2 16  4  0
  3 22  4  0
  4  9  4  0
  4 10  1  0
  4 20  4  0
  5 16  4  0
  5 23  4  0
  6 15  4  0
  7 12  4  0
  8 13  4  0
  8 14  4  0
  9 11  4  0
 11 14  4  0
 11 19  4  0
 12 18  4  0
 13 21  4  0
 15 23  4  0
 17 19  4  0
 17 20  4  0
 18 22  4  0
 19 21  4  0
M  END
$$$$

 Created by Python create_sdf_string function

 23 25  0  0  0  0  0  0  0  0999 V2000
    2.4610   -5.3070   29.1240 C   0  0  0  0  0  0  0  0  0  0  0  0
    4.7710   -4.6952   28.4803 C   0  0  0  0  0  0  0  0  0  0  0  0
    3.4047   -5.1087   28.1314 C   0  0  0  0  0  0  0  0  0  0  0  0
   -0.2234  -11.8615   16.8874 C   0  0  0  0  0  0  0  0  0  0  0  0
    6.4491   -4.1532   30.1213 C   0  0  0  0  0  0  0  0  0  0  0  0
    5.7060   -4.4340   27.4975 C   0  0  0  0  0  0  0  0  0  0  0  0
    1.1818   -5.6612   28.8399 C   0  0  0  0  0  0  0  0  0  0  0  0
   -1.2067   -7.3287   17.7772 C   0  0  0  0  0  0  0  0  0  0  0  0
   -0.0206  -10.5585   16.6210 C   0  0  0  0  0  0  0  0  0  0  0  0
    0.3696  -12.7626   16.2169 O   0  0  0  0  0  0  0  0  0  0  0  0
   -0.6895   -9.5676   17.3297 C   0  0  0  0  0  0  0  0  0  0  0  0
    0.8388   -5.8417   27.5264 C   0  0  0  0  0  0  0  0  0  0  0  0
   -2.0709   -7.6637   18.7817 C   0  0  0  0  0  0  0  0  0  0  0  0
   -0.5279   -8.2168   17.0717 C   0  0  0  0  0  0  0  0  0  0  0  0
    6.9694   -4.0191   27.8190 C   0  0  0  0  0  0  0  0  0  0  0  0
    5.1733   -4.5469   29.8123 C   0  0  0  0  0  0  0  0  0  0  0  0
   -1.7508  -11.3016   18.6072 C   0  0  0  0  0  0  0  0  0  0  0  0
    1.7497   -5.6771   26.4971 C   0  0  0  0  0  0  0  0  0  0  0  0
   -1.5799   -9.9322   18.3468 C   0  0  0  0  0  0  0  0  0  0  0  0
   -1.0871  -12.2214   17.8851 C   0  0  0  0  0  0  0  0  0  0  0  0
   -2.2706   -8.9669   19.0691 C   0  0  0  0  0  0  0  0  0  0  0  0
    3.0279   -5.3073   26.8197 C   0  0  0  0  0  0  0  0  0  0  0  0
    7.3282   -3.8948   29.1186 C   0  0  0  0  0  0  0  0  0  0  0  0
  1  3  4  0
  1  7  4  0
  2  3  1  0
  2  6  4  0
  2 16  4  0
  3 22  4  0
  4  9  4  0
  4 10  1  0
  4 20  4  0
  5 16  4  0
  5 23  4  0
  6 15  4  0
  7 12  4  0
  8 13  4  0
  8 14  4  0
  9 11  4  0
 11 14  4  0
 11 19  4  0
 12 18  4  0
 13 21  4  0
 15 23  4  0
 17 19  4  0
 17 20  4  0
 18 22  4  0
 19 21  4  0
M  END
$$$$

 Created by Python create_sdf_string function

 23 25  0  0  0  0  0  0  0  0999 V2000
    2.4610   -5.3070   29.1240 C   0  0  0  0  0  0  0  0  0  0  0  0
    4.7710   -4.6952   28.4803 C   0  0  0  0  0  0  0  0  0  0  0  0
    3.4047   -5.1087   28.1314 C   0  0  0  0  0  0  0  0  0  0  0  0
   -0.2234  -11.8615   16.8874 C   0  0  0  0  0  0  0  0  0  0  0  0
    6.4491   -4.1532   30.1213 C   0  0  0  0  0  0  0  0  0  0  0  0
    5.7060   -4.4340   27.4975 C   0  0  0  0  0  0  0  0  0  0  0  0
    1.1818   -5.6612   28.8399 C   0  0  0  0  0  0  0  0  0  0  0  0
   -1.2067   -7.3287   17.7772 C   0  0  0  0  0  0  0  0  0  0  0  0
   -0.0206  -10.5585   16.6210 C   0  0  0  0  0  0  0  0  0  0  0  0
    0.3696  -12.7626   16.2169 O   0  0  0  0  0  0  0  0  0  0  0  0
   -0.6895   -9.5676   17.3297 C   0  0  0  0  0  0  0  0  0  0  0  0
    0.8388   -5.8417   27.5264 C   0  0  0  0  0  0  0  0  0  0  0  0
   -2.0709   -7.6637   18.7817 C   0  0  0  0  0  0  0  0  0  0  0  0
   -0.5279   -8.2168   17.0717 C   0  0  0  0  0  0  0  0  0  0  0  0
    6.9694   -4.0191   27.8190 C   0  0  0  0  0  0  0  0  0  0  0  0
    5.1733   -4.5469   29.8123 C   0  0  0  0  0  0  0  0  0  0  0  0
   -1.7508  -11.3016   18.6072 C   0  0  0  0  0  0  0  0  0  0  0  0
    1.7497   -5.6771   26.4971 C   0  0  0  0  0  0  0  0  0  0  0  0
   -1.5799   -9.9322   18.3468 C   0  0  0  0  0  0  0  0  0  0  0  0
   -1.0871  -12.2214   17.8851 C   0  0  0  0  0  0  0  0  0  0  0  0
   -2.2706   -8.9669   19.0691 C   0  0  0  0  0  0  0  0  0  0  0  0
    3.0279   -5.3073   26.8197 C   0  0  0  0  0  0  0  0  0  0  0  0
    7.3282   -3.8948   29.1186 C   0  0  0  0  0  0  0  0  0  0  0  0
  1  3  4  0
  1  7  4  0
  2  3  1  0
  2  6  4  0
  2 16  4  0
  3 22  4  0
  4  9  4  0
  4 10  1  0
  4 20  4  0
  5 16  4  0
  5 23  4  0
  6 15  4  0
  7 12  4  0
  8 13  4  0
  8 14  4  0
  9 11  4  0
 11 14  4  0
 11 19  4  0
 12 18  4  0
 13 21  4  0
 15 23  4  0
 17 19  4  0
 17 20  4  0
 18 22  4  0
 19 21  4  0
M  END
$$$$

 Created by Python create_sdf_string function

 23 25  0  0  0  0  0  0  0  0999 V2000
    2.4610   -5.3070   29.1240 C   0  0  0  0  0  0  0  0  0  0  0  0
    4.7710   -4.6952   28.4803 C   0  0  0  0  0  0  0  0  0  0  0  0
    3.4047   -5.1087   28.1314 C   0  0  0  0  0  0  0  0  0  0  0  0
   -0.2234  -11.8615   16.8874 C   0  0  0  0  0  0  0  0  0  0  0  0
    6.4491   -4.1532   30.1213 C   0  0  0  0  0  0  0  0  0  0  0  0
    5.7060   -4.4340   27.4975 C   0  0  0  0  0  0  0  0  0  0  0  0
    1.1818   -5.6612   28.8399 C   0  0  0  0  0  0  0  0  0  0  0  0
   -1.2067   -7.3287   17.7772 C   0  0  0  0  0  0  0  0  0  0  0  0
   -0.0206  -10.5585   16.6210 C   0  0  0  0  0  0  0  0  0  0  0  0
    0.3696  -12.7626   16.2169 O   0  0  0  0  0  0  0  0  0  0  0  0
   -0.6895   -9.5676   17.3297 C   0  0  0  0  0  0  0  0  0  0  0  0
    0.8388   -5.8417   27.5264 C   0  0  0  0  0  0  0  0  0  0  0  0
   -2.0709   -7.6637   18.7817 C   0  0  0  0  0  0  0  0  0  0  0  0
   -0.5279   -8.2168   17.0717 C   0  0  0  0  0  0  0  0  0  0  0  0
    6.9694   -4.0191   27.8190 C   0  0  0  0  0  0  0  0  0  0  0  0
    5.1733   -4.5469   29.8123 C   0  0  0  0  0  0  0  0  0  0  0  0
   -1.7508  -11.3016   18.6072 C   0  0  0  0  0  0  0  0  0  0  0  0
    1.7497   -5.6771   26.4971 C   0  0  0  0  0  0  0  0  0  0  0  0
   -1.5799   -9.9322   18.3468 C   0  0  0  0  0  0  0  0  0  0  0  0
   -1.0871  -12.2214   17.8851 C   0  0  0  0  0  0  0  0  0  0  0  0
   -2.2706   -8.9669   19.0691 C   0  0  0  0  0  0  0  0  0  0  0  0
    3.0279   -5.3073   26.8197 C   0  0  0  0  0  0  0  0  0  0  0  0
    7.3282   -3.8948   29.1186 C   0  0  0  0  0  0  0  0  0  0  0  0
  1  3  4  0
  1  7  4  0
  2  3  1  0
  2  6  4  0
  2 16  4  0
  3 22  4  0
  4  9  4  0
  4 10  1  0
  4 20  4  0
  5 16  4  0
  5 23  4  0
  6 15  4  0
  7 12  4  0
  8 13  4  0
  8 14  4  0
  9 11  4  0
 11 14  4  0
 11 19  4  0
 12 18  4  0
 13 21  4  0
 15 23  4  0
 17 19  4  0
 17 20  4  0
 18 22  4  0
 19 21  4  0
M  END
$$$$

 Created by Python create_sdf_string function

 23 25  0  0  0  0  0  0  0  0999 V2000
    2.4610   -5.3070   29.1240 C   0  0  0  0  0  0  0  0  0  0  0  0
    4.7710   -4.6952   28.4803 C   0  0  0  0  0  0  0  0  0  0  0  0
    3.4047   -5.1087   28.1314 C   0  0  0  0  0  0  0  0  0  0  0  0
   -0.2234  -11.8615   16.8874 C   0  0  0  0  0  0  0  0  0  0  0  0
    6.4491   -4.1532   30.1213 C   0  0  0  0  0  0  0  0  0  0  0  0
    5.7060   -4.4340   27.4975 C   0  0  0  0  0  0  0  0  0  0  0  0
    1.1818   -5.6612   28.8399 C   0  0  0  0  0  0  0  0  0  0  0  0
   -1.2067   -7.3287   17.7772 C   0  0  0  0  0  0  0  0  0  0  0  0
   -0.0206  -10.5585   16.6210 C   0  0  0  0  0  0  0  0  0  0  0  0
    0.3696  -12.7626   16.2169 O   0  0  0  0  0  0  0  0  0  0  0  0
   -0.6895   -9.5676   17.3297 C   0  0  0  0  0  0  0  0  0  0  0  0
    0.8388   -5.8417   27.5264 C   0  0  0  0  0  0  0  0  0  0  0  0
   -2.0709   -7.6637   18.7817 C   0  0  0  0  0  0  0  0  0  0  0  0
   -0.5279   -8.2168   17.0717 C   0  0  0  0  0  0  0  0  0  0  0  0
    6.9694   -4.0191   27.8190 C   0  0  0  0  0  0  0  0  0  0  0  0
    5.1733   -4.5469   29.8123 C   0  0  0  0  0  0  0  0  0  0  0  0
   -1.7508  -11.3016   18.6072 C   0  0  0  0  0  0  0  0  0  0  0  0
    1.7497   -5.6771   26.4971 C   0  0  0  0  0  0  0  0  0  0  0  0
   -1.5799   -9.9322   18.3468 C   0  0  0  0  0  0  0  0  0  0  0  0
   -1.0871  -12.2214   17.8851 C   0  0  0  0  0  0  0  0  0  0  0  0
   -2.2706   -8.9669   19.0691 C   0  0  0  0  0  0  0  0  0  0  0  0
    3.0279   -5.3073   26.8197 C   0  0  0  0  0  0  0  0  0  0  0  0
    7.3282   -3.8948   29.1186 C   0  0  0  0  0  0  0  0  0  0  0  0
  1  3  4  0
  1  7  4  0
  2  3  1  0
  2  6  4  0
  2 16  4  0
  3 22  4  0
  4  9  4  0
  4 10  1  0
  4 20  4  0
  5 16  4  0
  5 23  4  0
  6 15  4  0
  7 12  4  0
  8 13  4  0
  8 14  4  0
  9 11  4  0
 11 14  4  0
 11 19  4  0
 12 18  4  0
 13 21  4  0
 15 23  4  0
 17 19  4  0
 17 20  4  0
 18 22  4  0
 19 21  4  0
M  END
$$$$

 Created by Python create_sdf_string function

 23 25  0  0  0  0  0  0  0  0999 V2000
    2.4610   -5.3070   29.1240 C   0  0  0  0  0  0  0  0  0  0  0  0
    4.7710   -4.6952   28.4803 C   0  0  0  0  0  0  0  0  0  0  0  0
    3.4047   -5.1087   28.1314 C   0  0  0  0  0  0  0  0  0  0  0  0
   -0.2234  -11.8615   16.8874 C   0  0  0  0  0  0  0  0  0  0  0  0
    6.4491   -4.1532   30.1213 C   0  0  0  0  0  0  0  0  0  0  0  0
    5.7060   -4.4340   27.4975 C   0  0  0  0  0  0  0  0  0  0  0  0
    1.1818   -5.6612   28.8399 C   0  0  0  0  0  0  0  0  0  0  0  0
   -1.2067   -7.3287   17.7772 C   0  0  0  0  0  0  0  0  0  0  0  0
   -0.0206  -10.5585   16.6210 C   0  0  0  0  0  0  0  0  0  0  0  0
    0.3696  -12.7626   16.2169 O   0  0  0  0  0  0  0  0  0  0  0  0
   -0.6895   -9.5676   17.3297 C   0  0  0  0  0  0  0  0  0  0  0  0
    0.8388   -5.8417   27.5264 C   0  0  0  0  0  0  0  0  0  0  0  0
   -2.0709   -7.6637   18.7817 C   0  0  0  0  0  0  0  0  0  0  0  0
   -0.5279   -8.2168   17.0717 C   0  0  0  0  0  0  0  0  0  0  0  0
    6.9694   -4.0191   27.8190 C   0  0  0  0  0  0  0  0  0  0  0  0
    5.1733   -4.5469   29.8123 C   0  0  0  0  0  0  0  0  0  0  0  0
   -1.7508  -11.3016   18.6072 C   0  0  0  0  0  0  0  0  0  0  0  0
    1.7497   -5.6771   26.4971 C   0  0  0  0  0  0  0  0  0  0  0  0
   -1.5799   -9.9322   18.3468 C   0  0  0  0  0  0  0  0  0  0  0  0
   -1.0871  -12.2214   17.8851 C   0  0  0  0  0  0  0  0  0  0  0  0
   -2.2706   -8.9669   19.0691 C   0  0  0  0  0  0  0  0  0  0  0  0
    3.0279   -5.3073   26.8197 C   0  0  0  0  0  0  0  0  0  0  0  0
    7.3282   -3.8948   29.1186 C   0  0  0  0  0  0  0  0  0  0  0  0
  1  3  4  0
  1  7  4  0
  2  3  1  0
  2  6  4  0
  2 16  4  0
  3 22  4  0
  4  9  4  0
  4 10  1  0
  4 20  4  0
  5 16  4  0
  5 23  4  0
  6 15  4  0
  7 12  4  0
  8 13  4  0
  8 14  4  0
  9 11  4  0
 11 14  4  0
 11 19  4  0
 12 18  4  0
 13 21  4  0
 15 23  4  0
 17 19  4  0
 17 20  4  0
 18 22  4  0
 19 21  4  0
M  END
$$$$

 Created by Python create_sdf_string function

 23 25  0  0  0  0  0  0  0  0999 V2000
    2.4610   -5.3070   29.1240 C   0  0  0  0  0  0  0  0  0  0  0  0
    4.7710   -4.6952   28.4803 C   0  0  0  0  0  0  0  0  0  0  0  0
    3.4047   -5.1087   28.1314 C   0  0  0  0  0  0  0  0  0  0  0  0
   -0.2234  -11.8615   16.8874 C   0  0  0  0  0  0  0  0  0  0  0  0
    6.4491   -4.1532   30.1213 C   0  0  0  0  0  0  0  0  0  0  0  0
    5.7060   -4.4340   27.4975 C   0  0  0  0  0  0  0  0  0  0  0  0
    1.1818   -5.6612   28.8399 C   0  0  0  0  0  0  0  0  0  0  0  0
   -1.2067   -7.3287   17.7772 C   0  0  0  0  0  0  0  0  0  0  0  0
   -0.0206  -10.5585   16.6210 C   0  0  0  0  0  0  0  0  0  0  0  0
    0.3696  -12.7626   16.2169 O   0  0  0  0  0  0  0  0  0  0  0  0
   -0.6895   -9.5676   17.3297 C   0  0  0  0  0  0  0  0  0  0  0  0
    0.8388   -5.8417   27.5264 C   0  0  0  0  0  0  0  0  0  0  0  0
   -2.0709   -7.6637   18.7817 C   0  0  0  0  0  0  0  0  0  0  0  0
   -0.5279   -8.2168   17.0717 C   0  0  0  0  0  0  0  0  0  0  0  0
    6.9694   -4.0191   27.8190 C   0  0  0  0  0  0  0  0  0  0  0  0
    5.1733   -4.5469   29.8123 C   0  0  0  0  0  0  0  0  0  0  0  0
   -1.7508  -11.3016   18.6072 C   0  0  0  0  0  0  0  0  0  0  0  0
    1.7497   -5.6771   26.4971 C   0  0  0  0  0  0  0  0  0  0  0  0
   -1.5799   -9.9322   18.3468 C   0  0  0  0  0  0  0  0  0  0  0  0
   -1.0871  -12.2214   17.8851 C   0  0  0  0  0  0  0  0  0  0  0  0
   -2.2706   -8.9669   19.0691 C   0  0  0  0  0  0  0  0  0  0  0  0
    3.0279   -5.3073   26.8197 C   0  0  0  0  0  0  0  0  0  0  0  0
    7.3282   -3.8948   29.1186 C   0  0  0  0  0  0  0  0  0  0  0  0
  1  3  4  0
  1  7  4  0
  2  3  1  0
  2  6  4  0
  2 16  4  0
  3 22  4  0
  4  9  4  0
  4 10  1  0
  4 20  4  0
  5 16  4  0
  5 23  4  0
  6 15  4  0
  7 12  4  0
  8 13  4  0
  8 14  4  0
  9 11  4  0
 11 14  4  0
 11 19  4  0
 12 18  4  0
 13 21  4  0
 15 23  4  0
 17 19  4  0
 17 20  4  0
 18 22  4  0
 19 21  4  0
M  END
$$$$

 Created by Python create_sdf_string function

 23 25  0  0  0  0  0  0  0  0999 V2000
    2.4610   -5.3070   29.1240 C   0  0  0  0  0  0  0  0  0  0  0  0
    4.7710   -4.6952   28.4803 C   0  0  0  0  0  0  0  0  0  0  0  0
    3.4047   -5.1087   28.1314 C   0  0  0  0  0  0  0  0  0  0  0  0
   -0.2234  -11.8615   16.8874 C   0  0  0  0  0  0  0  0  0  0  0  0
    6.4491   -4.1532   30.1213 C   0  0  0  0  0  0  0  0  0  0  0  0
    5.7060   -4.4340   27.4975 C   0  0  0  0  0  0  0  0  0  0  0  0
    1.1818   -5.6612   28.8399 C   0  0  0  0  0  0  0  0  0  0  0  0
   -1.2067   -7.3287   17.7772 C   0  0  0  0  0  0  0  0  0  0  0  0
   -0.0206  -10.5585   16.6210 C   0  0  0  0  0  0  0  0  0  0  0  0
    0.3696  -12.7626   16.2169 O   0  0  0  0  0  0  0  0  0  0  0  0
   -0.6895   -9.5676   17.3297 C   0  0  0  0  0  0  0  0  0  0  0  0
    0.8388   -5.8417   27.5264 C   0  0  0  0  0  0  0  0  0  0  0  0
   -2.0709   -7.6637   18.7817 C   0  0  0  0  0  0  0  0  0  0  0  0
   -0.5279   -8.2168   17.0717 C   0  0  0  0  0  0  0  0  0  0  0  0
    6.9694   -4.0191   27.8190 C   0  0  0  0  0  0  0  0  0  0  0  0
    5.1733   -4.5469   29.8123 C   0  0  0  0  0  0  0  0  0  0  0  0
   -1.7508  -11.3016   18.6072 C   0  0  0  0  0  0  0  0  0  0  0  0
    1.7497   -5.6771   26.4971 C   0  0  0  0  0  0  0  0  0  0  0  0
   -1.5799   -9.9322   18.3468 C   0  0  0  0  0  0  0  0  0  0  0  0
   -1.0871  -12.2214   17.8851 C   0  0  0  0  0  0  0  0  0  0  0  0
   -2.2706   -8.9669   19.0691 C   0  0  0  0  0  0  0  0  0  0  0  0
    3.0279   -5.3073   26.8197 C   0  0  0  0  0  0  0  0  0  0  0  0
    7.3282   -3.8948   29.1186 C   0  0  0  0  0  0  0  0  0  0  0  0
  1  3  4  0
  1  7  4  0
  2  3  1  0
  2  6  4  0
  2 16  4  0
  3 22  4  0
  4  9  4  0
  4 10  1  0
  4 20  4  0
  5 16  4  0
  5 23  4  0
  6 15  4  0
  7 12  4  0
  8 13  4  0
  8 14  4  0
  9 11  4  0
 11 14  4  0
 11 19  4  0
 12 18  4  0
 13 21  4  0
 15 23  4  0
 17 19  4  0
 17 20  4  0
 18 22  4  0
 19 21  4  0
M  END
$$$$

 Created by Python create_sdf_string function

 23 25  0  0  0  0  0  0  0  0999 V2000
    2.4610   -5.3070   29.1240 C   0  0  0  0  0  0  0  0  0  0  0  0
    4.7710   -4.6952   28.4803 C   0  0  0  0  0  0  0  0  0  0  0  0
    3.4047   -5.1087   28.1314 C   0  0  0  0  0  0  0  0  0  0  0  0
   -0.2234  -11.8615   16.8874 C   0  0  0  0  0  0  0  0  0  0  0  0
    6.4491   -4.1532   30.1213 C   0  0  0  0  0  0  0  0  0  0  0  0
    5.7060   -4.4340   27.4975 C   0  0  0  0  0  0  0  0  0  0  0  0
    1.1818   -5.6612   28.8399 C   0  0  0  0  0  0  0  0  0  0  0  0
   -1.2067   -7.3287   17.7772 C   0  0  0  0  0  0  0  0  0  0  0  0
   -0.0206  -10.5585   16.6210 C   0  0  0  0  0  0  0  0  0  0  0  0
    0.3696  -12.7626   16.2169 O   0  0  0  0  0  0  0  0  0  0  0  0
   -0.6895   -9.5676   17.3297 C   0  0  0  0  0  0  0  0  0  0  0  0
    0.8388   -5.8417   27.5264 C   0  0  0  0  0  0  0  0  0  0  0  0
   -2.0709   -7.6637   18.7817 C   0  0  0  0  0  0  0  0  0  0  0  0
   -0.5279   -8.2168   17.0717 C   0  0  0  0  0  0  0  0  0  0  0  0
    6.9694   -4.0191   27.8190 C   0  0  0  0  0  0  0  0  0  0  0  0
    5.1733   -4.5469   29.8123 C   0  0  0  0  0  0  0  0  0  0  0  0
   -1.7508  -11.3016   18.6072 C   0  0  0  0  0  0  0  0  0  0  0  0
    1.7497   -5.6771   26.4971 C   0  0  0  0  0  0  0  0  0  0  0  0
   -1.5799   -9.9322   18.3468 C   0  0  0  0  0  0  0  0  0  0  0  0
   -1.0871  -12.2214   17.8851 C   0  0  0  0  0  0  0  0  0  0  0  0
   -2.2706   -8.9669   19.0691 C   0  0  0  0  0  0  0  0  0  0  0  0
    3.0279   -5.3073   26.8197 C   0  0  0  0  0  0  0  0  0  0  0  0
    7.3282   -3.8948   29.1186 C   0  0  0  0  0  0  0  0  0  0  0  0
  1  3  4  0
  1  7  4  0
  2  3  1  0
  2  6  4  0
  2 16  4  0
  3 22  4  0
  4  9  4  0
  4 10  1  0
  4 20  4  0
  5 16  4  0
  5 23  4  0
  6 15  4  0
  7 12  4  0
  8 13  4  0
  8 14  4  0
  9 11  4  0
 11 14  4  0
 11 19  4  0
 12 18  4  0
 13 21  4  0
 15 23  4  0
 17 19  4  0
 17 20  4  0
 18 22  4  0
 19 21  4  0
M  END
$$$$

 Created by Python create_sdf_string function

 23 25  0  0  0  0  0  0  0  0999 V2000
    2.4610   -5.3070   29.1240 C   0  0  0  0  0  0  0  0  0  0  0  0
    4.7710   -4.6952   28.4803 C   0  0  0  0  0  0  0  0  0  0  0  0
    3.4047   -5.1087   28.1314 C   0  0  0  0  0  0  0  0  0  0  0  0
   -0.2234  -11.8615   16.8874 C   0  0  0  0  0  0  0  0  0  0  0  0
    6.4491   -4.1532   30.1213 C   0  0  0  0  0  0  0  0  0  0  0  0
    5.7060   -4.4340   27.4975 C   0  0  0  0  0  0  0  0  0  0  0  0
    1.1818   -5.6612   28.8399 C   0  0  0  0  0  0  0  0  0  0  0  0
   -1.2067   -7.3287   17.7772 C   0  0  0  0  0  0  0  0  0  0  0  0
   -0.0206  -10.5585   16.6210 C   0  0  0  0  0  0  0  0  0  0  0  0
    0.3696  -12.7626   16.2169 O   0  0  0  0  0  0  0  0  0  0  0  0
   -0.6895   -9.5676   17.3297 C   0  0  0  0  0  0  0  0  0  0  0  0
    0.8388   -5.8417   27.5264 C   0  0  0  0  0  0  0  0  0  0  0  0
   -2.0709   -7.6637   18.7817 C   0  0  0  0  0  0  0  0  0  0  0  0
   -0.5279   -8.2168   17.0717 C   0  0  0  0  0  0  0  0  0  0  0  0
    6.9694   -4.0191   27.8190 C   0  0  0  0  0  0  0  0  0  0  0  0
    5.1733   -4.5469   29.8123 C   0  0  0  0  0  0  0  0  0  0  0  0
   -1.7508  -11.3016   18.6072 C   0  0  0  0  0  0  0  0  0  0  0  0
    1.7497   -5.6771   26.4971 C   0  0  0  0  0  0  0  0  0  0  0  0
   -1.5799   -9.9322   18.3468 C   0  0  0  0  0  0  0  0  0  0  0  0
   -1.0871  -12.2214   17.8851 C   0  0  0  0  0  0  0  0  0  0  0  0
   -2.2706   -8.9669   19.0691 C   0  0  0  0  0  0  0  0  0  0  0  0
    3.0279   -5.3073   26.8197 C   0  0  0  0  0  0  0  0  0  0  0  0
    7.3282   -3.8948   29.1186 C   0  0  0  0  0  0  0  0  0  0  0  0
  1  3  4  0
  1  7  4  0
  2  3  1  0
  2  6  4  0
  2 16  4  0
  3 22  4  0
  4  9  4  0
  4 10  1  0
  4 20  4  0
  5 16  4  0
  5 23  4  0
  6 15  4  0
  7 12  4  0
  8 13  4  0
  8 14  4  0
  9 11  4  0
 11 14  4  0
 11 19  4  0
 12 18  4  0
 13 21  4  0
 15 23  4  0
 17 19  4  0
 17 20  4  0
 18 22  4  0
 19 21  4  0
M  END
$$$$

 Created by Python create_sdf_string function

 23 25  0  0  0  0  0  0  0  0999 V2000
    2.4610   -5.3070   29.1240 C   0  0  0  0  0  0  0  0  0  0  0  0
    4.7710   -4.6952   28.4803 C   0  0  0  0  0  0  0  0  0  0  0  0
    3.4047   -5.1087   28.1314 C   0  0  0  0  0  0  0  0  0  0  0  0
   -0.2234  -11.8615   16.8874 C   0  0  0  0  0  0  0  0  0  0  0  0
    6.4491   -4.1532   30.1213 C   0  0  0  0  0  0  0  0  0  0  0  0
    5.7060   -4.4340   27.4975 C   0  0  0  0  0  0  0  0  0  0  0  0
    1.1818   -5.6612   28.8399 C   0  0  0  0  0  0  0  0  0  0  0  0
   -1.2067   -7.3287   17.7772 C   0  0  0  0  0  0  0  0  0  0  0  0
   -0.0206  -10.5585   16.6210 C   0  0  0  0  0  0  0  0  0  0  0  0
    0.3696  -12.7626   16.2169 O   0  0  0  0  0  0  0  0  0  0  0  0
   -0.6895   -9.5676   17.3297 C   0  0  0  0  0  0  0  0  0  0  0  0
    0.8388   -5.8417   27.5264 C   0  0  0  0  0  0  0  0  0  0  0  0
   -2.0709   -7.6637   18.7817 C   0  0  0  0  0  0  0  0  0  0  0  0
   -0.5279   -8.2168   17.0717 C   0  0  0  0  0  0  0  0  0  0  0  0
    6.9694   -4.0191   27.8190 C   0  0  0  0  0  0  0  0  0  0  0  0
    5.1733   -4.5469   29.8123 C   0  0  0  0  0  0  0  0  0  0  0  0
   -1.7508  -11.3016   18.6072 C   0  0  0  0  0  0  0  0  0  0  0  0
    1.7497   -5.6771   26.4971 C   0  0  0  0  0  0  0  0  0  0  0  0
   -1.5799   -9.9322   18.3468 C   0  0  0  0  0  0  0  0  0  0  0  0
   -1.0871  -12.2214   17.8851 C   0  0  0  0  0  0  0  0  0  0  0  0
   -2.2706   -8.9669   19.0691 C   0  0  0  0  0  0  0  0  0  0  0  0
    3.0279   -5.3073   26.8197 C   0  0  0  0  0  0  0  0  0  0  0  0
    7.3282   -3.8948   29.1186 C   0  0  0  0  0  0  0  0  0  0  0  0
  1  3  4  0
  1  7  4  0
  2  3  1  0
  2  6  4  0
  2 16  4  0
  3 22  4  0
  4  9  4  0
  4 10  1  0
  4 20  4  0
  5 16  4  0
  5 23  4  0
  6 15  4  0
  7 12  4  0
  8 13  4  0
  8 14  4  0
  9 11  4  0
 11 14  4  0
 11 19  4  0
 12 18  4  0
 13 21  4  0
 15 23  4  0
 17 19  4  0
 17 20  4  0
 18 22  4  0
 19 21  4  0
M  END
$$$$

 Created by Python create_sdf_string function

 23 25  0  0  0  0  0  0  0  0999 V2000
    2.4610   -5.3070   29.1240 C   0  0  0  0  0  0  0  0  0  0  0  0
    4.7710   -4.6952   28.4803 C   0  0  0  0  0  0  0  0  0  0  0  0
    3.4047   -5.1087   28.1314 C   0  0  0  0  0  0  0  0  0  0  0  0
   -0.2234  -11.8615   16.8874 C   0  0  0  0  0  0  0  0  0  0  0  0
    6.4491   -4.1532   30.1213 C   0  0  0  0  0  0  0  0  0  0  0  0
    5.7060   -4.4340   27.4975 C   0  0  0  0  0  0  0  0  0  0  0  0
    1.1818   -5.6612   28.8399 C   0  0  0  0  0  0  0  0  0  0  0  0
   -1.2067   -7.3287   17.7772 C   0  0  0  0  0  0  0  0  0  0  0  0
   -0.0206  -10.5585   16.6210 C   0  0  0  0  0  0  0  0  0  0  0  0
    0.3696  -12.7626   16.2169 O   0  0  0  0  0  0  0  0  0  0  0  0
   -0.6895   -9.5676   17.3297 C   0  0  0  0  0  0  0  0  0  0  0  0
    0.8388   -5.8417   27.5264 C   0  0  0  0  0  0  0  0  0  0  0  0
   -2.0709   -7.6637   18.7817 C   0  0  0  0  0  0  0  0  0  0  0  0
   -0.5279   -8.2168   17.0717 C   0  0  0  0  0  0  0  0  0  0  0  0
    6.9694   -4.0191   27.8190 C   0  0  0  0  0  0  0  0  0  0  0  0
    5.1733   -4.5469   29.8123 C   0  0  0  0  0  0  0  0  0  0  0  0
   -1.7508  -11.3016   18.6072 C   0  0  0  0  0  0  0  0  0  0  0  0
    1.7497   -5.6771   26.4971 C   0  0  0  0  0  0  0  0  0  0  0  0
   -1.5799   -9.9322   18.3468 C   0  0  0  0  0  0  0  0  0  0  0  0
   -1.0871  -12.2214   17.8851 C   0  0  0  0  0  0  0  0  0  0  0  0
   -2.2706   -8.9669   19.0691 C   0  0  0  0  0  0  0  0  0  0  0  0
    3.0279   -5.3073   26.8197 C   0  0  0  0  0  0  0  0  0  0  0  0
    7.3282   -3.8948   29.1186 C   0  0  0  0  0  0  0  0  0  0  0  0
  1  3  4  0
  1  7  4  0
  2  3  1  0
  2  6  4  0
  2 16  4  0
  3 22  4  0
  4  9  4  0
  4 10  1  0
  4 20  4  0
  5 16  4  0
  5 23  4  0
  6 15  4  0
  7 12  4  0
  8 13  4  0
  8 14  4  0
  9 11  4  0
 11 14  4  0
 11 19  4  0
 12 18  4  0
 13 21  4  0
 15 23  4  0
 17 19  4  0
 17 20  4  0
 18 22  4  0
 19 21  4  0
M  END
$$$$

 Created by Python create_sdf_string function

 23 25  0  0  0  0  0  0  0  0999 V2000
    2.4610   -5.3070   29.1240 C   0  0  0  0  0  0  0  0  0  0  0  0
    4.7710   -4.6952   28.4803 C   0  0  0  0  0  0  0  0  0  0  0  0
    3.4047   -5.1087   28.1314 C   0  0  0  0  0  0  0  0  0  0  0  0
   -0.2234  -11.8615   16.8874 C   0  0  0  0  0  0  0  0  0  0  0  0
    6.4491   -4.1532   30.1213 C   0  0  0  0  0  0  0  0  0  0  0  0
    5.7060   -4.4340   27.4975 C   0  0  0  0  0  0  0  0  0  0  0  0
    1.1818   -5.6612   28.8399 C   0  0  0  0  0  0  0  0  0  0  0  0
   -1.2067   -7.3287   17.7772 C   0  0  0  0  0  0  0  0  0  0  0  0
   -0.0206  -10.5585   16.6210 C   0  0  0  0  0  0  0  0  0  0  0  0
    0.3696  -12.7626   16.2169 O   0  0  0  0  0  0  0  0  0  0  0  0
   -0.6895   -9.5676   17.3297 C   0  0  0  0  0  0  0  0  0  0  0  0
    0.8388   -5.8417   27.5264 C   0  0  0  0  0  0  0  0  0  0  0  0
   -2.0709   -7.6637   18.7817 C   0  0  0  0  0  0  0  0  0  0  0  0
   -0.5279   -8.2168   17.0717 C   0  0  0  0  0  0  0  0  0  0  0  0
    6.9694   -4.0191   27.8190 C   0  0  0  0  0  0  0  0  0  0  0  0
    5.1733   -4.5469   29.8123 C   0  0  0  0  0  0  0  0  0  0  0  0
   -1.7508  -11.3016   18.6072 C   0  0  0  0  0  0  0  0  0  0  0  0
    1.7497   -5.6771   26.4971 C   0  0  0  0  0  0  0  0  0  0  0  0
   -1.5799   -9.9322   18.3468 C   0  0  0  0  0  0  0  0  0  0  0  0
   -1.0871  -12.2214   17.8851 C   0  0  0  0  0  0  0  0  0  0  0  0
   -2.2706   -8.9669   19.0691 C   0  0  0  0  0  0  0  0  0  0  0  0
    3.0279   -5.3073   26.8197 C   0  0  0  0  0  0  0  0  0  0  0  0
    7.3282   -3.8948   29.1186 C   0  0  0  0  0  0  0  0  0  0  0  0
  1  3  4  0
  1  7  4  0
  2  3  1  0
  2  6  4  0
  2 16  4  0
  3 22  4  0
  4  9  4  0
  4 10  1  0
  4 20  4  0
  5 16  4  0
  5 23  4  0
  6 15  4  0
  7 12  4  0
  8 13  4  0
  8 14  4  0
  9 11  4  0
 11 14  4  0
 11 19  4  0
 12 18  4  0
 13 21  4  0
 15 23  4  0
 17 19  4  0
 17 20  4  0
 18 22  4  0
 19 21  4  0
M  END
$$$$

 Created by Python create_sdf_string function

 23 25  0  0  0  0  0  0  0  0999 V2000
    2.4610   -5.3070   29.1240 C   0  0  0  0  0  0  0  0  0  0  0  0
    4.7710   -4.6952   28.4803 C   0  0  0  0  0  0  0  0  0  0  0  0
    3.4047   -5.1087   28.1314 C   0  0  0  0  0  0  0  0  0  0  0  0
   -0.2234  -11.8615   16.8874 C   0  0  0  0  0  0  0  0  0  0  0  0
    6.4491   -4.1532   30.1213 C   0  0  0  0  0  0  0  0  0  0  0  0
    5.7060   -4.4340   27.4975 C   0  0  0  0  0  0  0  0  0  0  0  0
    1.1818   -5.6612   28.8399 C   0  0  0  0  0  0  0  0  0  0  0  0
   -1.2067   -7.3287   17.7772 C   0  0  0  0  0  0  0  0  0  0  0  0
   -0.0206  -10.5585   16.6210 C   0  0  0  0  0  0  0  0  0  0  0  0
    0.3696  -12.7626   16.2169 O   0  0  0  0  0  0  0  0  0  0  0  0
   -0.6895   -9.5676   17.3297 C   0  0  0  0  0  0  0  0  0  0  0  0
    0.8388   -5.8417   27.5264 C   0  0  0  0  0  0  0  0  0  0  0  0
   -2.0709   -7.6637   18.7817 C   0  0  0  0  0  0  0  0  0  0  0  0
   -0.5279   -8.2168   17.0717 C   0  0  0  0  0  0  0  0  0  0  0  0
    6.9694   -4.0191   27.8190 C   0  0  0  0  0  0  0  0  0  0  0  0
    5.1733   -4.5469   29.8123 C   0  0  0  0  0  0  0  0  0  0  0  0
   -1.7508  -11.3016   18.6072 C   0  0  0  0  0  0  0  0  0  0  0  0
    1.7497   -5.6771   26.4971 C   0  0  0  0  0  0  0  0  0  0  0  0
   -1.5799   -9.9322   18.3468 C   0  0  0  0  0  0  0  0  0  0  0  0
   -1.0871  -12.2214   17.8851 C   0  0  0  0  0  0  0  0  0  0  0  0
   -2.2706   -8.9669   19.0691 C   0  0  0  0  0  0  0  0  0  0  0  0
    3.0279   -5.3073   26.8197 C   0  0  0  0  0  0  0  0  0  0  0  0
    7.3282   -3.8948   29.1186 C   0  0  0  0  0  0  0  0  0  0  0  0
  1  3  4  0
  1  7  4  0
  2  3  1  0
  2  6  4  0
  2 16  4  0
  3 22  4  0
  4  9  4  0
  4 10  1  0
  4 20  4  0
  5 16  4  0
  5 23  4  0
  6 15  4  0
  7 12  4  0
  8 13  4  0
  8 14  4  0
  9 11  4  0
 11 14  4  0
 11 19  4  0
 12 18  4  0
 13 21  4  0
 15 23  4  0
 17 19  4  0
 17 20  4  0
 18 22  4  0
 19 21  4  0
M  END
$$$$

 Created by Python create_sdf_string function

 23 25  0  0  0  0  0  0  0  0999 V2000
    2.4610   -5.3070   29.1240 C   0  0  0  0  0  0  0  0  0  0  0  0
    4.7710   -4.6952   28.4803 C   0  0  0  0  0  0  0  0  0  0  0  0
    3.4047   -5.1087   28.1314 C   0  0  0  0  0  0  0  0  0  0  0  0
   -0.2234  -11.8615   16.8874 C   0  0  0  0  0  0  0  0  0  0  0  0
    6.4491   -4.1532   30.1213 C   0  0  0  0  0  0  0  0  0  0  0  0
    5.7060   -4.4340   27.4975 C   0  0  0  0  0  0  0  0  0  0  0  0
    1.1818   -5.6612   28.8399 C   0  0  0  0  0  0  0  0  0  0  0  0
   -1.2067   -7.3287   17.7772 C   0  0  0  0  0  0  0  0  0  0  0  0
   -0.0206  -10.5585   16.6210 C   0  0  0  0  0  0  0  0  0  0  0  0
    0.3696  -12.7626   16.2169 O   0  0  0  0  0  0  0  0  0  0  0  0
   -0.6895   -9.5676   17.3297 C   0  0  0  0  0  0  0  0  0  0  0  0
    0.8388   -5.8417   27.5264 C   0  0  0  0  0  0  0  0  0  0  0  0
   -2.0709   -7.6637   18.7817 C   0  0  0  0  0  0  0  0  0  0  0  0
   -0.5279   -8.2168   17.0717 C   0  0  0  0  0  0  0  0  0  0  0  0
    6.9694   -4.0191   27.8190 C   0  0  0  0  0  0  0  0  0  0  0  0
    5.1733   -4.5469   29.8123 C   0  0  0  0  0  0  0  0  0  0  0  0
   -1.7508  -11.3016   18.6072 C   0  0  0  0  0  0  0  0  0  0  0  0
    1.7497   -5.6771   26.4971 C   0  0  0  0  0  0  0  0  0  0  0  0
   -1.5799   -9.9322   18.3468 C   0  0  0  0  0  0  0  0  0  0  0  0
   -1.0871  -12.2214   17.8851 C   0  0  0  0  0  0  0  0  0  0  0  0
   -2.2706   -8.9669   19.0691 C   0  0  0  0  0  0  0  0  0  0  0  0
    3.0279   -5.3073   26.8197 C   0  0  0  0  0  0  0  0  0  0  0  0
    7.3282   -3.8948   29.1186 C   0  0  0  0  0  0  0  0  0  0  0  0
  1  3  4  0
  1  7  4  0
  2  3  1  0
  2  6  4  0
  2 16  4  0
  3 22  4  0
  4  9  4  0
  4 10  1  0
  4 20  4  0
  5 16  4  0
  5 23  4  0
  6 15  4  0
  7 12  4  0
  8 13  4  0
  8 14  4  0
  9 11  4  0
 11 14  4  0
 11 19  4  0
 12 18  4  0
 13 21  4  0
 15 23  4  0
 17 19  4  0
 17 20  4  0
 18 22  4  0
 19 21  4  0
M  END
$$$$

 Created by Python create_sdf_string function

 23 25  0  0  0  0  0  0  0  0999 V2000
    2.4610   -5.3070   29.1240 C   0  0  0  0  0  0  0  0  0  0  0  0
    4.7710   -4.6952   28.4803 C   0  0  0  0  0  0  0  0  0  0  0  0
    3.4047   -5.1087   28.1314 C   0  0  0  0  0  0  0  0  0  0  0  0
   -0.2234  -11.8615   16.8874 C   0  0  0  0  0  0  0  0  0  0  0  0
    6.4491   -4.1532   30.1213 C   0  0  0  0  0  0  0  0  0  0  0  0
    5.7060   -4.4340   27.4975 C   0  0  0  0  0  0  0  0  0  0  0  0
    1.1818   -5.6612   28.8399 C   0  0  0  0  0  0  0  0  0  0  0  0
   -1.2067   -7.3287   17.7772 C   0  0  0  0  0  0  0  0  0  0  0  0
   -0.0206  -10.5585   16.6210 C   0  0  0  0  0  0  0  0  0  0  0  0
    0.3696  -12.7626   16.2169 O   0  0  0  0  0  0  0  0  0  0  0  0
   -0.6895   -9.5676   17.3297 C   0  0  0  0  0  0  0  0  0  0  0  0
    0.8388   -5.8417   27.5264 C   0  0  0  0  0  0  0  0  0  0  0  0
   -2.0709   -7.6637   18.7817 C   0  0  0  0  0  0  0  0  0  0  0  0
   -0.5279   -8.2168   17.0717 C   0  0  0  0  0  0  0  0  0  0  0  0
    6.9694   -4.0191   27.8190 C   0  0  0  0  0  0  0  0  0  0  0  0
    5.1733   -4.5469   29.8123 C   0  0  0  0  0  0  0  0  0  0  0  0
   -1.7508  -11.3016   18.6072 C   0  0  0  0  0  0  0  0  0  0  0  0
    1.7497   -5.6771   26.4971 C   0  0  0  0  0  0  0  0  0  0  0  0
   -1.5799   -9.9322   18.3468 C   0  0  0  0  0  0  0  0  0  0  0  0
   -1.0871  -12.2214   17.8851 C   0  0  0  0  0  0  0  0  0  0  0  0
   -2.2706   -8.9669   19.0691 C   0  0  0  0  0  0  0  0  0  0  0  0
    3.0279   -5.3073   26.8197 C   0  0  0  0  0  0  0  0  0  0  0  0
    7.3282   -3.8948   29.1186 C   0  0  0  0  0  0  0  0  0  0  0  0
  1  3  4  0
  1  7  4  0
  2  3  1  0
  2  6  4  0
  2 16  4  0
  3 22  4  0
  4  9  4  0
  4 10  1  0
  4 20  4  0
  5 16  4  0
  5 23  4  0
  6 15  4  0
  7 12  4  0
  8 13  4  0
  8 14  4  0
  9 11  4  0
 11 14  4  0
 11 19  4  0
 12 18  4  0
 13 21  4  0
 15 23  4  0
 17 19  4  0
 17 20  4  0
 18 22  4  0
 19 21  4  0
M  END
$$$$

 Created by Python create_sdf_string function

 23 25  0  0  0  0  0  0  0  0999 V2000
    2.4610   -5.3070   29.1240 C   0  0  0  0  0  0  0  0  0  0  0  0
    4.7710   -4.6952   28.4803 C   0  0  0  0  0  0  0  0  0  0  0  0
    3.4047   -5.1087   28.1314 C   0  0  0  0  0  0  0  0  0  0  0  0
   -0.2234  -11.8615   16.8874 C   0  0  0  0  0  0  0  0  0  0  0  0
    6.4491   -4.1532   30.1213 C   0  0  0  0  0  0  0  0  0  0  0  0
    5.7060   -4.4340   27.4975 C   0  0  0  0  0  0  0  0  0  0  0  0
    1.1818   -5.6612   28.8399 C   0  0  0  0  0  0  0  0  0  0  0  0
   -1.2067   -7.3287   17.7772 C   0  0  0  0  0  0  0  0  0  0  0  0
   -0.0206  -10.5585   16.6210 C   0  0  0  0  0  0  0  0  0  0  0  0
    0.3696  -12.7626   16.2169 O   0  0  0  0  0  0  0  0  0  0  0  0
   -0.6895   -9.5676   17.3297 C   0  0  0  0  0  0  0  0  0  0  0  0
    0.8388   -5.8417   27.5264 C   0  0  0  0  0  0  0  0  0  0  0  0
   -2.0709   -7.6637   18.7817 C   0  0  0  0  0  0  0  0  0  0  0  0
   -0.5279   -8.2168   17.0717 C   0  0  0  0  0  0  0  0  0  0  0  0
    6.9694   -4.0191   27.8190 C   0  0  0  0  0  0  0  0  0  0  0  0
    5.1733   -4.5469   29.8123 C   0  0  0  0  0  0  0  0  0  0  0  0
   -1.7508  -11.3016   18.6072 C   0  0  0  0  0  0  0  0  0  0  0  0
    1.7497   -5.6771   26.4971 C   0  0  0  0  0  0  0  0  0  0  0  0
   -1.5799   -9.9322   18.3468 C   0  0  0  0  0  0  0  0  0  0  0  0
   -1.0871  -12.2214   17.8851 C   0  0  0  0  0  0  0  0  0  0  0  0
   -2.2706   -8.9669   19.0691 C   0  0  0  0  0  0  0  0  0  0  0  0
    3.0279   -5.3073   26.8197 C   0  0  0  0  0  0  0  0  0  0  0  0
    7.3282   -3.8948   29.1186 C   0  0  0  0  0  0  0  0  0  0  0  0
  1  3  4  0
  1  7  4  0
  2  3  1  0
  2  6  4  0
  2 16  4  0
  3 22  4  0
  4  9  4  0
  4 10  1  0
  4 20  4  0
  5 16  4  0
  5 23  4  0
  6 15  4  0
  7 12  4  0
  8 13  4  0
  8 14  4  0
  9 11  4  0
 11 14  4  0
 11 19  4  0
 12 18  4  0
 13 21  4  0
 15 23  4  0
 17 19  4  0
 17 20  4  0
 18 22  4  0
 19 21  4  0
M  END
$$$$

 Created by Python create_sdf_string function

 23 25  0  0  0  0  0  0  0  0999 V2000
    2.4610   -5.3070   29.1240 C   0  0  0  0  0  0  0  0  0  0  0  0
    4.7710   -4.6952   28.4803 C   0  0  0  0  0  0  0  0  0  0  0  0
    3.4047   -5.1087   28.1314 C   0  0  0  0  0  0  0  0  0  0  0  0
   -0.2234  -11.8615   16.8874 C   0  0  0  0  0  0  0  0  0  0  0  0
    6.4491   -4.1532   30.1213 C   0  0  0  0  0  0  0  0  0  0  0  0
    5.7060   -4.4340   27.4975 C   0  0  0  0  0  0  0  0  0  0  0  0
    1.1818   -5.6612   28.8399 C   0  0  0  0  0  0  0  0  0  0  0  0
   -1.2067   -7.3287   17.7772 C   0  0  0  0  0  0  0  0  0  0  0  0
   -0.0206  -10.5585   16.6210 C   0  0  0  0  0  0  0  0  0  0  0  0
    0.3696  -12.7626   16.2169 O   0  0  0  0  0  0  0  0  0  0  0  0
   -0.6895   -9.5676   17.3297 C   0  0  0  0  0  0  0  0  0  0  0  0
    0.8388   -5.8417   27.5264 C   0  0  0  0  0  0  0  0  0  0  0  0
   -2.0709   -7.6637   18.7817 C   0  0  0  0  0  0  0  0  0  0  0  0
   -0.5279   -8.2168   17.0717 C   0  0  0  0  0  0  0  0  0  0  0  0
    6.9694   -4.0191   27.8190 C   0  0  0  0  0  0  0  0  0  0  0  0
    5.1733   -4.5469   29.8123 C   0  0  0  0  0  0  0  0  0  0  0  0
   -1.7508  -11.3016   18.6072 C   0  0  0  0  0  0  0  0  0  0  0  0
    1.7497   -5.6771   26.4971 C   0  0  0  0  0  0  0  0  0  0  0  0
   -1.5799   -9.9322   18.3468 C   0  0  0  0  0  0  0  0  0  0  0  0
   -1.0871  -12.2214   17.8851 C   0  0  0  0  0  0  0  0  0  0  0  0
   -2.2706   -8.9669   19.0691 C   0  0  0  0  0  0  0  0  0  0  0  0
    3.0279   -5.3073   26.8197 C   0  0  0  0  0  0  0  0  0  0  0  0
    7.3282   -3.8948   29.1186 C   0  0  0  0  0  0  0  0  0  0  0  0
  1  3  4  0
  1  7  4  0
  2  3  1  0
  2  6  4  0
  2 16  4  0
  3 22  4  0
  4  9  4  0
  4 10  1  0
  4 20  4  0
  5 16  4  0
  5 23  4  0
  6 15  4  0
  7 12  4  0
  8 13  4  0
  8 14  4  0
  9 11  4  0
 11 14  4  0
 11 19  4  0
 12 18  4  0
 13 21  4  0
 15 23  4  0
 17 19  4  0
 17 20  4  0
 18 22  4  0
 19 21  4  0
M  END
$$$$

 Created by Python create_sdf_string function

 23 25  0  0  0  0  0  0  0  0999 V2000
    2.4610   -5.3070   29.1240 C   0  0  0  0  0  0  0  0  0  0  0  0
    4.7710   -4.6952   28.4803 C   0  0  0  0  0  0  0  0  0  0  0  0
    3.4047   -5.1087   28.1314 C   0  0  0  0  0  0  0  0  0  0  0  0
   -0.2234  -11.8615   16.8874 C   0  0  0  0  0  0  0  0  0  0  0  0
    6.4491   -4.1532   30.1213 C   0  0  0  0  0  0  0  0  0  0  0  0
    5.7060   -4.4340   27.4975 C   0  0  0  0  0  0  0  0  0  0  0  0
    1.1818   -5.6612   28.8399 C   0  0  0  0  0  0  0  0  0  0  0  0
   -1.2067   -7.3287   17.7772 C   0  0  0  0  0  0  0  0  0  0  0  0
   -0.0206  -10.5585   16.6210 C   0  0  0  0  0  0  0  0  0  0  0  0
    0.3696  -12.7626   16.2169 O   0  0  0  0  0  0  0  0  0  0  0  0
   -0.6895   -9.5676   17.3297 C   0  0  0  0  0  0  0  0  0  0  0  0
    0.8388   -5.8417   27.5264 C   0  0  0  0  0  0  0  0  0  0  0  0
   -2.0709   -7.6637   18.7817 C   0  0  0  0  0  0  0  0  0  0  0  0
   -0.5279   -8.2168   17.0717 C   0  0  0  0  0  0  0  0  0  0  0  0
    6.9694   -4.0191   27.8190 C   0  0  0  0  0  0  0  0  0  0  0  0
    5.1733   -4.5469   29.8123 C   0  0  0  0  0  0  0  0  0  0  0  0
   -1.7508  -11.3016   18.6072 C   0  0  0  0  0  0  0  0  0  0  0  0
    1.7497   -5.6771   26.4971 C   0  0  0  0  0  0  0  0  0  0  0  0
   -1.5799   -9.9322   18.3468 C   0  0  0  0  0  0  0  0  0  0  0  0
   -1.0871  -12.2214   17.8851 C   0  0  0  0  0  0  0  0  0  0  0  0
   -2.2706   -8.9669   19.0691 C   0  0  0  0  0  0  0  0  0  0  0  0
    3.0279   -5.3073   26.8197 C   0  0  0  0  0  0  0  0  0  0  0  0
    7.3282   -3.8948   29.1186 C   0  0  0  0  0  0  0  0  0  0  0  0
  1  3  4  0
  1  7  4  0
  2  3  1  0
  2  6  4  0
  2 16  4  0
  3 22  4  0
  4  9  4  0
  4 10  1  0
  4 20  4  0
  5 16  4  0
  5 23  4  0
  6 15  4  0
  7 12  4  0
  8 13  4  0
  8 14  4  0
  9 11  4  0
 11 14  4  0
 11 19  4  0
 12 18  4  0
 13 21  4  0
 15 23  4  0
 17 19  4  0
 17 20  4  0
 18 22  4  0
 19 21  4  0
M  END
$$$$

 Created by Python create_sdf_string function

 23 25  0  0  0  0  0  0  0  0999 V2000
    2.4610   -5.3070   29.1240 C   0  0  0  0  0  0  0  0  0  0  0  0
    4.7710   -4.6952   28.4803 C   0  0  0  0  0  0  0  0  0  0  0  0
    3.4047   -5.1087   28.1314 C   0  0  0  0  0  0  0  0  0  0  0  0
   -0.2234  -11.8615   16.8874 C   0  0  0  0  0  0  0  0  0  0  0  0
    6.4491   -4.1532   30.1213 C   0  0  0  0  0  0  0  0  0  0  0  0
    5.7060   -4.4340   27.4975 C   0  0  0  0  0  0  0  0  0  0  0  0
    1.1818   -5.6612   28.8399 C   0  0  0  0  0  0  0  0  0  0  0  0
   -1.2067   -7.3287   17.7772 C   0  0  0  0  0  0  0  0  0  0  0  0
   -0.0206  -10.5585   16.6210 C   0  0  0  0  0  0  0  0  0  0  0  0
    0.3696  -12.7626   16.2169 O   0  0  0  0  0  0  0  0  0  0  0  0
   -0.6895   -9.5676   17.3297 C   0  0  0  0  0  0  0  0  0  0  0  0
    0.8388   -5.8417   27.5264 C   0  0  0  0  0  0  0  0  0  0  0  0
   -2.0709   -7.6637   18.7817 C   0  0  0  0  0  0  0  0  0  0  0  0
   -0.5279   -8.2168   17.0717 C   0  0  0  0  0  0  0  0  0  0  0  0
    6.9694   -4.0191   27.8190 C   0  0  0  0  0  0  0  0  0  0  0  0
    5.1733   -4.5469   29.8123 C   0  0  0  0  0  0  0  0  0  0  0  0
   -1.7508  -11.3016   18.6072 C   0  0  0  0  0  0  0  0  0  0  0  0
    1.7497   -5.6771   26.4971 C   0  0  0  0  0  0  0  0  0  0  0  0
   -1.5799   -9.9322   18.3468 C   0  0  0  0  0  0  0  0  0  0  0  0
   -1.0871  -12.2214   17.8851 C   0  0  0  0  0  0  0  0  0  0  0  0
   -2.2706   -8.9669   19.0691 C   0  0  0  0  0  0  0  0  0  0  0  0
    3.0279   -5.3073   26.8197 C   0  0  0  0  0  0  0  0  0  0  0  0
    7.3282   -3.8948   29.1186 C   0  0  0  0  0  0  0  0  0  0  0  0
  1  3  4  0
  1  7  4  0
  2  3  1  0
  2  6  4  0
  2 16  4  0
  3 22  4  0
  4  9  4  0
  4 10  1  0
  4 20  4  0
  5 16  4  0
  5 23  4  0
  6 15  4  0
  7 12  4  0
  8 13  4  0
  8 14  4  0
  9 11  4  0
 11 14  4  0
 11 19  4  0
 12 18  4  0
 13 21  4  0
 15 23  4  0
 17 19  4  0
 17 20  4  0
 18 22  4  0
 19 21  4  0
M  END
$$$$

 Created by Python create_sdf_string function

 23 25  0  0  0  0  0  0  0  0999 V2000
    2.4610   -5.3070   29.1240 C   0  0  0  0  0  0  0  0  0  0  0  0
    4.7710   -4.6952   28.4803 C   0  0  0  0  0  0  0  0  0  0  0  0
    3.4047   -5.1087   28.1314 C   0  0  0  0  0  0  0  0  0  0  0  0
   -0.2234  -11.8615   16.8874 C   0  0  0  0  0  0  0  0  0  0  0  0
    6.4491   -4.1532   30.1213 C   0  0  0  0  0  0  0  0  0  0  0  0
    5.7060   -4.4340   27.4975 C   0  0  0  0  0  0  0  0  0  0  0  0
    1.1818   -5.6612   28.8399 C   0  0  0  0  0  0  0  0  0  0  0  0
   -1.2067   -7.3287   17.7772 C   0  0  0  0  0  0  0  0  0  0  0  0
   -0.0206  -10.5585   16.6210 C   0  0  0  0  0  0  0  0  0  0  0  0
    0.3696  -12.7626   16.2169 O   0  0  0  0  0  0  0  0  0  0  0  0
   -0.6895   -9.5676   17.3297 C   0  0  0  0  0  0  0  0  0  0  0  0
    0.8388   -5.8417   27.5264 C   0  0  0  0  0  0  0  0  0  0  0  0
   -2.0709   -7.6637   18.7817 C   0  0  0  0  0  0  0  0  0  0  0  0
   -0.5279   -8.2168   17.0717 C   0  0  0  0  0  0  0  0  0  0  0  0
    6.9694   -4.0191   27.8190 C   0  0  0  0  0  0  0  0  0  0  0  0
    5.1733   -4.5469   29.8123 C   0  0  0  0  0  0  0  0  0  0  0  0
   -1.7508  -11.3016   18.6072 C   0  0  0  0  0  0  0  0  0  0  0  0
    1.7497   -5.6771   26.4971 C   0  0  0  0  0  0  0  0  0  0  0  0
   -1.5799   -9.9322   18.3468 C   0  0  0  0  0  0  0  0  0  0  0  0
   -1.0871  -12.2214   17.8851 C   0  0  0  0  0  0  0  0  0  0  0  0
   -2.2706   -8.9669   19.0691 C   0  0  0  0  0  0  0  0  0  0  0  0
    3.0279   -5.3073   26.8197 C   0  0  0  0  0  0  0  0  0  0  0  0
    7.3282   -3.8948   29.1186 C   0  0  0  0  0  0  0  0  0  0  0  0
  1  3  4  0
  1  7  4  0
  2  3  1  0
  2  6  4  0
  2 16  4  0
  3 22  4  0
  4  9  4  0
  4 10  1  0
  4 20  4  0
  5 16  4  0
  5 23  4  0
  6 15  4  0
  7 12  4  0
  8 13  4  0
  8 14  4  0
  9 11  4  0
 11 14  4  0
 11 19  4  0
 12 18  4  0
 13 21  4  0
 15 23  4  0
 17 19  4  0
 17 20  4  0
 18 22  4  0
 19 21  4  0
M  END
$$$$

 Created by Python create_sdf_string function

 23 25  0  0  0  0  0  0  0  0999 V2000
    2.4610   -5.3070   29.1240 C   0  0  0  0  0  0  0  0  0  0  0  0
    4.7710   -4.6952   28.4803 C   0  0  0  0  0  0  0  0  0  0  0  0
    3.4047   -5.1087   28.1314 C   0  0  0  0  0  0  0  0  0  0  0  0
   -0.2234  -11.8615   16.8874 C   0  0  0  0  0  0  0  0  0  0  0  0
    6.4491   -4.1532   30.1213 C   0  0  0  0  0  0  0  0  0  0  0  0
    5.7060   -4.4340   27.4975 C   0  0  0  0  0  0  0  0  0  0  0  0
    1.1818   -5.6612   28.8399 C   0  0  0  0  0  0  0  0  0  0  0  0
   -1.2067   -7.3287   17.7772 C   0  0  0  0  0  0  0  0  0  0  0  0
   -0.0206  -10.5585   16.6210 C   0  0  0  0  0  0  0  0  0  0  0  0
    0.3696  -12.7626   16.2169 O   0  0  0  0  0  0  0  0  0  0  0  0
   -0.6895   -9.5676   17.3297 C   0  0  0  0  0  0  0  0  0  0  0  0
    0.8388   -5.8417   27.5264 C   0  0  0  0  0  0  0  0  0  0  0  0
   -2.0709   -7.6637   18.7817 C   0  0  0  0  0  0  0  0  0  0  0  0
   -0.5279   -8.2168   17.0717 C   0  0  0  0  0  0  0  0  0  0  0  0
    6.9694   -4.0191   27.8190 C   0  0  0  0  0  0  0  0  0  0  0  0
    5.1733   -4.5469   29.8123 C   0  0  0  0  0  0  0  0  0  0  0  0
   -1.7508  -11.3016   18.6072 C   0  0  0  0  0  0  0  0  0  0  0  0
    1.7497   -5.6771   26.4971 C   0  0  0  0  0  0  0  0  0  0  0  0
   -1.5799   -9.9322   18.3468 C   0  0  0  0  0  0  0  0  0  0  0  0
   -1.0871  -12.2214   17.8851 C   0  0  0  0  0  0  0  0  0  0  0  0
   -2.2706   -8.9669   19.0691 C   0  0  0  0  0  0  0  0  0  0  0  0
    3.0279   -5.3073   26.8197 C   0  0  0  0  0  0  0  0  0  0  0  0
    7.3282   -3.8948   29.1186 C   0  0  0  0  0  0  0  0  0  0  0  0
  1  3  4  0
  1  7  4  0
  2  3  1  0
  2  6  4  0
  2 16  4  0
  3 22  4  0
  4  9  4  0
  4 10  1  0
  4 20  4  0
  5 16  4  0
  5 23  4  0
  6 15  4  0
  7 12  4  0
  8 13  4  0
  8 14  4  0
  9 11  4  0
 11 14  4  0
 11 19  4  0
 12 18  4  0
 13 21  4  0
 15 23  4  0
 17 19  4  0
 17 20  4  0
 18 22  4  0
 19 21  4  0
M  END
$$$$

 Created by Python create_sdf_string function

 23 25  0  0  0  0  0  0  0  0999 V2000
    2.4610   -5.3070   29.1240 C   0  0  0  0  0  0  0  0  0  0  0  0
    4.7710   -4.6952   28.4803 C   0  0  0  0  0  0  0  0  0  0  0  0
    3.4047   -5.1087   28.1314 C   0  0  0  0  0  0  0  0  0  0  0  0
   -0.2234  -11.8615   16.8874 C   0  0  0  0  0  0  0  0  0  0  0  0
    6.4491   -4.1532   30.1213 C   0  0  0  0  0  0  0  0  0  0  0  0
    5.7060   -4.4340   27.4975 C   0  0  0  0  0  0  0  0  0  0  0  0
    1.1818   -5.6612   28.8399 C   0  0  0  0  0  0  0  0  0  0  0  0
   -1.2067   -7.3287   17.7772 C   0  0  0  0  0  0  0  0  0  0  0  0
   -0.0206  -10.5585   16.6210 C   0  0  0  0  0  0  0  0  0  0  0  0
    0.3696  -12.7626   16.2169 O   0  0  0  0  0  0  0  0  0  0  0  0
   -0.6895   -9.5676   17.3297 C   0  0  0  0  0  0  0  0  0  0  0  0
    0.8388   -5.8417   27.5264 C   0  0  0  0  0  0  0  0  0  0  0  0
   -2.0709   -7.6637   18.7817 C   0  0  0  0  0  0  0  0  0  0  0  0
   -0.5279   -8.2168   17.0717 C   0  0  0  0  0  0  0  0  0  0  0  0
    6.9694   -4.0191   27.8190 C   0  0  0  0  0  0  0  0  0  0  0  0
    5.1733   -4.5469   29.8123 C   0  0  0  0  0  0  0  0  0  0  0  0
   -1.7508  -11.3016   18.6072 C   0  0  0  0  0  0  0  0  0  0  0  0
    1.7497   -5.6771   26.4971 C   0  0  0  0  0  0  0  0  0  0  0  0
   -1.5799   -9.9322   18.3468 C   0  0  0  0  0  0  0  0  0  0  0  0
   -1.0871  -12.2214   17.8851 C   0  0  0  0  0  0  0  0  0  0  0  0
   -2.2706   -8.9669   19.0691 C   0  0  0  0  0  0  0  0  0  0  0  0
    3.0279   -5.3073   26.8197 C   0  0  0  0  0  0  0  0  0  0  0  0
    7.3282   -3.8948   29.1186 C   0  0  0  0  0  0  0  0  0  0  0  0
  1  3  4  0
  1  7  4  0
  2  3  1  0
  2  6  4  0
  2 16  4  0
  3 22  4  0
  4  9  4  0
  4 10  1  0
  4 20  4  0
  5 16  4  0
  5 23  4  0
  6 15  4  0
  7 12  4  0
  8 13  4  0
  8 14  4  0
  9 11  4  0
 11 14  4  0
 11 19  4  0
 12 18  4  0
 13 21  4  0
 15 23  4  0
 17 19  4  0
 17 20  4  0
 18 22  4  0
 19 21  4  0
M  END
$$$$

 Created by Python create_sdf_string function

 23 25  0  0  0  0  0  0  0  0999 V2000
    2.4610   -5.3070   29.1240 C   0  0  0  0  0  0  0  0  0  0  0  0
    4.7710   -4.6952   28.4803 C   0  0  0  0  0  0  0  0  0  0  0  0
    3.4047   -5.1087   28.1314 C   0  0  0  0  0  0  0  0  0  0  0  0
   -0.2234  -11.8615   16.8874 C   0  0  0  0  0  0  0  0  0  0  0  0
    6.4491   -4.1532   30.1213 C   0  0  0  0  0  0  0  0  0  0  0  0
    5.7060   -4.4340   27.4975 C   0  0  0  0  0  0  0  0  0  0  0  0
    1.1818   -5.6612   28.8399 C   0  0  0  0  0  0  0  0  0  0  0  0
   -1.2067   -7.3287   17.7772 C   0  0  0  0  0  0  0  0  0  0  0  0
   -0.0206  -10.5585   16.6210 C   0  0  0  0  0  0  0  0  0  0  0  0
    0.3696  -12.7626   16.2169 O   0  0  0  0  0  0  0  0  0  0  0  0
   -0.6895   -9.5676   17.3297 C   0  0  0  0  0  0  0  0  0  0  0  0
    0.8388   -5.8417   27.5264 C   0  0  0  0  0  0  0  0  0  0  0  0
   -2.0709   -7.6637   18.7817 C   0  0  0  0  0  0  0  0  0  0  0  0
   -0.5279   -8.2168   17.0717 C   0  0  0  0  0  0  0  0  0  0  0  0
    6.9694   -4.0191   27.8190 C   0  0  0  0  0  0  0  0  0  0  0  0
    5.1733   -4.5469   29.8123 C   0  0  0  0  0  0  0  0  0  0  0  0
   -1.7508  -11.3016   18.6072 C   0  0  0  0  0  0  0  0  0  0  0  0
    1.7497   -5.6771   26.4971 C   0  0  0  0  0  0  0  0  0  0  0  0
   -1.5799   -9.9322   18.3468 C   0  0  0  0  0  0  0  0  0  0  0  0
   -1.0871  -12.2214   17.8851 C   0  0  0  0  0  0  0  0  0  0  0  0
   -2.2706   -8.9669   19.0691 C   0  0  0  0  0  0  0  0  0  0  0  0
    3.0279   -5.3073   26.8197 C   0  0  0  0  0  0  0  0  0  0  0  0
    7.3282   -3.8948   29.1186 C   0  0  0  0  0  0  0  0  0  0  0  0
  1  3  4  0
  1  7  4  0
  2  3  1  0
  2  6  4  0
  2 16  4  0
  3 22  4  0
  4  9  4  0
  4 10  1  0
  4 20  4  0
  5 16  4  0
  5 23  4  0
  6 15  4  0
  7 12  4  0
  8 13  4  0
  8 14  4  0
  9 11  4  0
 11 14  4  0
 11 19  4  0
 12 18  4  0
 13 21  4  0
 15 23  4  0
 17 19  4  0
 17 20  4  0
 18 22  4  0
 19 21  4  0
M  END
$$$$

 Created by Python create_sdf_string function

 23 25  0  0  0  0  0  0  0  0999 V2000
    2.4610   -5.3070   29.1240 C   0  0  0  0  0  0  0  0  0  0  0  0
    4.7710   -4.6952   28.4803 C   0  0  0  0  0  0  0  0  0  0  0  0
    3.4047   -5.1087   28.1314 C   0  0  0  0  0  0  0  0  0  0  0  0
   -0.2234  -11.8615   16.8874 C   0  0  0  0  0  0  0  0  0  0  0  0
    6.4491   -4.1532   30.1213 C   0  0  0  0  0  0  0  0  0  0  0  0
    5.7060   -4.4340   27.4975 C   0  0  0  0  0  0  0  0  0  0  0  0
    1.1818   -5.6612   28.8399 C   0  0  0  0  0  0  0  0  0  0  0  0
   -1.2067   -7.3287   17.7772 C   0  0  0  0  0  0  0  0  0  0  0  0
   -0.0206  -10.5585   16.6210 C   0  0  0  0  0  0  0  0  0  0  0  0
    0.3696  -12.7626   16.2169 O   0  0  0  0  0  0  0  0  0  0  0  0
   -0.6895   -9.5676   17.3297 C   0  0  0  0  0  0  0  0  0  0  0  0
    0.8388   -5.8417   27.5264 C   0  0  0  0  0  0  0  0  0  0  0  0
   -2.0709   -7.6637   18.7817 C   0  0  0  0  0  0  0  0  0  0  0  0
   -0.5279   -8.2168   17.0717 C   0  0  0  0  0  0  0  0  0  0  0  0
    6.9694   -4.0191   27.8190 C   0  0  0  0  0  0  0  0  0  0  0  0
    5.1733   -4.5469   29.8123 C   0  0  0  0  0  0  0  0  0  0  0  0
   -1.7508  -11.3016   18.6072 C   0  0  0  0  0  0  0  0  0  0  0  0
    1.7497   -5.6771   26.4971 C   0  0  0  0  0  0  0  0  0  0  0  0
   -1.5799   -9.9322   18.3468 C   0  0  0  0  0  0  0  0  0  0  0  0
   -1.0871  -12.2214   17.8851 C   0  0  0  0  0  0  0  0  0  0  0  0
   -2.2706   -8.9669   19.0691 C   0  0  0  0  0  0  0  0  0  0  0  0
    3.0279   -5.3073   26.8197 C   0  0  0  0  0  0  0  0  0  0  0  0
    7.3282   -3.8948   29.1186 C   0  0  0  0  0  0  0  0  0  0  0  0
  1  3  4  0
  1  7  4  0
  2  3  1  0
  2  6  4  0
  2 16  4  0
  3 22  4  0
  4  9  4  0
  4 10  1  0
  4 20  4  0
  5 16  4  0
  5 23  4  0
  6 15  4  0
  7 12  4  0
  8 13  4  0
  8 14  4  0
  9 11  4  0
 11 14  4  0
 11 19  4  0
 12 18  4  0
 13 21  4  0
 15 23  4  0
 17 19  4  0
 17 20  4  0
 18 22  4  0
 19 21  4  0
M  END
$$$$

 Created by Python create_sdf_string function

 23 25  0  0  0  0  0  0  0  0999 V2000
    2.4610   -5.3070   29.1240 C   0  0  0  0  0  0  0  0  0  0  0  0
    4.7710   -4.6952   28.4803 C   0  0  0  0  0  0  0  0  0  0  0  0
    3.4047   -5.1087   28.1314 C   0  0  0  0  0  0  0  0  0  0  0  0
   -0.2234  -11.8615   16.8874 C   0  0  0  0  0  0  0  0  0  0  0  0
    6.4491   -4.1532   30.1213 C   0  0  0  0  0  0  0  0  0  0  0  0
    5.7060   -4.4340   27.4975 C   0  0  0  0  0  0  0  0  0  0  0  0
    1.1818   -5.6612   28.8399 C   0  0  0  0  0  0  0  0  0  0  0  0
   -1.2067   -7.3287   17.7772 C   0  0  0  0  0  0  0  0  0  0  0  0
   -0.0206  -10.5585   16.6210 C   0  0  0  0  0  0  0  0  0  0  0  0
    0.3696  -12.7626   16.2169 O   0  0  0  0  0  0  0  0  0  0  0  0
   -0.6895   -9.5676   17.3297 C   0  0  0  0  0  0  0  0  0  0  0  0
    0.8388   -5.8417   27.5264 C   0  0  0  0  0  0  0  0  0  0  0  0
   -2.0709   -7.6637   18.7817 C   0  0  0  0  0  0  0  0  0  0  0  0
   -0.5279   -8.2168   17.0717 C   0  0  0  0  0  0  0  0  0  0  0  0
    6.9694   -4.0191   27.8190 C   0  0  0  0  0  0  0  0  0  0  0  0
    5.1733   -4.5469   29.8123 C   0  0  0  0  0  0  0  0  0  0  0  0
   -1.7508  -11.3016   18.6072 C   0  0  0  0  0  0  0  0  0  0  0  0
    1.7497   -5.6771   26.4971 C   0  0  0  0  0  0  0  0  0  0  0  0
   -1.5799   -9.9322   18.3468 C   0  0  0  0  0  0  0  0  0  0  0  0
   -1.0871  -12.2214   17.8851 C   0  0  0  0  0  0  0  0  0  0  0  0
   -2.2706   -8.9669   19.0691 C   0  0  0  0  0  0  0  0  0  0  0  0
    3.0279   -5.3073   26.8197 C   0  0  0  0  0  0  0  0  0  0  0  0
    7.3282   -3.8948   29.1186 C   0  0  0  0  0  0  0  0  0  0  0  0
  1  3  4  0
  1  7  4  0
  2  3  1  0
  2  6  4  0
  2 16  4  0
  3 22  4  0
  4  9  4  0
  4 10  1  0
  4 20  4  0
  5 16  4  0
  5 23  4  0
  6 15  4  0
  7 12  4  0
  8 13  4  0
  8 14  4  0
  9 11  4  0
 11 14  4  0
 11 19  4  0
 12 18  4  0
 13 21  4  0
 15 23  4  0
 17 19  4  0
 17 20  4  0
 18 22  4  0
 19 21  4  0
M  END
$$$$

 Created by Python create_sdf_string function

 23 25  0  0  0  0  0  0  0  0999 V2000
    2.4610   -5.3070   29.1240 C   0  0  0  0  0  0  0  0  0  0  0  0
    4.7710   -4.6952   28.4803 C   0  0  0  0  0  0  0  0  0  0  0  0
    3.4047   -5.1087   28.1314 C   0  0  0  0  0  0  0  0  0  0  0  0
   -0.2234  -11.8615   16.8874 C   0  0  0  0  0  0  0  0  0  0  0  0
    6.4491   -4.1532   30.1213 C   0  0  0  0  0  0  0  0  0  0  0  0
    5.7060   -4.4340   27.4975 C   0  0  0  0  0  0  0  0  0  0  0  0
    1.1818   -5.6612   28.8399 C   0  0  0  0  0  0  0  0  0  0  0  0
   -1.2067   -7.3287   17.7772 C   0  0  0  0  0  0  0  0  0  0  0  0
   -0.0206  -10.5585   16.6210 C   0  0  0  0  0  0  0  0  0  0  0  0
    0.3696  -12.7626   16.2169 O   0  0  0  0  0  0  0  0  0  0  0  0
   -0.6895   -9.5676   17.3297 C   0  0  0  0  0  0  0  0  0  0  0  0
    0.8388   -5.8417   27.5264 C   0  0  0  0  0  0  0  0  0  0  0  0
   -2.0709   -7.6637   18.7817 C   0  0  0  0  0  0  0  0  0  0  0  0
   -0.5279   -8.2168   17.0717 C   0  0  0  0  0  0  0  0  0  0  0  0
    6.9694   -4.0191   27.8190 C   0  0  0  0  0  0  0  0  0  0  0  0
    5.1733   -4.5469   29.8123 C   0  0  0  0  0  0  0  0  0  0  0  0
   -1.7508  -11.3016   18.6072 C   0  0  0  0  0  0  0  0  0  0  0  0
    1.7497   -5.6771   26.4971 C   0  0  0  0  0  0  0  0  0  0  0  0
   -1.5799   -9.9322   18.3468 C   0  0  0  0  0  0  0  0  0  0  0  0
   -1.0871  -12.2214   17.8851 C   0  0  0  0  0  0  0  0  0  0  0  0
   -2.2706   -8.9669   19.0691 C   0  0  0  0  0  0  0  0  0  0  0  0
    3.0279   -5.3073   26.8197 C   0  0  0  0  0  0  0  0  0  0  0  0
    7.3282   -3.8948   29.1186 C   0  0  0  0  0  0  0  0  0  0  0  0
  1  3  4  0
  1  7  4  0
  2  3  1  0
  2  6  4  0
  2 16  4  0
  3 22  4  0
  4  9  4  0
  4 10  1  0
  4 20  4  0
  5 16  4  0
  5 23  4  0
  6 15  4  0
  7 12  4  0
  8 13  4  0
  8 14  4  0
  9 11  4  0
 11 14  4  0
 11 19  4  0
 12 18  4  0
 13 21  4  0
 15 23  4  0
 17 19  4  0
 17 20  4  0
 18 22  4  0
 19 21  4  0
M  END
$$$$

 Created by Python create_sdf_string function

 23 25  0  0  0  0  0  0  0  0999 V2000
    2.4610   -5.3070   29.1240 C   0  0  0  0  0  0  0  0  0  0  0  0
    4.7710   -4.6952   28.4803 C   0  0  0  0  0  0  0  0  0  0  0  0
    3.4047   -5.1087   28.1314 C   0  0  0  0  0  0  0  0  0  0  0  0
   -0.2234  -11.8615   16.8874 C   0  0  0  0  0  0  0  0  0  0  0  0
    6.4491   -4.1532   30.1213 C   0  0  0  0  0  0  0  0  0  0  0  0
    5.7060   -4.4340   27.4975 C   0  0  0  0  0  0  0  0  0  0  0  0
    1.1818   -5.6612   28.8399 C   0  0  0  0  0  0  0  0  0  0  0  0
   -1.2067   -7.3287   17.7772 C   0  0  0  0  0  0  0  0  0  0  0  0
   -0.0206  -10.5585   16.6210 C   0  0  0  0  0  0  0  0  0  0  0  0
    0.3696  -12.7626   16.2169 O   0  0  0  0  0  0  0  0  0  0  0  0
   -0.6895   -9.5676   17.3297 C   0  0  0  0  0  0  0  0  0  0  0  0
    0.8388   -5.8417   27.5264 C   0  0  0  0  0  0  0  0  0  0  0  0
   -2.0709   -7.6637   18.7817 C   0  0  0  0  0  0  0  0  0  0  0  0
   -0.5279   -8.2168   17.0717 C   0  0  0  0  0  0  0  0  0  0  0  0
    6.9694   -4.0191   27.8190 C   0  0  0  0  0  0  0  0  0  0  0  0
    5.1733   -4.5469   29.8123 C   0  0  0  0  0  0  0  0  0  0  0  0
   -1.7508  -11.3016   18.6072 C   0  0  0  0  0  0  0  0  0  0  0  0
    1.7497   -5.6771   26.4971 C   0  0  0  0  0  0  0  0  0  0  0  0
   -1.5799   -9.9322   18.3468 C   0  0  0  0  0  0  0  0  0  0  0  0
   -1.0871  -12.2214   17.8851 C   0  0  0  0  0  0  0  0  0  0  0  0
   -2.2706   -8.9669   19.0691 C   0  0  0  0  0  0  0  0  0  0  0  0
    3.0279   -5.3073   26.8197 C   0  0  0  0  0  0  0  0  0  0  0  0
    7.3282   -3.8948   29.1186 C   0  0  0  0  0  0  0  0  0  0  0  0
  1  3  4  0
  1  7  4  0
  2  3  1  0
  2  6  4  0
  2 16  4  0
  3 22  4  0
  4  9  4  0
  4 10  1  0
  4 20  4  0
  5 16  4  0
  5 23  4  0
  6 15  4  0
  7 12  4  0
  8 13  4  0
  8 14  4  0
  9 11  4  0
 11 14  4  0
 11 19  4  0
 12 18  4  0
 13 21  4  0
 15 23  4  0
 17 19  4  0
 17 20  4  0
 18 22  4  0
 19 21  4  0
M  END
$$$$

 Created by Python create_sdf_string function

 23 25  0  0  0  0  0  0  0  0999 V2000
    2.4610   -5.3070   29.1240 C   0  0  0  0  0  0  0  0  0  0  0  0
    4.7710   -4.6952   28.4803 C   0  0  0  0  0  0  0  0  0  0  0  0
    3.4047   -5.1087   28.1314 C   0  0  0  0  0  0  0  0  0  0  0  0
   -0.2234  -11.8615   16.8874 C   0  0  0  0  0  0  0  0  0  0  0  0
    6.4491   -4.1532   30.1213 C   0  0  0  0  0  0  0  0  0  0  0  0
    5.7060   -4.4340   27.4975 C   0  0  0  0  0  0  0  0  0  0  0  0
    1.1818   -5.6612   28.8399 C   0  0  0  0  0  0  0  0  0  0  0  0
   -1.2067   -7.3287   17.7772 C   0  0  0  0  0  0  0  0  0  0  0  0
   -0.0206  -10.5585   16.6210 C   0  0  0  0  0  0  0  0  0  0  0  0
    0.3696  -12.7626   16.2169 O   0  0  0  0  0  0  0  0  0  0  0  0
   -0.6895   -9.5676   17.3297 C   0  0  0  0  0  0  0  0  0  0  0  0
    0.8388   -5.8417   27.5264 C   0  0  0  0  0  0  0  0  0  0  0  0
   -2.0709   -7.6637   18.7817 C   0  0  0  0  0  0  0  0  0  0  0  0
   -0.5279   -8.2168   17.0717 C   0  0  0  0  0  0  0  0  0  0  0  0
    6.9694   -4.0191   27.8190 C   0  0  0  0  0  0  0  0  0  0  0  0
    5.1733   -4.5469   29.8123 C   0  0  0  0  0  0  0  0  0  0  0  0
   -1.7508  -11.3016   18.6072 C   0  0  0  0  0  0  0  0  0  0  0  0
    1.7497   -5.6771   26.4971 C   0  0  0  0  0  0  0  0  0  0  0  0
   -1.5799   -9.9322   18.3468 C   0  0  0  0  0  0  0  0  0  0  0  0
   -1.0871  -12.2214   17.8851 C   0  0  0  0  0  0  0  0  0  0  0  0
   -2.2706   -8.9669   19.0691 C   0  0  0  0  0  0  0  0  0  0  0  0
    3.0279   -5.3073   26.8197 C   0  0  0  0  0  0  0  0  0  0  0  0
    7.3282   -3.8948   29.1186 C   0  0  0  0  0  0  0  0  0  0  0  0
  1  3  4  0
  1  7  4  0
  2  3  1  0
  2  6  4  0
  2 16  4  0
  3 22  4  0
  4  9  4  0
  4 10  1  0
  4 20  4  0
  5 16  4  0
  5 23  4  0
  6 15  4  0
  7 12  4  0
  8 13  4  0
  8 14  4  0
  9 11  4  0
 11 14  4  0
 11 19  4  0
 12 18  4  0
 13 21  4  0
 15 23  4  0
 17 19  4  0
 17 20  4  0
 18 22  4  0
 19 21  4  0
M  END
$$$$

 Created by Python create_sdf_string function

 23 25  0  0  0  0  0  0  0  0999 V2000
    2.4610   -5.3070   29.1240 C   0  0  0  0  0  0  0  0  0  0  0  0
    4.7710   -4.6952   28.4803 C   0  0  0  0  0  0  0  0  0  0  0  0
    3.4047   -5.1087   28.1314 C   0  0  0  0  0  0  0  0  0  0  0  0
   -0.2234  -11.8615   16.8874 C   0  0  0  0  0  0  0  0  0  0  0  0
    6.4491   -4.1532   30.1213 C   0  0  0  0  0  0  0  0  0  0  0  0
    5.7060   -4.4340   27.4975 C   0  0  0  0  0  0  0  0  0  0  0  0
    1.1818   -5.6612   28.8399 C   0  0  0  0  0  0  0  0  0  0  0  0
   -1.2067   -7.3287   17.7772 C   0  0  0  0  0  0  0  0  0  0  0  0
   -0.0206  -10.5585   16.6210 C   0  0  0  0  0  0  0  0  0  0  0  0
    0.3696  -12.7626   16.2169 O   0  0  0  0  0  0  0  0  0  0  0  0
   -0.6895   -9.5676   17.3297 C   0  0  0  0  0  0  0  0  0  0  0  0
    0.8388   -5.8417   27.5264 C   0  0  0  0  0  0  0  0  0  0  0  0
   -2.0709   -7.6637   18.7817 C   0  0  0  0  0  0  0  0  0  0  0  0
   -0.5279   -8.2168   17.0717 C   0  0  0  0  0  0  0  0  0  0  0  0
    6.9694   -4.0191   27.8190 C   0  0  0  0  0  0  0  0  0  0  0  0
    5.1733   -4.5469   29.8123 C   0  0  0  0  0  0  0  0  0  0  0  0
   -1.7508  -11.3016   18.6072 C   0  0  0  0  0  0  0  0  0  0  0  0
    1.7497   -5.6771   26.4971 C   0  0  0  0  0  0  0  0  0  0  0  0
   -1.5799   -9.9322   18.3468 C   0  0  0  0  0  0  0  0  0  0  0  0
   -1.0871  -12.2214   17.8851 C   0  0  0  0  0  0  0  0  0  0  0  0
   -2.2706   -8.9669   19.0691 C   0  0  0  0  0  0  0  0  0  0  0  0
    3.0279   -5.3073   26.8197 C   0  0  0  0  0  0  0  0  0  0  0  0
    7.3282   -3.8948   29.1186 C   0  0  0  0  0  0  0  0  0  0  0  0
  1  3  4  0
  1  7  4  0
  2  3  1  0
  2  6  4  0
  2 16  4  0
  3 22  4  0
  4  9  4  0
  4 10  1  0
  4 20  4  0
  5 16  4  0
  5 23  4  0
  6 15  4  0
  7 12  4  0
  8 13  4  0
  8 14  4  0
  9 11  4  0
 11 14  4  0
 11 19  4  0
 12 18  4  0
 13 21  4  0
 15 23  4  0
 17 19  4  0
 17 20  4  0
 18 22  4  0
 19 21  4  0
M  END
$$$$

 Created by Python create_sdf_string function

 23 25  0  0  0  0  0  0  0  0999 V2000
    2.4610   -5.3070   29.1240 C   0  0  0  0  0  0  0  0  0  0  0  0
    4.7710   -4.6952   28.4803 C   0  0  0  0  0  0  0  0  0  0  0  0
    3.4047   -5.1087   28.1314 C   0  0  0  0  0  0  0  0  0  0  0  0
   -0.2234  -11.8615   16.8874 C   0  0  0  0  0  0  0  0  0  0  0  0
    6.4491   -4.1532   30.1213 C   0  0  0  0  0  0  0  0  0  0  0  0
    5.7060   -4.4340   27.4975 C   0  0  0  0  0  0  0  0  0  0  0  0
    1.1818   -5.6612   28.8399 C   0  0  0  0  0  0  0  0  0  0  0  0
   -1.2067   -7.3287   17.7772 C   0  0  0  0  0  0  0  0  0  0  0  0
   -0.0206  -10.5585   16.6210 C   0  0  0  0  0  0  0  0  0  0  0  0
    0.3696  -12.7626   16.2169 O   0  0  0  0  0  0  0  0  0  0  0  0
   -0.6895   -9.5676   17.3297 C   0  0  0  0  0  0  0  0  0  0  0  0
    0.8388   -5.8417   27.5264 C   0  0  0  0  0  0  0  0  0  0  0  0
   -2.0709   -7.6637   18.7817 C   0  0  0  0  0  0  0  0  0  0  0  0
   -0.5279   -8.2168   17.0717 C   0  0  0  0  0  0  0  0  0  0  0  0
    6.9694   -4.0191   27.8190 C   0  0  0  0  0  0  0  0  0  0  0  0
    5.1733   -4.5469   29.8123 C   0  0  0  0  0  0  0  0  0  0  0  0
   -1.7508  -11.3016   18.6072 C   0  0  0  0  0  0  0  0  0  0  0  0
    1.7497   -5.6771   26.4971 C   0  0  0  0  0  0  0  0  0  0  0  0
   -1.5799   -9.9322   18.3468 C   0  0  0  0  0  0  0  0  0  0  0  0
   -1.0871  -12.2214   17.8851 C   0  0  0  0  0  0  0  0  0  0  0  0
   -2.2706   -8.9669   19.0691 C   0  0  0  0  0  0  0  0  0  0  0  0
    3.0279   -5.3073   26.8197 C   0  0  0  0  0  0  0  0  0  0  0  0
    7.3282   -3.8948   29.1186 C   0  0  0  0  0  0  0  0  0  0  0  0
  1  3  4  0
  1  7  4  0
  2  3  1  0
  2  6  4  0
  2 16  4  0
  3 22  4  0
  4  9  4  0
  4 10  1  0
  4 20  4  0
  5 16  4  0
  5 23  4  0
  6 15  4  0
  7 12  4  0
  8 13  4  0
  8 14  4  0
  9 11  4  0
 11 14  4  0
 11 19  4  0
 12 18  4  0
 13 21  4  0
 15 23  4  0
 17 19  4  0
 17 20  4  0
 18 22  4  0
 19 21  4  0
M  END
$$$$

 Created by Python create_sdf_string function

 23 25  0  0  0  0  0  0  0  0999 V2000
    2.4610   -5.3070   29.1240 C   0  0  0  0  0  0  0  0  0  0  0  0
    4.7710   -4.6952   28.4803 C   0  0  0  0  0  0  0  0  0  0  0  0
    3.4047   -5.1087   28.1314 C   0  0  0  0  0  0  0  0  0  0  0  0
   -0.2234  -11.8615   16.8874 C   0  0  0  0  0  0  0  0  0  0  0  0
    6.4491   -4.1532   30.1213 C   0  0  0  0  0  0  0  0  0  0  0  0
    5.7060   -4.4340   27.4975 C   0  0  0  0  0  0  0  0  0  0  0  0
    1.1818   -5.6612   28.8399 C   0  0  0  0  0  0  0  0  0  0  0  0
   -1.2067   -7.3287   17.7772 C   0  0  0  0  0  0  0  0  0  0  0  0
   -0.0206  -10.5585   16.6210 C   0  0  0  0  0  0  0  0  0  0  0  0
    0.3696  -12.7626   16.2169 O   0  0  0  0  0  0  0  0  0  0  0  0
   -0.6895   -9.5676   17.3297 C   0  0  0  0  0  0  0  0  0  0  0  0
    0.8388   -5.8417   27.5264 C   0  0  0  0  0  0  0  0  0  0  0  0
   -2.0709   -7.6637   18.7817 C   0  0  0  0  0  0  0  0  0  0  0  0
   -0.5279   -8.2168   17.0717 C   0  0  0  0  0  0  0  0  0  0  0  0
    6.9694   -4.0191   27.8190 C   0  0  0  0  0  0  0  0  0  0  0  0
    5.1733   -4.5469   29.8123 C   0  0  0  0  0  0  0  0  0  0  0  0
   -1.7508  -11.3016   18.6072 C   0  0  0  0  0  0  0  0  0  0  0  0
    1.7497   -5.6771   26.4971 C   0  0  0  0  0  0  0  0  0  0  0  0
   -1.5799   -9.9322   18.3468 C   0  0  0  0  0  0  0  0  0  0  0  0
   -1.0871  -12.2214   17.8851 C   0  0  0  0  0  0  0  0  0  0  0  0
   -2.2706   -8.9669   19.0691 C   0  0  0  0  0  0  0  0  0  0  0  0
    3.0279   -5.3073   26.8197 C   0  0  0  0  0  0  0  0  0  0  0  0
    7.3282   -3.8948   29.1186 C   0  0  0  0  0  0  0  0  0  0  0  0
  1  3  4  0
  1  7  4  0
  2  3  1  0
  2  6  4  0
  2 16  4  0
  3 22  4  0
  4  9  4  0
  4 10  1  0
  4 20  4  0
  5 16  4  0
  5 23  4  0
  6 15  4  0
  7 12  4  0
  8 13  4  0
  8 14  4  0
  9 11  4  0
 11 14  4  0
 11 19  4  0
 12 18  4  0
 13 21  4  0
 15 23  4  0
 17 19  4  0
 17 20  4  0
 18 22  4  0
 19 21  4  0
M  END
$$$$

 Created by Python create_sdf_string function

 23 25  0  0  0  0  0  0  0  0999 V2000
    2.4610   -5.3070   29.1240 C   0  0  0  0  0  0  0  0  0  0  0  0
    4.7710   -4.6952   28.4803 C   0  0  0  0  0  0  0  0  0  0  0  0
    3.4047   -5.1087   28.1314 C   0  0  0  0  0  0  0  0  0  0  0  0
   -0.2234  -11.8615   16.8874 C   0  0  0  0  0  0  0  0  0  0  0  0
    6.4491   -4.1532   30.1213 C   0  0  0  0  0  0  0  0  0  0  0  0
    5.7060   -4.4340   27.4975 C   0  0  0  0  0  0  0  0  0  0  0  0
    1.1818   -5.6612   28.8399 C   0  0  0  0  0  0  0  0  0  0  0  0
   -1.2067   -7.3287   17.7772 C   0  0  0  0  0  0  0  0  0  0  0  0
   -0.0206  -10.5585   16.6210 C   0  0  0  0  0  0  0  0  0  0  0  0
    0.3696  -12.7626   16.2169 O   0  0  0  0  0  0  0  0  0  0  0  0
   -0.6895   -9.5676   17.3297 C   0  0  0  0  0  0  0  0  0  0  0  0
    0.8388   -5.8417   27.5264 C   0  0  0  0  0  0  0  0  0  0  0  0
   -2.0709   -7.6637   18.7817 C   0  0  0  0  0  0  0  0  0  0  0  0
   -0.5279   -8.2168   17.0717 C   0  0  0  0  0  0  0  0  0  0  0  0
    6.9694   -4.0191   27.8190 C   0  0  0  0  0  0  0  0  0  0  0  0
    5.1733   -4.5469   29.8123 C   0  0  0  0  0  0  0  0  0  0  0  0
   -1.7508  -11.3016   18.6072 C   0  0  0  0  0  0  0  0  0  0  0  0
    1.7497   -5.6771   26.4971 C   0  0  0  0  0  0  0  0  0  0  0  0
   -1.5799   -9.9322   18.3468 C   0  0  0  0  0  0  0  0  0  0  0  0
   -1.0871  -12.2214   17.8851 C   0  0  0  0  0  0  0  0  0  0  0  0
   -2.2706   -8.9669   19.0691 C   0  0  0  0  0  0  0  0  0  0  0  0
    3.0279   -5.3073   26.8197 C   0  0  0  0  0  0  0  0  0  0  0  0
    7.3282   -3.8948   29.1186 C   0  0  0  0  0  0  0  0  0  0  0  0
  1  3  4  0
  1  7  4  0
  2  3  1  0
  2  6  4  0
  2 16  4  0
  3 22  4  0
  4  9  4  0
  4 10  1  0
  4 20  4  0
  5 16  4  0
  5 23  4  0
  6 15  4  0
  7 12  4  0
  8 13  4  0
  8 14  4  0
  9 11  4  0
 11 14  4  0
 11 19  4  0
 12 18  4  0
 13 21  4  0
 15 23  4  0
 17 19  4  0
 17 20  4  0
 18 22  4  0
 19 21  4  0
M  END
$$$$

 Created by Python create_sdf_string function

 23 25  0  0  0  0  0  0  0  0999 V2000
    2.4610   -5.3070   29.1240 C   0  0  0  0  0  0  0  0  0  0  0  0
    4.7710   -4.6952   28.4803 C   0  0  0  0  0  0  0  0  0  0  0  0
    3.4047   -5.1087   28.1314 C   0  0  0  0  0  0  0  0  0  0  0  0
   -0.2234  -11.8615   16.8874 C   0  0  0  0  0  0  0  0  0  0  0  0
    6.4491   -4.1532   30.1213 C   0  0  0  0  0  0  0  0  0  0  0  0
    5.7060   -4.4340   27.4975 C   0  0  0  0  0  0  0  0  0  0  0  0
    1.1818   -5.6612   28.8399 C   0  0  0  0  0  0  0  0  0  0  0  0
   -1.2067   -7.3287   17.7772 C   0  0  0  0  0  0  0  0  0  0  0  0
   -0.0206  -10.5585   16.6210 C   0  0  0  0  0  0  0  0  0  0  0  0
    0.3696  -12.7626   16.2169 O   0  0  0  0  0  0  0  0  0  0  0  0
   -0.6895   -9.5676   17.3297 C   0  0  0  0  0  0  0  0  0  0  0  0
    0.8388   -5.8417   27.5264 C   0  0  0  0  0  0  0  0  0  0  0  0
   -2.0709   -7.6637   18.7817 C   0  0  0  0  0  0  0  0  0  0  0  0
   -0.5279   -8.2168   17.0717 C   0  0  0  0  0  0  0  0  0  0  0  0
    6.9694   -4.0191   27.8190 C   0  0  0  0  0  0  0  0  0  0  0  0
    5.1733   -4.5469   29.8123 C   0  0  0  0  0  0  0  0  0  0  0  0
   -1.7508  -11.3016   18.6072 C   0  0  0  0  0  0  0  0  0  0  0  0
    1.7497   -5.6771   26.4971 C   0  0  0  0  0  0  0  0  0  0  0  0
   -1.5799   -9.9322   18.3468 C   0  0  0  0  0  0  0  0  0  0  0  0
   -1.0871  -12.2214   17.8851 C   0  0  0  0  0  0  0  0  0  0  0  0
   -2.2706   -8.9669   19.0691 C   0  0  0  0  0  0  0  0  0  0  0  0
    3.0279   -5.3073   26.8197 C   0  0  0  0  0  0  0  0  0  0  0  0
    7.3282   -3.8948   29.1186 C   0  0  0  0  0  0  0  0  0  0  0  0
  1  3  4  0
  1  7  4  0
  2  3  1  0
  2  6  4  0
  2 16  4  0
  3 22  4  0
  4  9  4  0
  4 10  1  0
  4 20  4  0
  5 16  4  0
  5 23  4  0
  6 15  4  0
  7 12  4  0
  8 13  4  0
  8 14  4  0
  9 11  4  0
 11 14  4  0
 11 19  4  0
 12 18  4  0
 13 21  4  0
 15 23  4  0
 17 19  4  0
 17 20  4  0
 18 22  4  0
 19 21  4  0
M  END
$$$$

 Created by Python create_sdf_string function

 23 25  0  0  0  0  0  0  0  0999 V2000
    2.4610   -5.3070   29.1240 C   0  0  0  0  0  0  0  0  0  0  0  0
    4.7710   -4.6952   28.4803 C   0  0  0  0  0  0  0  0  0  0  0  0
    3.4047   -5.1087   28.1314 C   0  0  0  0  0  0  0  0  0  0  0  0
   -0.2234  -11.8615   16.8874 C   0  0  0  0  0  0  0  0  0  0  0  0
    6.4491   -4.1532   30.1213 C   0  0  0  0  0  0  0  0  0  0  0  0
    5.7060   -4.4340   27.4975 C   0  0  0  0  0  0  0  0  0  0  0  0
    1.1818   -5.6612   28.8399 C   0  0  0  0  0  0  0  0  0  0  0  0
   -1.2067   -7.3287   17.7772 C   0  0  0  0  0  0  0  0  0  0  0  0
   -0.0206  -10.5585   16.6210 C   0  0  0  0  0  0  0  0  0  0  0  0
    0.3696  -12.7626   16.2169 O   0  0  0  0  0  0  0  0  0  0  0  0
   -0.6895   -9.5676   17.3297 C   0  0  0  0  0  0  0  0  0  0  0  0
    0.8388   -5.8417   27.5264 C   0  0  0  0  0  0  0  0  0  0  0  0
   -2.0709   -7.6637   18.7817 C   0  0  0  0  0  0  0  0  0  0  0  0
   -0.5279   -8.2168   17.0717 C   0  0  0  0  0  0  0  0  0  0  0  0
    6.9694   -4.0191   27.8190 C   0  0  0  0  0  0  0  0  0  0  0  0
    5.1733   -4.5469   29.8123 C   0  0  0  0  0  0  0  0  0  0  0  0
   -1.7508  -11.3016   18.6072 C   0  0  0  0  0  0  0  0  0  0  0  0
    1.7497   -5.6771   26.4971 C   0  0  0  0  0  0  0  0  0  0  0  0
   -1.5799   -9.9322   18.3468 C   0  0  0  0  0  0  0  0  0  0  0  0
   -1.0871  -12.2214   17.8851 C   0  0  0  0  0  0  0  0  0  0  0  0
   -2.2706   -8.9669   19.0691 C   0  0  0  0  0  0  0  0  0  0  0  0
    3.0279   -5.3073   26.8197 C   0  0  0  0  0  0  0  0  0  0  0  0
    7.3282   -3.8948   29.1186 C   0  0  0  0  0  0  0  0  0  0  0  0
  1  3  4  0
  1  7  4  0
  2  3  1  0
  2  6  4  0
  2 16  4  0
  3 22  4  0
  4  9  4  0
  4 10  1  0
  4 20  4  0
  5 16  4  0
  5 23  4  0
  6 15  4  0
  7 12  4  0
  8 13  4  0
  8 14  4  0
  9 11  4  0
 11 14  4  0
 11 19  4  0
 12 18  4  0
 13 21  4  0
 15 23  4  0
 17 19  4  0
 17 20  4  0
 18 22  4  0
 19 21  4  0
M  END
$$$$

 Created by Python create_sdf_string function

 23 25  0  0  0  0  0  0  0  0999 V2000
    2.4610   -5.3070   29.1240 C   0  0  0  0  0  0  0  0  0  0  0  0
    4.7710   -4.6952   28.4803 C   0  0  0  0  0  0  0  0  0  0  0  0
    3.4047   -5.1087   28.1314 C   0  0  0  0  0  0  0  0  0  0  0  0
   -0.2234  -11.8615   16.8874 C   0  0  0  0  0  0  0  0  0  0  0  0
    6.4491   -4.1532   30.1213 C   0  0  0  0  0  0  0  0  0  0  0  0
    5.7060   -4.4340   27.4975 C   0  0  0  0  0  0  0  0  0  0  0  0
    1.1818   -5.6612   28.8399 C   0  0  0  0  0  0  0  0  0  0  0  0
   -1.2067   -7.3287   17.7772 C   0  0  0  0  0  0  0  0  0  0  0  0
   -0.0206  -10.5585   16.6210 C   0  0  0  0  0  0  0  0  0  0  0  0
    0.3696  -12.7626   16.2169 O   0  0  0  0  0  0  0  0  0  0  0  0
   -0.6895   -9.5676   17.3297 C   0  0  0  0  0  0  0  0  0  0  0  0
    0.8388   -5.8417   27.5264 C   0  0  0  0  0  0  0  0  0  0  0  0
   -2.0709   -7.6637   18.7817 C   0  0  0  0  0  0  0  0  0  0  0  0
   -0.5279   -8.2168   17.0717 C   0  0  0  0  0  0  0  0  0  0  0  0
    6.9694   -4.0191   27.8190 C   0  0  0  0  0  0  0  0  0  0  0  0
    5.1733   -4.5469   29.8123 C   0  0  0  0  0  0  0  0  0  0  0  0
   -1.7508  -11.3016   18.6072 C   0  0  0  0  0  0  0  0  0  0  0  0
    1.7497   -5.6771   26.4971 C   0  0  0  0  0  0  0  0  0  0  0  0
   -1.5799   -9.9322   18.3468 C   0  0  0  0  0  0  0  0  0  0  0  0
   -1.0871  -12.2214   17.8851 C   0  0  0  0  0  0  0  0  0  0  0  0
   -2.2706   -8.9669   19.0691 C   0  0  0  0  0  0  0  0  0  0  0  0
    3.0279   -5.3073   26.8197 C   0  0  0  0  0  0  0  0  0  0  0  0
    7.3282   -3.8948   29.1186 C   0  0  0  0  0  0  0  0  0  0  0  0
  1  3  4  0
  1  7  4  0
  2  3  1  0
  2  6  4  0
  2 16  4  0
  3 22  4  0
  4  9  4  0
  4 10  1  0
  4 20  4  0
  5 16  4  0
  5 23  4  0
  6 15  4  0
  7 12  4  0
  8 13  4  0
  8 14  4  0
  9 11  4  0
 11 14  4  0
 11 19  4  0
 12 18  4  0
 13 21  4  0
 15 23  4  0
 17 19  4  0
 17 20  4  0
 18 22  4  0
 19 21  4  0
M  END
$$$$

 Created by Python create_sdf_string function

 23 25  0  0  0  0  0  0  0  0999 V2000
    2.4610   -5.3070   29.1240 C   0  0  0  0  0  0  0  0  0  0  0  0
    4.7710   -4.6952   28.4803 C   0  0  0  0  0  0  0  0  0  0  0  0
    3.4047   -5.1087   28.1314 C   0  0  0  0  0  0  0  0  0  0  0  0
   -0.2234  -11.8615   16.8874 C   0  0  0  0  0  0  0  0  0  0  0  0
    6.4491   -4.1532   30.1213 C   0  0  0  0  0  0  0  0  0  0  0  0
    5.7060   -4.4340   27.4975 C   0  0  0  0  0  0  0  0  0  0  0  0
    1.1818   -5.6612   28.8399 C   0  0  0  0  0  0  0  0  0  0  0  0
   -1.2067   -7.3287   17.7772 C   0  0  0  0  0  0  0  0  0  0  0  0
   -0.0206  -10.5585   16.6210 C   0  0  0  0  0  0  0  0  0  0  0  0
    0.3696  -12.7626   16.2169 O   0  0  0  0  0  0  0  0  0  0  0  0
   -0.6895   -9.5676   17.3297 C   0  0  0  0  0  0  0  0  0  0  0  0
    0.8388   -5.8417   27.5264 C   0  0  0  0  0  0  0  0  0  0  0  0
   -2.0709   -7.6637   18.7817 C   0  0  0  0  0  0  0  0  0  0  0  0
   -0.5279   -8.2168   17.0717 C   0  0  0  0  0  0  0  0  0  0  0  0
    6.9694   -4.0191   27.8190 C   0  0  0  0  0  0  0  0  0  0  0  0
    5.1733   -4.5469   29.8123 C   0  0  0  0  0  0  0  0  0  0  0  0
   -1.7508  -11.3016   18.6072 C   0  0  0  0  0  0  0  0  0  0  0  0
    1.7497   -5.6771   26.4971 C   0  0  0  0  0  0  0  0  0  0  0  0
   -1.5799   -9.9322   18.3468 C   0  0  0  0  0  0  0  0  0  0  0  0
   -1.0871  -12.2214   17.8851 C   0  0  0  0  0  0  0  0  0  0  0  0
   -2.2706   -8.9669   19.0691 C   0  0  0  0  0  0  0  0  0  0  0  0
    3.0279   -5.3073   26.8197 C   0  0  0  0  0  0  0  0  0  0  0  0
    7.3282   -3.8948   29.1186 C   0  0  0  0  0  0  0  0  0  0  0  0
  1  3  4  0
  1  7  4  0
  2  3  1  0
  2  6  4  0
  2 16  4  0
  3 22  4  0
  4  9  4  0
  4 10  1  0
  4 20  4  0
  5 16  4  0
  5 23  4  0
  6 15  4  0
  7 12  4  0
  8 13  4  0
  8 14  4  0
  9 11  4  0
 11 14  4  0
 11 19  4  0
 12 18  4  0
 13 21  4  0
 15 23  4  0
 17 19  4  0
 17 20  4  0
 18 22  4  0
 19 21  4  0
M  END
$$$$

 Created by Python create_sdf_string function

 23 25  0  0  0  0  0  0  0  0999 V2000
    2.4610   -5.3070   29.1240 C   0  0  0  0  0  0  0  0  0  0  0  0
    4.7710   -4.6952   28.4803 C   0  0  0  0  0  0  0  0  0  0  0  0
    3.4047   -5.1087   28.1314 C   0  0  0  0  0  0  0  0  0  0  0  0
   -0.2234  -11.8615   16.8874 C   0  0  0  0  0  0  0  0  0  0  0  0
    6.4491   -4.1532   30.1213 C   0  0  0  0  0  0  0  0  0  0  0  0
    5.7060   -4.4340   27.4975 C   0  0  0  0  0  0  0  0  0  0  0  0
    1.1818   -5.6612   28.8399 C   0  0  0  0  0  0  0  0  0  0  0  0
   -1.2067   -7.3287   17.7772 C   0  0  0  0  0  0  0  0  0  0  0  0
   -0.0206  -10.5585   16.6210 C   0  0  0  0  0  0  0  0  0  0  0  0
    0.3696  -12.7626   16.2169 O   0  0  0  0  0  0  0  0  0  0  0  0
   -0.6895   -9.5676   17.3297 C   0  0  0  0  0  0  0  0  0  0  0  0
    0.8388   -5.8417   27.5264 C   0  0  0  0  0  0  0  0  0  0  0  0
   -2.0709   -7.6637   18.7817 C   0  0  0  0  0  0  0  0  0  0  0  0
   -0.5279   -8.2168   17.0717 C   0  0  0  0  0  0  0  0  0  0  0  0
    6.9694   -4.0191   27.8190 C   0  0  0  0  0  0  0  0  0  0  0  0
    5.1733   -4.5469   29.8123 C   0  0  0  0  0  0  0  0  0  0  0  0
   -1.7508  -11.3016   18.6072 C   0  0  0  0  0  0  0  0  0  0  0  0
    1.7497   -5.6771   26.4971 C   0  0  0  0  0  0  0  0  0  0  0  0
   -1.5799   -9.9322   18.3468 C   0  0  0  0  0  0  0  0  0  0  0  0
   -1.0871  -12.2214   17.8851 C   0  0  0  0  0  0  0  0  0  0  0  0
   -2.2706   -8.9669   19.0691 C   0  0  0  0  0  0  0  0  0  0  0  0
    3.0279   -5.3073   26.8197 C   0  0  0  0  0  0  0  0  0  0  0  0
    7.3282   -3.8948   29.1186 C   0  0  0  0  0  0  0  0  0  0  0  0
  1  3  4  0
  1  7  4  0
  2  3  1  0
  2  6  4  0
  2 16  4  0
  3 22  4  0
  4  9  4  0
  4 10  1  0
  4 20  4  0
  5 16  4  0
  5 23  4  0
  6 15  4  0
  7 12  4  0
  8 13  4  0
  8 14  4  0
  9 11  4  0
 11 14  4  0
 11 19  4  0
 12 18  4  0
 13 21  4  0
 15 23  4  0
 17 19  4  0
 17 20  4  0
 18 22  4  0
 19 21  4  0
M  END
$$$$

 Created by Python create_sdf_string function

 23 25  0  0  0  0  0  0  0  0999 V2000
    2.4610   -5.3070   29.1240 C   0  0  0  0  0  0  0  0  0  0  0  0
    4.7710   -4.6952   28.4803 C   0  0  0  0  0  0  0  0  0  0  0  0
    3.4047   -5.1087   28.1314 C   0  0  0  0  0  0  0  0  0  0  0  0
   -0.2234  -11.8615   16.8874 C   0  0  0  0  0  0  0  0  0  0  0  0
    6.4491   -4.1532   30.1213 C   0  0  0  0  0  0  0  0  0  0  0  0
    5.7060   -4.4340   27.4975 C   0  0  0  0  0  0  0  0  0  0  0  0
    1.1818   -5.6612   28.8399 C   0  0  0  0  0  0  0  0  0  0  0  0
   -1.2067   -7.3287   17.7772 C   0  0  0  0  0  0  0  0  0  0  0  0
   -0.0206  -10.5585   16.6210 C   0  0  0  0  0  0  0  0  0  0  0  0
    0.3696  -12.7626   16.2169 O   0  0  0  0  0  0  0  0  0  0  0  0
   -0.6895   -9.5676   17.3297 C   0  0  0  0  0  0  0  0  0  0  0  0
    0.8388   -5.8417   27.5264 C   0  0  0  0  0  0  0  0  0  0  0  0
   -2.0709   -7.6637   18.7817 C   0  0  0  0  0  0  0  0  0  0  0  0
   -0.5279   -8.2168   17.0717 C   0  0  0  0  0  0  0  0  0  0  0  0
    6.9694   -4.0191   27.8190 C   0  0  0  0  0  0  0  0  0  0  0  0
    5.1733   -4.5469   29.8123 C   0  0  0  0  0  0  0  0  0  0  0  0
   -1.7508  -11.3016   18.6072 C   0  0  0  0  0  0  0  0  0  0  0  0
    1.7497   -5.6771   26.4971 C   0  0  0  0  0  0  0  0  0  0  0  0
   -1.5799   -9.9322   18.3468 C   0  0  0  0  0  0  0  0  0  0  0  0
   -1.0871  -12.2214   17.8851 C   0  0  0  0  0  0  0  0  0  0  0  0
   -2.2706   -8.9669   19.0691 C   0  0  0  0  0  0  0  0  0  0  0  0
    3.0279   -5.3073   26.8197 C   0  0  0  0  0  0  0  0  0  0  0  0
    7.3282   -3.8948   29.1186 C   0  0  0  0  0  0  0  0  0  0  0  0
  1  3  4  0
  1  7  4  0
  2  3  1  0
  2  6  4  0
  2 16  4  0
  3 22  4  0
  4  9  4  0
  4 10  1  0
  4 20  4  0
  5 16  4  0
  5 23  4  0
  6 15  4  0
  7 12  4  0
  8 13  4  0
  8 14  4  0
  9 11  4  0
 11 14  4  0
 11 19  4  0
 12 18  4  0
 13 21  4  0
 15 23  4  0
 17 19  4  0
 17 20  4  0
 18 22  4  0
 19 21  4  0
M  END
$$$$

 Created by Python create_sdf_string function

 23 25  0  0  0  0  0  0  0  0999 V2000
    2.4610   -5.3070   29.1240 C   0  0  0  0  0  0  0  0  0  0  0  0
    4.7710   -4.6952   28.4803 C   0  0  0  0  0  0  0  0  0  0  0  0
    3.4047   -5.1087   28.1314 C   0  0  0  0  0  0  0  0  0  0  0  0
   -0.2234  -11.8615   16.8874 C   0  0  0  0  0  0  0  0  0  0  0  0
    6.4491   -4.1532   30.1213 C   0  0  0  0  0  0  0  0  0  0  0  0
    5.7060   -4.4340   27.4975 C   0  0  0  0  0  0  0  0  0  0  0  0
    1.1818   -5.6612   28.8399 C   0  0  0  0  0  0  0  0  0  0  0  0
   -1.2067   -7.3287   17.7772 C   0  0  0  0  0  0  0  0  0  0  0  0
   -0.0206  -10.5585   16.6210 C   0  0  0  0  0  0  0  0  0  0  0  0
    0.3696  -12.7626   16.2169 O   0  0  0  0  0  0  0  0  0  0  0  0
   -0.6895   -9.5676   17.3297 C   0  0  0  0  0  0  0  0  0  0  0  0
    0.8388   -5.8417   27.5264 C   0  0  0  0  0  0  0  0  0  0  0  0
   -2.0709   -7.6637   18.7817 C   0  0  0  0  0  0  0  0  0  0  0  0
   -0.5279   -8.2168   17.0717 C   0  0  0  0  0  0  0  0  0  0  0  0
    6.9694   -4.0191   27.8190 C   0  0  0  0  0  0  0  0  0  0  0  0
    5.1733   -4.5469   29.8123 C   0  0  0  0  0  0  0  0  0  0  0  0
   -1.7508  -11.3016   18.6072 C   0  0  0  0  0  0  0  0  0  0  0  0
    1.7497   -5.6771   26.4971 C   0  0  0  0  0  0  0  0  0  0  0  0
   -1.5799   -9.9322   18.3468 C   0  0  0  0  0  0  0  0  0  0  0  0
   -1.0871  -12.2214   17.8851 C   0  0  0  0  0  0  0  0  0  0  0  0
   -2.2706   -8.9669   19.0691 C   0  0  0  0  0  0  0  0  0  0  0  0
    3.0279   -5.3073   26.8197 C   0  0  0  0  0  0  0  0  0  0  0  0
    7.3282   -3.8948   29.1186 C   0  0  0  0  0  0  0  0  0  0  0  0
  1  3  4  0
  1  7  4  0
  2  3  1  0
  2  6  4  0
  2 16  4  0
  3 22  4  0
  4  9  4  0
  4 10  1  0
  4 20  4  0
  5 16  4  0
  5 23  4  0
  6 15  4  0
  7 12  4  0
  8 13  4  0
  8 14  4  0
  9 11  4  0
 11 14  4  0
 11 19  4  0
 12 18  4  0
 13 21  4  0
 15 23  4  0
 17 19  4  0
 17 20  4  0
 18 22  4  0
 19 21  4  0
M  END
$$$$

 Created by Python create_sdf_string function

 23 25  0  0  0  0  0  0  0  0999 V2000
    2.4610   -5.3070   29.1240 C   0  0  0  0  0  0  0  0  0  0  0  0
    4.7710   -4.6952   28.4803 C   0  0  0  0  0  0  0  0  0  0  0  0
    3.4047   -5.1087   28.1314 C   0  0  0  0  0  0  0  0  0  0  0  0
   -0.2234  -11.8615   16.8874 C   0  0  0  0  0  0  0  0  0  0  0  0
    6.4491   -4.1532   30.1213 C   0  0  0  0  0  0  0  0  0  0  0  0
    5.7060   -4.4340   27.4975 C   0  0  0  0  0  0  0  0  0  0  0  0
    1.1818   -5.6612   28.8399 C   0  0  0  0  0  0  0  0  0  0  0  0
   -1.2067   -7.3287   17.7772 C   0  0  0  0  0  0  0  0  0  0  0  0
   -0.0206  -10.5585   16.6210 C   0  0  0  0  0  0  0  0  0  0  0  0
    0.3696  -12.7626   16.2169 O   0  0  0  0  0  0  0  0  0  0  0  0
   -0.6895   -9.5676   17.3297 C   0  0  0  0  0  0  0  0  0  0  0  0
    0.8388   -5.8417   27.5264 C   0  0  0  0  0  0  0  0  0  0  0  0
   -2.0709   -7.6637   18.7817 C   0  0  0  0  0  0  0  0  0  0  0  0
   -0.5279   -8.2168   17.0717 C   0  0  0  0  0  0  0  0  0  0  0  0
    6.9694   -4.0191   27.8190 C   0  0  0  0  0  0  0  0  0  0  0  0
    5.1733   -4.5469   29.8123 C   0  0  0  0  0  0  0  0  0  0  0  0
   -1.7508  -11.3016   18.6072 C   0  0  0  0  0  0  0  0  0  0  0  0
    1.7497   -5.6771   26.4971 C   0  0  0  0  0  0  0  0  0  0  0  0
   -1.5799   -9.9322   18.3468 C   0  0  0  0  0  0  0  0  0  0  0  0
   -1.0871  -12.2214   17.8851 C   0  0  0  0  0  0  0  0  0  0  0  0
   -2.2706   -8.9669   19.0691 C   0  0  0  0  0  0  0  0  0  0  0  0
    3.0279   -5.3073   26.8197 C   0  0  0  0  0  0  0  0  0  0  0  0
    7.3282   -3.8948   29.1186 C   0  0  0  0  0  0  0  0  0  0  0  0
  1  3  4  0
  1  7  4  0
  2  3  1  0
  2  6  4  0
  2 16  4  0
  3 22  4  0
  4  9  4  0
  4 10  1  0
  4 20  4  0
  5 16  4  0
  5 23  4  0
  6 15  4  0
  7 12  4  0
  8 13  4  0
  8 14  4  0
  9 11  4  0
 11 14  4  0
 11 19  4  0
 12 18  4  0
 13 21  4  0
 15 23  4  0
 17 19  4  0
 17 20  4  0
 18 22  4  0
 19 21  4  0
M  END
$$$$

 Created by Python create_sdf_string function

 23 25  0  0  0  0  0  0  0  0999 V2000
    2.4610   -5.3070   29.1240 C   0  0  0  0  0  0  0  0  0  0  0  0
    4.7710   -4.6952   28.4803 C   0  0  0  0  0  0  0  0  0  0  0  0
    3.4047   -5.1087   28.1314 C   0  0  0  0  0  0  0  0  0  0  0  0
   -0.2234  -11.8615   16.8874 C   0  0  0  0  0  0  0  0  0  0  0  0
    6.4491   -4.1532   30.1213 C   0  0  0  0  0  0  0  0  0  0  0  0
    5.7060   -4.4340   27.4975 C   0  0  0  0  0  0  0  0  0  0  0  0
    1.1818   -5.6612   28.8399 C   0  0  0  0  0  0  0  0  0  0  0  0
   -1.2067   -7.3287   17.7772 C   0  0  0  0  0  0  0  0  0  0  0  0
   -0.0206  -10.5585   16.6210 C   0  0  0  0  0  0  0  0  0  0  0  0
    0.3696  -12.7626   16.2169 O   0  0  0  0  0  0  0  0  0  0  0  0
   -0.6895   -9.5676   17.3297 C   0  0  0  0  0  0  0  0  0  0  0  0
    0.8388   -5.8417   27.5264 C   0  0  0  0  0  0  0  0  0  0  0  0
   -2.0709   -7.6637   18.7817 C   0  0  0  0  0  0  0  0  0  0  0  0
   -0.5279   -8.2168   17.0717 C   0  0  0  0  0  0  0  0  0  0  0  0
    6.9694   -4.0191   27.8190 C   0  0  0  0  0  0  0  0  0  0  0  0
    5.1733   -4.5469   29.8123 C   0  0  0  0  0  0  0  0  0  0  0  0
   -1.7508  -11.3016   18.6072 C   0  0  0  0  0  0  0  0  0  0  0  0
    1.7497   -5.6771   26.4971 C   0  0  0  0  0  0  0  0  0  0  0  0
   -1.5799   -9.9322   18.3468 C   0  0  0  0  0  0  0  0  0  0  0  0
   -1.0871  -12.2214   17.8851 C   0  0  0  0  0  0  0  0  0  0  0  0
   -2.2706   -8.9669   19.0691 C   0  0  0  0  0  0  0  0  0  0  0  0
    3.0279   -5.3073   26.8197 C   0  0  0  0  0  0  0  0  0  0  0  0
    7.3282   -3.8948   29.1186 C   0  0  0  0  0  0  0  0  0  0  0  0
  1  3  4  0
  1  7  4  0
  2  3  1  0
  2  6  4  0
  2 16  4  0
  3 22  4  0
  4  9  4  0
  4 10  1  0
  4 20  4  0
  5 16  4  0
  5 23  4  0
  6 15  4  0
  7 12  4  0
  8 13  4  0
  8 14  4  0
  9 11  4  0
 11 14  4  0
 11 19  4  0
 12 18  4  0
 13 21  4  0
 15 23  4  0
 17 19  4  0
 17 20  4  0
 18 22  4  0
 19 21  4  0
M  END
$$$$

 Created by Python create_sdf_string function

 23 25  0  0  0  0  0  0  0  0999 V2000
    2.4610   -5.3070   29.1240 C   0  0  0  0  0  0  0  0  0  0  0  0
    4.7710   -4.6952   28.4803 C   0  0  0  0  0  0  0  0  0  0  0  0
    3.4047   -5.1087   28.1314 C   0  0  0  0  0  0  0  0  0  0  0  0
   -0.2234  -11.8615   16.8874 C   0  0  0  0  0  0  0  0  0  0  0  0
    6.4491   -4.1532   30.1213 C   0  0  0  0  0  0  0  0  0  0  0  0
    5.7060   -4.4340   27.4975 C   0  0  0  0  0  0  0  0  0  0  0  0
    1.1818   -5.6612   28.8399 C   0  0  0  0  0  0  0  0  0  0  0  0
   -1.2067   -7.3287   17.7772 C   0  0  0  0  0  0  0  0  0  0  0  0
   -0.0206  -10.5585   16.6210 C   0  0  0  0  0  0  0  0  0  0  0  0
    0.3696  -12.7626   16.2169 O   0  0  0  0  0  0  0  0  0  0  0  0
   -0.6895   -9.5676   17.3297 C   0  0  0  0  0  0  0  0  0  0  0  0
    0.8388   -5.8417   27.5264 C   0  0  0  0  0  0  0  0  0  0  0  0
   -2.0709   -7.6637   18.7817 C   0  0  0  0  0  0  0  0  0  0  0  0
   -0.5279   -8.2168   17.0717 C   0  0  0  0  0  0  0  0  0  0  0  0
    6.9694   -4.0191   27.8190 C   0  0  0  0  0  0  0  0  0  0  0  0
    5.1733   -4.5469   29.8123 C   0  0  0  0  0  0  0  0  0  0  0  0
   -1.7508  -11.3016   18.6072 C   0  0  0  0  0  0  0  0  0  0  0  0
    1.7497   -5.6771   26.4971 C   0  0  0  0  0  0  0  0  0  0  0  0
   -1.5799   -9.9322   18.3468 C   0  0  0  0  0  0  0  0  0  0  0  0
   -1.0871  -12.2214   17.8851 C   0  0  0  0  0  0  0  0  0  0  0  0
   -2.2706   -8.9669   19.0691 C   0  0  0  0  0  0  0  0  0  0  0  0
    3.0279   -5.3073   26.8197 C   0  0  0  0  0  0  0  0  0  0  0  0
    7.3282   -3.8948   29.1186 C   0  0  0  0  0  0  0  0  0  0  0  0
  1  3  4  0
  1  7  4  0
  2  3  1  0
  2  6  4  0
  2 16  4  0
  3 22  4  0
  4  9  4  0
  4 10  1  0
  4 20  4  0
  5 16  4  0
  5 23  4  0
  6 15  4  0
  7 12  4  0
  8 13  4  0
  8 14  4  0
  9 11  4  0
 11 14  4  0
 11 19  4  0
 12 18  4  0
 13 21  4  0
 15 23  4  0
 17 19  4  0
 17 20  4  0
 18 22  4  0
 19 21  4  0
M  END
$$$$

 Created by Python create_sdf_string function

 23 25  0  0  0  0  0  0  0  0999 V2000
    2.4610   -5.3070   29.1240 C   0  0  0  0  0  0  0  0  0  0  0  0
    4.7710   -4.6952   28.4803 C   0  0  0  0  0  0  0  0  0  0  0  0
    3.4047   -5.1087   28.1314 C   0  0  0  0  0  0  0  0  0  0  0  0
   -0.2234  -11.8615   16.8874 C   0  0  0  0  0  0  0  0  0  0  0  0
    6.4491   -4.1532   30.1213 C   0  0  0  0  0  0  0  0  0  0  0  0
    5.7060   -4.4340   27.4975 C   0  0  0  0  0  0  0  0  0  0  0  0
    1.1818   -5.6612   28.8399 C   0  0  0  0  0  0  0  0  0  0  0  0
   -1.2067   -7.3287   17.7772 C   0  0  0  0  0  0  0  0  0  0  0  0
   -0.0206  -10.5585   16.6210 C   0  0  0  0  0  0  0  0  0  0  0  0
    0.3696  -12.7626   16.2169 O   0  0  0  0  0  0  0  0  0  0  0  0
   -0.6895   -9.5676   17.3297 C   0  0  0  0  0  0  0  0  0  0  0  0
    0.8388   -5.8417   27.5264 C   0  0  0  0  0  0  0  0  0  0  0  0
   -2.0709   -7.6637   18.7817 C   0  0  0  0  0  0  0  0  0  0  0  0
   -0.5279   -8.2168   17.0717 C   0  0  0  0  0  0  0  0  0  0  0  0
    6.9694   -4.0191   27.8190 C   0  0  0  0  0  0  0  0  0  0  0  0
    5.1733   -4.5469   29.8123 C   0  0  0  0  0  0  0  0  0  0  0  0
   -1.7508  -11.3016   18.6072 C   0  0  0  0  0  0  0  0  0  0  0  0
    1.7497   -5.6771   26.4971 C   0  0  0  0  0  0  0  0  0  0  0  0
   -1.5799   -9.9322   18.3468 C   0  0  0  0  0  0  0  0  0  0  0  0
   -1.0871  -12.2214   17.8851 C   0  0  0  0  0  0  0  0  0  0  0  0
   -2.2706   -8.9669   19.0691 C   0  0  0  0  0  0  0  0  0  0  0  0
    3.0279   -5.3073   26.8197 C   0  0  0  0  0  0  0  0  0  0  0  0
    7.3282   -3.8948   29.1186 C   0  0  0  0  0  0  0  0  0  0  0  0
  1  3  4  0
  1  7  4  0
  2  3  1  0
  2  6  4  0
  2 16  4  0
  3 22  4  0
  4  9  4  0
  4 10  1  0
  4 20  4  0
  5 16  4  0
  5 23  4  0
  6 15  4  0
  7 12  4  0
  8 13  4  0
  8 14  4  0
  9 11  4  0
 11 14  4  0
 11 19  4  0
 12 18  4  0
 13 21  4  0
 15 23  4  0
 17 19  4  0
 17 20  4  0
 18 22  4  0
 19 21  4  0
M  END
$$$$

 Created by Python create_sdf_string function

 23 25  0  0  0  0  0  0  0  0999 V2000
    2.4610   -5.3070   29.1240 C   0  0  0  0  0  0  0  0  0  0  0  0
    4.7710   -4.6952   28.4803 C   0  0  0  0  0  0  0  0  0  0  0  0
    3.4047   -5.1087   28.1314 C   0  0  0  0  0  0  0  0  0  0  0  0
   -0.2234  -11.8615   16.8874 C   0  0  0  0  0  0  0  0  0  0  0  0
    6.4491   -4.1532   30.1213 C   0  0  0  0  0  0  0  0  0  0  0  0
    5.7060   -4.4340   27.4975 C   0  0  0  0  0  0  0  0  0  0  0  0
    1.1818   -5.6612   28.8399 C   0  0  0  0  0  0  0  0  0  0  0  0
   -1.2067   -7.3287   17.7772 C   0  0  0  0  0  0  0  0  0  0  0  0
   -0.0206  -10.5585   16.6210 C   0  0  0  0  0  0  0  0  0  0  0  0
    0.3696  -12.7626   16.2169 O   0  0  0  0  0  0  0  0  0  0  0  0
   -0.6895   -9.5676   17.3297 C   0  0  0  0  0  0  0  0  0  0  0  0
    0.8388   -5.8417   27.5264 C   0  0  0  0  0  0  0  0  0  0  0  0
   -2.0709   -7.6637   18.7817 C   0  0  0  0  0  0  0  0  0  0  0  0
   -0.5279   -8.2168   17.0717 C   0  0  0  0  0  0  0  0  0  0  0  0
    6.9694   -4.0191   27.8190 C   0  0  0  0  0  0  0  0  0  0  0  0
    5.1733   -4.5469   29.8123 C   0  0  0  0  0  0  0  0  0  0  0  0
   -1.7508  -11.3016   18.6072 C   0  0  0  0  0  0  0  0  0  0  0  0
    1.7497   -5.6771   26.4971 C   0  0  0  0  0  0  0  0  0  0  0  0
   -1.5799   -9.9322   18.3468 C   0  0  0  0  0  0  0  0  0  0  0  0
   -1.0871  -12.2214   17.8851 C   0  0  0  0  0  0  0  0  0  0  0  0
   -2.2706   -8.9669   19.0691 C   0  0  0  0  0  0  0  0  0  0  0  0
    3.0279   -5.3073   26.8197 C   0  0  0  0  0  0  0  0  0  0  0  0
    7.3282   -3.8948   29.1186 C   0  0  0  0  0  0  0  0  0  0  0  0
  1  3  4  0
  1  7  4  0
  2  3  1  0
  2  6  4  0
  2 16  4  0
  3 22  4  0
  4  9  4  0
  4 10  1  0
  4 20  4  0
  5 16  4  0
  5 23  4  0
  6 15  4  0
  7 12  4  0
  8 13  4  0
  8 14  4  0
  9 11  4  0
 11 14  4  0
 11 19  4  0
 12 18  4  0
 13 21  4  0
 15 23  4  0
 17 19  4  0
 17 20  4  0
 18 22  4  0
 19 21  4  0
M  END
$$$$

 Created by Python create_sdf_string function

 23 25  0  0  0  0  0  0  0  0999 V2000
    2.4610   -5.3070   29.1240 C   0  0  0  0  0  0  0  0  0  0  0  0
    4.7710   -4.6952   28.4803 C   0  0  0  0  0  0  0  0  0  0  0  0
    3.4047   -5.1087   28.1314 C   0  0  0  0  0  0  0  0  0  0  0  0
   -0.2234  -11.8615   16.8874 C   0  0  0  0  0  0  0  0  0  0  0  0
    6.4491   -4.1532   30.1213 C   0  0  0  0  0  0  0  0  0  0  0  0
    5.7060   -4.4340   27.4975 C   0  0  0  0  0  0  0  0  0  0  0  0
    1.1818   -5.6612   28.8399 C   0  0  0  0  0  0  0  0  0  0  0  0
   -1.2067   -7.3287   17.7772 C   0  0  0  0  0  0  0  0  0  0  0  0
   -0.0206  -10.5585   16.6210 C   0  0  0  0  0  0  0  0  0  0  0  0
    0.3696  -12.7626   16.2169 O   0  0  0  0  0  0  0  0  0  0  0  0
   -0.6895   -9.5676   17.3297 C   0  0  0  0  0  0  0  0  0  0  0  0
    0.8388   -5.8417   27.5264 C   0  0  0  0  0  0  0  0  0  0  0  0
   -2.0709   -7.6637   18.7817 C   0  0  0  0  0  0  0  0  0  0  0  0
   -0.5279   -8.2168   17.0717 C   0  0  0  0  0  0  0  0  0  0  0  0
    6.9694   -4.0191   27.8190 C   0  0  0  0  0  0  0  0  0  0  0  0
    5.1733   -4.5469   29.8123 C   0  0  0  0  0  0  0  0  0  0  0  0
   -1.7508  -11.3016   18.6072 C   0  0  0  0  0  0  0  0  0  0  0  0
    1.7497   -5.6771   26.4971 C   0  0  0  0  0  0  0  0  0  0  0  0
   -1.5799   -9.9322   18.3468 C   0  0  0  0  0  0  0  0  0  0  0  0
   -1.0871  -12.2214   17.8851 C   0  0  0  0  0  0  0  0  0  0  0  0
   -2.2706   -8.9669   19.0691 C   0  0  0  0  0  0  0  0  0  0  0  0
    3.0279   -5.3073   26.8197 C   0  0  0  0  0  0  0  0  0  0  0  0
    7.3282   -3.8948   29.1186 C   0  0  0  0  0  0  0  0  0  0  0  0
  1  3  4  0
  1  7  4  0
  2  3  1  0
  2  6  4  0
  2 16  4  0
  3 22  4  0
  4  9  4  0
  4 10  1  0
  4 20  4  0
  5 16  4  0
  5 23  4  0
  6 15  4  0
  7 12  4  0
  8 13  4  0
  8 14  4  0
  9 11  4  0
 11 14  4  0
 11 19  4  0
 12 18  4  0
 13 21  4  0
 15 23  4  0
 17 19  4  0
 17 20  4  0
 18 22  4  0
 19 21  4  0
M  END
$$$$

 Created by Python create_sdf_string function

 23 25  0  0  0  0  0  0  0  0999 V2000
    2.4610   -5.3070   29.1240 C   0  0  0  0  0  0  0  0  0  0  0  0
    4.7710   -4.6952   28.4803 C   0  0  0  0  0  0  0  0  0  0  0  0
    3.4047   -5.1087   28.1314 C   0  0  0  0  0  0  0  0  0  0  0  0
   -0.2234  -11.8615   16.8874 C   0  0  0  0  0  0  0  0  0  0  0  0
    6.4491   -4.1532   30.1213 C   0  0  0  0  0  0  0  0  0  0  0  0
    5.7060   -4.4340   27.4975 C   0  0  0  0  0  0  0  0  0  0  0  0
    1.1818   -5.6612   28.8399 C   0  0  0  0  0  0  0  0  0  0  0  0
   -1.2067   -7.3287   17.7772 C   0  0  0  0  0  0  0  0  0  0  0  0
   -0.0206  -10.5585   16.6210 C   0  0  0  0  0  0  0  0  0  0  0  0
    0.3696  -12.7626   16.2169 O   0  0  0  0  0  0  0  0  0  0  0  0
   -0.6895   -9.5676   17.3297 C   0  0  0  0  0  0  0  0  0  0  0  0
    0.8388   -5.8417   27.5264 C   0  0  0  0  0  0  0  0  0  0  0  0
   -2.0709   -7.6637   18.7817 C   0  0  0  0  0  0  0  0  0  0  0  0
   -0.5279   -8.2168   17.0717 C   0  0  0  0  0  0  0  0  0  0  0  0
    6.9694   -4.0191   27.8190 C   0  0  0  0  0  0  0  0  0  0  0  0
    5.1733   -4.5469   29.8123 C   0  0  0  0  0  0  0  0  0  0  0  0
   -1.7508  -11.3016   18.6072 C   0  0  0  0  0  0  0  0  0  0  0  0
    1.7497   -5.6771   26.4971 C   0  0  0  0  0  0  0  0  0  0  0  0
   -1.5799   -9.9322   18.3468 C   0  0  0  0  0  0  0  0  0  0  0  0
   -1.0871  -12.2214   17.8851 C   0  0  0  0  0  0  0  0  0  0  0  0
   -2.2706   -8.9669   19.0691 C   0  0  0  0  0  0  0  0  0  0  0  0
    3.0279   -5.3073   26.8197 C   0  0  0  0  0  0  0  0  0  0  0  0
    7.3282   -3.8948   29.1186 C   0  0  0  0  0  0  0  0  0  0  0  0
  1  3  4  0
  1  7  4  0
  2  3  1  0
  2  6  4  0
  2 16  4  0
  3 22  4  0
  4  9  4  0
  4 10  1  0
  4 20  4  0
  5 16  4  0
  5 23  4  0
  6 15  4  0
  7 12  4  0
  8 13  4  0
  8 14  4  0
  9 11  4  0
 11 14  4  0
 11 19  4  0
 12 18  4  0
 13 21  4  0
 15 23  4  0
 17 19  4  0
 17 20  4  0
 18 22  4  0
 19 21  4  0
M  END
$$$$

 Created by Python create_sdf_string function

 23 25  0  0  0  0  0  0  0  0999 V2000
    2.4610   -5.3070   29.1240 C   0  0  0  0  0  0  0  0  0  0  0  0
    4.7710   -4.6952   28.4803 C   0  0  0  0  0  0  0  0  0  0  0  0
    3.4047   -5.1087   28.1314 C   0  0  0  0  0  0  0  0  0  0  0  0
   -0.2234  -11.8615   16.8874 C   0  0  0  0  0  0  0  0  0  0  0  0
    6.4491   -4.1532   30.1213 C   0  0  0  0  0  0  0  0  0  0  0  0
    5.7060   -4.4340   27.4975 C   0  0  0  0  0  0  0  0  0  0  0  0
    1.1818   -5.6612   28.8399 C   0  0  0  0  0  0  0  0  0  0  0  0
   -1.2067   -7.3287   17.7772 C   0  0  0  0  0  0  0  0  0  0  0  0
   -0.0206  -10.5585   16.6210 C   0  0  0  0  0  0  0  0  0  0  0  0
    0.3696  -12.7626   16.2169 O   0  0  0  0  0  0  0  0  0  0  0  0
   -0.6895   -9.5676   17.3297 C   0  0  0  0  0  0  0  0  0  0  0  0
    0.8388   -5.8417   27.5264 C   0  0  0  0  0  0  0  0  0  0  0  0
   -2.0709   -7.6637   18.7817 C   0  0  0  0  0  0  0  0  0  0  0  0
   -0.5279   -8.2168   17.0717 C   0  0  0  0  0  0  0  0  0  0  0  0
    6.9694   -4.0191   27.8190 C   0  0  0  0  0  0  0  0  0  0  0  0
    5.1733   -4.5469   29.8123 C   0  0  0  0  0  0  0  0  0  0  0  0
   -1.7508  -11.3016   18.6072 C   0  0  0  0  0  0  0  0  0  0  0  0
    1.7497   -5.6771   26.4971 C   0  0  0  0  0  0  0  0  0  0  0  0
   -1.5799   -9.9322   18.3468 C   0  0  0  0  0  0  0  0  0  0  0  0
   -1.0871  -12.2214   17.8851 C   0  0  0  0  0  0  0  0  0  0  0  0
   -2.2706   -8.9669   19.0691 C   0  0  0  0  0  0  0  0  0  0  0  0
    3.0279   -5.3073   26.8197 C   0  0  0  0  0  0  0  0  0  0  0  0
    7.3282   -3.8948   29.1186 C   0  0  0  0  0  0  0  0  0  0  0  0
  1  3  4  0
  1  7  4  0
  2  3  1  0
  2  6  4  0
  2 16  4  0
  3 22  4  0
  4  9  4  0
  4 10  1  0
  4 20  4  0
  5 16  4  0
  5 23  4  0
  6 15  4  0
  7 12  4  0
  8 13  4  0
  8 14  4  0
  9 11  4  0
 11 14  4  0
 11 19  4  0
 12 18  4  0
 13 21  4  0
 15 23  4  0
 17 19  4  0
 17 20  4  0
 18 22  4  0
 19 21  4  0
M  END
$$$$

 Created by Python create_sdf_string function

 23 25  0  0  0  0  0  0  0  0999 V2000
    2.4610   -5.3070   29.1240 C   0  0  0  0  0  0  0  0  0  0  0  0
    4.7710   -4.6952   28.4803 C   0  0  0  0  0  0  0  0  0  0  0  0
    3.4047   -5.1087   28.1314 C   0  0  0  0  0  0  0  0  0  0  0  0
   -0.2234  -11.8615   16.8874 C   0  0  0  0  0  0  0  0  0  0  0  0
    6.4491   -4.1532   30.1213 C   0  0  0  0  0  0  0  0  0  0  0  0
    5.7060   -4.4340   27.4975 C   0  0  0  0  0  0  0  0  0  0  0  0
    1.1818   -5.6612   28.8399 C   0  0  0  0  0  0  0  0  0  0  0  0
   -1.2067   -7.3287   17.7772 C   0  0  0  0  0  0  0  0  0  0  0  0
   -0.0206  -10.5585   16.6210 C   0  0  0  0  0  0  0  0  0  0  0  0
    0.3696  -12.7626   16.2169 O   0  0  0  0  0  0  0  0  0  0  0  0
   -0.6895   -9.5676   17.3297 C   0  0  0  0  0  0  0  0  0  0  0  0
    0.8388   -5.8417   27.5264 C   0  0  0  0  0  0  0  0  0  0  0  0
   -2.0709   -7.6637   18.7817 C   0  0  0  0  0  0  0  0  0  0  0  0
   -0.5279   -8.2168   17.0717 C   0  0  0  0  0  0  0  0  0  0  0  0
    6.9694   -4.0191   27.8190 C   0  0  0  0  0  0  0  0  0  0  0  0
    5.1733   -4.5469   29.8123 C   0  0  0  0  0  0  0  0  0  0  0  0
   -1.7508  -11.3016   18.6072 C   0  0  0  0  0  0  0  0  0  0  0  0
    1.7497   -5.6771   26.4971 C   0  0  0  0  0  0  0  0  0  0  0  0
   -1.5799   -9.9322   18.3468 C   0  0  0  0  0  0  0  0  0  0  0  0
   -1.0871  -12.2214   17.8851 C   0  0  0  0  0  0  0  0  0  0  0  0
   -2.2706   -8.9669   19.0691 C   0  0  0  0  0  0  0  0  0  0  0  0
    3.0279   -5.3073   26.8197 C   0  0  0  0  0  0  0  0  0  0  0  0
    7.3282   -3.8948   29.1186 C   0  0  0  0  0  0  0  0  0  0  0  0
  1  3  4  0
  1  7  4  0
  2  3  1  0
  2  6  4  0
  2 16  4  0
  3 22  4  0
  4  9  4  0
  4 10  1  0
  4 20  4  0
  5 16  4  0
  5 23  4  0
  6 15  4  0
  7 12  4  0
  8 13  4  0
  8 14  4  0
  9 11  4  0
 11 14  4  0
 11 19  4  0
 12 18  4  0
 13 21  4  0
 15 23  4  0
 17 19  4  0
 17 20  4  0
 18 22  4  0
 19 21  4  0
M  END
$$$$

 Created by Python create_sdf_string function

 23 25  0  0  0  0  0  0  0  0999 V2000
    2.4610   -5.3070   29.1240 C   0  0  0  0  0  0  0  0  0  0  0  0
    4.7710   -4.6952   28.4803 C   0  0  0  0  0  0  0  0  0  0  0  0
    3.4047   -5.1087   28.1314 C   0  0  0  0  0  0  0  0  0  0  0  0
   -0.2234  -11.8615   16.8874 C   0  0  0  0  0  0  0  0  0  0  0  0
    6.4491   -4.1532   30.1213 C   0  0  0  0  0  0  0  0  0  0  0  0
    5.7060   -4.4340   27.4975 C   0  0  0  0  0  0  0  0  0  0  0  0
    1.1818   -5.6612   28.8399 C   0  0  0  0  0  0  0  0  0  0  0  0
   -1.2067   -7.3287   17.7772 C   0  0  0  0  0  0  0  0  0  0  0  0
   -0.0206  -10.5585   16.6210 C   0  0  0  0  0  0  0  0  0  0  0  0
    0.3696  -12.7626   16.2169 O   0  0  0  0  0  0  0  0  0  0  0  0
   -0.6895   -9.5676   17.3297 C   0  0  0  0  0  0  0  0  0  0  0  0
    0.8388   -5.8417   27.5264 C   0  0  0  0  0  0  0  0  0  0  0  0
   -2.0709   -7.6637   18.7817 C   0  0  0  0  0  0  0  0  0  0  0  0
   -0.5279   -8.2168   17.0717 C   0  0  0  0  0  0  0  0  0  0  0  0
    6.9694   -4.0191   27.8190 C   0  0  0  0  0  0  0  0  0  0  0  0
    5.1733   -4.5469   29.8123 C   0  0  0  0  0  0  0  0  0  0  0  0
   -1.7508  -11.3016   18.6072 C   0  0  0  0  0  0  0  0  0  0  0  0
    1.7497   -5.6771   26.4971 C   0  0  0  0  0  0  0  0  0  0  0  0
   -1.5799   -9.9322   18.3468 C   0  0  0  0  0  0  0  0  0  0  0  0
   -1.0871  -12.2214   17.8851 C   0  0  0  0  0  0  0  0  0  0  0  0
   -2.2706   -8.9669   19.0691 C   0  0  0  0  0  0  0  0  0  0  0  0
    3.0279   -5.3073   26.8197 C   0  0  0  0  0  0  0  0  0  0  0  0
    7.3282   -3.8948   29.1186 C   0  0  0  0  0  0  0  0  0  0  0  0
  1  3  4  0
  1  7  4  0
  2  3  1  0
  2  6  4  0
  2 16  4  0
  3 22  4  0
  4  9  4  0
  4 10  1  0
  4 20  4  0
  5 16  4  0
  5 23  4  0
  6 15  4  0
  7 12  4  0
  8 13  4  0
  8 14  4  0
  9 11  4  0
 11 14  4  0
 11 19  4  0
 12 18  4  0
 13 21  4  0
 15 23  4  0
 17 19  4  0
 17 20  4  0
 18 22  4  0
 19 21  4  0
M  END
$$$$

 Created by Python create_sdf_string function

 23 25  0  0  0  0  0  0  0  0999 V2000
    2.4610   -5.3070   29.1240 C   0  0  0  0  0  0  0  0  0  0  0  0
    4.7710   -4.6952   28.4803 C   0  0  0  0  0  0  0  0  0  0  0  0
    3.4047   -5.1087   28.1314 C   0  0  0  0  0  0  0  0  0  0  0  0
   -0.2234  -11.8615   16.8874 C   0  0  0  0  0  0  0  0  0  0  0  0
    6.4491   -4.1532   30.1213 C   0  0  0  0  0  0  0  0  0  0  0  0
    5.7060   -4.4340   27.4975 C   0  0  0  0  0  0  0  0  0  0  0  0
    1.1818   -5.6612   28.8399 C   0  0  0  0  0  0  0  0  0  0  0  0
   -1.2067   -7.3287   17.7772 C   0  0  0  0  0  0  0  0  0  0  0  0
   -0.0206  -10.5585   16.6210 C   0  0  0  0  0  0  0  0  0  0  0  0
    0.3696  -12.7626   16.2169 O   0  0  0  0  0  0  0  0  0  0  0  0
   -0.6895   -9.5676   17.3297 C   0  0  0  0  0  0  0  0  0  0  0  0
    0.8388   -5.8417   27.5264 C   0  0  0  0  0  0  0  0  0  0  0  0
   -2.0709   -7.6637   18.7817 C   0  0  0  0  0  0  0  0  0  0  0  0
   -0.5279   -8.2168   17.0717 C   0  0  0  0  0  0  0  0  0  0  0  0
    6.9694   -4.0191   27.8190 C   0  0  0  0  0  0  0  0  0  0  0  0
    5.1733   -4.5469   29.8123 C   0  0  0  0  0  0  0  0  0  0  0  0
   -1.7508  -11.3016   18.6072 C   0  0  0  0  0  0  0  0  0  0  0  0
    1.7497   -5.6771   26.4971 C   0  0  0  0  0  0  0  0  0  0  0  0
   -1.5799   -9.9322   18.3468 C   0  0  0  0  0  0  0  0  0  0  0  0
   -1.0871  -12.2214   17.8851 C   0  0  0  0  0  0  0  0  0  0  0  0
   -2.2706   -8.9669   19.0691 C   0  0  0  0  0  0  0  0  0  0  0  0
    3.0279   -5.3073   26.8197 C   0  0  0  0  0  0  0  0  0  0  0  0
    7.3282   -3.8948   29.1186 C   0  0  0  0  0  0  0  0  0  0  0  0
  1  3  4  0
  1  7  4  0
  2  3  1  0
  2  6  4  0
  2 16  4  0
  3 22  4  0
  4  9  4  0
  4 10  1  0
  4 20  4  0
  5 16  4  0
  5 23  4  0
  6 15  4  0
  7 12  4  0
  8 13  4  0
  8 14  4  0
  9 11  4  0
 11 14  4  0
 11 19  4  0
 12 18  4  0
 13 21  4  0
 15 23  4  0
 17 19  4  0
 17 20  4  0
 18 22  4  0
 19 21  4  0
M  END
$$$$

 Created by Python create_sdf_string function

 23 25  0  0  0  0  0  0  0  0999 V2000
    2.4610   -5.3070   29.1240 C   0  0  0  0  0  0  0  0  0  0  0  0
    4.7710   -4.6952   28.4803 C   0  0  0  0  0  0  0  0  0  0  0  0
    3.4047   -5.1087   28.1314 C   0  0  0  0  0  0  0  0  0  0  0  0
   -0.2234  -11.8615   16.8874 C   0  0  0  0  0  0  0  0  0  0  0  0
    6.4491   -4.1532   30.1213 C   0  0  0  0  0  0  0  0  0  0  0  0
    5.7060   -4.4340   27.4975 C   0  0  0  0  0  0  0  0  0  0  0  0
    1.1818   -5.6612   28.8399 C   0  0  0  0  0  0  0  0  0  0  0  0
   -1.2067   -7.3287   17.7772 C   0  0  0  0  0  0  0  0  0  0  0  0
   -0.0206  -10.5585   16.6210 C   0  0  0  0  0  0  0  0  0  0  0  0
    0.3696  -12.7626   16.2169 O   0  0  0  0  0  0  0  0  0  0  0  0
   -0.6895   -9.5676   17.3297 C   0  0  0  0  0  0  0  0  0  0  0  0
    0.8388   -5.8417   27.5264 C   0  0  0  0  0  0  0  0  0  0  0  0
   -2.0709   -7.6637   18.7817 C   0  0  0  0  0  0  0  0  0  0  0  0
   -0.5279   -8.2168   17.0717 C   0  0  0  0  0  0  0  0  0  0  0  0
    6.9694   -4.0191   27.8190 C   0  0  0  0  0  0  0  0  0  0  0  0
    5.1733   -4.5469   29.8123 C   0  0  0  0  0  0  0  0  0  0  0  0
   -1.7508  -11.3016   18.6072 C   0  0  0  0  0  0  0  0  0  0  0  0
    1.7497   -5.6771   26.4971 C   0  0  0  0  0  0  0  0  0  0  0  0
   -1.5799   -9.9322   18.3468 C   0  0  0  0  0  0  0  0  0  0  0  0
   -1.0871  -12.2214   17.8851 C   0  0  0  0  0  0  0  0  0  0  0  0
   -2.2706   -8.9669   19.0691 C   0  0  0  0  0  0  0  0  0  0  0  0
    3.0279   -5.3073   26.8197 C   0  0  0  0  0  0  0  0  0  0  0  0
    7.3282   -3.8948   29.1186 C   0  0  0  0  0  0  0  0  0  0  0  0
  1  3  4  0
  1  7  4  0
  2  3  1  0
  2  6  4  0
  2 16  4  0
  3 22  4  0
  4  9  4  0
  4 10  1  0
  4 20  4  0
  5 16  4  0
  5 23  4  0
  6 15  4  0
  7 12  4  0
  8 13  4  0
  8 14  4  0
  9 11  4  0
 11 14  4  0
 11 19  4  0
 12 18  4  0
 13 21  4  0
 15 23  4  0
 17 19  4  0
 17 20  4  0
 18 22  4  0
 19 21  4  0
M  END
$$$$

 Created by Python create_sdf_string function

 23 25  0  0  0  0  0  0  0  0999 V2000
    2.4610   -5.3070   29.1240 C   0  0  0  0  0  0  0  0  0  0  0  0
    4.7710   -4.6952   28.4803 C   0  0  0  0  0  0  0  0  0  0  0  0
    3.4047   -5.1087   28.1314 C   0  0  0  0  0  0  0  0  0  0  0  0
   -0.2234  -11.8615   16.8874 C   0  0  0  0  0  0  0  0  0  0  0  0
    6.4491   -4.1532   30.1213 C   0  0  0  0  0  0  0  0  0  0  0  0
    5.7060   -4.4340   27.4975 C   0  0  0  0  0  0  0  0  0  0  0  0
    1.1818   -5.6612   28.8399 C   0  0  0  0  0  0  0  0  0  0  0  0
   -1.2067   -7.3287   17.7772 C   0  0  0  0  0  0  0  0  0  0  0  0
   -0.0206  -10.5585   16.6210 C   0  0  0  0  0  0  0  0  0  0  0  0
    0.3696  -12.7626   16.2169 O   0  0  0  0  0  0  0  0  0  0  0  0
   -0.6895   -9.5676   17.3297 C   0  0  0  0  0  0  0  0  0  0  0  0
    0.8388   -5.8417   27.5264 C   0  0  0  0  0  0  0  0  0  0  0  0
   -2.0709   -7.6637   18.7817 C   0  0  0  0  0  0  0  0  0  0  0  0
   -0.5279   -8.2168   17.0717 C   0  0  0  0  0  0  0  0  0  0  0  0
    6.9694   -4.0191   27.8190 C   0  0  0  0  0  0  0  0  0  0  0  0
    5.1733   -4.5469   29.8123 C   0  0  0  0  0  0  0  0  0  0  0  0
   -1.7508  -11.3016   18.6072 C   0  0  0  0  0  0  0  0  0  0  0  0
    1.7497   -5.6771   26.4971 C   0  0  0  0  0  0  0  0  0  0  0  0
   -1.5799   -9.9322   18.3468 C   0  0  0  0  0  0  0  0  0  0  0  0
   -1.0871  -12.2214   17.8851 C   0  0  0  0  0  0  0  0  0  0  0  0
   -2.2706   -8.9669   19.0691 C   0  0  0  0  0  0  0  0  0  0  0  0
    3.0279   -5.3073   26.8197 C   0  0  0  0  0  0  0  0  0  0  0  0
    7.3282   -3.8948   29.1186 C   0  0  0  0  0  0  0  0  0  0  0  0
  1  3  4  0
  1  7  4  0
  2  3  1  0
  2  6  4  0
  2 16  4  0
  3 22  4  0
  4  9  4  0
  4 10  1  0
  4 20  4  0
  5 16  4  0
  5 23  4  0
  6 15  4  0
  7 12  4  0
  8 13  4  0
  8 14  4  0
  9 11  4  0
 11 14  4  0
 11 19  4  0
 12 18  4  0
 13 21  4  0
 15 23  4  0
 17 19  4  0
 17 20  4  0
 18 22  4  0
 19 21  4  0
M  END
$$$$

 Created by Python create_sdf_string function

 23 25  0  0  0  0  0  0  0  0999 V2000
    2.4610   -5.3070   29.1240 C   0  0  0  0  0  0  0  0  0  0  0  0
    4.7710   -4.6952   28.4803 C   0  0  0  0  0  0  0  0  0  0  0  0
    3.4047   -5.1087   28.1314 C   0  0  0  0  0  0  0  0  0  0  0  0
   -0.2234  -11.8615   16.8874 C   0  0  0  0  0  0  0  0  0  0  0  0
    6.4491   -4.1532   30.1213 C   0  0  0  0  0  0  0  0  0  0  0  0
    5.7060   -4.4340   27.4975 C   0  0  0  0  0  0  0  0  0  0  0  0
    1.1818   -5.6612   28.8399 C   0  0  0  0  0  0  0  0  0  0  0  0
   -1.2067   -7.3287   17.7772 C   0  0  0  0  0  0  0  0  0  0  0  0
   -0.0206  -10.5585   16.6210 C   0  0  0  0  0  0  0  0  0  0  0  0
    0.3696  -12.7626   16.2169 O   0  0  0  0  0  0  0  0  0  0  0  0
   -0.6895   -9.5676   17.3297 C   0  0  0  0  0  0  0  0  0  0  0  0
    0.8388   -5.8417   27.5264 C   0  0  0  0  0  0  0  0  0  0  0  0
   -2.0709   -7.6637   18.7817 C   0  0  0  0  0  0  0  0  0  0  0  0
   -0.5279   -8.2168   17.0717 C   0  0  0  0  0  0  0  0  0  0  0  0
    6.9694   -4.0191   27.8190 C   0  0  0  0  0  0  0  0  0  0  0  0
    5.1733   -4.5469   29.8123 C   0  0  0  0  0  0  0  0  0  0  0  0
   -1.7508  -11.3016   18.6072 C   0  0  0  0  0  0  0  0  0  0  0  0
    1.7497   -5.6771   26.4971 C   0  0  0  0  0  0  0  0  0  0  0  0
   -1.5799   -9.9322   18.3468 C   0  0  0  0  0  0  0  0  0  0  0  0
   -1.0871  -12.2214   17.8851 C   0  0  0  0  0  0  0  0  0  0  0  0
   -2.2706   -8.9669   19.0691 C   0  0  0  0  0  0  0  0  0  0  0  0
    3.0279   -5.3073   26.8197 C   0  0  0  0  0  0  0  0  0  0  0  0
    7.3282   -3.8948   29.1186 C   0  0  0  0  0  0  0  0  0  0  0  0
  1  3  4  0
  1  7  4  0
  2  3  1  0
  2  6  4  0
  2 16  4  0
  3 22  4  0
  4  9  4  0
  4 10  1  0
  4 20  4  0
  5 16  4  0
  5 23  4  0
  6 15  4  0
  7 12  4  0
  8 13  4  0
  8 14  4  0
  9 11  4  0
 11 14  4  0
 11 19  4  0
 12 18  4  0
 13 21  4  0
 15 23  4  0
 17 19  4  0
 17 20  4  0
 18 22  4  0
 19 21  4  0
M  END
$$$$

 Created by Python create_sdf_string function

 23 25  0  0  0  0  0  0  0  0999 V2000
    2.4610   -5.3070   29.1240 C   0  0  0  0  0  0  0  0  0  0  0  0
    4.7710   -4.6952   28.4803 C   0  0  0  0  0  0  0  0  0  0  0  0
    3.4047   -5.1087   28.1314 C   0  0  0  0  0  0  0  0  0  0  0  0
   -0.2234  -11.8615   16.8874 C   0  0  0  0  0  0  0  0  0  0  0  0
    6.4491   -4.1532   30.1213 C   0  0  0  0  0  0  0  0  0  0  0  0
    5.7060   -4.4340   27.4975 C   0  0  0  0  0  0  0  0  0  0  0  0
    1.1818   -5.6612   28.8399 C   0  0  0  0  0  0  0  0  0  0  0  0
   -1.2067   -7.3287   17.7772 C   0  0  0  0  0  0  0  0  0  0  0  0
   -0.0206  -10.5585   16.6210 C   0  0  0  0  0  0  0  0  0  0  0  0
    0.3696  -12.7626   16.2169 O   0  0  0  0  0  0  0  0  0  0  0  0
   -0.6895   -9.5676   17.3297 C   0  0  0  0  0  0  0  0  0  0  0  0
    0.8388   -5.8417   27.5264 C   0  0  0  0  0  0  0  0  0  0  0  0
   -2.0709   -7.6637   18.7817 C   0  0  0  0  0  0  0  0  0  0  0  0
   -0.5279   -8.2168   17.0717 C   0  0  0  0  0  0  0  0  0  0  0  0
    6.9694   -4.0191   27.8190 C   0  0  0  0  0  0  0  0  0  0  0  0
    5.1733   -4.5469   29.8123 C   0  0  0  0  0  0  0  0  0  0  0  0
   -1.7508  -11.3016   18.6072 C   0  0  0  0  0  0  0  0  0  0  0  0
    1.7497   -5.6771   26.4971 C   0  0  0  0  0  0  0  0  0  0  0  0
   -1.5799   -9.9322   18.3468 C   0  0  0  0  0  0  0  0  0  0  0  0
   -1.0871  -12.2214   17.8851 C   0  0  0  0  0  0  0  0  0  0  0  0
   -2.2706   -8.9669   19.0691 C   0  0  0  0  0  0  0  0  0  0  0  0
    3.0279   -5.3073   26.8197 C   0  0  0  0  0  0  0  0  0  0  0  0
    7.3282   -3.8948   29.1186 C   0  0  0  0  0  0  0  0  0  0  0  0
  1  3  4  0
  1  7  4  0
  2  3  1  0
  2  6  4  0
  2 16  4  0
  3 22  4  0
  4  9  4  0
  4 10  1  0
  4 20  4  0
  5 16  4  0
  5 23  4  0
  6 15  4  0
  7 12  4  0
  8 13  4  0
  8 14  4  0
  9 11  4  0
 11 14  4  0
 11 19  4  0
 12 18  4  0
 13 21  4  0
 15 23  4  0
 17 19  4  0
 17 20  4  0
 18 22  4  0
 19 21  4  0
M  END
$$$$

 Created by Python create_sdf_string function

 23 25  0  0  0  0  0  0  0  0999 V2000
    2.4610   -5.3070   29.1240 C   0  0  0  0  0  0  0  0  0  0  0  0
    4.7710   -4.6952   28.4803 C   0  0  0  0  0  0  0  0  0  0  0  0
    3.4047   -5.1087   28.1314 C   0  0  0  0  0  0  0  0  0  0  0  0
   -0.2234  -11.8615   16.8874 C   0  0  0  0  0  0  0  0  0  0  0  0
    6.4491   -4.1532   30.1213 C   0  0  0  0  0  0  0  0  0  0  0  0
    5.7060   -4.4340   27.4975 C   0  0  0  0  0  0  0  0  0  0  0  0
    1.1818   -5.6612   28.8399 C   0  0  0  0  0  0  0  0  0  0  0  0
   -1.2067   -7.3287   17.7772 C   0  0  0  0  0  0  0  0  0  0  0  0
   -0.0206  -10.5585   16.6210 C   0  0  0  0  0  0  0  0  0  0  0  0
    0.3696  -12.7626   16.2169 O   0  0  0  0  0  0  0  0  0  0  0  0
   -0.6895   -9.5676   17.3297 C   0  0  0  0  0  0  0  0  0  0  0  0
    0.8388   -5.8417   27.5264 C   0  0  0  0  0  0  0  0  0  0  0  0
   -2.0709   -7.6637   18.7817 C   0  0  0  0  0  0  0  0  0  0  0  0
   -0.5279   -8.2168   17.0717 C   0  0  0  0  0  0  0  0  0  0  0  0
    6.9694   -4.0191   27.8190 C   0  0  0  0  0  0  0  0  0  0  0  0
    5.1733   -4.5469   29.8123 C   0  0  0  0  0  0  0  0  0  0  0  0
   -1.7508  -11.3016   18.6072 C   0  0  0  0  0  0  0  0  0  0  0  0
    1.7497   -5.6771   26.4971 C   0  0  0  0  0  0  0  0  0  0  0  0
   -1.5799   -9.9322   18.3468 C   0  0  0  0  0  0  0  0  0  0  0  0
   -1.0871  -12.2214   17.8851 C   0  0  0  0  0  0  0  0  0  0  0  0
   -2.2706   -8.9669   19.0691 C   0  0  0  0  0  0  0  0  0  0  0  0
    3.0279   -5.3073   26.8197 C   0  0  0  0  0  0  0  0  0  0  0  0
    7.3282   -3.8948   29.1186 C   0  0  0  0  0  0  0  0  0  0  0  0
  1  3  4  0
  1  7  4  0
  2  3  1  0
  2  6  4  0
  2 16  4  0
  3 22  4  0
  4  9  4  0
  4 10  1  0
  4 20  4  0
  5 16  4  0
  5 23  4  0
  6 15  4  0
  7 12  4  0
  8 13  4  0
  8 14  4  0
  9 11  4  0
 11 14  4  0
 11 19  4  0
 12 18  4  0
 13 21  4  0
 15 23  4  0
 17 19  4  0
 17 20  4  0
 18 22  4  0
 19 21  4  0
M  END
$$$$

 Created by Python create_sdf_string function

 23 25  0  0  0  0  0  0  0  0999 V2000
    2.4610   -5.3070   29.1240 C   0  0  0  0  0  0  0  0  0  0  0  0
    4.7710   -4.6952   28.4803 C   0  0  0  0  0  0  0  0  0  0  0  0
    3.4047   -5.1087   28.1314 C   0  0  0  0  0  0  0  0  0  0  0  0
   -0.2234  -11.8615   16.8874 C   0  0  0  0  0  0  0  0  0  0  0  0
    6.4491   -4.1532   30.1213 C   0  0  0  0  0  0  0  0  0  0  0  0
    5.7060   -4.4340   27.4975 C   0  0  0  0  0  0  0  0  0  0  0  0
    1.1818   -5.6612   28.8399 C   0  0  0  0  0  0  0  0  0  0  0  0
   -1.2067   -7.3287   17.7772 C   0  0  0  0  0  0  0  0  0  0  0  0
   -0.0206  -10.5585   16.6210 C   0  0  0  0  0  0  0  0  0  0  0  0
    0.3696  -12.7626   16.2169 O   0  0  0  0  0  0  0  0  0  0  0  0
   -0.6895   -9.5676   17.3297 C   0  0  0  0  0  0  0  0  0  0  0  0
    0.8388   -5.8417   27.5264 C   0  0  0  0  0  0  0  0  0  0  0  0
   -2.0709   -7.6637   18.7817 C   0  0  0  0  0  0  0  0  0  0  0  0
   -0.5279   -8.2168   17.0717 C   0  0  0  0  0  0  0  0  0  0  0  0
    6.9694   -4.0191   27.8190 C   0  0  0  0  0  0  0  0  0  0  0  0
    5.1733   -4.5469   29.8123 C   0  0  0  0  0  0  0  0  0  0  0  0
   -1.7508  -11.3016   18.6072 C   0  0  0  0  0  0  0  0  0  0  0  0
    1.7497   -5.6771   26.4971 C   0  0  0  0  0  0  0  0  0  0  0  0
   -1.5799   -9.9322   18.3468 C   0  0  0  0  0  0  0  0  0  0  0  0
   -1.0871  -12.2214   17.8851 C   0  0  0  0  0  0  0  0  0  0  0  0
   -2.2706   -8.9669   19.0691 C   0  0  0  0  0  0  0  0  0  0  0  0
    3.0279   -5.3073   26.8197 C   0  0  0  0  0  0  0  0  0  0  0  0
    7.3282   -3.8948   29.1186 C   0  0  0  0  0  0  0  0  0  0  0  0
  1  3  4  0
  1  7  4  0
  2  3  1  0
  2  6  4  0
  2 16  4  0
  3 22  4  0
  4  9  4  0
  4 10  1  0
  4 20  4  0
  5 16  4  0
  5 23  4  0
  6 15  4  0
  7 12  4  0
  8 13  4  0
  8 14  4  0
  9 11  4  0
 11 14  4  0
 11 19  4  0
 12 18  4  0
 13 21  4  0
 15 23  4  0
 17 19  4  0
 17 20  4  0
 18 22  4  0
 19 21  4  0
M  END
$$$$

 Created by Python create_sdf_string function

 23 25  0  0  0  0  0  0  0  0999 V2000
    2.4610   -5.3070   29.1240 C   0  0  0  0  0  0  0  0  0  0  0  0
    4.7710   -4.6952   28.4803 C   0  0  0  0  0  0  0  0  0  0  0  0
    3.4047   -5.1087   28.1314 C   0  0  0  0  0  0  0  0  0  0  0  0
   -0.2234  -11.8615   16.8874 C   0  0  0  0  0  0  0  0  0  0  0  0
    6.4491   -4.1532   30.1213 C   0  0  0  0  0  0  0  0  0  0  0  0
    5.7060   -4.4340   27.4975 C   0  0  0  0  0  0  0  0  0  0  0  0
    1.1818   -5.6612   28.8399 C   0  0  0  0  0  0  0  0  0  0  0  0
   -1.2067   -7.3287   17.7772 C   0  0  0  0  0  0  0  0  0  0  0  0
   -0.0206  -10.5585   16.6210 C   0  0  0  0  0  0  0  0  0  0  0  0
    0.3696  -12.7626   16.2169 O   0  0  0  0  0  0  0  0  0  0  0  0
   -0.6895   -9.5676   17.3297 C   0  0  0  0  0  0  0  0  0  0  0  0
    0.8388   -5.8417   27.5264 C   0  0  0  0  0  0  0  0  0  0  0  0
   -2.0709   -7.6637   18.7817 C   0  0  0  0  0  0  0  0  0  0  0  0
   -0.5279   -8.2168   17.0717 C   0  0  0  0  0  0  0  0  0  0  0  0
    6.9694   -4.0191   27.8190 C   0  0  0  0  0  0  0  0  0  0  0  0
    5.1733   -4.5469   29.8123 C   0  0  0  0  0  0  0  0  0  0  0  0
   -1.7508  -11.3016   18.6072 C   0  0  0  0  0  0  0  0  0  0  0  0
    1.7497   -5.6771   26.4971 C   0  0  0  0  0  0  0  0  0  0  0  0
   -1.5799   -9.9322   18.3468 C   0  0  0  0  0  0  0  0  0  0  0  0
   -1.0871  -12.2214   17.8851 C   0  0  0  0  0  0  0  0  0  0  0  0
   -2.2706   -8.9669   19.0691 C   0  0  0  0  0  0  0  0  0  0  0  0
    3.0279   -5.3073   26.8197 C   0  0  0  0  0  0  0  0  0  0  0  0
    7.3282   -3.8948   29.1186 C   0  0  0  0  0  0  0  0  0  0  0  0
  1  3  4  0
  1  7  4  0
  2  3  1  0
  2  6  4  0
  2 16  4  0
  3 22  4  0
  4  9  4  0
  4 10  1  0
  4 20  4  0
  5 16  4  0
  5 23  4  0
  6 15  4  0
  7 12  4  0
  8 13  4  0
  8 14  4  0
  9 11  4  0
 11 14  4  0
 11 19  4  0
 12 18  4  0
 13 21  4  0
 15 23  4  0
 17 19  4  0
 17 20  4  0
 18 22  4  0
 19 21  4  0
M  END
$$$$

 Created by Python create_sdf_string function

 23 25  0  0  0  0  0  0  0  0999 V2000
    2.4610   -5.3070   29.1240 C   0  0  0  0  0  0  0  0  0  0  0  0
    4.7710   -4.6952   28.4803 C   0  0  0  0  0  0  0  0  0  0  0  0
    3.4047   -5.1087   28.1314 C   0  0  0  0  0  0  0  0  0  0  0  0
   -0.2234  -11.8615   16.8874 C   0  0  0  0  0  0  0  0  0  0  0  0
    6.4491   -4.1532   30.1213 C   0  0  0  0  0  0  0  0  0  0  0  0
    5.7060   -4.4340   27.4975 C   0  0  0  0  0  0  0  0  0  0  0  0
    1.1818   -5.6612   28.8399 C   0  0  0  0  0  0  0  0  0  0  0  0
   -1.2067   -7.3287   17.7772 C   0  0  0  0  0  0  0  0  0  0  0  0
   -0.0206  -10.5585   16.6210 C   0  0  0  0  0  0  0  0  0  0  0  0
    0.3696  -12.7626   16.2169 O   0  0  0  0  0  0  0  0  0  0  0  0
   -0.6895   -9.5676   17.3297 C   0  0  0  0  0  0  0  0  0  0  0  0
    0.8388   -5.8417   27.5264 C   0  0  0  0  0  0  0  0  0  0  0  0
   -2.0709   -7.6637   18.7817 C   0  0  0  0  0  0  0  0  0  0  0  0
   -0.5279   -8.2168   17.0717 C   0  0  0  0  0  0  0  0  0  0  0  0
    6.9694   -4.0191   27.8190 C   0  0  0  0  0  0  0  0  0  0  0  0
    5.1733   -4.5469   29.8123 C   0  0  0  0  0  0  0  0  0  0  0  0
   -1.7508  -11.3016   18.6072 C   0  0  0  0  0  0  0  0  0  0  0  0
    1.7497   -5.6771   26.4971 C   0  0  0  0  0  0  0  0  0  0  0  0
   -1.5799   -9.9322   18.3468 C   0  0  0  0  0  0  0  0  0  0  0  0
   -1.0871  -12.2214   17.8851 C   0  0  0  0  0  0  0  0  0  0  0  0
   -2.2706   -8.9669   19.0691 C   0  0  0  0  0  0  0  0  0  0  0  0
    3.0279   -5.3073   26.8197 C   0  0  0  0  0  0  0  0  0  0  0  0
    7.3282   -3.8948   29.1186 C   0  0  0  0  0  0  0  0  0  0  0  0
  1  3  4  0
  1  7  4  0
  2  3  1  0
  2  6  4  0
  2 16  4  0
  3 22  4  0
  4  9  4  0
  4 10  1  0
  4 20  4  0
  5 16  4  0
  5 23  4  0
  6 15  4  0
  7 12  4  0
  8 13  4  0
  8 14  4  0
  9 11  4  0
 11 14  4  0
 11 19  4  0
 12 18  4  0
 13 21  4  0
 15 23  4  0
 17 19  4  0
 17 20  4  0
 18 22  4  0
 19 21  4  0
M  END
$$$$

 Created by Python create_sdf_string function

 23 25  0  0  0  0  0  0  0  0999 V2000
    2.4610   -5.3070   29.1240 C   0  0  0  0  0  0  0  0  0  0  0  0
    4.7710   -4.6952   28.4803 C   0  0  0  0  0  0  0  0  0  0  0  0
    3.4047   -5.1087   28.1314 C   0  0  0  0  0  0  0  0  0  0  0  0
   -0.2234  -11.8615   16.8874 C   0  0  0  0  0  0  0  0  0  0  0  0
    6.4491   -4.1532   30.1213 C   0  0  0  0  0  0  0  0  0  0  0  0
    5.7060   -4.4340   27.4975 C   0  0  0  0  0  0  0  0  0  0  0  0
    1.1818   -5.6612   28.8399 C   0  0  0  0  0  0  0  0  0  0  0  0
   -1.2067   -7.3287   17.7772 C   0  0  0  0  0  0  0  0  0  0  0  0
   -0.0206  -10.5585   16.6210 C   0  0  0  0  0  0  0  0  0  0  0  0
    0.3696  -12.7626   16.2169 O   0  0  0  0  0  0  0  0  0  0  0  0
   -0.6895   -9.5676   17.3297 C   0  0  0  0  0  0  0  0  0  0  0  0
    0.8388   -5.8417   27.5264 C   0  0  0  0  0  0  0  0  0  0  0  0
   -2.0709   -7.6637   18.7817 C   0  0  0  0  0  0  0  0  0  0  0  0
   -0.5279   -8.2168   17.0717 C   0  0  0  0  0  0  0  0  0  0  0  0
    6.9694   -4.0191   27.8190 C   0  0  0  0  0  0  0  0  0  0  0  0
    5.1733   -4.5469   29.8123 C   0  0  0  0  0  0  0  0  0  0  0  0
   -1.7508  -11.3016   18.6072 C   0  0  0  0  0  0  0  0  0  0  0  0
    1.7497   -5.6771   26.4971 C   0  0  0  0  0  0  0  0  0  0  0  0
   -1.5799   -9.9322   18.3468 C   0  0  0  0  0  0  0  0  0  0  0  0
   -1.0871  -12.2214   17.8851 C   0  0  0  0  0  0  0  0  0  0  0  0
   -2.2706   -8.9669   19.0691 C   0  0  0  0  0  0  0  0  0  0  0  0
    3.0279   -5.3073   26.8197 C   0  0  0  0  0  0  0  0  0  0  0  0
    7.3282   -3.8948   29.1186 C   0  0  0  0  0  0  0  0  0  0  0  0
  1  3  4  0
  1  7  4  0
  2  3  1  0
  2  6  4  0
  2 16  4  0
  3 22  4  0
  4  9  4  0
  4 10  1  0
  4 20  4  0
  5 16  4  0
  5 23  4  0
  6 15  4  0
  7 12  4  0
  8 13  4  0
  8 14  4  0
  9 11  4  0
 11 14  4  0
 11 19  4  0
 12 18  4  0
 13 21  4  0
 15 23  4  0
 17 19  4  0
 17 20  4  0
 18 22  4  0
 19 21  4  0
M  END
$$$$

 Created by Python create_sdf_string function

 23 25  0  0  0  0  0  0  0  0999 V2000
    2.4610   -5.3070   29.1240 C   0  0  0  0  0  0  0  0  0  0  0  0
    4.7710   -4.6952   28.4803 C   0  0  0  0  0  0  0  0  0  0  0  0
    3.4047   -5.1087   28.1314 C   0  0  0  0  0  0  0  0  0  0  0  0
   -0.2234  -11.8615   16.8874 C   0  0  0  0  0  0  0  0  0  0  0  0
    6.4491   -4.1532   30.1213 C   0  0  0  0  0  0  0  0  0  0  0  0
    5.7060   -4.4340   27.4975 C   0  0  0  0  0  0  0  0  0  0  0  0
    1.1818   -5.6612   28.8399 C   0  0  0  0  0  0  0  0  0  0  0  0
   -1.2067   -7.3287   17.7772 C   0  0  0  0  0  0  0  0  0  0  0  0
   -0.0206  -10.5585   16.6210 C   0  0  0  0  0  0  0  0  0  0  0  0
    0.3696  -12.7626   16.2169 O   0  0  0  0  0  0  0  0  0  0  0  0
   -0.6895   -9.5676   17.3297 C   0  0  0  0  0  0  0  0  0  0  0  0
    0.8388   -5.8417   27.5264 C   0  0  0  0  0  0  0  0  0  0  0  0
   -2.0709   -7.6637   18.7817 C   0  0  0  0  0  0  0  0  0  0  0  0
   -0.5279   -8.2168   17.0717 C   0  0  0  0  0  0  0  0  0  0  0  0
    6.9694   -4.0191   27.8190 C   0  0  0  0  0  0  0  0  0  0  0  0
    5.1733   -4.5469   29.8123 C   0  0  0  0  0  0  0  0  0  0  0  0
   -1.7508  -11.3016   18.6072 C   0  0  0  0  0  0  0  0  0  0  0  0
    1.7497   -5.6771   26.4971 C   0  0  0  0  0  0  0  0  0  0  0  0
   -1.5799   -9.9322   18.3468 C   0  0  0  0  0  0  0  0  0  0  0  0
   -1.0871  -12.2214   17.8851 C   0  0  0  0  0  0  0  0  0  0  0  0
   -2.2706   -8.9669   19.0691 C   0  0  0  0  0  0  0  0  0  0  0  0
    3.0279   -5.3073   26.8197 C   0  0  0  0  0  0  0  0  0  0  0  0
    7.3282   -3.8948   29.1186 C   0  0  0  0  0  0  0  0  0  0  0  0
  1  3  4  0
  1  7  4  0
  2  3  1  0
  2  6  4  0
  2 16  4  0
  3 22  4  0
  4  9  4  0
  4 10  1  0
  4 20  4  0
  5 16  4  0
  5 23  4  0
  6 15  4  0
  7 12  4  0
  8 13  4  0
  8 14  4  0
  9 11  4  0
 11 14  4  0
 11 19  4  0
 12 18  4  0
 13 21  4  0
 15 23  4  0
 17 19  4  0
 17 20  4  0
 18 22  4  0
 19 21  4  0
M  END
$$$$

 Created by Python create_sdf_string function

 23 25  0  0  0  0  0  0  0  0999 V2000
    2.4610   -5.3070   29.1240 C   0  0  0  0  0  0  0  0  0  0  0  0
    4.7710   -4.6952   28.4803 C   0  0  0  0  0  0  0  0  0  0  0  0
    3.4047   -5.1087   28.1314 C   0  0  0  0  0  0  0  0  0  0  0  0
   -0.2234  -11.8615   16.8874 C   0  0  0  0  0  0  0  0  0  0  0  0
    6.4491   -4.1532   30.1213 C   0  0  0  0  0  0  0  0  0  0  0  0
    5.7060   -4.4340   27.4975 C   0  0  0  0  0  0  0  0  0  0  0  0
    1.1818   -5.6612   28.8399 C   0  0  0  0  0  0  0  0  0  0  0  0
   -1.2067   -7.3287   17.7772 C   0  0  0  0  0  0  0  0  0  0  0  0
   -0.0206  -10.5585   16.6210 C   0  0  0  0  0  0  0  0  0  0  0  0
    0.3696  -12.7626   16.2169 O   0  0  0  0  0  0  0  0  0  0  0  0
   -0.6895   -9.5676   17.3297 C   0  0  0  0  0  0  0  0  0  0  0  0
    0.8388   -5.8417   27.5264 C   0  0  0  0  0  0  0  0  0  0  0  0
   -2.0709   -7.6637   18.7817 C   0  0  0  0  0  0  0  0  0  0  0  0
   -0.5279   -8.2168   17.0717 C   0  0  0  0  0  0  0  0  0  0  0  0
    6.9694   -4.0191   27.8190 C   0  0  0  0  0  0  0  0  0  0  0  0
    5.1733   -4.5469   29.8123 C   0  0  0  0  0  0  0  0  0  0  0  0
   -1.7508  -11.3016   18.6072 C   0  0  0  0  0  0  0  0  0  0  0  0
    1.7497   -5.6771   26.4971 C   0  0  0  0  0  0  0  0  0  0  0  0
   -1.5799   -9.9322   18.3468 C   0  0  0  0  0  0  0  0  0  0  0  0
   -1.0871  -12.2214   17.8851 C   0  0  0  0  0  0  0  0  0  0  0  0
   -2.2706   -8.9669   19.0691 C   0  0  0  0  0  0  0  0  0  0  0  0
    3.0279   -5.3073   26.8197 C   0  0  0  0  0  0  0  0  0  0  0  0
    7.3282   -3.8948   29.1186 C   0  0  0  0  0  0  0  0  0  0  0  0
  1  3  4  0
  1  7  4  0
  2  3  1  0
  2  6  4  0
  2 16  4  0
  3 22  4  0
  4  9  4  0
  4 10  1  0
  4 20  4  0
  5 16  4  0
  5 23  4  0
  6 15  4  0
  7 12  4  0
  8 13  4  0
  8 14  4  0
  9 11  4  0
 11 14  4  0
 11 19  4  0
 12 18  4  0
 13 21  4  0
 15 23  4  0
 17 19  4  0
 17 20  4  0
 18 22  4  0
 19 21  4  0
M  END
$$$$

 Created by Python create_sdf_string function

 23 25  0  0  0  0  0  0  0  0999 V2000
    2.4610   -5.3070   29.1240 C   0  0  0  0  0  0  0  0  0  0  0  0
    4.7710   -4.6952   28.4803 C   0  0  0  0  0  0  0  0  0  0  0  0
    3.4047   -5.1087   28.1314 C   0  0  0  0  0  0  0  0  0  0  0  0
   -0.2234  -11.8615   16.8874 C   0  0  0  0  0  0  0  0  0  0  0  0
    6.4491   -4.1532   30.1213 C   0  0  0  0  0  0  0  0  0  0  0  0
    5.7060   -4.4340   27.4975 C   0  0  0  0  0  0  0  0  0  0  0  0
    1.1818   -5.6612   28.8399 C   0  0  0  0  0  0  0  0  0  0  0  0
   -1.2067   -7.3287   17.7772 C   0  0  0  0  0  0  0  0  0  0  0  0
   -0.0206  -10.5585   16.6210 C   0  0  0  0  0  0  0  0  0  0  0  0
    0.3696  -12.7626   16.2169 O   0  0  0  0  0  0  0  0  0  0  0  0
   -0.6895   -9.5676   17.3297 C   0  0  0  0  0  0  0  0  0  0  0  0
    0.8388   -5.8417   27.5264 C   0  0  0  0  0  0  0  0  0  0  0  0
   -2.0709   -7.6637   18.7817 C   0  0  0  0  0  0  0  0  0  0  0  0
   -0.5279   -8.2168   17.0717 C   0  0  0  0  0  0  0  0  0  0  0  0
    6.9694   -4.0191   27.8190 C   0  0  0  0  0  0  0  0  0  0  0  0
    5.1733   -4.5469   29.8123 C   0  0  0  0  0  0  0  0  0  0  0  0
   -1.7508  -11.3016   18.6072 C   0  0  0  0  0  0  0  0  0  0  0  0
    1.7497   -5.6771   26.4971 C   0  0  0  0  0  0  0  0  0  0  0  0
   -1.5799   -9.9322   18.3468 C   0  0  0  0  0  0  0  0  0  0  0  0
   -1.0871  -12.2214   17.8851 C   0  0  0  0  0  0  0  0  0  0  0  0
   -2.2706   -8.9669   19.0691 C   0  0  0  0  0  0  0  0  0  0  0  0
    3.0279   -5.3073   26.8197 C   0  0  0  0  0  0  0  0  0  0  0  0
    7.3282   -3.8948   29.1186 C   0  0  0  0  0  0  0  0  0  0  0  0
  1  3  4  0
  1  7  4  0
  2  3  1  0
  2  6  4  0
  2 16  4  0
  3 22  4  0
  4  9  4  0
  4 10  1  0
  4 20  4  0
  5 16  4  0
  5 23  4  0
  6 15  4  0
  7 12  4  0
  8 13  4  0
  8 14  4  0
  9 11  4  0
 11 14  4  0
 11 19  4  0
 12 18  4  0
 13 21  4  0
 15 23  4  0
 17 19  4  0
 17 20  4  0
 18 22  4  0
 19 21  4  0
M  END
$$$$

 Created by Python create_sdf_string function

 23 25  0  0  0  0  0  0  0  0999 V2000
    2.4610   -5.3070   29.1240 C   0  0  0  0  0  0  0  0  0  0  0  0
    4.7710   -4.6952   28.4803 C   0  0  0  0  0  0  0  0  0  0  0  0
    3.4047   -5.1087   28.1314 C   0  0  0  0  0  0  0  0  0  0  0  0
   -0.2234  -11.8615   16.8874 C   0  0  0  0  0  0  0  0  0  0  0  0
    6.4491   -4.1532   30.1213 C   0  0  0  0  0  0  0  0  0  0  0  0
    5.7060   -4.4340   27.4975 C   0  0  0  0  0  0  0  0  0  0  0  0
    1.1818   -5.6612   28.8399 C   0  0  0  0  0  0  0  0  0  0  0  0
   -1.2067   -7.3287   17.7772 C   0  0  0  0  0  0  0  0  0  0  0  0
   -0.0206  -10.5585   16.6210 C   0  0  0  0  0  0  0  0  0  0  0  0
    0.3696  -12.7626   16.2169 O   0  0  0  0  0  0  0  0  0  0  0  0
   -0.6895   -9.5676   17.3297 C   0  0  0  0  0  0  0  0  0  0  0  0
    0.8388   -5.8417   27.5264 C   0  0  0  0  0  0  0  0  0  0  0  0
   -2.0709   -7.6637   18.7817 C   0  0  0  0  0  0  0  0  0  0  0  0
   -0.5279   -8.2168   17.0717 C   0  0  0  0  0  0  0  0  0  0  0  0
    6.9694   -4.0191   27.8190 C   0  0  0  0  0  0  0  0  0  0  0  0
    5.1733   -4.5469   29.8123 C   0  0  0  0  0  0  0  0  0  0  0  0
   -1.7508  -11.3016   18.6072 C   0  0  0  0  0  0  0  0  0  0  0  0
    1.7497   -5.6771   26.4971 C   0  0  0  0  0  0  0  0  0  0  0  0
   -1.5799   -9.9322   18.3468 C   0  0  0  0  0  0  0  0  0  0  0  0
   -1.0871  -12.2214   17.8851 C   0  0  0  0  0  0  0  0  0  0  0  0
   -2.2706   -8.9669   19.0691 C   0  0  0  0  0  0  0  0  0  0  0  0
    3.0279   -5.3073   26.8197 C   0  0  0  0  0  0  0  0  0  0  0  0
    7.3282   -3.8948   29.1186 C   0  0  0  0  0  0  0  0  0  0  0  0
  1  3  4  0
  1  7  4  0
  2  3  1  0
  2  6  4  0
  2 16  4  0
  3 22  4  0
  4  9  4  0
  4 10  1  0
  4 20  4  0
  5 16  4  0
  5 23  4  0
  6 15  4  0
  7 12  4  0
  8 13  4  0
  8 14  4  0
  9 11  4  0
 11 14  4  0
 11 19  4  0
 12 18  4  0
 13 21  4  0
 15 23  4  0
 17 19  4  0
 17 20  4  0
 18 22  4  0
 19 21  4  0
M  END
$$$$

 Created by Python create_sdf_string function

 23 25  0  0  0  0  0  0  0  0999 V2000
    2.4610   -5.3070   29.1240 C   0  0  0  0  0  0  0  0  0  0  0  0
    4.7710   -4.6952   28.4803 C   0  0  0  0  0  0  0  0  0  0  0  0
    3.4047   -5.1087   28.1314 C   0  0  0  0  0  0  0  0  0  0  0  0
   -0.2234  -11.8615   16.8874 C   0  0  0  0  0  0  0  0  0  0  0  0
    6.4491   -4.1532   30.1213 C   0  0  0  0  0  0  0  0  0  0  0  0
    5.7060   -4.4340   27.4975 C   0  0  0  0  0  0  0  0  0  0  0  0
    1.1818   -5.6612   28.8399 C   0  0  0  0  0  0  0  0  0  0  0  0
   -1.2067   -7.3287   17.7772 C   0  0  0  0  0  0  0  0  0  0  0  0
   -0.0206  -10.5585   16.6210 C   0  0  0  0  0  0  0  0  0  0  0  0
    0.3696  -12.7626   16.2169 O   0  0  0  0  0  0  0  0  0  0  0  0
   -0.6895   -9.5676   17.3297 C   0  0  0  0  0  0  0  0  0  0  0  0
    0.8388   -5.8417   27.5264 C   0  0  0  0  0  0  0  0  0  0  0  0
   -2.0709   -7.6637   18.7817 C   0  0  0  0  0  0  0  0  0  0  0  0
   -0.5279   -8.2168   17.0717 C   0  0  0  0  0  0  0  0  0  0  0  0
    6.9694   -4.0191   27.8190 C   0  0  0  0  0  0  0  0  0  0  0  0
    5.1733   -4.5469   29.8123 C   0  0  0  0  0  0  0  0  0  0  0  0
   -1.7508  -11.3016   18.6072 C   0  0  0  0  0  0  0  0  0  0  0  0
    1.7497   -5.6771   26.4971 C   0  0  0  0  0  0  0  0  0  0  0  0
   -1.5799   -9.9322   18.3468 C   0  0  0  0  0  0  0  0  0  0  0  0
   -1.0871  -12.2214   17.8851 C   0  0  0  0  0  0  0  0  0  0  0  0
   -2.2706   -8.9669   19.0691 C   0  0  0  0  0  0  0  0  0  0  0  0
    3.0279   -5.3073   26.8197 C   0  0  0  0  0  0  0  0  0  0  0  0
    7.3282   -3.8948   29.1186 C   0  0  0  0  0  0  0  0  0  0  0  0
  1  3  4  0
  1  7  4  0
  2  3  1  0
  2  6  4  0
  2 16  4  0
  3 22  4  0
  4  9  4  0
  4 10  1  0
  4 20  4  0
  5 16  4  0
  5 23  4  0
  6 15  4  0
  7 12  4  0
  8 13  4  0
  8 14  4  0
  9 11  4  0
 11 14  4  0
 11 19  4  0
 12 18  4  0
 13 21  4  0
 15 23  4  0
 17 19  4  0
 17 20  4  0
 18 22  4  0
 19 21  4  0
M  END
$$$$

 Created by Python create_sdf_string function

 23 25  0  0  0  0  0  0  0  0999 V2000
    2.4610   -5.3070   29.1240 C   0  0  0  0  0  0  0  0  0  0  0  0
    4.7710   -4.6952   28.4803 C   0  0  0  0  0  0  0  0  0  0  0  0
    3.4047   -5.1087   28.1314 C   0  0  0  0  0  0  0  0  0  0  0  0
   -0.2234  -11.8615   16.8874 C   0  0  0  0  0  0  0  0  0  0  0  0
    6.4491   -4.1532   30.1213 C   0  0  0  0  0  0  0  0  0  0  0  0
    5.7060   -4.4340   27.4975 C   0  0  0  0  0  0  0  0  0  0  0  0
    1.1818   -5.6612   28.8399 C   0  0  0  0  0  0  0  0  0  0  0  0
   -1.2067   -7.3287   17.7772 C   0  0  0  0  0  0  0  0  0  0  0  0
   -0.0206  -10.5585   16.6210 C   0  0  0  0  0  0  0  0  0  0  0  0
    0.3696  -12.7626   16.2169 O   0  0  0  0  0  0  0  0  0  0  0  0
   -0.6895   -9.5676   17.3297 C   0  0  0  0  0  0  0  0  0  0  0  0
    0.8388   -5.8417   27.5264 C   0  0  0  0  0  0  0  0  0  0  0  0
   -2.0709   -7.6637   18.7817 C   0  0  0  0  0  0  0  0  0  0  0  0
   -0.5279   -8.2168   17.0717 C   0  0  0  0  0  0  0  0  0  0  0  0
    6.9694   -4.0191   27.8190 C   0  0  0  0  0  0  0  0  0  0  0  0
    5.1733   -4.5469   29.8123 C   0  0  0  0  0  0  0  0  0  0  0  0
   -1.7508  -11.3016   18.6072 C   0  0  0  0  0  0  0  0  0  0  0  0
    1.7497   -5.6771   26.4971 C   0  0  0  0  0  0  0  0  0  0  0  0
   -1.5799   -9.9322   18.3468 C   0  0  0  0  0  0  0  0  0  0  0  0
   -1.0871  -12.2214   17.8851 C   0  0  0  0  0  0  0  0  0  0  0  0
   -2.2706   -8.9669   19.0691 C   0  0  0  0  0  0  0  0  0  0  0  0
    3.0279   -5.3073   26.8197 C   0  0  0  0  0  0  0  0  0  0  0  0
    7.3282   -3.8948   29.1186 C   0  0  0  0  0  0  0  0  0  0  0  0
  1  3  4  0
  1  7  4  0
  2  3  1  0
  2  6  4  0
  2 16  4  0
  3 22  4  0
  4  9  4  0
  4 10  1  0
  4 20  4  0
  5 16  4  0
  5 23  4  0
  6 15  4  0
  7 12  4  0
  8 13  4  0
  8 14  4  0
  9 11  4  0
 11 14  4  0
 11 19  4  0
 12 18  4  0
 13 21  4  0
 15 23  4  0
 17 19  4  0
 17 20  4  0
 18 22  4  0
 19 21  4  0
M  END
$$$$

 Created by Python create_sdf_string function

 23 25  0  0  0  0  0  0  0  0999 V2000
    2.4610   -5.3070   29.1240 C   0  0  0  0  0  0  0  0  0  0  0  0
    4.7710   -4.6952   28.4803 C   0  0  0  0  0  0  0  0  0  0  0  0
    3.4047   -5.1087   28.1314 C   0  0  0  0  0  0  0  0  0  0  0  0
   -0.2234  -11.8615   16.8874 C   0  0  0  0  0  0  0  0  0  0  0  0
    6.4491   -4.1532   30.1213 C   0  0  0  0  0  0  0  0  0  0  0  0
    5.7060   -4.4340   27.4975 C   0  0  0  0  0  0  0  0  0  0  0  0
    1.1818   -5.6612   28.8399 C   0  0  0  0  0  0  0  0  0  0  0  0
   -1.2067   -7.3287   17.7772 C   0  0  0  0  0  0  0  0  0  0  0  0
   -0.0206  -10.5585   16.6210 C   0  0  0  0  0  0  0  0  0  0  0  0
    0.3696  -12.7626   16.2169 O   0  0  0  0  0  0  0  0  0  0  0  0
   -0.6895   -9.5676   17.3297 C   0  0  0  0  0  0  0  0  0  0  0  0
    0.8388   -5.8417   27.5264 C   0  0  0  0  0  0  0  0  0  0  0  0
   -2.0709   -7.6637   18.7817 C   0  0  0  0  0  0  0  0  0  0  0  0
   -0.5279   -8.2168   17.0717 C   0  0  0  0  0  0  0  0  0  0  0  0
    6.9694   -4.0191   27.8190 C   0  0  0  0  0  0  0  0  0  0  0  0
    5.1733   -4.5469   29.8123 C   0  0  0  0  0  0  0  0  0  0  0  0
   -1.7508  -11.3016   18.6072 C   0  0  0  0  0  0  0  0  0  0  0  0
    1.7497   -5.6771   26.4971 C   0  0  0  0  0  0  0  0  0  0  0  0
   -1.5799   -9.9322   18.3468 C   0  0  0  0  0  0  0  0  0  0  0  0
   -1.0871  -12.2214   17.8851 C   0  0  0  0  0  0  0  0  0  0  0  0
   -2.2706   -8.9669   19.0691 C   0  0  0  0  0  0  0  0  0  0  0  0
    3.0279   -5.3073   26.8197 C   0  0  0  0  0  0  0  0  0  0  0  0
    7.3282   -3.8948   29.1186 C   0  0  0  0  0  0  0  0  0  0  0  0
  1  3  4  0
  1  7  4  0
  2  3  1  0
  2  6  4  0
  2 16  4  0
  3 22  4  0
  4  9  4  0
  4 10  1  0
  4 20  4  0
  5 16  4  0
  5 23  4  0
  6 15  4  0
  7 12  4  0
  8 13  4  0
  8 14  4  0
  9 11  4  0
 11 14  4  0
 11 19  4  0
 12 18  4  0
 13 21  4  0
 15 23  4  0
 17 19  4  0
 17 20  4  0
 18 22  4  0
 19 21  4  0
M  END
$$$$

 Created by Python create_sdf_string function

 23 25  0  0  0  0  0  0  0  0999 V2000
    2.4610   -5.3070   29.1240 C   0  0  0  0  0  0  0  0  0  0  0  0
    4.7710   -4.6952   28.4803 C   0  0  0  0  0  0  0  0  0  0  0  0
    3.4047   -5.1087   28.1314 C   0  0  0  0  0  0  0  0  0  0  0  0
   -0.2234  -11.8615   16.8874 C   0  0  0  0  0  0  0  0  0  0  0  0
    6.4491   -4.1532   30.1213 C   0  0  0  0  0  0  0  0  0  0  0  0
    5.7060   -4.4340   27.4975 C   0  0  0  0  0  0  0  0  0  0  0  0
    1.1818   -5.6612   28.8399 C   0  0  0  0  0  0  0  0  0  0  0  0
   -1.2067   -7.3287   17.7772 C   0  0  0  0  0  0  0  0  0  0  0  0
   -0.0206  -10.5585   16.6210 C   0  0  0  0  0  0  0  0  0  0  0  0
    0.3696  -12.7626   16.2169 O   0  0  0  0  0  0  0  0  0  0  0  0
   -0.6895   -9.5676   17.3297 C   0  0  0  0  0  0  0  0  0  0  0  0
    0.8388   -5.8417   27.5264 C   0  0  0  0  0  0  0  0  0  0  0  0
   -2.0709   -7.6637   18.7817 C   0  0  0  0  0  0  0  0  0  0  0  0
   -0.5279   -8.2168   17.0717 C   0  0  0  0  0  0  0  0  0  0  0  0
    6.9694   -4.0191   27.8190 C   0  0  0  0  0  0  0  0  0  0  0  0
    5.1733   -4.5469   29.8123 C   0  0  0  0  0  0  0  0  0  0  0  0
   -1.7508  -11.3016   18.6072 C   0  0  0  0  0  0  0  0  0  0  0  0
    1.7497   -5.6771   26.4971 C   0  0  0  0  0  0  0  0  0  0  0  0
   -1.5799   -9.9322   18.3468 C   0  0  0  0  0  0  0  0  0  0  0  0
   -1.0871  -12.2214   17.8851 C   0  0  0  0  0  0  0  0  0  0  0  0
   -2.2706   -8.9669   19.0691 C   0  0  0  0  0  0  0  0  0  0  0  0
    3.0279   -5.3073   26.8197 C   0  0  0  0  0  0  0  0  0  0  0  0
    7.3282   -3.8948   29.1186 C   0  0  0  0  0  0  0  0  0  0  0  0
  1  3  4  0
  1  7  4  0
  2  3  1  0
  2  6  4  0
  2 16  4  0
  3 22  4  0
  4  9  4  0
  4 10  1  0
  4 20  4  0
  5 16  4  0
  5 23  4  0
  6 15  4  0
  7 12  4  0
  8 13  4  0
  8 14  4  0
  9 11  4  0
 11 14  4  0
 11 19  4  0
 12 18  4  0
 13 21  4  0
 15 23  4  0
 17 19  4  0
 17 20  4  0
 18 22  4  0
 19 21  4  0
M  END
$$$$

 Created by Python create_sdf_string function

 23 25  0  0  0  0  0  0  0  0999 V2000
    2.4610   -5.3070   29.1240 C   0  0  0  0  0  0  0  0  0  0  0  0
    4.7710   -4.6952   28.4803 C   0  0  0  0  0  0  0  0  0  0  0  0
    3.4047   -5.1087   28.1314 C   0  0  0  0  0  0  0  0  0  0  0  0
   -0.2234  -11.8615   16.8874 C   0  0  0  0  0  0  0  0  0  0  0  0
    6.4491   -4.1532   30.1213 C   0  0  0  0  0  0  0  0  0  0  0  0
    5.7060   -4.4340   27.4975 C   0  0  0  0  0  0  0  0  0  0  0  0
    1.1818   -5.6612   28.8399 C   0  0  0  0  0  0  0  0  0  0  0  0
   -1.2067   -7.3287   17.7772 C   0  0  0  0  0  0  0  0  0  0  0  0
   -0.0206  -10.5585   16.6210 C   0  0  0  0  0  0  0  0  0  0  0  0
    0.3696  -12.7626   16.2169 O   0  0  0  0  0  0  0  0  0  0  0  0
   -0.6895   -9.5676   17.3297 C   0  0  0  0  0  0  0  0  0  0  0  0
    0.8388   -5.8417   27.5264 C   0  0  0  0  0  0  0  0  0  0  0  0
   -2.0709   -7.6637   18.7817 C   0  0  0  0  0  0  0  0  0  0  0  0
   -0.5279   -8.2168   17.0717 C   0  0  0  0  0  0  0  0  0  0  0  0
    6.9694   -4.0191   27.8190 C   0  0  0  0  0  0  0  0  0  0  0  0
    5.1733   -4.5469   29.8123 C   0  0  0  0  0  0  0  0  0  0  0  0
   -1.7508  -11.3016   18.6072 C   0  0  0  0  0  0  0  0  0  0  0  0
    1.7497   -5.6771   26.4971 C   0  0  0  0  0  0  0  0  0  0  0  0
   -1.5799   -9.9322   18.3468 C   0  0  0  0  0  0  0  0  0  0  0  0
   -1.0871  -12.2214   17.8851 C   0  0  0  0  0  0  0  0  0  0  0  0
   -2.2706   -8.9669   19.0691 C   0  0  0  0  0  0  0  0  0  0  0  0
    3.0279   -5.3073   26.8197 C   0  0  0  0  0  0  0  0  0  0  0  0
    7.3282   -3.8948   29.1186 C   0  0  0  0  0  0  0  0  0  0  0  0
  1  3  4  0
  1  7  4  0
  2  3  1  0
  2  6  4  0
  2 16  4  0
  3 22  4  0
  4  9  4  0
  4 10  1  0
  4 20  4  0
  5 16  4  0
  5 23  4  0
  6 15  4  0
  7 12  4  0
  8 13  4  0
  8 14  4  0
  9 11  4  0
 11 14  4  0
 11 19  4  0
 12 18  4  0
 13 21  4  0
 15 23  4  0
 17 19  4  0
 17 20  4  0
 18 22  4  0
 19 21  4  0
M  END
$$$$

 Created by Python create_sdf_string function

 23 25  0  0  0  0  0  0  0  0999 V2000
    2.4610   -5.3070   29.1240 C   0  0  0  0  0  0  0  0  0  0  0  0
    4.7710   -4.6952   28.4803 C   0  0  0  0  0  0  0  0  0  0  0  0
    3.4047   -5.1087   28.1314 C   0  0  0  0  0  0  0  0  0  0  0  0
   -0.2234  -11.8615   16.8874 C   0  0  0  0  0  0  0  0  0  0  0  0
    6.4491   -4.1532   30.1213 C   0  0  0  0  0  0  0  0  0  0  0  0
    5.7060   -4.4340   27.4975 C   0  0  0  0  0  0  0  0  0  0  0  0
    1.1818   -5.6612   28.8399 C   0  0  0  0  0  0  0  0  0  0  0  0
   -1.2067   -7.3287   17.7772 C   0  0  0  0  0  0  0  0  0  0  0  0
   -0.0206  -10.5585   16.6210 C   0  0  0  0  0  0  0  0  0  0  0  0
    0.3696  -12.7626   16.2169 O   0  0  0  0  0  0  0  0  0  0  0  0
   -0.6895   -9.5676   17.3297 C   0  0  0  0  0  0  0  0  0  0  0  0
    0.8388   -5.8417   27.5264 C   0  0  0  0  0  0  0  0  0  0  0  0
   -2.0709   -7.6637   18.7817 C   0  0  0  0  0  0  0  0  0  0  0  0
   -0.5279   -8.2168   17.0717 C   0  0  0  0  0  0  0  0  0  0  0  0
    6.9694   -4.0191   27.8190 C   0  0  0  0  0  0  0  0  0  0  0  0
    5.1733   -4.5469   29.8123 C   0  0  0  0  0  0  0  0  0  0  0  0
   -1.7508  -11.3016   18.6072 C   0  0  0  0  0  0  0  0  0  0  0  0
    1.7497   -5.6771   26.4971 C   0  0  0  0  0  0  0  0  0  0  0  0
   -1.5799   -9.9322   18.3468 C   0  0  0  0  0  0  0  0  0  0  0  0
   -1.0871  -12.2214   17.8851 C   0  0  0  0  0  0  0  0  0  0  0  0
   -2.2706   -8.9669   19.0691 C   0  0  0  0  0  0  0  0  0  0  0  0
    3.0279   -5.3073   26.8197 C   0  0  0  0  0  0  0  0  0  0  0  0
    7.3282   -3.8948   29.1186 C   0  0  0  0  0  0  0  0  0  0  0  0
  1  3  4  0
  1  7  4  0
  2  3  1  0
  2  6  4  0
  2 16  4  0
  3 22  4  0
  4  9  4  0
  4 10  1  0
  4 20  4  0
  5 16  4  0
  5 23  4  0
  6 15  4  0
  7 12  4  0
  8 13  4  0
  8 14  4  0
  9 11  4  0
 11 14  4  0
 11 19  4  0
 12 18  4  0
 13 21  4  0
 15 23  4  0
 17 19  4  0
 17 20  4  0
 18 22  4  0
 19 21  4  0
M  END
$$$$

 Created by Python create_sdf_string function

 23 25  0  0  0  0  0  0  0  0999 V2000
    2.4610   -5.3070   29.1240 C   0  0  0  0  0  0  0  0  0  0  0  0
    4.7710   -4.6952   28.4803 C   0  0  0  0  0  0  0  0  0  0  0  0
    3.4047   -5.1087   28.1314 C   0  0  0  0  0  0  0  0  0  0  0  0
   -0.2234  -11.8615   16.8874 C   0  0  0  0  0  0  0  0  0  0  0  0
    6.4491   -4.1532   30.1213 C   0  0  0  0  0  0  0  0  0  0  0  0
    5.7060   -4.4340   27.4975 C   0  0  0  0  0  0  0  0  0  0  0  0
    1.1818   -5.6612   28.8399 C   0  0  0  0  0  0  0  0  0  0  0  0
   -1.2067   -7.3287   17.7772 C   0  0  0  0  0  0  0  0  0  0  0  0
   -0.0206  -10.5585   16.6210 C   0  0  0  0  0  0  0  0  0  0  0  0
    0.3696  -12.7626   16.2169 O   0  0  0  0  0  0  0  0  0  0  0  0
   -0.6895   -9.5676   17.3297 C   0  0  0  0  0  0  0  0  0  0  0  0
    0.8388   -5.8417   27.5264 C   0  0  0  0  0  0  0  0  0  0  0  0
   -2.0709   -7.6637   18.7817 C   0  0  0  0  0  0  0  0  0  0  0  0
   -0.5279   -8.2168   17.0717 C   0  0  0  0  0  0  0  0  0  0  0  0
    6.9694   -4.0191   27.8190 C   0  0  0  0  0  0  0  0  0  0  0  0
    5.1733   -4.5469   29.8123 C   0  0  0  0  0  0  0  0  0  0  0  0
   -1.7508  -11.3016   18.6072 C   0  0  0  0  0  0  0  0  0  0  0  0
    1.7497   -5.6771   26.4971 C   0  0  0  0  0  0  0  0  0  0  0  0
   -1.5799   -9.9322   18.3468 C   0  0  0  0  0  0  0  0  0  0  0  0
   -1.0871  -12.2214   17.8851 C   0  0  0  0  0  0  0  0  0  0  0  0
   -2.2706   -8.9669   19.0691 C   0  0  0  0  0  0  0  0  0  0  0  0
    3.0279   -5.3073   26.8197 C   0  0  0  0  0  0  0  0  0  0  0  0
    7.3282   -3.8948   29.1186 C   0  0  0  0  0  0  0  0  0  0  0  0
  1  3  4  0
  1  7  4  0
  2  3  1  0
  2  6  4  0
  2 16  4  0
  3 22  4  0
  4  9  4  0
  4 10  1  0
  4 20  4  0
  5 16  4  0
  5 23  4  0
  6 15  4  0
  7 12  4  0
  8 13  4  0
  8 14  4  0
  9 11  4  0
 11 14  4  0
 11 19  4  0
 12 18  4  0
 13 21  4  0
 15 23  4  0
 17 19  4  0
 17 20  4  0
 18 22  4  0
 19 21  4  0
M  END
$$$$

 Created by Python create_sdf_string function

 23 25  0  0  0  0  0  0  0  0999 V2000
    2.4610   -5.3070   29.1240 C   0  0  0  0  0  0  0  0  0  0  0  0
    4.7710   -4.6952   28.4803 C   0  0  0  0  0  0  0  0  0  0  0  0
    3.4047   -5.1087   28.1314 C   0  0  0  0  0  0  0  0  0  0  0  0
   -0.2234  -11.8615   16.8874 C   0  0  0  0  0  0  0  0  0  0  0  0
    6.4491   -4.1532   30.1213 C   0  0  0  0  0  0  0  0  0  0  0  0
    5.7060   -4.4340   27.4975 C   0  0  0  0  0  0  0  0  0  0  0  0
    1.1818   -5.6612   28.8399 C   0  0  0  0  0  0  0  0  0  0  0  0
   -1.2067   -7.3287   17.7772 C   0  0  0  0  0  0  0  0  0  0  0  0
   -0.0206  -10.5585   16.6210 C   0  0  0  0  0  0  0  0  0  0  0  0
    0.3696  -12.7626   16.2169 O   0  0  0  0  0  0  0  0  0  0  0  0
   -0.6895   -9.5676   17.3297 C   0  0  0  0  0  0  0  0  0  0  0  0
    0.8388   -5.8417   27.5264 C   0  0  0  0  0  0  0  0  0  0  0  0
   -2.0709   -7.6637   18.7817 C   0  0  0  0  0  0  0  0  0  0  0  0
   -0.5279   -8.2168   17.0717 C   0  0  0  0  0  0  0  0  0  0  0  0
    6.9694   -4.0191   27.8190 C   0  0  0  0  0  0  0  0  0  0  0  0
    5.1733   -4.5469   29.8123 C   0  0  0  0  0  0  0  0  0  0  0  0
   -1.7508  -11.3016   18.6072 C   0  0  0  0  0  0  0  0  0  0  0  0
    1.7497   -5.6771   26.4971 C   0  0  0  0  0  0  0  0  0  0  0  0
   -1.5799   -9.9322   18.3468 C   0  0  0  0  0  0  0  0  0  0  0  0
   -1.0871  -12.2214   17.8851 C   0  0  0  0  0  0  0  0  0  0  0  0
   -2.2706   -8.9669   19.0691 C   0  0  0  0  0  0  0  0  0  0  0  0
    3.0279   -5.3073   26.8197 C   0  0  0  0  0  0  0  0  0  0  0  0
    7.3282   -3.8948   29.1186 C   0  0  0  0  0  0  0  0  0  0  0  0
  1  3  4  0
  1  7  4  0
  2  3  1  0
  2  6  4  0
  2 16  4  0
  3 22  4  0
  4  9  4  0
  4 10  1  0
  4 20  4  0
  5 16  4  0
  5 23  4  0
  6 15  4  0
  7 12  4  0
  8 13  4  0
  8 14  4  0
  9 11  4  0
 11 14  4  0
 11 19  4  0
 12 18  4  0
 13 21  4  0
 15 23  4  0
 17 19  4  0
 17 20  4  0
 18 22  4  0
 19 21  4  0
M  END
$$$$

 Created by Python create_sdf_string function

 23 25  0  0  0  0  0  0  0  0999 V2000
    2.4610   -5.3070   29.1240 C   0  0  0  0  0  0  0  0  0  0  0  0
    4.7710   -4.6952   28.4803 C   0  0  0  0  0  0  0  0  0  0  0  0
    3.4047   -5.1087   28.1314 C   0  0  0  0  0  0  0  0  0  0  0  0
   -0.2234  -11.8615   16.8874 C   0  0  0  0  0  0  0  0  0  0  0  0
    6.4491   -4.1532   30.1213 C   0  0  0  0  0  0  0  0  0  0  0  0
    5.7060   -4.4340   27.4975 C   0  0  0  0  0  0  0  0  0  0  0  0
    1.1818   -5.6612   28.8399 C   0  0  0  0  0  0  0  0  0  0  0  0
   -1.2067   -7.3287   17.7772 C   0  0  0  0  0  0  0  0  0  0  0  0
   -0.0206  -10.5585   16.6210 C   0  0  0  0  0  0  0  0  0  0  0  0
    0.3696  -12.7626   16.2169 O   0  0  0  0  0  0  0  0  0  0  0  0
   -0.6895   -9.5676   17.3297 C   0  0  0  0  0  0  0  0  0  0  0  0
    0.8388   -5.8417   27.5264 C   0  0  0  0  0  0  0  0  0  0  0  0
   -2.0709   -7.6637   18.7817 C   0  0  0  0  0  0  0  0  0  0  0  0
   -0.5279   -8.2168   17.0717 C   0  0  0  0  0  0  0  0  0  0  0  0
    6.9694   -4.0191   27.8190 C   0  0  0  0  0  0  0  0  0  0  0  0
    5.1733   -4.5469   29.8123 C   0  0  0  0  0  0  0  0  0  0  0  0
   -1.7508  -11.3016   18.6072 C   0  0  0  0  0  0  0  0  0  0  0  0
    1.7497   -5.6771   26.4971 C   0  0  0  0  0  0  0  0  0  0  0  0
   -1.5799   -9.9322   18.3468 C   0  0  0  0  0  0  0  0  0  0  0  0
   -1.0871  -12.2214   17.8851 C   0  0  0  0  0  0  0  0  0  0  0  0
   -2.2706   -8.9669   19.0691 C   0  0  0  0  0  0  0  0  0  0  0  0
    3.0279   -5.3073   26.8197 C   0  0  0  0  0  0  0  0  0  0  0  0
    7.3282   -3.8948   29.1186 C   0  0  0  0  0  0  0  0  0  0  0  0
  1  3  4  0
  1  7  4  0
  2  3  1  0
  2  6  4  0
  2 16  4  0
  3 22  4  0
  4  9  4  0
  4 10  1  0
  4 20  4  0
  5 16  4  0
  5 23  4  0
  6 15  4  0
  7 12  4  0
  8 13  4  0
  8 14  4  0
  9 11  4  0
 11 14  4  0
 11 19  4  0
 12 18  4  0
 13 21  4  0
 15 23  4  0
 17 19  4  0
 17 20  4  0
 18 22  4  0
 19 21  4  0
M  END
$$$$

 Created by Python create_sdf_string function

 23 25  0  0  0  0  0  0  0  0999 V2000
    2.4610   -5.3070   29.1240 C   0  0  0  0  0  0  0  0  0  0  0  0
    4.7710   -4.6952   28.4803 C   0  0  0  0  0  0  0  0  0  0  0  0
    3.4047   -5.1087   28.1314 C   0  0  0  0  0  0  0  0  0  0  0  0
   -0.2234  -11.8615   16.8874 C   0  0  0  0  0  0  0  0  0  0  0  0
    6.4491   -4.1532   30.1213 C   0  0  0  0  0  0  0  0  0  0  0  0
    5.7060   -4.4340   27.4975 C   0  0  0  0  0  0  0  0  0  0  0  0
    1.1818   -5.6612   28.8399 C   0  0  0  0  0  0  0  0  0  0  0  0
   -1.2067   -7.3287   17.7772 C   0  0  0  0  0  0  0  0  0  0  0  0
   -0.0206  -10.5585   16.6210 C   0  0  0  0  0  0  0  0  0  0  0  0
    0.3696  -12.7626   16.2169 O   0  0  0  0  0  0  0  0  0  0  0  0
   -0.6895   -9.5676   17.3297 C   0  0  0  0  0  0  0  0  0  0  0  0
    0.8388   -5.8417   27.5264 C   0  0  0  0  0  0  0  0  0  0  0  0
   -2.0709   -7.6637   18.7817 C   0  0  0  0  0  0  0  0  0  0  0  0
   -0.5279   -8.2168   17.0717 C   0  0  0  0  0  0  0  0  0  0  0  0
    6.9694   -4.0191   27.8190 C   0  0  0  0  0  0  0  0  0  0  0  0
    5.1733   -4.5469   29.8123 C   0  0  0  0  0  0  0  0  0  0  0  0
   -1.7508  -11.3016   18.6072 C   0  0  0  0  0  0  0  0  0  0  0  0
    1.7497   -5.6771   26.4971 C   0  0  0  0  0  0  0  0  0  0  0  0
   -1.5799   -9.9322   18.3468 C   0  0  0  0  0  0  0  0  0  0  0  0
   -1.0871  -12.2214   17.8851 C   0  0  0  0  0  0  0  0  0  0  0  0
   -2.2706   -8.9669   19.0691 C   0  0  0  0  0  0  0  0  0  0  0  0
    3.0279   -5.3073   26.8197 C   0  0  0  0  0  0  0  0  0  0  0  0
    7.3282   -3.8948   29.1186 C   0  0  0  0  0  0  0  0  0  0  0  0
  1  3  4  0
  1  7  4  0
  2  3  1  0
  2  6  4  0
  2 16  4  0
  3 22  4  0
  4  9  4  0
  4 10  1  0
  4 20  4  0
  5 16  4  0
  5 23  4  0
  6 15  4  0
  7 12  4  0
  8 13  4  0
  8 14  4  0
  9 11  4  0
 11 14  4  0
 11 19  4  0
 12 18  4  0
 13 21  4  0
 15 23  4  0
 17 19  4  0
 17 20  4  0
 18 22  4  0
 19 21  4  0
M  END
$$$$

 Created by Python create_sdf_string function

 23 25  0  0  0  0  0  0  0  0999 V2000
    2.4610   -5.3070   29.1240 C   0  0  0  0  0  0  0  0  0  0  0  0
    4.7710   -4.6952   28.4803 C   0  0  0  0  0  0  0  0  0  0  0  0
    3.4047   -5.1087   28.1314 C   0  0  0  0  0  0  0  0  0  0  0  0
   -0.2234  -11.8615   16.8874 C   0  0  0  0  0  0  0  0  0  0  0  0
    6.4491   -4.1532   30.1213 C   0  0  0  0  0  0  0  0  0  0  0  0
    5.7060   -4.4340   27.4975 C   0  0  0  0  0  0  0  0  0  0  0  0
    1.1818   -5.6612   28.8399 C   0  0  0  0  0  0  0  0  0  0  0  0
   -1.2067   -7.3287   17.7772 C   0  0  0  0  0  0  0  0  0  0  0  0
   -0.0206  -10.5585   16.6210 C   0  0  0  0  0  0  0  0  0  0  0  0
    0.3696  -12.7626   16.2169 O   0  0  0  0  0  0  0  0  0  0  0  0
   -0.6895   -9.5676   17.3297 C   0  0  0  0  0  0  0  0  0  0  0  0
    0.8388   -5.8417   27.5264 C   0  0  0  0  0  0  0  0  0  0  0  0
   -2.0709   -7.6637   18.7817 C   0  0  0  0  0  0  0  0  0  0  0  0
   -0.5279   -8.2168   17.0717 C   0  0  0  0  0  0  0  0  0  0  0  0
    6.9694   -4.0191   27.8190 C   0  0  0  0  0  0  0  0  0  0  0  0
    5.1733   -4.5469   29.8123 C   0  0  0  0  0  0  0  0  0  0  0  0
   -1.7508  -11.3016   18.6072 C   0  0  0  0  0  0  0  0  0  0  0  0
    1.7497   -5.6771   26.4971 C   0  0  0  0  0  0  0  0  0  0  0  0
   -1.5799   -9.9322   18.3468 C   0  0  0  0  0  0  0  0  0  0  0  0
   -1.0871  -12.2214   17.8851 C   0  0  0  0  0  0  0  0  0  0  0  0
   -2.2706   -8.9669   19.0691 C   0  0  0  0  0  0  0  0  0  0  0  0
    3.0279   -5.3073   26.8197 C   0  0  0  0  0  0  0  0  0  0  0  0
    7.3282   -3.8948   29.1186 C   0  0  0  0  0  0  0  0  0  0  0  0
  1  3  4  0
  1  7  4  0
  2  3  1  0
  2  6  4  0
  2 16  4  0
  3 22  4  0
  4  9  4  0
  4 10  1  0
  4 20  4  0
  5 16  4  0
  5 23  4  0
  6 15  4  0
  7 12  4  0
  8 13  4  0
  8 14  4  0
  9 11  4  0
 11 14  4  0
 11 19  4  0
 12 18  4  0
 13 21  4  0
 15 23  4  0
 17 19  4  0
 17 20  4  0
 18 22  4  0
 19 21  4  0
M  END
$$$$

 Created by Python create_sdf_string function

 23 25  0  0  0  0  0  0  0  0999 V2000
    2.4610   -5.3070   29.1240 C   0  0  0  0  0  0  0  0  0  0  0  0
    4.7710   -4.6952   28.4803 C   0  0  0  0  0  0  0  0  0  0  0  0
    3.4047   -5.1087   28.1314 C   0  0  0  0  0  0  0  0  0  0  0  0
   -0.2234  -11.8615   16.8874 C   0  0  0  0  0  0  0  0  0  0  0  0
    6.4491   -4.1532   30.1213 C   0  0  0  0  0  0  0  0  0  0  0  0
    5.7060   -4.4340   27.4975 C   0  0  0  0  0  0  0  0  0  0  0  0
    1.1818   -5.6612   28.8399 C   0  0  0  0  0  0  0  0  0  0  0  0
   -1.2067   -7.3287   17.7772 C   0  0  0  0  0  0  0  0  0  0  0  0
   -0.0206  -10.5585   16.6210 C   0  0  0  0  0  0  0  0  0  0  0  0
    0.3696  -12.7626   16.2169 O   0  0  0  0  0  0  0  0  0  0  0  0
   -0.6895   -9.5676   17.3297 C   0  0  0  0  0  0  0  0  0  0  0  0
    0.8388   -5.8417   27.5264 C   0  0  0  0  0  0  0  0  0  0  0  0
   -2.0709   -7.6637   18.7817 C   0  0  0  0  0  0  0  0  0  0  0  0
   -0.5279   -8.2168   17.0717 C   0  0  0  0  0  0  0  0  0  0  0  0
    6.9694   -4.0191   27.8190 C   0  0  0  0  0  0  0  0  0  0  0  0
    5.1733   -4.5469   29.8123 C   0  0  0  0  0  0  0  0  0  0  0  0
   -1.7508  -11.3016   18.6072 C   0  0  0  0  0  0  0  0  0  0  0  0
    1.7497   -5.6771   26.4971 C   0  0  0  0  0  0  0  0  0  0  0  0
   -1.5799   -9.9322   18.3468 C   0  0  0  0  0  0  0  0  0  0  0  0
   -1.0871  -12.2214   17.8851 C   0  0  0  0  0  0  0  0  0  0  0  0
   -2.2706   -8.9669   19.0691 C   0  0  0  0  0  0  0  0  0  0  0  0
    3.0279   -5.3073   26.8197 C   0  0  0  0  0  0  0  0  0  0  0  0
    7.3282   -3.8948   29.1186 C   0  0  0  0  0  0  0  0  0  0  0  0
  1  3  4  0
  1  7  4  0
  2  3  1  0
  2  6  4  0
  2 16  4  0
  3 22  4  0
  4  9  4  0
  4 10  1  0
  4 20  4  0
  5 16  4  0
  5 23  4  0
  6 15  4  0
  7 12  4  0
  8 13  4  0
  8 14  4  0
  9 11  4  0
 11 14  4  0
 11 19  4  0
 12 18  4  0
 13 21  4  0
 15 23  4  0
 17 19  4  0
 17 20  4  0
 18 22  4  0
 19 21  4  0
M  END
$$$$

 Created by Python create_sdf_string function

 23 25  0  0  0  0  0  0  0  0999 V2000
    2.4610   -5.3070   29.1240 C   0  0  0  0  0  0  0  0  0  0  0  0
    4.7710   -4.6952   28.4803 C   0  0  0  0  0  0  0  0  0  0  0  0
    3.4047   -5.1087   28.1314 C   0  0  0  0  0  0  0  0  0  0  0  0
   -0.2234  -11.8615   16.8874 C   0  0  0  0  0  0  0  0  0  0  0  0
    6.4491   -4.1532   30.1213 C   0  0  0  0  0  0  0  0  0  0  0  0
    5.7060   -4.4340   27.4975 C   0  0  0  0  0  0  0  0  0  0  0  0
    1.1818   -5.6612   28.8399 C   0  0  0  0  0  0  0  0  0  0  0  0
   -1.2067   -7.3287   17.7772 C   0  0  0  0  0  0  0  0  0  0  0  0
   -0.0206  -10.5585   16.6210 C   0  0  0  0  0  0  0  0  0  0  0  0
    0.3696  -12.7626   16.2169 O   0  0  0  0  0  0  0  0  0  0  0  0
   -0.6895   -9.5676   17.3297 C   0  0  0  0  0  0  0  0  0  0  0  0
    0.8388   -5.8417   27.5264 C   0  0  0  0  0  0  0  0  0  0  0  0
   -2.0709   -7.6637   18.7817 C   0  0  0  0  0  0  0  0  0  0  0  0
   -0.5279   -8.2168   17.0717 C   0  0  0  0  0  0  0  0  0  0  0  0
    6.9694   -4.0191   27.8190 C   0  0  0  0  0  0  0  0  0  0  0  0
    5.1733   -4.5469   29.8123 C   0  0  0  0  0  0  0  0  0  0  0  0
   -1.7508  -11.3016   18.6072 C   0  0  0  0  0  0  0  0  0  0  0  0
    1.7497   -5.6771   26.4971 C   0  0  0  0  0  0  0  0  0  0  0  0
   -1.5799   -9.9322   18.3468 C   0  0  0  0  0  0  0  0  0  0  0  0
   -1.0871  -12.2214   17.8851 C   0  0  0  0  0  0  0  0  0  0  0  0
   -2.2706   -8.9669   19.0691 C   0  0  0  0  0  0  0  0  0  0  0  0
    3.0279   -5.3073   26.8197 C   0  0  0  0  0  0  0  0  0  0  0  0
    7.3282   -3.8948   29.1186 C   0  0  0  0  0  0  0  0  0  0  0  0
  1  3  4  0
  1  7  4  0
  2  3  1  0
  2  6  4  0
  2 16  4  0
  3 22  4  0
  4  9  4  0
  4 10  1  0
  4 20  4  0
  5 16  4  0
  5 23  4  0
  6 15  4  0
  7 12  4  0
  8 13  4  0
  8 14  4  0
  9 11  4  0
 11 14  4  0
 11 19  4  0
 12 18  4  0
 13 21  4  0
 15 23  4  0
 17 19  4  0
 17 20  4  0
 18 22  4  0
 19 21  4  0
M  END
$$$$

 Created by Python create_sdf_string function

 23 25  0  0  0  0  0  0  0  0999 V2000
    2.4610   -5.3070   29.1240 C   0  0  0  0  0  0  0  0  0  0  0  0
    4.7710   -4.6952   28.4803 C   0  0  0  0  0  0  0  0  0  0  0  0
    3.4047   -5.1087   28.1314 C   0  0  0  0  0  0  0  0  0  0  0  0
   -0.2234  -11.8615   16.8874 C   0  0  0  0  0  0  0  0  0  0  0  0
    6.4491   -4.1532   30.1213 C   0  0  0  0  0  0  0  0  0  0  0  0
    5.7060   -4.4340   27.4975 C   0  0  0  0  0  0  0  0  0  0  0  0
    1.1818   -5.6612   28.8399 C   0  0  0  0  0  0  0  0  0  0  0  0
   -1.2067   -7.3287   17.7772 C   0  0  0  0  0  0  0  0  0  0  0  0
   -0.0206  -10.5585   16.6210 C   0  0  0  0  0  0  0  0  0  0  0  0
    0.3696  -12.7626   16.2169 O   0  0  0  0  0  0  0  0  0  0  0  0
   -0.6895   -9.5676   17.3297 C   0  0  0  0  0  0  0  0  0  0  0  0
    0.8388   -5.8417   27.5264 C   0  0  0  0  0  0  0  0  0  0  0  0
   -2.0709   -7.6637   18.7817 C   0  0  0  0  0  0  0  0  0  0  0  0
   -0.5279   -8.2168   17.0717 C   0  0  0  0  0  0  0  0  0  0  0  0
    6.9694   -4.0191   27.8190 C   0  0  0  0  0  0  0  0  0  0  0  0
    5.1733   -4.5469   29.8123 C   0  0  0  0  0  0  0  0  0  0  0  0
   -1.7508  -11.3016   18.6072 C   0  0  0  0  0  0  0  0  0  0  0  0
    1.7497   -5.6771   26.4971 C   0  0  0  0  0  0  0  0  0  0  0  0
   -1.5799   -9.9322   18.3468 C   0  0  0  0  0  0  0  0  0  0  0  0
   -1.0871  -12.2214   17.8851 C   0  0  0  0  0  0  0  0  0  0  0  0
   -2.2706   -8.9669   19.0691 C   0  0  0  0  0  0  0  0  0  0  0  0
    3.0279   -5.3073   26.8197 C   0  0  0  0  0  0  0  0  0  0  0  0
    7.3282   -3.8948   29.1186 C   0  0  0  0  0  0  0  0  0  0  0  0
  1  3  4  0
  1  7  4  0
  2  3  1  0
  2  6  4  0
  2 16  4  0
  3 22  4  0
  4  9  4  0
  4 10  1  0
  4 20  4  0
  5 16  4  0
  5 23  4  0
  6 15  4  0
  7 12  4  0
  8 13  4  0
  8 14  4  0
  9 11  4  0
 11 14  4  0
 11 19  4  0
 12 18  4  0
 13 21  4  0
 15 23  4  0
 17 19  4  0
 17 20  4  0
 18 22  4  0
 19 21  4  0
M  END
$$$$

 Created by Python create_sdf_string function

 23 25  0  0  0  0  0  0  0  0999 V2000
    2.4610   -5.3070   29.1240 C   0  0  0  0  0  0  0  0  0  0  0  0
    4.7710   -4.6952   28.4803 C   0  0  0  0  0  0  0  0  0  0  0  0
    3.4047   -5.1087   28.1314 C   0  0  0  0  0  0  0  0  0  0  0  0
   -0.2234  -11.8615   16.8874 C   0  0  0  0  0  0  0  0  0  0  0  0
    6.4491   -4.1532   30.1213 C   0  0  0  0  0  0  0  0  0  0  0  0
    5.7060   -4.4340   27.4975 C   0  0  0  0  0  0  0  0  0  0  0  0
    1.1818   -5.6612   28.8399 C   0  0  0  0  0  0  0  0  0  0  0  0
   -1.2067   -7.3287   17.7772 C   0  0  0  0  0  0  0  0  0  0  0  0
   -0.0206  -10.5585   16.6210 C   0  0  0  0  0  0  0  0  0  0  0  0
    0.3696  -12.7626   16.2169 O   0  0  0  0  0  0  0  0  0  0  0  0
   -0.6895   -9.5676   17.3297 C   0  0  0  0  0  0  0  0  0  0  0  0
    0.8388   -5.8417   27.5264 C   0  0  0  0  0  0  0  0  0  0  0  0
   -2.0709   -7.6637   18.7817 C   0  0  0  0  0  0  0  0  0  0  0  0
   -0.5279   -8.2168   17.0717 C   0  0  0  0  0  0  0  0  0  0  0  0
    6.9694   -4.0191   27.8190 C   0  0  0  0  0  0  0  0  0  0  0  0
    5.1733   -4.5469   29.8123 C   0  0  0  0  0  0  0  0  0  0  0  0
   -1.7508  -11.3016   18.6072 C   0  0  0  0  0  0  0  0  0  0  0  0
    1.7497   -5.6771   26.4971 C   0  0  0  0  0  0  0  0  0  0  0  0
   -1.5799   -9.9322   18.3468 C   0  0  0  0  0  0  0  0  0  0  0  0
   -1.0871  -12.2214   17.8851 C   0  0  0  0  0  0  0  0  0  0  0  0
   -2.2706   -8.9669   19.0691 C   0  0  0  0  0  0  0  0  0  0  0  0
    3.0279   -5.3073   26.8197 C   0  0  0  0  0  0  0  0  0  0  0  0
    7.3282   -3.8948   29.1186 C   0  0  0  0  0  0  0  0  0  0  0  0
  1  3  4  0
  1  7  4  0
  2  3  1  0
  2  6  4  0
  2 16  4  0
  3 22  4  0
  4  9  4  0
  4 10  1  0
  4 20  4  0
  5 16  4  0
  5 23  4  0
  6 15  4  0
  7 12  4  0
  8 13  4  0
  8 14  4  0
  9 11  4  0
 11 14  4  0
 11 19  4  0
 12 18  4  0
 13 21  4  0
 15 23  4  0
 17 19  4  0
 17 20  4  0
 18 22  4  0
 19 21  4  0
M  END
$$$$

 Created by Python create_sdf_string function

 23 25  0  0  0  0  0  0  0  0999 V2000
    2.4610   -5.3070   29.1240 C   0  0  0  0  0  0  0  0  0  0  0  0
    4.7710   -4.6952   28.4803 C   0  0  0  0  0  0  0  0  0  0  0  0
    3.4047   -5.1087   28.1314 C   0  0  0  0  0  0  0  0  0  0  0  0
   -0.2234  -11.8615   16.8874 C   0  0  0  0  0  0  0  0  0  0  0  0
    6.4491   -4.1532   30.1213 C   0  0  0  0  0  0  0  0  0  0  0  0
    5.7060   -4.4340   27.4975 C   0  0  0  0  0  0  0  0  0  0  0  0
    1.1818   -5.6612   28.8399 C   0  0  0  0  0  0  0  0  0  0  0  0
   -1.2067   -7.3287   17.7772 C   0  0  0  0  0  0  0  0  0  0  0  0
   -0.0206  -10.5585   16.6210 C   0  0  0  0  0  0  0  0  0  0  0  0
    0.3696  -12.7626   16.2169 O   0  0  0  0  0  0  0  0  0  0  0  0
   -0.6895   -9.5676   17.3297 C   0  0  0  0  0  0  0  0  0  0  0  0
    0.8388   -5.8417   27.5264 C   0  0  0  0  0  0  0  0  0  0  0  0
   -2.0709   -7.6637   18.7817 C   0  0  0  0  0  0  0  0  0  0  0  0
   -0.5279   -8.2168   17.0717 C   0  0  0  0  0  0  0  0  0  0  0  0
    6.9694   -4.0191   27.8190 C   0  0  0  0  0  0  0  0  0  0  0  0
    5.1733   -4.5469   29.8123 C   0  0  0  0  0  0  0  0  0  0  0  0
   -1.7508  -11.3016   18.6072 C   0  0  0  0  0  0  0  0  0  0  0  0
    1.7497   -5.6771   26.4971 C   0  0  0  0  0  0  0  0  0  0  0  0
   -1.5799   -9.9322   18.3468 C   0  0  0  0  0  0  0  0  0  0  0  0
   -1.0871  -12.2214   17.8851 C   0  0  0  0  0  0  0  0  0  0  0  0
   -2.2706   -8.9669   19.0691 C   0  0  0  0  0  0  0  0  0  0  0  0
    3.0279   -5.3073   26.8197 C   0  0  0  0  0  0  0  0  0  0  0  0
    7.3282   -3.8948   29.1186 C   0  0  0  0  0  0  0  0  0  0  0  0
  1  3  4  0
  1  7  4  0
  2  3  1  0
  2  6  4  0
  2 16  4  0
  3 22  4  0
  4  9  4  0
  4 10  1  0
  4 20  4  0
  5 16  4  0
  5 23  4  0
  6 15  4  0
  7 12  4  0
  8 13  4  0
  8 14  4  0
  9 11  4  0
 11 14  4  0
 11 19  4  0
 12 18  4  0
 13 21  4  0
 15 23  4  0
 17 19  4  0
 17 20  4  0
 18 22  4  0
 19 21  4  0
M  END
$$$$

 Created by Python create_sdf_string function

 23 25  0  0  0  0  0  0  0  0999 V2000
    2.4610   -5.3070   29.1240 C   0  0  0  0  0  0  0  0  0  0  0  0
    4.7710   -4.6952   28.4803 C   0  0  0  0  0  0  0  0  0  0  0  0
    3.4047   -5.1087   28.1314 C   0  0  0  0  0  0  0  0  0  0  0  0
   -0.2234  -11.8615   16.8874 C   0  0  0  0  0  0  0  0  0  0  0  0
    6.4491   -4.1532   30.1213 C   0  0  0  0  0  0  0  0  0  0  0  0
    5.7060   -4.4340   27.4975 C   0  0  0  0  0  0  0  0  0  0  0  0
    1.1818   -5.6612   28.8399 C   0  0  0  0  0  0  0  0  0  0  0  0
   -1.2067   -7.3287   17.7772 C   0  0  0  0  0  0  0  0  0  0  0  0
   -0.0206  -10.5585   16.6210 C   0  0  0  0  0  0  0  0  0  0  0  0
    0.3696  -12.7626   16.2169 O   0  0  0  0  0  0  0  0  0  0  0  0
   -0.6895   -9.5676   17.3297 C   0  0  0  0  0  0  0  0  0  0  0  0
    0.8388   -5.8417   27.5264 C   0  0  0  0  0  0  0  0  0  0  0  0
   -2.0709   -7.6637   18.7817 C   0  0  0  0  0  0  0  0  0  0  0  0
   -0.5279   -8.2168   17.0717 C   0  0  0  0  0  0  0  0  0  0  0  0
    6.9694   -4.0191   27.8190 C   0  0  0  0  0  0  0  0  0  0  0  0
    5.1733   -4.5469   29.8123 C   0  0  0  0  0  0  0  0  0  0  0  0
   -1.7508  -11.3016   18.6072 C   0  0  0  0  0  0  0  0  0  0  0  0
    1.7497   -5.6771   26.4971 C   0  0  0  0  0  0  0  0  0  0  0  0
   -1.5799   -9.9322   18.3468 C   0  0  0  0  0  0  0  0  0  0  0  0
   -1.0871  -12.2214   17.8851 C   0  0  0  0  0  0  0  0  0  0  0  0
   -2.2706   -8.9669   19.0691 C   0  0  0  0  0  0  0  0  0  0  0  0
    3.0279   -5.3073   26.8197 C   0  0  0  0  0  0  0  0  0  0  0  0
    7.3282   -3.8948   29.1186 C   0  0  0  0  0  0  0  0  0  0  0  0
  1  3  4  0
  1  7  4  0
  2  3  1  0
  2  6  4  0
  2 16  4  0
  3 22  4  0
  4  9  4  0
  4 10  1  0
  4 20  4  0
  5 16  4  0
  5 23  4  0
  6 15  4  0
  7 12  4  0
  8 13  4  0
  8 14  4  0
  9 11  4  0
 11 14  4  0
 11 19  4  0
 12 18  4  0
 13 21  4  0
 15 23  4  0
 17 19  4  0
 17 20  4  0
 18 22  4  0
 19 21  4  0
M  END
$$$$

 Created by Python create_sdf_string function

 23 25  0  0  0  0  0  0  0  0999 V2000
    2.4610   -5.3070   29.1240 C   0  0  0  0  0  0  0  0  0  0  0  0
    4.7710   -4.6952   28.4803 C   0  0  0  0  0  0  0  0  0  0  0  0
    3.4047   -5.1087   28.1314 C   0  0  0  0  0  0  0  0  0  0  0  0
   -0.2234  -11.8615   16.8874 C   0  0  0  0  0  0  0  0  0  0  0  0
    6.4491   -4.1532   30.1213 C   0  0  0  0  0  0  0  0  0  0  0  0
    5.7060   -4.4340   27.4975 C   0  0  0  0  0  0  0  0  0  0  0  0
    1.1818   -5.6612   28.8399 C   0  0  0  0  0  0  0  0  0  0  0  0
   -1.2067   -7.3287   17.7772 C   0  0  0  0  0  0  0  0  0  0  0  0
   -0.0206  -10.5585   16.6210 C   0  0  0  0  0  0  0  0  0  0  0  0
    0.3696  -12.7626   16.2169 O   0  0  0  0  0  0  0  0  0  0  0  0
   -0.6895   -9.5676   17.3297 C   0  0  0  0  0  0  0  0  0  0  0  0
    0.8388   -5.8417   27.5264 C   0  0  0  0  0  0  0  0  0  0  0  0
   -2.0709   -7.6637   18.7817 C   0  0  0  0  0  0  0  0  0  0  0  0
   -0.5279   -8.2168   17.0717 C   0  0  0  0  0  0  0  0  0  0  0  0
    6.9694   -4.0191   27.8190 C   0  0  0  0  0  0  0  0  0  0  0  0
    5.1733   -4.5469   29.8123 C   0  0  0  0  0  0  0  0  0  0  0  0
   -1.7508  -11.3016   18.6072 C   0  0  0  0  0  0  0  0  0  0  0  0
    1.7497   -5.6771   26.4971 C   0  0  0  0  0  0  0  0  0  0  0  0
   -1.5799   -9.9322   18.3468 C   0  0  0  0  0  0  0  0  0  0  0  0
   -1.0871  -12.2214   17.8851 C   0  0  0  0  0  0  0  0  0  0  0  0
   -2.2706   -8.9669   19.0691 C   0  0  0  0  0  0  0  0  0  0  0  0
    3.0279   -5.3073   26.8197 C   0  0  0  0  0  0  0  0  0  0  0  0
    7.3282   -3.8948   29.1186 C   0  0  0  0  0  0  0  0  0  0  0  0
  1  3  4  0
  1  7  4  0
  2  3  1  0
  2  6  4  0
  2 16  4  0
  3 22  4  0
  4  9  4  0
  4 10  1  0
  4 20  4  0
  5 16  4  0
  5 23  4  0
  6 15  4  0
  7 12  4  0
  8 13  4  0
  8 14  4  0
  9 11  4  0
 11 14  4  0
 11 19  4  0
 12 18  4  0
 13 21  4  0
 15 23  4  0
 17 19  4  0
 17 20  4  0
 18 22  4  0
 19 21  4  0
M  END
$$$$

 Created by Python create_sdf_string function

 23 25  0  0  0  0  0  0  0  0999 V2000
    2.4610   -5.3070   29.1240 C   0  0  0  0  0  0  0  0  0  0  0  0
    4.7710   -4.6952   28.4803 C   0  0  0  0  0  0  0  0  0  0  0  0
    3.4047   -5.1087   28.1314 C   0  0  0  0  0  0  0  0  0  0  0  0
   -0.2234  -11.8615   16.8874 C   0  0  0  0  0  0  0  0  0  0  0  0
    6.4491   -4.1532   30.1213 C   0  0  0  0  0  0  0  0  0  0  0  0
    5.7060   -4.4340   27.4975 C   0  0  0  0  0  0  0  0  0  0  0  0
    1.1818   -5.6612   28.8399 C   0  0  0  0  0  0  0  0  0  0  0  0
   -1.2067   -7.3287   17.7772 C   0  0  0  0  0  0  0  0  0  0  0  0
   -0.0206  -10.5585   16.6210 C   0  0  0  0  0  0  0  0  0  0  0  0
    0.3696  -12.7626   16.2169 O   0  0  0  0  0  0  0  0  0  0  0  0
   -0.6895   -9.5676   17.3297 C   0  0  0  0  0  0  0  0  0  0  0  0
    0.8388   -5.8417   27.5264 C   0  0  0  0  0  0  0  0  0  0  0  0
   -2.0709   -7.6637   18.7817 C   0  0  0  0  0  0  0  0  0  0  0  0
   -0.5279   -8.2168   17.0717 C   0  0  0  0  0  0  0  0  0  0  0  0
    6.9694   -4.0191   27.8190 C   0  0  0  0  0  0  0  0  0  0  0  0
    5.1733   -4.5469   29.8123 C   0  0  0  0  0  0  0  0  0  0  0  0
   -1.7508  -11.3016   18.6072 C   0  0  0  0  0  0  0  0  0  0  0  0
    1.7497   -5.6771   26.4971 C   0  0  0  0  0  0  0  0  0  0  0  0
   -1.5799   -9.9322   18.3468 C   0  0  0  0  0  0  0  0  0  0  0  0
   -1.0871  -12.2214   17.8851 C   0  0  0  0  0  0  0  0  0  0  0  0
   -2.2706   -8.9669   19.0691 C   0  0  0  0  0  0  0  0  0  0  0  0
    3.0279   -5.3073   26.8197 C   0  0  0  0  0  0  0  0  0  0  0  0
    7.3282   -3.8948   29.1186 C   0  0  0  0  0  0  0  0  0  0  0  0
  1  3  4  0
  1  7  4  0
  2  3  1  0
  2  6  4  0
  2 16  4  0
  3 22  4  0
  4  9  4  0
  4 10  1  0
  4 20  4  0
  5 16  4  0
  5 23  4  0
  6 15  4  0
  7 12  4  0
  8 13  4  0
  8 14  4  0
  9 11  4  0
 11 14  4  0
 11 19  4  0
 12 18  4  0
 13 21  4  0
 15 23  4  0
 17 19  4  0
 17 20  4  0
 18 22  4  0
 19 21  4  0
M  END
$$$$

 Created by Python create_sdf_string function

 23 25  0  0  0  0  0  0  0  0999 V2000
    2.4610   -5.3070   29.1240 C   0  0  0  0  0  0  0  0  0  0  0  0
    4.7710   -4.6952   28.4803 C   0  0  0  0  0  0  0  0  0  0  0  0
    3.4047   -5.1087   28.1314 C   0  0  0  0  0  0  0  0  0  0  0  0
   -0.2234  -11.8615   16.8874 C   0  0  0  0  0  0  0  0  0  0  0  0
    6.4491   -4.1532   30.1213 C   0  0  0  0  0  0  0  0  0  0  0  0
    5.7060   -4.4340   27.4975 C   0  0  0  0  0  0  0  0  0  0  0  0
    1.1818   -5.6612   28.8399 C   0  0  0  0  0  0  0  0  0  0  0  0
   -1.2067   -7.3287   17.7772 C   0  0  0  0  0  0  0  0  0  0  0  0
   -0.0206  -10.5585   16.6210 C   0  0  0  0  0  0  0  0  0  0  0  0
    0.3696  -12.7626   16.2169 O   0  0  0  0  0  0  0  0  0  0  0  0
   -0.6895   -9.5676   17.3297 C   0  0  0  0  0  0  0  0  0  0  0  0
    0.8388   -5.8417   27.5264 C   0  0  0  0  0  0  0  0  0  0  0  0
   -2.0709   -7.6637   18.7817 C   0  0  0  0  0  0  0  0  0  0  0  0
   -0.5279   -8.2168   17.0717 C   0  0  0  0  0  0  0  0  0  0  0  0
    6.9694   -4.0191   27.8190 C   0  0  0  0  0  0  0  0  0  0  0  0
    5.1733   -4.5469   29.8123 C   0  0  0  0  0  0  0  0  0  0  0  0
   -1.7508  -11.3016   18.6072 C   0  0  0  0  0  0  0  0  0  0  0  0
    1.7497   -5.6771   26.4971 C   0  0  0  0  0  0  0  0  0  0  0  0
   -1.5799   -9.9322   18.3468 C   0  0  0  0  0  0  0  0  0  0  0  0
   -1.0871  -12.2214   17.8851 C   0  0  0  0  0  0  0  0  0  0  0  0
   -2.2706   -8.9669   19.0691 C   0  0  0  0  0  0  0  0  0  0  0  0
    3.0279   -5.3073   26.8197 C   0  0  0  0  0  0  0  0  0  0  0  0
    7.3282   -3.8948   29.1186 C   0  0  0  0  0  0  0  0  0  0  0  0
  1  3  4  0
  1  7  4  0
  2  3  1  0
  2  6  4  0
  2 16  4  0
  3 22  4  0
  4  9  4  0
  4 10  1  0
  4 20  4  0
  5 16  4  0
  5 23  4  0
  6 15  4  0
  7 12  4  0
  8 13  4  0
  8 14  4  0
  9 11  4  0
 11 14  4  0
 11 19  4  0
 12 18  4  0
 13 21  4  0
 15 23  4  0
 17 19  4  0
 17 20  4  0
 18 22  4  0
 19 21  4  0
M  END
$$$$

 Created by Python create_sdf_string function

 23 25  0  0  0  0  0  0  0  0999 V2000
    2.4610   -5.3070   29.1240 C   0  0  0  0  0  0  0  0  0  0  0  0
    4.7710   -4.6952   28.4803 C   0  0  0  0  0  0  0  0  0  0  0  0
    3.4047   -5.1087   28.1314 C   0  0  0  0  0  0  0  0  0  0  0  0
   -0.2234  -11.8615   16.8874 C   0  0  0  0  0  0  0  0  0  0  0  0
    6.4491   -4.1532   30.1213 C   0  0  0  0  0  0  0  0  0  0  0  0
    5.7060   -4.4340   27.4975 C   0  0  0  0  0  0  0  0  0  0  0  0
    1.1818   -5.6612   28.8399 C   0  0  0  0  0  0  0  0  0  0  0  0
   -1.2067   -7.3287   17.7772 C   0  0  0  0  0  0  0  0  0  0  0  0
   -0.0206  -10.5585   16.6210 C   0  0  0  0  0  0  0  0  0  0  0  0
    0.3696  -12.7626   16.2169 O   0  0  0  0  0  0  0  0  0  0  0  0
   -0.6895   -9.5676   17.3297 C   0  0  0  0  0  0  0  0  0  0  0  0
    0.8388   -5.8417   27.5264 C   0  0  0  0  0  0  0  0  0  0  0  0
   -2.0709   -7.6637   18.7817 C   0  0  0  0  0  0  0  0  0  0  0  0
   -0.5279   -8.2168   17.0717 C   0  0  0  0  0  0  0  0  0  0  0  0
    6.9694   -4.0191   27.8190 C   0  0  0  0  0  0  0  0  0  0  0  0
    5.1733   -4.5469   29.8123 C   0  0  0  0  0  0  0  0  0  0  0  0
   -1.7508  -11.3016   18.6072 C   0  0  0  0  0  0  0  0  0  0  0  0
    1.7497   -5.6771   26.4971 C   0  0  0  0  0  0  0  0  0  0  0  0
   -1.5799   -9.9322   18.3468 C   0  0  0  0  0  0  0  0  0  0  0  0
   -1.0871  -12.2214   17.8851 C   0  0  0  0  0  0  0  0  0  0  0  0
   -2.2706   -8.9669   19.0691 C   0  0  0  0  0  0  0  0  0  0  0  0
    3.0279   -5.3073   26.8197 C   0  0  0  0  0  0  0  0  0  0  0  0
    7.3282   -3.8948   29.1186 C   0  0  0  0  0  0  0  0  0  0  0  0
  1  3  4  0
  1  7  4  0
  2  3  1  0
  2  6  4  0
  2 16  4  0
  3 22  4  0
  4  9  4  0
  4 10  1  0
  4 20  4  0
  5 16  4  0
  5 23  4  0
  6 15  4  0
  7 12  4  0
  8 13  4  0
  8 14  4  0
  9 11  4  0
 11 14  4  0
 11 19  4  0
 12 18  4  0
 13 21  4  0
 15 23  4  0
 17 19  4  0
 17 20  4  0
 18 22  4  0
 19 21  4  0
M  END
$$$$

 Created by Python create_sdf_string function

 23 25  0  0  0  0  0  0  0  0999 V2000
    2.4610   -5.3070   29.1240 C   0  0  0  0  0  0  0  0  0  0  0  0
    4.7710   -4.6952   28.4803 C   0  0  0  0  0  0  0  0  0  0  0  0
    3.4047   -5.1087   28.1314 C   0  0  0  0  0  0  0  0  0  0  0  0
   -0.2234  -11.8615   16.8874 C   0  0  0  0  0  0  0  0  0  0  0  0
    6.4491   -4.1532   30.1213 C   0  0  0  0  0  0  0  0  0  0  0  0
    5.7060   -4.4340   27.4975 C   0  0  0  0  0  0  0  0  0  0  0  0
    1.1818   -5.6612   28.8399 C   0  0  0  0  0  0  0  0  0  0  0  0
   -1.2067   -7.3287   17.7772 C   0  0  0  0  0  0  0  0  0  0  0  0
   -0.0206  -10.5585   16.6210 C   0  0  0  0  0  0  0  0  0  0  0  0
    0.3696  -12.7626   16.2169 O   0  0  0  0  0  0  0  0  0  0  0  0
   -0.6895   -9.5676   17.3297 C   0  0  0  0  0  0  0  0  0  0  0  0
    0.8388   -5.8417   27.5264 C   0  0  0  0  0  0  0  0  0  0  0  0
   -2.0709   -7.6637   18.7817 C   0  0  0  0  0  0  0  0  0  0  0  0
   -0.5279   -8.2168   17.0717 C   0  0  0  0  0  0  0  0  0  0  0  0
    6.9694   -4.0191   27.8190 C   0  0  0  0  0  0  0  0  0  0  0  0
    5.1733   -4.5469   29.8123 C   0  0  0  0  0  0  0  0  0  0  0  0
   -1.7508  -11.3016   18.6072 C   0  0  0  0  0  0  0  0  0  0  0  0
    1.7497   -5.6771   26.4971 C   0  0  0  0  0  0  0  0  0  0  0  0
   -1.5799   -9.9322   18.3468 C   0  0  0  0  0  0  0  0  0  0  0  0
   -1.0871  -12.2214   17.8851 C   0  0  0  0  0  0  0  0  0  0  0  0
   -2.2706   -8.9669   19.0691 C   0  0  0  0  0  0  0  0  0  0  0  0
    3.0279   -5.3073   26.8197 C   0  0  0  0  0  0  0  0  0  0  0  0
    7.3282   -3.8948   29.1186 C   0  0  0  0  0  0  0  0  0  0  0  0
  1  3  4  0
  1  7  4  0
  2  3  1  0
  2  6  4  0
  2 16  4  0
  3 22  4  0
  4  9  4  0
  4 10  1  0
  4 20  4  0
  5 16  4  0
  5 23  4  0
  6 15  4  0
  7 12  4  0
  8 13  4  0
  8 14  4  0
  9 11  4  0
 11 14  4  0
 11 19  4  0
 12 18  4  0
 13 21  4  0
 15 23  4  0
 17 19  4  0
 17 20  4  0
 18 22  4  0
 19 21  4  0
M  END
$$$$

 Created by Python create_sdf_string function

 23 25  0  0  0  0  0  0  0  0999 V2000
    2.4610   -5.3070   29.1240 C   0  0  0  0  0  0  0  0  0  0  0  0
    4.7710   -4.6952   28.4803 C   0  0  0  0  0  0  0  0  0  0  0  0
    3.4047   -5.1087   28.1314 C   0  0  0  0  0  0  0  0  0  0  0  0
   -0.2234  -11.8615   16.8874 C   0  0  0  0  0  0  0  0  0  0  0  0
    6.4491   -4.1532   30.1213 C   0  0  0  0  0  0  0  0  0  0  0  0
    5.7060   -4.4340   27.4975 C   0  0  0  0  0  0  0  0  0  0  0  0
    1.1818   -5.6612   28.8399 C   0  0  0  0  0  0  0  0  0  0  0  0
   -1.2067   -7.3287   17.7772 C   0  0  0  0  0  0  0  0  0  0  0  0
   -0.0206  -10.5585   16.6210 C   0  0  0  0  0  0  0  0  0  0  0  0
    0.3696  -12.7626   16.2169 O   0  0  0  0  0  0  0  0  0  0  0  0
   -0.6895   -9.5676   17.3297 C   0  0  0  0  0  0  0  0  0  0  0  0
    0.8388   -5.8417   27.5264 C   0  0  0  0  0  0  0  0  0  0  0  0
   -2.0709   -7.6637   18.7817 C   0  0  0  0  0  0  0  0  0  0  0  0
   -0.5279   -8.2168   17.0717 C   0  0  0  0  0  0  0  0  0  0  0  0
    6.9694   -4.0191   27.8190 C   0  0  0  0  0  0  0  0  0  0  0  0
    5.1733   -4.5469   29.8123 C   0  0  0  0  0  0  0  0  0  0  0  0
   -1.7508  -11.3016   18.6072 C   0  0  0  0  0  0  0  0  0  0  0  0
    1.7497   -5.6771   26.4971 C   0  0  0  0  0  0  0  0  0  0  0  0
   -1.5799   -9.9322   18.3468 C   0  0  0  0  0  0  0  0  0  0  0  0
   -1.0871  -12.2214   17.8851 C   0  0  0  0  0  0  0  0  0  0  0  0
   -2.2706   -8.9669   19.0691 C   0  0  0  0  0  0  0  0  0  0  0  0
    3.0279   -5.3073   26.8197 C   0  0  0  0  0  0  0  0  0  0  0  0
    7.3282   -3.8948   29.1186 C   0  0  0  0  0  0  0  0  0  0  0  0
  1  3  4  0
  1  7  4  0
  2  3  1  0
  2  6  4  0
  2 16  4  0
  3 22  4  0
  4  9  4  0
  4 10  1  0
  4 20  4  0
  5 16  4  0
  5 23  4  0
  6 15  4  0
  7 12  4  0
  8 13  4  0
  8 14  4  0
  9 11  4  0
 11 14  4  0
 11 19  4  0
 12 18  4  0
 13 21  4  0
 15 23  4  0
 17 19  4  0
 17 20  4  0
 18 22  4  0
 19 21  4  0
M  END
$$$$

 Created by Python create_sdf_string function

 23 25  0  0  0  0  0  0  0  0999 V2000
    2.4610   -5.3070   29.1240 C   0  0  0  0  0  0  0  0  0  0  0  0
    4.7710   -4.6952   28.4803 C   0  0  0  0  0  0  0  0  0  0  0  0
    3.4047   -5.1087   28.1314 C   0  0  0  0  0  0  0  0  0  0  0  0
   -0.2234  -11.8615   16.8874 C   0  0  0  0  0  0  0  0  0  0  0  0
    6.4491   -4.1532   30.1213 C   0  0  0  0  0  0  0  0  0  0  0  0
    5.7060   -4.4340   27.4975 C   0  0  0  0  0  0  0  0  0  0  0  0
    1.1818   -5.6612   28.8399 C   0  0  0  0  0  0  0  0  0  0  0  0
   -1.2067   -7.3287   17.7772 C   0  0  0  0  0  0  0  0  0  0  0  0
   -0.0206  -10.5585   16.6210 C   0  0  0  0  0  0  0  0  0  0  0  0
    0.3696  -12.7626   16.2169 O   0  0  0  0  0  0  0  0  0  0  0  0
   -0.6895   -9.5676   17.3297 C   0  0  0  0  0  0  0  0  0  0  0  0
    0.8388   -5.8417   27.5264 C   0  0  0  0  0  0  0  0  0  0  0  0
   -2.0709   -7.6637   18.7817 C   0  0  0  0  0  0  0  0  0  0  0  0
   -0.5279   -8.2168   17.0717 C   0  0  0  0  0  0  0  0  0  0  0  0
    6.9694   -4.0191   27.8190 C   0  0  0  0  0  0  0  0  0  0  0  0
    5.1733   -4.5469   29.8123 C   0  0  0  0  0  0  0  0  0  0  0  0
   -1.7508  -11.3016   18.6072 C   0  0  0  0  0  0  0  0  0  0  0  0
    1.7497   -5.6771   26.4971 C   0  0  0  0  0  0  0  0  0  0  0  0
   -1.5799   -9.9322   18.3468 C   0  0  0  0  0  0  0  0  0  0  0  0
   -1.0871  -12.2214   17.8851 C   0  0  0  0  0  0  0  0  0  0  0  0
   -2.2706   -8.9669   19.0691 C   0  0  0  0  0  0  0  0  0  0  0  0
    3.0279   -5.3073   26.8197 C   0  0  0  0  0  0  0  0  0  0  0  0
    7.3282   -3.8948   29.1186 C   0  0  0  0  0  0  0  0  0  0  0  0
  1  3  4  0
  1  7  4  0
  2  3  1  0
  2  6  4  0
  2 16  4  0
  3 22  4  0
  4  9  4  0
  4 10  1  0
  4 20  4  0
  5 16  4  0
  5 23  4  0
  6 15  4  0
  7 12  4  0
  8 13  4  0
  8 14  4  0
  9 11  4  0
 11 14  4  0
 11 19  4  0
 12 18  4  0
 13 21  4  0
 15 23  4  0
 17 19  4  0
 17 20  4  0
 18 22  4  0
 19 21  4  0
M  END
$$$$

 Created by Python create_sdf_string function

 23 25  0  0  0  0  0  0  0  0999 V2000
    2.4610   -5.3070   29.1240 C   0  0  0  0  0  0  0  0  0  0  0  0
    4.7710   -4.6952   28.4803 C   0  0  0  0  0  0  0  0  0  0  0  0
    3.4047   -5.1087   28.1314 C   0  0  0  0  0  0  0  0  0  0  0  0
   -0.2234  -11.8615   16.8874 C   0  0  0  0  0  0  0  0  0  0  0  0
    6.4491   -4.1532   30.1213 C   0  0  0  0  0  0  0  0  0  0  0  0
    5.7060   -4.4340   27.4975 C   0  0  0  0  0  0  0  0  0  0  0  0
    1.1818   -5.6612   28.8399 C   0  0  0  0  0  0  0  0  0  0  0  0
   -1.2067   -7.3287   17.7772 C   0  0  0  0  0  0  0  0  0  0  0  0
   -0.0206  -10.5585   16.6210 C   0  0  0  0  0  0  0  0  0  0  0  0
    0.3696  -12.7626   16.2169 O   0  0  0  0  0  0  0  0  0  0  0  0
   -0.6895   -9.5676   17.3297 C   0  0  0  0  0  0  0  0  0  0  0  0
    0.8388   -5.8417   27.5264 C   0  0  0  0  0  0  0  0  0  0  0  0
   -2.0709   -7.6637   18.7817 C   0  0  0  0  0  0  0  0  0  0  0  0
   -0.5279   -8.2168   17.0717 C   0  0  0  0  0  0  0  0  0  0  0  0
    6.9694   -4.0191   27.8190 C   0  0  0  0  0  0  0  0  0  0  0  0
    5.1733   -4.5469   29.8123 C   0  0  0  0  0  0  0  0  0  0  0  0
   -1.7508  -11.3016   18.6072 C   0  0  0  0  0  0  0  0  0  0  0  0
    1.7497   -5.6771   26.4971 C   0  0  0  0  0  0  0  0  0  0  0  0
   -1.5799   -9.9322   18.3468 C   0  0  0  0  0  0  0  0  0  0  0  0
   -1.0871  -12.2214   17.8851 C   0  0  0  0  0  0  0  0  0  0  0  0
   -2.2706   -8.9669   19.0691 C   0  0  0  0  0  0  0  0  0  0  0  0
    3.0279   -5.3073   26.8197 C   0  0  0  0  0  0  0  0  0  0  0  0
    7.3282   -3.8948   29.1186 C   0  0  0  0  0  0  0  0  0  0  0  0
  1  3  4  0
  1  7  4  0
  2  3  1  0
  2  6  4  0
  2 16  4  0
  3 22  4  0
  4  9  4  0
  4 10  1  0
  4 20  4  0
  5 16  4  0
  5 23  4  0
  6 15  4  0
  7 12  4  0
  8 13  4  0
  8 14  4  0
  9 11  4  0
 11 14  4  0
 11 19  4  0
 12 18  4  0
 13 21  4  0
 15 23  4  0
 17 19  4  0
 17 20  4  0
 18 22  4  0
 19 21  4  0
M  END
$$$$

 Created by Python create_sdf_string function

 23 25  0  0  0  0  0  0  0  0999 V2000
    2.4610   -5.3070   29.1240 C   0  0  0  0  0  0  0  0  0  0  0  0
    4.7710   -4.6952   28.4803 C   0  0  0  0  0  0  0  0  0  0  0  0
    3.4047   -5.1087   28.1314 C   0  0  0  0  0  0  0  0  0  0  0  0
   -0.2234  -11.8615   16.8874 C   0  0  0  0  0  0  0  0  0  0  0  0
    6.4491   -4.1532   30.1213 C   0  0  0  0  0  0  0  0  0  0  0  0
    5.7060   -4.4340   27.4975 C   0  0  0  0  0  0  0  0  0  0  0  0
    1.1818   -5.6612   28.8399 C   0  0  0  0  0  0  0  0  0  0  0  0
   -1.2067   -7.3287   17.7772 C   0  0  0  0  0  0  0  0  0  0  0  0
   -0.0206  -10.5585   16.6210 C   0  0  0  0  0  0  0  0  0  0  0  0
    0.3696  -12.7626   16.2169 O   0  0  0  0  0  0  0  0  0  0  0  0
   -0.6895   -9.5676   17.3297 C   0  0  0  0  0  0  0  0  0  0  0  0
    0.8388   -5.8417   27.5264 C   0  0  0  0  0  0  0  0  0  0  0  0
   -2.0709   -7.6637   18.7817 C   0  0  0  0  0  0  0  0  0  0  0  0
   -0.5279   -8.2168   17.0717 C   0  0  0  0  0  0  0  0  0  0  0  0
    6.9694   -4.0191   27.8190 C   0  0  0  0  0  0  0  0  0  0  0  0
    5.1733   -4.5469   29.8123 C   0  0  0  0  0  0  0  0  0  0  0  0
   -1.7508  -11.3016   18.6072 C   0  0  0  0  0  0  0  0  0  0  0  0
    1.7497   -5.6771   26.4971 C   0  0  0  0  0  0  0  0  0  0  0  0
   -1.5799   -9.9322   18.3468 C   0  0  0  0  0  0  0  0  0  0  0  0
   -1.0871  -12.2214   17.8851 C   0  0  0  0  0  0  0  0  0  0  0  0
   -2.2706   -8.9669   19.0691 C   0  0  0  0  0  0  0  0  0  0  0  0
    3.0279   -5.3073   26.8197 C   0  0  0  0  0  0  0  0  0  0  0  0
    7.3282   -3.8948   29.1186 C   0  0  0  0  0  0  0  0  0  0  0  0
  1  3  4  0
  1  7  4  0
  2  3  1  0
  2  6  4  0
  2 16  4  0
  3 22  4  0
  4  9  4  0
  4 10  1  0
  4 20  4  0
  5 16  4  0
  5 23  4  0
  6 15  4  0
  7 12  4  0
  8 13  4  0
  8 14  4  0
  9 11  4  0
 11 14  4  0
 11 19  4  0
 12 18  4  0
 13 21  4  0
 15 23  4  0
 17 19  4  0
 17 20  4  0
 18 22  4  0
 19 21  4  0
M  END
$$$$

 Created by Python create_sdf_string function

 23 25  0  0  0  0  0  0  0  0999 V2000
    2.4610   -5.3070   29.1240 C   0  0  0  0  0  0  0  0  0  0  0  0
    4.7710   -4.6952   28.4803 C   0  0  0  0  0  0  0  0  0  0  0  0
    3.4047   -5.1087   28.1314 C   0  0  0  0  0  0  0  0  0  0  0  0
   -0.2234  -11.8615   16.8874 C   0  0  0  0  0  0  0  0  0  0  0  0
    6.4491   -4.1532   30.1213 C   0  0  0  0  0  0  0  0  0  0  0  0
    5.7060   -4.4340   27.4975 C   0  0  0  0  0  0  0  0  0  0  0  0
    1.1818   -5.6612   28.8399 C   0  0  0  0  0  0  0  0  0  0  0  0
   -1.2067   -7.3287   17.7772 C   0  0  0  0  0  0  0  0  0  0  0  0
   -0.0206  -10.5585   16.6210 C   0  0  0  0  0  0  0  0  0  0  0  0
    0.3696  -12.7626   16.2169 O   0  0  0  0  0  0  0  0  0  0  0  0
   -0.6895   -9.5676   17.3297 C   0  0  0  0  0  0  0  0  0  0  0  0
    0.8388   -5.8417   27.5264 C   0  0  0  0  0  0  0  0  0  0  0  0
   -2.0709   -7.6637   18.7817 C   0  0  0  0  0  0  0  0  0  0  0  0
   -0.5279   -8.2168   17.0717 C   0  0  0  0  0  0  0  0  0  0  0  0
    6.9694   -4.0191   27.8190 C   0  0  0  0  0  0  0  0  0  0  0  0
    5.1733   -4.5469   29.8123 C   0  0  0  0  0  0  0  0  0  0  0  0
   -1.7508  -11.3016   18.6072 C   0  0  0  0  0  0  0  0  0  0  0  0
    1.7497   -5.6771   26.4971 C   0  0  0  0  0  0  0  0  0  0  0  0
   -1.5799   -9.9322   18.3468 C   0  0  0  0  0  0  0  0  0  0  0  0
   -1.0871  -12.2214   17.8851 C   0  0  0  0  0  0  0  0  0  0  0  0
   -2.2706   -8.9669   19.0691 C   0  0  0  0  0  0  0  0  0  0  0  0
    3.0279   -5.3073   26.8197 C   0  0  0  0  0  0  0  0  0  0  0  0
    7.3282   -3.8948   29.1186 C   0  0  0  0  0  0  0  0  0  0  0  0
  1  3  4  0
  1  7  4  0
  2  3  1  0
  2  6  4  0
  2 16  4  0
  3 22  4  0
  4  9  4  0
  4 10  1  0
  4 20  4  0
  5 16  4  0
  5 23  4  0
  6 15  4  0
  7 12  4  0
  8 13  4  0
  8 14  4  0
  9 11  4  0
 11 14  4  0
 11 19  4  0
 12 18  4  0
 13 21  4  0
 15 23  4  0
 17 19  4  0
 17 20  4  0
 18 22  4  0
 19 21  4  0
M  END
$$$$

 Created by Python create_sdf_string function

 23 25  0  0  0  0  0  0  0  0999 V2000
    2.4610   -5.3070   29.1240 C   0  0  0  0  0  0  0  0  0  0  0  0
    4.7710   -4.6952   28.4803 C   0  0  0  0  0  0  0  0  0  0  0  0
    3.4047   -5.1087   28.1314 C   0  0  0  0  0  0  0  0  0  0  0  0
   -0.2234  -11.8615   16.8874 C   0  0  0  0  0  0  0  0  0  0  0  0
    6.4491   -4.1532   30.1213 C   0  0  0  0  0  0  0  0  0  0  0  0
    5.7060   -4.4340   27.4975 C   0  0  0  0  0  0  0  0  0  0  0  0
    1.1818   -5.6612   28.8399 C   0  0  0  0  0  0  0  0  0  0  0  0
   -1.2067   -7.3287   17.7772 C   0  0  0  0  0  0  0  0  0  0  0  0
   -0.0206  -10.5585   16.6210 C   0  0  0  0  0  0  0  0  0  0  0  0
    0.3696  -12.7626   16.2169 O   0  0  0  0  0  0  0  0  0  0  0  0
   -0.6895   -9.5676   17.3297 C   0  0  0  0  0  0  0  0  0  0  0  0
    0.8388   -5.8417   27.5264 C   0  0  0  0  0  0  0  0  0  0  0  0
   -2.0709   -7.6637   18.7817 C   0  0  0  0  0  0  0  0  0  0  0  0
   -0.5279   -8.2168   17.0717 C   0  0  0  0  0  0  0  0  0  0  0  0
    6.9694   -4.0191   27.8190 C   0  0  0  0  0  0  0  0  0  0  0  0
    5.1733   -4.5469   29.8123 C   0  0  0  0  0  0  0  0  0  0  0  0
   -1.7508  -11.3016   18.6072 C   0  0  0  0  0  0  0  0  0  0  0  0
    1.7497   -5.6771   26.4971 C   0  0  0  0  0  0  0  0  0  0  0  0
   -1.5799   -9.9322   18.3468 C   0  0  0  0  0  0  0  0  0  0  0  0
   -1.0871  -12.2214   17.8851 C   0  0  0  0  0  0  0  0  0  0  0  0
   -2.2706   -8.9669   19.0691 C   0  0  0  0  0  0  0  0  0  0  0  0
    3.0279   -5.3073   26.8197 C   0  0  0  0  0  0  0  0  0  0  0  0
    7.3282   -3.8948   29.1186 C   0  0  0  0  0  0  0  0  0  0  0  0
  1  3  4  0
  1  7  4  0
  2  3  1  0
  2  6  4  0
  2 16  4  0
  3 22  4  0
  4  9  4  0
  4 10  1  0
  4 20  4  0
  5 16  4  0
  5 23  4  0
  6 15  4  0
  7 12  4  0
  8 13  4  0
  8 14  4  0
  9 11  4  0
 11 14  4  0
 11 19  4  0
 12 18  4  0
 13 21  4  0
 15 23  4  0
 17 19  4  0
 17 20  4  0
 18 22  4  0
 19 21  4  0
M  END
$$$$

 Created by Python create_sdf_string function

 23 25  0  0  0  0  0  0  0  0999 V2000
    2.4610   -5.3070   29.1240 C   0  0  0  0  0  0  0  0  0  0  0  0
    4.7710   -4.6952   28.4803 C   0  0  0  0  0  0  0  0  0  0  0  0
    3.4047   -5.1087   28.1314 C   0  0  0  0  0  0  0  0  0  0  0  0
   -0.2234  -11.8615   16.8874 C   0  0  0  0  0  0  0  0  0  0  0  0
    6.4491   -4.1532   30.1213 C   0  0  0  0  0  0  0  0  0  0  0  0
    5.7060   -4.4340   27.4975 C   0  0  0  0  0  0  0  0  0  0  0  0
    1.1818   -5.6612   28.8399 C   0  0  0  0  0  0  0  0  0  0  0  0
   -1.2067   -7.3287   17.7772 C   0  0  0  0  0  0  0  0  0  0  0  0
   -0.0206  -10.5585   16.6210 C   0  0  0  0  0  0  0  0  0  0  0  0
    0.3696  -12.7626   16.2169 O   0  0  0  0  0  0  0  0  0  0  0  0
   -0.6895   -9.5676   17.3297 C   0  0  0  0  0  0  0  0  0  0  0  0
    0.8388   -5.8417   27.5264 C   0  0  0  0  0  0  0  0  0  0  0  0
   -2.0709   -7.6637   18.7817 C   0  0  0  0  0  0  0  0  0  0  0  0
   -0.5279   -8.2168   17.0717 C   0  0  0  0  0  0  0  0  0  0  0  0
    6.9694   -4.0191   27.8190 C   0  0  0  0  0  0  0  0  0  0  0  0
    5.1733   -4.5469   29.8123 C   0  0  0  0  0  0  0  0  0  0  0  0
   -1.7508  -11.3016   18.6072 C   0  0  0  0  0  0  0  0  0  0  0  0
    1.7497   -5.6771   26.4971 C   0  0  0  0  0  0  0  0  0  0  0  0
   -1.5799   -9.9322   18.3468 C   0  0  0  0  0  0  0  0  0  0  0  0
   -1.0871  -12.2214   17.8851 C   0  0  0  0  0  0  0  0  0  0  0  0
   -2.2706   -8.9669   19.0691 C   0  0  0  0  0  0  0  0  0  0  0  0
    3.0279   -5.3073   26.8197 C   0  0  0  0  0  0  0  0  0  0  0  0
    7.3282   -3.8948   29.1186 C   0  0  0  0  0  0  0  0  0  0  0  0
  1  3  4  0
  1  7  4  0
  2  3  1  0
  2  6  4  0
  2 16  4  0
  3 22  4  0
  4  9  4  0
  4 10  1  0
  4 20  4  0
  5 16  4  0
  5 23  4  0
  6 15  4  0
  7 12  4  0
  8 13  4  0
  8 14  4  0
  9 11  4  0
 11 14  4  0
 11 19  4  0
 12 18  4  0
 13 21  4  0
 15 23  4  0
 17 19  4  0
 17 20  4  0
 18 22  4  0
 19 21  4  0
M  END
$$$$

 Created by Python create_sdf_string function

 23 25  0  0  0  0  0  0  0  0999 V2000
    2.4610   -5.3070   29.1240 C   0  0  0  0  0  0  0  0  0  0  0  0
    4.7710   -4.6952   28.4803 C   0  0  0  0  0  0  0  0  0  0  0  0
    3.4047   -5.1087   28.1314 C   0  0  0  0  0  0  0  0  0  0  0  0
   -0.2234  -11.8615   16.8874 C   0  0  0  0  0  0  0  0  0  0  0  0
    6.4491   -4.1532   30.1213 C   0  0  0  0  0  0  0  0  0  0  0  0
    5.7060   -4.4340   27.4975 C   0  0  0  0  0  0  0  0  0  0  0  0
    1.1818   -5.6612   28.8399 C   0  0  0  0  0  0  0  0  0  0  0  0
   -1.2067   -7.3287   17.7772 C   0  0  0  0  0  0  0  0  0  0  0  0
   -0.0206  -10.5585   16.6210 C   0  0  0  0  0  0  0  0  0  0  0  0
    0.3696  -12.7626   16.2169 O   0  0  0  0  0  0  0  0  0  0  0  0
   -0.6895   -9.5676   17.3297 C   0  0  0  0  0  0  0  0  0  0  0  0
    0.8388   -5.8417   27.5264 C   0  0  0  0  0  0  0  0  0  0  0  0
   -2.0709   -7.6637   18.7817 C   0  0  0  0  0  0  0  0  0  0  0  0
   -0.5279   -8.2168   17.0717 C   0  0  0  0  0  0  0  0  0  0  0  0
    6.9694   -4.0191   27.8190 C   0  0  0  0  0  0  0  0  0  0  0  0
    5.1733   -4.5469   29.8123 C   0  0  0  0  0  0  0  0  0  0  0  0
   -1.7508  -11.3016   18.6072 C   0  0  0  0  0  0  0  0  0  0  0  0
    1.7497   -5.6771   26.4971 C   0  0  0  0  0  0  0  0  0  0  0  0
   -1.5799   -9.9322   18.3468 C   0  0  0  0  0  0  0  0  0  0  0  0
   -1.0871  -12.2214   17.8851 C   0  0  0  0  0  0  0  0  0  0  0  0
   -2.2706   -8.9669   19.0691 C   0  0  0  0  0  0  0  0  0  0  0  0
    3.0279   -5.3073   26.8197 C   0  0  0  0  0  0  0  0  0  0  0  0
    7.3282   -3.8948   29.1186 C   0  0  0  0  0  0  0  0  0  0  0  0
  1  3  4  0
  1  7  4  0
  2  3  1  0
  2  6  4  0
  2 16  4  0
  3 22  4  0
  4  9  4  0
  4 10  1  0
  4 20  4  0
  5 16  4  0
  5 23  4  0
  6 15  4  0
  7 12  4  0
  8 13  4  0
  8 14  4  0
  9 11  4  0
 11 14  4  0
 11 19  4  0
 12 18  4  0
 13 21  4  0
 15 23  4  0
 17 19  4  0
 17 20  4  0
 18 22  4  0
 19 21  4  0
M  END
$$$$

 Created by Python create_sdf_string function

 23 25  0  0  0  0  0  0  0  0999 V2000
    2.4610   -5.3070   29.1240 C   0  0  0  0  0  0  0  0  0  0  0  0
    4.7710   -4.6952   28.4803 C   0  0  0  0  0  0  0  0  0  0  0  0
    3.4047   -5.1087   28.1314 C   0  0  0  0  0  0  0  0  0  0  0  0
   -0.2234  -11.8615   16.8874 C   0  0  0  0  0  0  0  0  0  0  0  0
    6.4491   -4.1532   30.1213 C   0  0  0  0  0  0  0  0  0  0  0  0
    5.7060   -4.4340   27.4975 C   0  0  0  0  0  0  0  0  0  0  0  0
    1.1818   -5.6612   28.8399 C   0  0  0  0  0  0  0  0  0  0  0  0
   -1.2067   -7.3287   17.7772 C   0  0  0  0  0  0  0  0  0  0  0  0
   -0.0206  -10.5585   16.6210 C   0  0  0  0  0  0  0  0  0  0  0  0
    0.3696  -12.7626   16.2169 O   0  0  0  0  0  0  0  0  0  0  0  0
   -0.6895   -9.5676   17.3297 C   0  0  0  0  0  0  0  0  0  0  0  0
    0.8388   -5.8417   27.5264 C   0  0  0  0  0  0  0  0  0  0  0  0
   -2.0709   -7.6637   18.7817 C   0  0  0  0  0  0  0  0  0  0  0  0
   -0.5279   -8.2168   17.0717 C   0  0  0  0  0  0  0  0  0  0  0  0
    6.9694   -4.0191   27.8190 C   0  0  0  0  0  0  0  0  0  0  0  0
    5.1733   -4.5469   29.8123 C   0  0  0  0  0  0  0  0  0  0  0  0
   -1.7508  -11.3016   18.6072 C   0  0  0  0  0  0  0  0  0  0  0  0
    1.7497   -5.6771   26.4971 C   0  0  0  0  0  0  0  0  0  0  0  0
   -1.5799   -9.9322   18.3468 C   0  0  0  0  0  0  0  0  0  0  0  0
   -1.0871  -12.2214   17.8851 C   0  0  0  0  0  0  0  0  0  0  0  0
   -2.2706   -8.9669   19.0691 C   0  0  0  0  0  0  0  0  0  0  0  0
    3.0279   -5.3073   26.8197 C   0  0  0  0  0  0  0  0  0  0  0  0
    7.3282   -3.8948   29.1186 C   0  0  0  0  0  0  0  0  0  0  0  0
  1  3  4  0
  1  7  4  0
  2  3  1  0
  2  6  4  0
  2 16  4  0
  3 22  4  0
  4  9  4  0
  4 10  1  0
  4 20  4  0
  5 16  4  0
  5 23  4  0
  6 15  4  0
  7 12  4  0
  8 13  4  0
  8 14  4  0
  9 11  4  0
 11 14  4  0
 11 19  4  0
 12 18  4  0
 13 21  4  0
 15 23  4  0
 17 19  4  0
 17 20  4  0
 18 22  4  0
 19 21  4  0
M  END
$$$$

 Created by Python create_sdf_string function

 23 25  0  0  0  0  0  0  0  0999 V2000
    2.4610   -5.3070   29.1240 C   0  0  0  0  0  0  0  0  0  0  0  0
    4.7710   -4.6952   28.4803 C   0  0  0  0  0  0  0  0  0  0  0  0
    3.4047   -5.1087   28.1314 C   0  0  0  0  0  0  0  0  0  0  0  0
   -0.2234  -11.8615   16.8874 C   0  0  0  0  0  0  0  0  0  0  0  0
    6.4491   -4.1532   30.1213 C   0  0  0  0  0  0  0  0  0  0  0  0
    5.7060   -4.4340   27.4975 C   0  0  0  0  0  0  0  0  0  0  0  0
    1.1818   -5.6612   28.8399 C   0  0  0  0  0  0  0  0  0  0  0  0
   -1.2067   -7.3287   17.7772 C   0  0  0  0  0  0  0  0  0  0  0  0
   -0.0206  -10.5585   16.6210 C   0  0  0  0  0  0  0  0  0  0  0  0
    0.3696  -12.7626   16.2169 O   0  0  0  0  0  0  0  0  0  0  0  0
   -0.6895   -9.5676   17.3297 C   0  0  0  0  0  0  0  0  0  0  0  0
    0.8388   -5.8417   27.5264 C   0  0  0  0  0  0  0  0  0  0  0  0
   -2.0709   -7.6637   18.7817 C   0  0  0  0  0  0  0  0  0  0  0  0
   -0.5279   -8.2168   17.0717 C   0  0  0  0  0  0  0  0  0  0  0  0
    6.9694   -4.0191   27.8190 C   0  0  0  0  0  0  0  0  0  0  0  0
    5.1733   -4.5469   29.8123 C   0  0  0  0  0  0  0  0  0  0  0  0
   -1.7508  -11.3016   18.6072 C   0  0  0  0  0  0  0  0  0  0  0  0
    1.7497   -5.6771   26.4971 C   0  0  0  0  0  0  0  0  0  0  0  0
   -1.5799   -9.9322   18.3468 C   0  0  0  0  0  0  0  0  0  0  0  0
   -1.0871  -12.2214   17.8851 C   0  0  0  0  0  0  0  0  0  0  0  0
   -2.2706   -8.9669   19.0691 C   0  0  0  0  0  0  0  0  0  0  0  0
    3.0279   -5.3073   26.8197 C   0  0  0  0  0  0  0  0  0  0  0  0
    7.3282   -3.8948   29.1186 C   0  0  0  0  0  0  0  0  0  0  0  0
  1  3  4  0
  1  7  4  0
  2  3  1  0
  2  6  4  0
  2 16  4  0
  3 22  4  0
  4  9  4  0
  4 10  1  0
  4 20  4  0
  5 16  4  0
  5 23  4  0
  6 15  4  0
  7 12  4  0
  8 13  4  0
  8 14  4  0
  9 11  4  0
 11 14  4  0
 11 19  4  0
 12 18  4  0
 13 21  4  0
 15 23  4  0
 17 19  4  0
 17 20  4  0
 18 22  4  0
 19 21  4  0
M  END
$$$$

 Created by Python create_sdf_string function

 23 25  0  0  0  0  0  0  0  0999 V2000
    2.4610   -5.3070   29.1240 C   0  0  0  0  0  0  0  0  0  0  0  0
    4.7710   -4.6952   28.4803 C   0  0  0  0  0  0  0  0  0  0  0  0
    3.4047   -5.1087   28.1314 C   0  0  0  0  0  0  0  0  0  0  0  0
   -0.2234  -11.8615   16.8874 C   0  0  0  0  0  0  0  0  0  0  0  0
    6.4491   -4.1532   30.1213 C   0  0  0  0  0  0  0  0  0  0  0  0
    5.7060   -4.4340   27.4975 C   0  0  0  0  0  0  0  0  0  0  0  0
    1.1818   -5.6612   28.8399 C   0  0  0  0  0  0  0  0  0  0  0  0
   -1.2067   -7.3287   17.7772 C   0  0  0  0  0  0  0  0  0  0  0  0
   -0.0206  -10.5585   16.6210 C   0  0  0  0  0  0  0  0  0  0  0  0
    0.3696  -12.7626   16.2169 O   0  0  0  0  0  0  0  0  0  0  0  0
   -0.6895   -9.5676   17.3297 C   0  0  0  0  0  0  0  0  0  0  0  0
    0.8388   -5.8417   27.5264 C   0  0  0  0  0  0  0  0  0  0  0  0
   -2.0709   -7.6637   18.7817 C   0  0  0  0  0  0  0  0  0  0  0  0
   -0.5279   -8.2168   17.0717 C   0  0  0  0  0  0  0  0  0  0  0  0
    6.9694   -4.0191   27.8190 C   0  0  0  0  0  0  0  0  0  0  0  0
    5.1733   -4.5469   29.8123 C   0  0  0  0  0  0  0  0  0  0  0  0
   -1.7508  -11.3016   18.6072 C   0  0  0  0  0  0  0  0  0  0  0  0
    1.7497   -5.6771   26.4971 C   0  0  0  0  0  0  0  0  0  0  0  0
   -1.5799   -9.9322   18.3468 C   0  0  0  0  0  0  0  0  0  0  0  0
   -1.0871  -12.2214   17.8851 C   0  0  0  0  0  0  0  0  0  0  0  0
   -2.2706   -8.9669   19.0691 C   0  0  0  0  0  0  0  0  0  0  0  0
    3.0279   -5.3073   26.8197 C   0  0  0  0  0  0  0  0  0  0  0  0
    7.3282   -3.8948   29.1186 C   0  0  0  0  0  0  0  0  0  0  0  0
  1  3  4  0
  1  7  4  0
  2  3  1  0
  2  6  4  0
  2 16  4  0
  3 22  4  0
  4  9  4  0
  4 10  1  0
  4 20  4  0
  5 16  4  0
  5 23  4  0
  6 15  4  0
  7 12  4  0
  8 13  4  0
  8 14  4  0
  9 11  4  0
 11 14  4  0
 11 19  4  0
 12 18  4  0
 13 21  4  0
 15 23  4  0
 17 19  4  0
 17 20  4  0
 18 22  4  0
 19 21  4  0
M  END
$$$$

 Created by Python create_sdf_string function

 23 25  0  0  0  0  0  0  0  0999 V2000
    2.4610   -5.3070   29.1240 C   0  0  0  0  0  0  0  0  0  0  0  0
    4.7710   -4.6952   28.4803 C   0  0  0  0  0  0  0  0  0  0  0  0
    3.4047   -5.1087   28.1314 C   0  0  0  0  0  0  0  0  0  0  0  0
   -0.2234  -11.8615   16.8874 C   0  0  0  0  0  0  0  0  0  0  0  0
    6.4491   -4.1532   30.1213 C   0  0  0  0  0  0  0  0  0  0  0  0
    5.7060   -4.4340   27.4975 C   0  0  0  0  0  0  0  0  0  0  0  0
    1.1818   -5.6612   28.8399 C   0  0  0  0  0  0  0  0  0  0  0  0
   -1.2067   -7.3287   17.7772 C   0  0  0  0  0  0  0  0  0  0  0  0
   -0.0206  -10.5585   16.6210 C   0  0  0  0  0  0  0  0  0  0  0  0
    0.3696  -12.7626   16.2169 O   0  0  0  0  0  0  0  0  0  0  0  0
   -0.6895   -9.5676   17.3297 C   0  0  0  0  0  0  0  0  0  0  0  0
    0.8388   -5.8417   27.5264 C   0  0  0  0  0  0  0  0  0  0  0  0
   -2.0709   -7.6637   18.7817 C   0  0  0  0  0  0  0  0  0  0  0  0
   -0.5279   -8.2168   17.0717 C   0  0  0  0  0  0  0  0  0  0  0  0
    6.9694   -4.0191   27.8190 C   0  0  0  0  0  0  0  0  0  0  0  0
    5.1733   -4.5469   29.8123 C   0  0  0  0  0  0  0  0  0  0  0  0
   -1.7508  -11.3016   18.6072 C   0  0  0  0  0  0  0  0  0  0  0  0
    1.7497   -5.6771   26.4971 C   0  0  0  0  0  0  0  0  0  0  0  0
   -1.5799   -9.9322   18.3468 C   0  0  0  0  0  0  0  0  0  0  0  0
   -1.0871  -12.2214   17.8851 C   0  0  0  0  0  0  0  0  0  0  0  0
   -2.2706   -8.9669   19.0691 C   0  0  0  0  0  0  0  0  0  0  0  0
    3.0279   -5.3073   26.8197 C   0  0  0  0  0  0  0  0  0  0  0  0
    7.3282   -3.8948   29.1186 C   0  0  0  0  0  0  0  0  0  0  0  0
  1  3  4  0
  1  7  4  0
  2  3  1  0
  2  6  4  0
  2 16  4  0
  3 22  4  0
  4  9  4  0
  4 10  1  0
  4 20  4  0
  5 16  4  0
  5 23  4  0
  6 15  4  0
  7 12  4  0
  8 13  4  0
  8 14  4  0
  9 11  4  0
 11 14  4  0
 11 19  4  0
 12 18  4  0
 13 21  4  0
 15 23  4  0
 17 19  4  0
 17 20  4  0
 18 22  4  0
 19 21  4  0
M  END
$$$$

 Created by Python create_sdf_string function

 23 25  0  0  0  0  0  0  0  0999 V2000
    2.4610   -5.3070   29.1240 C   0  0  0  0  0  0  0  0  0  0  0  0
    4.7710   -4.6952   28.4803 C   0  0  0  0  0  0  0  0  0  0  0  0
    3.4047   -5.1087   28.1314 C   0  0  0  0  0  0  0  0  0  0  0  0
   -0.2234  -11.8615   16.8874 C   0  0  0  0  0  0  0  0  0  0  0  0
    6.4491   -4.1532   30.1213 C   0  0  0  0  0  0  0  0  0  0  0  0
    5.7060   -4.4340   27.4975 C   0  0  0  0  0  0  0  0  0  0  0  0
    1.1818   -5.6612   28.8399 C   0  0  0  0  0  0  0  0  0  0  0  0
   -1.2067   -7.3287   17.7772 C   0  0  0  0  0  0  0  0  0  0  0  0
   -0.0206  -10.5585   16.6210 C   0  0  0  0  0  0  0  0  0  0  0  0
    0.3696  -12.7626   16.2169 O   0  0  0  0  0  0  0  0  0  0  0  0
   -0.6895   -9.5676   17.3297 C   0  0  0  0  0  0  0  0  0  0  0  0
    0.8388   -5.8417   27.5264 C   0  0  0  0  0  0  0  0  0  0  0  0
   -2.0709   -7.6637   18.7817 C   0  0  0  0  0  0  0  0  0  0  0  0
   -0.5279   -8.2168   17.0717 C   0  0  0  0  0  0  0  0  0  0  0  0
    6.9694   -4.0191   27.8190 C   0  0  0  0  0  0  0  0  0  0  0  0
    5.1733   -4.5469   29.8123 C   0  0  0  0  0  0  0  0  0  0  0  0
   -1.7508  -11.3016   18.6072 C   0  0  0  0  0  0  0  0  0  0  0  0
    1.7497   -5.6771   26.4971 C   0  0  0  0  0  0  0  0  0  0  0  0
   -1.5799   -9.9322   18.3468 C   0  0  0  0  0  0  0  0  0  0  0  0
   -1.0871  -12.2214   17.8851 C   0  0  0  0  0  0  0  0  0  0  0  0
   -2.2706   -8.9669   19.0691 C   0  0  0  0  0  0  0  0  0  0  0  0
    3.0279   -5.3073   26.8197 C   0  0  0  0  0  0  0  0  0  0  0  0
    7.3282   -3.8948   29.1186 C   0  0  0  0  0  0  0  0  0  0  0  0
  1  3  4  0
  1  7  4  0
  2  3  1  0
  2  6  4  0
  2 16  4  0
  3 22  4  0
  4  9  4  0
  4 10  1  0
  4 20  4  0
  5 16  4  0
  5 23  4  0
  6 15  4  0
  7 12  4  0
  8 13  4  0
  8 14  4  0
  9 11  4  0
 11 14  4  0
 11 19  4  0
 12 18  4  0
 13 21  4  0
 15 23  4  0
 17 19  4  0
 17 20  4  0
 18 22  4  0
 19 21  4  0
M  END
$$$$

 Created by Python create_sdf_string function

 23 25  0  0  0  0  0  0  0  0999 V2000
    2.4610   -5.3070   29.1240 C   0  0  0  0  0  0  0  0  0  0  0  0
    4.7710   -4.6952   28.4803 C   0  0  0  0  0  0  0  0  0  0  0  0
    3.4047   -5.1087   28.1314 C   0  0  0  0  0  0  0  0  0  0  0  0
   -0.2234  -11.8615   16.8874 C   0  0  0  0  0  0  0  0  0  0  0  0
    6.4491   -4.1532   30.1213 C   0  0  0  0  0  0  0  0  0  0  0  0
    5.7060   -4.4340   27.4975 C   0  0  0  0  0  0  0  0  0  0  0  0
    1.1818   -5.6612   28.8399 C   0  0  0  0  0  0  0  0  0  0  0  0
   -1.2067   -7.3287   17.7772 C   0  0  0  0  0  0  0  0  0  0  0  0
   -0.0206  -10.5585   16.6210 C   0  0  0  0  0  0  0  0  0  0  0  0
    0.3696  -12.7626   16.2169 O   0  0  0  0  0  0  0  0  0  0  0  0
   -0.6895   -9.5676   17.3297 C   0  0  0  0  0  0  0  0  0  0  0  0
    0.8388   -5.8417   27.5264 C   0  0  0  0  0  0  0  0  0  0  0  0
   -2.0709   -7.6637   18.7817 C   0  0  0  0  0  0  0  0  0  0  0  0
   -0.5279   -8.2168   17.0717 C   0  0  0  0  0  0  0  0  0  0  0  0
    6.9694   -4.0191   27.8190 C   0  0  0  0  0  0  0  0  0  0  0  0
    5.1733   -4.5469   29.8123 C   0  0  0  0  0  0  0  0  0  0  0  0
   -1.7508  -11.3016   18.6072 C   0  0  0  0  0  0  0  0  0  0  0  0
    1.7497   -5.6771   26.4971 C   0  0  0  0  0  0  0  0  0  0  0  0
   -1.5799   -9.9322   18.3468 C   0  0  0  0  0  0  0  0  0  0  0  0
   -1.0871  -12.2214   17.8851 C   0  0  0  0  0  0  0  0  0  0  0  0
   -2.2706   -8.9669   19.0691 C   0  0  0  0  0  0  0  0  0  0  0  0
    3.0279   -5.3073   26.8197 C   0  0  0  0  0  0  0  0  0  0  0  0
    7.3282   -3.8948   29.1186 C   0  0  0  0  0  0  0  0  0  0  0  0
  1  3  4  0
  1  7  4  0
  2  3  1  0
  2  6  4  0
  2 16  4  0
  3 22  4  0
  4  9  4  0
  4 10  1  0
  4 20  4  0
  5 16  4  0
  5 23  4  0
  6 15  4  0
  7 12  4  0
  8 13  4  0
  8 14  4  0
  9 11  4  0
 11 14  4  0
 11 19  4  0
 12 18  4  0
 13 21  4  0
 15 23  4  0
 17 19  4  0
 17 20  4  0
 18 22  4  0
 19 21  4  0
M  END
$$$$

 Created by Python create_sdf_string function

 23 25  0  0  0  0  0  0  0  0999 V2000
    2.4610   -5.3070   29.1240 C   0  0  0  0  0  0  0  0  0  0  0  0
    4.7710   -4.6952   28.4803 C   0  0  0  0  0  0  0  0  0  0  0  0
    3.4047   -5.1087   28.1314 C   0  0  0  0  0  0  0  0  0  0  0  0
   -0.2234  -11.8615   16.8874 C   0  0  0  0  0  0  0  0  0  0  0  0
    6.4491   -4.1532   30.1213 C   0  0  0  0  0  0  0  0  0  0  0  0
    5.7060   -4.4340   27.4975 C   0  0  0  0  0  0  0  0  0  0  0  0
    1.1818   -5.6612   28.8399 C   0  0  0  0  0  0  0  0  0  0  0  0
   -1.2067   -7.3287   17.7772 C   0  0  0  0  0  0  0  0  0  0  0  0
   -0.0206  -10.5585   16.6210 C   0  0  0  0  0  0  0  0  0  0  0  0
    0.3696  -12.7626   16.2169 O   0  0  0  0  0  0  0  0  0  0  0  0
   -0.6895   -9.5676   17.3297 C   0  0  0  0  0  0  0  0  0  0  0  0
    0.8388   -5.8417   27.5264 C   0  0  0  0  0  0  0  0  0  0  0  0
   -2.0709   -7.6637   18.7817 C   0  0  0  0  0  0  0  0  0  0  0  0
   -0.5279   -8.2168   17.0717 C   0  0  0  0  0  0  0  0  0  0  0  0
    6.9694   -4.0191   27.8190 C   0  0  0  0  0  0  0  0  0  0  0  0
    5.1733   -4.5469   29.8123 C   0  0  0  0  0  0  0  0  0  0  0  0
   -1.7508  -11.3016   18.6072 C   0  0  0  0  0  0  0  0  0  0  0  0
    1.7497   -5.6771   26.4971 C   0  0  0  0  0  0  0  0  0  0  0  0
   -1.5799   -9.9322   18.3468 C   0  0  0  0  0  0  0  0  0  0  0  0
   -1.0871  -12.2214   17.8851 C   0  0  0  0  0  0  0  0  0  0  0  0
   -2.2706   -8.9669   19.0691 C   0  0  0  0  0  0  0  0  0  0  0  0
    3.0279   -5.3073   26.8197 C   0  0  0  0  0  0  0  0  0  0  0  0
    7.3282   -3.8948   29.1186 C   0  0  0  0  0  0  0  0  0  0  0  0
  1  3  4  0
  1  7  4  0
  2  3  1  0
  2  6  4  0
  2 16  4  0
  3 22  4  0
  4  9  4  0
  4 10  1  0
  4 20  4  0
  5 16  4  0
  5 23  4  0
  6 15  4  0
  7 12  4  0
  8 13  4  0
  8 14  4  0
  9 11  4  0
 11 14  4  0
 11 19  4  0
 12 18  4  0
 13 21  4  0
 15 23  4  0
 17 19  4  0
 17 20  4  0
 18 22  4  0
 19 21  4  0
M  END
$$$$

 Created by Python create_sdf_string function

 23 25  0  0  0  0  0  0  0  0999 V2000
    2.4610   -5.3070   29.1240 C   0  0  0  0  0  0  0  0  0  0  0  0
    4.7710   -4.6952   28.4803 C   0  0  0  0  0  0  0  0  0  0  0  0
    3.4047   -5.1087   28.1314 C   0  0  0  0  0  0  0  0  0  0  0  0
   -0.2234  -11.8615   16.8874 C   0  0  0  0  0  0  0  0  0  0  0  0
    6.4491   -4.1532   30.1213 C   0  0  0  0  0  0  0  0  0  0  0  0
    5.7060   -4.4340   27.4975 C   0  0  0  0  0  0  0  0  0  0  0  0
    1.1818   -5.6612   28.8399 C   0  0  0  0  0  0  0  0  0  0  0  0
   -1.2067   -7.3287   17.7772 C   0  0  0  0  0  0  0  0  0  0  0  0
   -0.0206  -10.5585   16.6210 C   0  0  0  0  0  0  0  0  0  0  0  0
    0.3696  -12.7626   16.2169 O   0  0  0  0  0  0  0  0  0  0  0  0
   -0.6895   -9.5676   17.3297 C   0  0  0  0  0  0  0  0  0  0  0  0
    0.8388   -5.8417   27.5264 C   0  0  0  0  0  0  0  0  0  0  0  0
   -2.0709   -7.6637   18.7817 C   0  0  0  0  0  0  0  0  0  0  0  0
   -0.5279   -8.2168   17.0717 C   0  0  0  0  0  0  0  0  0  0  0  0
    6.9694   -4.0191   27.8190 C   0  0  0  0  0  0  0  0  0  0  0  0
    5.1733   -4.5469   29.8123 C   0  0  0  0  0  0  0  0  0  0  0  0
   -1.7508  -11.3016   18.6072 C   0  0  0  0  0  0  0  0  0  0  0  0
    1.7497   -5.6771   26.4971 C   0  0  0  0  0  0  0  0  0  0  0  0
   -1.5799   -9.9322   18.3468 C   0  0  0  0  0  0  0  0  0  0  0  0
   -1.0871  -12.2214   17.8851 C   0  0  0  0  0  0  0  0  0  0  0  0
   -2.2706   -8.9669   19.0691 C   0  0  0  0  0  0  0  0  0  0  0  0
    3.0279   -5.3073   26.8197 C   0  0  0  0  0  0  0  0  0  0  0  0
    7.3282   -3.8948   29.1186 C   0  0  0  0  0  0  0  0  0  0  0  0
  1  3  4  0
  1  7  4  0
  2  3  1  0
  2  6  4  0
  2 16  4  0
  3 22  4  0
  4  9  4  0
  4 10  1  0
  4 20  4  0
  5 16  4  0
  5 23  4  0
  6 15  4  0
  7 12  4  0
  8 13  4  0
  8 14  4  0
  9 11  4  0
 11 14  4  0
 11 19  4  0
 12 18  4  0
 13 21  4  0
 15 23  4  0
 17 19  4  0
 17 20  4  0
 18 22  4  0
 19 21  4  0
M  END
$$$$

 Created by Python create_sdf_string function

 23 25  0  0  0  0  0  0  0  0999 V2000
    2.4610   -5.3070   29.1240 C   0  0  0  0  0  0  0  0  0  0  0  0
    4.7710   -4.6952   28.4803 C   0  0  0  0  0  0  0  0  0  0  0  0
    3.4047   -5.1087   28.1314 C   0  0  0  0  0  0  0  0  0  0  0  0
   -0.2234  -11.8615   16.8874 C   0  0  0  0  0  0  0  0  0  0  0  0
    6.4491   -4.1532   30.1213 C   0  0  0  0  0  0  0  0  0  0  0  0
    5.7060   -4.4340   27.4975 C   0  0  0  0  0  0  0  0  0  0  0  0
    1.1818   -5.6612   28.8399 C   0  0  0  0  0  0  0  0  0  0  0  0
   -1.2067   -7.3287   17.7772 C   0  0  0  0  0  0  0  0  0  0  0  0
   -0.0206  -10.5585   16.6210 C   0  0  0  0  0  0  0  0  0  0  0  0
    0.3696  -12.7626   16.2169 O   0  0  0  0  0  0  0  0  0  0  0  0
   -0.6895   -9.5676   17.3297 C   0  0  0  0  0  0  0  0  0  0  0  0
    0.8388   -5.8417   27.5264 C   0  0  0  0  0  0  0  0  0  0  0  0
   -2.0709   -7.6637   18.7817 C   0  0  0  0  0  0  0  0  0  0  0  0
   -0.5279   -8.2168   17.0717 C   0  0  0  0  0  0  0  0  0  0  0  0
    6.9694   -4.0191   27.8190 C   0  0  0  0  0  0  0  0  0  0  0  0
    5.1733   -4.5469   29.8123 C   0  0  0  0  0  0  0  0  0  0  0  0
   -1.7508  -11.3016   18.6072 C   0  0  0  0  0  0  0  0  0  0  0  0
    1.7497   -5.6771   26.4971 C   0  0  0  0  0  0  0  0  0  0  0  0
   -1.5799   -9.9322   18.3468 C   0  0  0  0  0  0  0  0  0  0  0  0
   -1.0871  -12.2214   17.8851 C   0  0  0  0  0  0  0  0  0  0  0  0
   -2.2706   -8.9669   19.0691 C   0  0  0  0  0  0  0  0  0  0  0  0
    3.0279   -5.3073   26.8197 C   0  0  0  0  0  0  0  0  0  0  0  0
    7.3282   -3.8948   29.1186 C   0  0  0  0  0  0  0  0  0  0  0  0
  1  3  4  0
  1  7  4  0
  2  3  1  0
  2  6  4  0
  2 16  4  0
  3 22  4  0
  4  9  4  0
  4 10  1  0
  4 20  4  0
  5 16  4  0
  5 23  4  0
  6 15  4  0
  7 12  4  0
  8 13  4  0
  8 14  4  0
  9 11  4  0
 11 14  4  0
 11 19  4  0
 12 18  4  0
 13 21  4  0
 15 23  4  0
 17 19  4  0
 17 20  4  0
 18 22  4  0
 19 21  4  0
M  END
$$$$

 Created by Python create_sdf_string function

 23 25  0  0  0  0  0  0  0  0999 V2000
    2.4610   -5.3070   29.1240 C   0  0  0  0  0  0  0  0  0  0  0  0
    4.7710   -4.6952   28.4803 C   0  0  0  0  0  0  0  0  0  0  0  0
    3.4047   -5.1087   28.1314 C   0  0  0  0  0  0  0  0  0  0  0  0
   -0.2234  -11.8615   16.8874 C   0  0  0  0  0  0  0  0  0  0  0  0
    6.4491   -4.1532   30.1213 C   0  0  0  0  0  0  0  0  0  0  0  0
    5.7060   -4.4340   27.4975 C   0  0  0  0  0  0  0  0  0  0  0  0
    1.1818   -5.6612   28.8399 C   0  0  0  0  0  0  0  0  0  0  0  0
   -1.2067   -7.3287   17.7772 C   0  0  0  0  0  0  0  0  0  0  0  0
   -0.0206  -10.5585   16.6210 C   0  0  0  0  0  0  0  0  0  0  0  0
    0.3696  -12.7626   16.2169 O   0  0  0  0  0  0  0  0  0  0  0  0
   -0.6895   -9.5676   17.3297 C   0  0  0  0  0  0  0  0  0  0  0  0
    0.8388   -5.8417   27.5264 C   0  0  0  0  0  0  0  0  0  0  0  0
   -2.0709   -7.6637   18.7817 C   0  0  0  0  0  0  0  0  0  0  0  0
   -0.5279   -8.2168   17.0717 C   0  0  0  0  0  0  0  0  0  0  0  0
    6.9694   -4.0191   27.8190 C   0  0  0  0  0  0  0  0  0  0  0  0
    5.1733   -4.5469   29.8123 C   0  0  0  0  0  0  0  0  0  0  0  0
   -1.7508  -11.3016   18.6072 C   0  0  0  0  0  0  0  0  0  0  0  0
    1.7497   -5.6771   26.4971 C   0  0  0  0  0  0  0  0  0  0  0  0
   -1.5799   -9.9322   18.3468 C   0  0  0  0  0  0  0  0  0  0  0  0
   -1.0871  -12.2214   17.8851 C   0  0  0  0  0  0  0  0  0  0  0  0
   -2.2706   -8.9669   19.0691 C   0  0  0  0  0  0  0  0  0  0  0  0
    3.0279   -5.3073   26.8197 C   0  0  0  0  0  0  0  0  0  0  0  0
    7.3282   -3.8948   29.1186 C   0  0  0  0  0  0  0  0  0  0  0  0
  1  3  4  0
  1  7  4  0
  2  3  1  0
  2  6  4  0
  2 16  4  0
  3 22  4  0
  4  9  4  0
  4 10  1  0
  4 20  4  0
  5 16  4  0
  5 23  4  0
  6 15  4  0
  7 12  4  0
  8 13  4  0
  8 14  4  0
  9 11  4  0
 11 14  4  0
 11 19  4  0
 12 18  4  0
 13 21  4  0
 15 23  4  0
 17 19  4  0
 17 20  4  0
 18 22  4  0
 19 21  4  0
M  END
$$$$

 Created by Python create_sdf_string function

 23 25  0  0  0  0  0  0  0  0999 V2000
    2.4610   -5.3070   29.1240 C   0  0  0  0  0  0  0  0  0  0  0  0
    4.7710   -4.6952   28.4803 C   0  0  0  0  0  0  0  0  0  0  0  0
    3.4047   -5.1087   28.1314 C   0  0  0  0  0  0  0  0  0  0  0  0
   -0.2234  -11.8615   16.8874 C   0  0  0  0  0  0  0  0  0  0  0  0
    6.4491   -4.1532   30.1213 C   0  0  0  0  0  0  0  0  0  0  0  0
    5.7060   -4.4340   27.4975 C   0  0  0  0  0  0  0  0  0  0  0  0
    1.1818   -5.6612   28.8399 C   0  0  0  0  0  0  0  0  0  0  0  0
   -1.2067   -7.3287   17.7772 C   0  0  0  0  0  0  0  0  0  0  0  0
   -0.0206  -10.5585   16.6210 C   0  0  0  0  0  0  0  0  0  0  0  0
    0.3696  -12.7626   16.2169 O   0  0  0  0  0  0  0  0  0  0  0  0
   -0.6895   -9.5676   17.3297 C   0  0  0  0  0  0  0  0  0  0  0  0
    0.8388   -5.8417   27.5264 C   0  0  0  0  0  0  0  0  0  0  0  0
   -2.0709   -7.6637   18.7817 C   0  0  0  0  0  0  0  0  0  0  0  0
   -0.5279   -8.2168   17.0717 C   0  0  0  0  0  0  0  0  0  0  0  0
    6.9694   -4.0191   27.8190 C   0  0  0  0  0  0  0  0  0  0  0  0
    5.1733   -4.5469   29.8123 C   0  0  0  0  0  0  0  0  0  0  0  0
   -1.7508  -11.3016   18.6072 C   0  0  0  0  0  0  0  0  0  0  0  0
    1.7497   -5.6771   26.4971 C   0  0  0  0  0  0  0  0  0  0  0  0
   -1.5799   -9.9322   18.3468 C   0  0  0  0  0  0  0  0  0  0  0  0
   -1.0871  -12.2214   17.8851 C   0  0  0  0  0  0  0  0  0  0  0  0
   -2.2706   -8.9669   19.0691 C   0  0  0  0  0  0  0  0  0  0  0  0
    3.0279   -5.3073   26.8197 C   0  0  0  0  0  0  0  0  0  0  0  0
    7.3282   -3.8948   29.1186 C   0  0  0  0  0  0  0  0  0  0  0  0
  1  3  4  0
  1  7  4  0
  2  3  1  0
  2  6  4  0
  2 16  4  0
  3 22  4  0
  4  9  4  0
  4 10  1  0
  4 20  4  0
  5 16  4  0
  5 23  4  0
  6 15  4  0
  7 12  4  0
  8 13  4  0
  8 14  4  0
  9 11  4  0
 11 14  4  0
 11 19  4  0
 12 18  4  0
 13 21  4  0
 15 23  4  0
 17 19  4  0
 17 20  4  0
 18 22  4  0
 19 21  4  0
M  END
$$$$

 Created by Python create_sdf_string function

 23 25  0  0  0  0  0  0  0  0999 V2000
    2.4610   -5.3070   29.1240 C   0  0  0  0  0  0  0  0  0  0  0  0
    4.7710   -4.6952   28.4803 C   0  0  0  0  0  0  0  0  0  0  0  0
    3.4047   -5.1087   28.1314 C   0  0  0  0  0  0  0  0  0  0  0  0
   -0.2234  -11.8615   16.8874 C   0  0  0  0  0  0  0  0  0  0  0  0
    6.4491   -4.1532   30.1213 C   0  0  0  0  0  0  0  0  0  0  0  0
    5.7060   -4.4340   27.4975 C   0  0  0  0  0  0  0  0  0  0  0  0
    1.1818   -5.6612   28.8399 C   0  0  0  0  0  0  0  0  0  0  0  0
   -1.2067   -7.3287   17.7772 C   0  0  0  0  0  0  0  0  0  0  0  0
   -0.0206  -10.5585   16.6210 C   0  0  0  0  0  0  0  0  0  0  0  0
    0.3696  -12.7626   16.2169 O   0  0  0  0  0  0  0  0  0  0  0  0
   -0.6895   -9.5676   17.3297 C   0  0  0  0  0  0  0  0  0  0  0  0
    0.8388   -5.8417   27.5264 C   0  0  0  0  0  0  0  0  0  0  0  0
   -2.0709   -7.6637   18.7817 C   0  0  0  0  0  0  0  0  0  0  0  0
   -0.5279   -8.2168   17.0717 C   0  0  0  0  0  0  0  0  0  0  0  0
    6.9694   -4.0191   27.8190 C   0  0  0  0  0  0  0  0  0  0  0  0
    5.1733   -4.5469   29.8123 C   0  0  0  0  0  0  0  0  0  0  0  0
   -1.7508  -11.3016   18.6072 C   0  0  0  0  0  0  0  0  0  0  0  0
    1.7497   -5.6771   26.4971 C   0  0  0  0  0  0  0  0  0  0  0  0
   -1.5799   -9.9322   18.3468 C   0  0  0  0  0  0  0  0  0  0  0  0
   -1.0871  -12.2214   17.8851 C   0  0  0  0  0  0  0  0  0  0  0  0
   -2.2706   -8.9669   19.0691 C   0  0  0  0  0  0  0  0  0  0  0  0
    3.0279   -5.3073   26.8197 C   0  0  0  0  0  0  0  0  0  0  0  0
    7.3282   -3.8948   29.1186 C   0  0  0  0  0  0  0  0  0  0  0  0
  1  3  4  0
  1  7  4  0
  2  3  1  0
  2  6  4  0
  2 16  4  0
  3 22  4  0
  4  9  4  0
  4 10  1  0
  4 20  4  0
  5 16  4  0
  5 23  4  0
  6 15  4  0
  7 12  4  0
  8 13  4  0
  8 14  4  0
  9 11  4  0
 11 14  4  0
 11 19  4  0
 12 18  4  0
 13 21  4  0
 15 23  4  0
 17 19  4  0
 17 20  4  0
 18 22  4  0
 19 21  4  0
M  END
$$$$

 Created by Python create_sdf_string function

 23 25  0  0  0  0  0  0  0  0999 V2000
    2.4610   -5.3070   29.1240 C   0  0  0  0  0  0  0  0  0  0  0  0
    4.7710   -4.6952   28.4803 C   0  0  0  0  0  0  0  0  0  0  0  0
    3.4047   -5.1087   28.1314 C   0  0  0  0  0  0  0  0  0  0  0  0
   -0.2234  -11.8615   16.8874 C   0  0  0  0  0  0  0  0  0  0  0  0
    6.4491   -4.1532   30.1213 C   0  0  0  0  0  0  0  0  0  0  0  0
    5.7060   -4.4340   27.4975 C   0  0  0  0  0  0  0  0  0  0  0  0
    1.1818   -5.6612   28.8399 C   0  0  0  0  0  0  0  0  0  0  0  0
   -1.2067   -7.3287   17.7772 C   0  0  0  0  0  0  0  0  0  0  0  0
   -0.0206  -10.5585   16.6210 C   0  0  0  0  0  0  0  0  0  0  0  0
    0.3696  -12.7626   16.2169 O   0  0  0  0  0  0  0  0  0  0  0  0
   -0.6895   -9.5676   17.3297 C   0  0  0  0  0  0  0  0  0  0  0  0
    0.8388   -5.8417   27.5264 C   0  0  0  0  0  0  0  0  0  0  0  0
   -2.0709   -7.6637   18.7817 C   0  0  0  0  0  0  0  0  0  0  0  0
   -0.5279   -8.2168   17.0717 C   0  0  0  0  0  0  0  0  0  0  0  0
    6.9694   -4.0191   27.8190 C   0  0  0  0  0  0  0  0  0  0  0  0
    5.1733   -4.5469   29.8123 C   0  0  0  0  0  0  0  0  0  0  0  0
   -1.7508  -11.3016   18.6072 C   0  0  0  0  0  0  0  0  0  0  0  0
    1.7497   -5.6771   26.4971 C   0  0  0  0  0  0  0  0  0  0  0  0
   -1.5799   -9.9322   18.3468 C   0  0  0  0  0  0  0  0  0  0  0  0
   -1.0871  -12.2214   17.8851 C   0  0  0  0  0  0  0  0  0  0  0  0
   -2.2706   -8.9669   19.0691 C   0  0  0  0  0  0  0  0  0  0  0  0
    3.0279   -5.3073   26.8197 C   0  0  0  0  0  0  0  0  0  0  0  0
    7.3282   -3.8948   29.1186 C   0  0  0  0  0  0  0  0  0  0  0  0
  1  3  4  0
  1  7  4  0
  2  3  1  0
  2  6  4  0
  2 16  4  0
  3 22  4  0
  4  9  4  0
  4 10  1  0
  4 20  4  0
  5 16  4  0
  5 23  4  0
  6 15  4  0
  7 12  4  0
  8 13  4  0
  8 14  4  0
  9 11  4  0
 11 14  4  0
 11 19  4  0
 12 18  4  0
 13 21  4  0
 15 23  4  0
 17 19  4  0
 17 20  4  0
 18 22  4  0
 19 21  4  0
M  END
$$$$

 Created by Python create_sdf_string function

 23 25  0  0  0  0  0  0  0  0999 V2000
    2.4610   -5.3070   29.1240 C   0  0  0  0  0  0  0  0  0  0  0  0
    4.7710   -4.6952   28.4803 C   0  0  0  0  0  0  0  0  0  0  0  0
    3.4047   -5.1087   28.1314 C   0  0  0  0  0  0  0  0  0  0  0  0
   -0.2234  -11.8615   16.8874 C   0  0  0  0  0  0  0  0  0  0  0  0
    6.4491   -4.1532   30.1213 C   0  0  0  0  0  0  0  0  0  0  0  0
    5.7060   -4.4340   27.4975 C   0  0  0  0  0  0  0  0  0  0  0  0
    1.1818   -5.6612   28.8399 C   0  0  0  0  0  0  0  0  0  0  0  0
   -1.2067   -7.3287   17.7772 C   0  0  0  0  0  0  0  0  0  0  0  0
   -0.0206  -10.5585   16.6210 C   0  0  0  0  0  0  0  0  0  0  0  0
    0.3696  -12.7626   16.2169 O   0  0  0  0  0  0  0  0  0  0  0  0
   -0.6895   -9.5676   17.3297 C   0  0  0  0  0  0  0  0  0  0  0  0
    0.8388   -5.8417   27.5264 C   0  0  0  0  0  0  0  0  0  0  0  0
   -2.0709   -7.6637   18.7817 C   0  0  0  0  0  0  0  0  0  0  0  0
   -0.5279   -8.2168   17.0717 C   0  0  0  0  0  0  0  0  0  0  0  0
    6.9694   -4.0191   27.8190 C   0  0  0  0  0  0  0  0  0  0  0  0
    5.1733   -4.5469   29.8123 C   0  0  0  0  0  0  0  0  0  0  0  0
   -1.7508  -11.3016   18.6072 C   0  0  0  0  0  0  0  0  0  0  0  0
    1.7497   -5.6771   26.4971 C   0  0  0  0  0  0  0  0  0  0  0  0
   -1.5799   -9.9322   18.3468 C   0  0  0  0  0  0  0  0  0  0  0  0
   -1.0871  -12.2214   17.8851 C   0  0  0  0  0  0  0  0  0  0  0  0
   -2.2706   -8.9669   19.0691 C   0  0  0  0  0  0  0  0  0  0  0  0
    3.0279   -5.3073   26.8197 C   0  0  0  0  0  0  0  0  0  0  0  0
    7.3282   -3.8948   29.1186 C   0  0  0  0  0  0  0  0  0  0  0  0
  1  3  4  0
  1  7  4  0
  2  3  1  0
  2  6  4  0
  2 16  4  0
  3 22  4  0
  4  9  4  0
  4 10  1  0
  4 20  4  0
  5 16  4  0
  5 23  4  0
  6 15  4  0
  7 12  4  0
  8 13  4  0
  8 14  4  0
  9 11  4  0
 11 14  4  0
 11 19  4  0
 12 18  4  0
 13 21  4  0
 15 23  4  0
 17 19  4  0
 17 20  4  0
 18 22  4  0
 19 21  4  0
M  END
$$$$

 Created by Python create_sdf_string function

 23 25  0  0  0  0  0  0  0  0999 V2000
    2.4610   -5.3070   29.1240 C   0  0  0  0  0  0  0  0  0  0  0  0
    4.7710   -4.6952   28.4803 C   0  0  0  0  0  0  0  0  0  0  0  0
    3.4047   -5.1087   28.1314 C   0  0  0  0  0  0  0  0  0  0  0  0
   -0.2234  -11.8615   16.8874 C   0  0  0  0  0  0  0  0  0  0  0  0
    6.4491   -4.1532   30.1213 C   0  0  0  0  0  0  0  0  0  0  0  0
    5.7060   -4.4340   27.4975 C   0  0  0  0  0  0  0  0  0  0  0  0
    1.1818   -5.6612   28.8399 C   0  0  0  0  0  0  0  0  0  0  0  0
   -1.2067   -7.3287   17.7772 C   0  0  0  0  0  0  0  0  0  0  0  0
   -0.0206  -10.5585   16.6210 C   0  0  0  0  0  0  0  0  0  0  0  0
    0.3696  -12.7626   16.2169 O   0  0  0  0  0  0  0  0  0  0  0  0
   -0.6895   -9.5676   17.3297 C   0  0  0  0  0  0  0  0  0  0  0  0
    0.8388   -5.8417   27.5264 C   0  0  0  0  0  0  0  0  0  0  0  0
   -2.0709   -7.6637   18.7817 C   0  0  0  0  0  0  0  0  0  0  0  0
   -0.5279   -8.2168   17.0717 C   0  0  0  0  0  0  0  0  0  0  0  0
    6.9694   -4.0191   27.8190 C   0  0  0  0  0  0  0  0  0  0  0  0
    5.1733   -4.5469   29.8123 C   0  0  0  0  0  0  0  0  0  0  0  0
   -1.7508  -11.3016   18.6072 C   0  0  0  0  0  0  0  0  0  0  0  0
    1.7497   -5.6771   26.4971 C   0  0  0  0  0  0  0  0  0  0  0  0
   -1.5799   -9.9322   18.3468 C   0  0  0  0  0  0  0  0  0  0  0  0
   -1.0871  -12.2214   17.8851 C   0  0  0  0  0  0  0  0  0  0  0  0
   -2.2706   -8.9669   19.0691 C   0  0  0  0  0  0  0  0  0  0  0  0
    3.0279   -5.3073   26.8197 C   0  0  0  0  0  0  0  0  0  0  0  0
    7.3282   -3.8948   29.1186 C   0  0  0  0  0  0  0  0  0  0  0  0
  1  3  4  0
  1  7  4  0
  2  3  1  0
  2  6  4  0
  2 16  4  0
  3 22  4  0
  4  9  4  0
  4 10  1  0
  4 20  4  0
  5 16  4  0
  5 23  4  0
  6 15  4  0
  7 12  4  0
  8 13  4  0
  8 14  4  0
  9 11  4  0
 11 14  4  0
 11 19  4  0
 12 18  4  0
 13 21  4  0
 15 23  4  0
 17 19  4  0
 17 20  4  0
 18 22  4  0
 19 21  4  0
M  END
$$$$

 Created by Python create_sdf_string function

 23 25  0  0  0  0  0  0  0  0999 V2000
    2.4610   -5.3070   29.1240 C   0  0  0  0  0  0  0  0  0  0  0  0
    4.7710   -4.6952   28.4803 C   0  0  0  0  0  0  0  0  0  0  0  0
    3.4047   -5.1087   28.1314 C   0  0  0  0  0  0  0  0  0  0  0  0
   -0.2234  -11.8615   16.8874 C   0  0  0  0  0  0  0  0  0  0  0  0
    6.4491   -4.1532   30.1213 C   0  0  0  0  0  0  0  0  0  0  0  0
    5.7060   -4.4340   27.4975 C   0  0  0  0  0  0  0  0  0  0  0  0
    1.1818   -5.6612   28.8399 C   0  0  0  0  0  0  0  0  0  0  0  0
   -1.2067   -7.3287   17.7772 C   0  0  0  0  0  0  0  0  0  0  0  0
   -0.0206  -10.5585   16.6210 C   0  0  0  0  0  0  0  0  0  0  0  0
    0.3696  -12.7626   16.2169 O   0  0  0  0  0  0  0  0  0  0  0  0
   -0.6895   -9.5676   17.3297 C   0  0  0  0  0  0  0  0  0  0  0  0
    0.8388   -5.8417   27.5264 C   0  0  0  0  0  0  0  0  0  0  0  0
   -2.0709   -7.6637   18.7817 C   0  0  0  0  0  0  0  0  0  0  0  0
   -0.5279   -8.2168   17.0717 C   0  0  0  0  0  0  0  0  0  0  0  0
    6.9694   -4.0191   27.8190 C   0  0  0  0  0  0  0  0  0  0  0  0
    5.1733   -4.5469   29.8123 C   0  0  0  0  0  0  0  0  0  0  0  0
   -1.7508  -11.3016   18.6072 C   0  0  0  0  0  0  0  0  0  0  0  0
    1.7497   -5.6771   26.4971 C   0  0  0  0  0  0  0  0  0  0  0  0
   -1.5799   -9.9322   18.3468 C   0  0  0  0  0  0  0  0  0  0  0  0
   -1.0871  -12.2214   17.8851 C   0  0  0  0  0  0  0  0  0  0  0  0
   -2.2706   -8.9669   19.0691 C   0  0  0  0  0  0  0  0  0  0  0  0
    3.0279   -5.3073   26.8197 C   0  0  0  0  0  0  0  0  0  0  0  0
    7.3282   -3.8948   29.1186 C   0  0  0  0  0  0  0  0  0  0  0  0
  1  3  4  0
  1  7  4  0
  2  3  1  0
  2  6  4  0
  2 16  4  0
  3 22  4  0
  4  9  4  0
  4 10  1  0
  4 20  4  0
  5 16  4  0
  5 23  4  0
  6 15  4  0
  7 12  4  0
  8 13  4  0
  8 14  4  0
  9 11  4  0
 11 14  4  0
 11 19  4  0
 12 18  4  0
 13 21  4  0
 15 23  4  0
 17 19  4  0
 17 20  4  0
 18 22  4  0
 19 21  4  0
M  END
$$$$

 Created by Python create_sdf_string function

 23 25  0  0  0  0  0  0  0  0999 V2000
    2.4610   -5.3070   29.1240 C   0  0  0  0  0  0  0  0  0  0  0  0
    4.7710   -4.6952   28.4803 C   0  0  0  0  0  0  0  0  0  0  0  0
    3.4047   -5.1087   28.1314 C   0  0  0  0  0  0  0  0  0  0  0  0
   -0.2234  -11.8615   16.8874 C   0  0  0  0  0  0  0  0  0  0  0  0
    6.4491   -4.1532   30.1213 C   0  0  0  0  0  0  0  0  0  0  0  0
    5.7060   -4.4340   27.4975 C   0  0  0  0  0  0  0  0  0  0  0  0
    1.1818   -5.6612   28.8399 C   0  0  0  0  0  0  0  0  0  0  0  0
   -1.2067   -7.3287   17.7772 C   0  0  0  0  0  0  0  0  0  0  0  0
   -0.0206  -10.5585   16.6210 C   0  0  0  0  0  0  0  0  0  0  0  0
    0.3696  -12.7626   16.2169 O   0  0  0  0  0  0  0  0  0  0  0  0
   -0.6895   -9.5676   17.3297 C   0  0  0  0  0  0  0  0  0  0  0  0
    0.8388   -5.8417   27.5264 C   0  0  0  0  0  0  0  0  0  0  0  0
   -2.0709   -7.6637   18.7817 C   0  0  0  0  0  0  0  0  0  0  0  0
   -0.5279   -8.2168   17.0717 C   0  0  0  0  0  0  0  0  0  0  0  0
    6.9694   -4.0191   27.8190 C   0  0  0  0  0  0  0  0  0  0  0  0
    5.1733   -4.5469   29.8123 C   0  0  0  0  0  0  0  0  0  0  0  0
   -1.7508  -11.3016   18.6072 C   0  0  0  0  0  0  0  0  0  0  0  0
    1.7497   -5.6771   26.4971 C   0  0  0  0  0  0  0  0  0  0  0  0
   -1.5799   -9.9322   18.3468 C   0  0  0  0  0  0  0  0  0  0  0  0
   -1.0871  -12.2214   17.8851 C   0  0  0  0  0  0  0  0  0  0  0  0
   -2.2706   -8.9669   19.0691 C   0  0  0  0  0  0  0  0  0  0  0  0
    3.0279   -5.3073   26.8197 C   0  0  0  0  0  0  0  0  0  0  0  0
    7.3282   -3.8948   29.1186 C   0  0  0  0  0  0  0  0  0  0  0  0
  1  3  4  0
  1  7  4  0
  2  3  1  0
  2  6  4  0
  2 16  4  0
  3 22  4  0
  4  9  4  0
  4 10  1  0
  4 20  4  0
  5 16  4  0
  5 23  4  0
  6 15  4  0
  7 12  4  0
  8 13  4  0
  8 14  4  0
  9 11  4  0
 11 14  4  0
 11 19  4  0
 12 18  4  0
 13 21  4  0
 15 23  4  0
 17 19  4  0
 17 20  4  0
 18 22  4  0
 19 21  4  0
M  END
$$$$

 Created by Python create_sdf_string function

 23 25  0  0  0  0  0  0  0  0999 V2000
    2.4610   -5.3070   29.1240 C   0  0  0  0  0  0  0  0  0  0  0  0
    4.7710   -4.6952   28.4803 C   0  0  0  0  0  0  0  0  0  0  0  0
    3.4047   -5.1087   28.1314 C   0  0  0  0  0  0  0  0  0  0  0  0
   -0.2234  -11.8615   16.8874 C   0  0  0  0  0  0  0  0  0  0  0  0
    6.4491   -4.1532   30.1213 C   0  0  0  0  0  0  0  0  0  0  0  0
    5.7060   -4.4340   27.4975 C   0  0  0  0  0  0  0  0  0  0  0  0
    1.1818   -5.6612   28.8399 C   0  0  0  0  0  0  0  0  0  0  0  0
   -1.2067   -7.3287   17.7772 C   0  0  0  0  0  0  0  0  0  0  0  0
   -0.0206  -10.5585   16.6210 C   0  0  0  0  0  0  0  0  0  0  0  0
    0.3696  -12.7626   16.2169 O   0  0  0  0  0  0  0  0  0  0  0  0
   -0.6895   -9.5676   17.3297 C   0  0  0  0  0  0  0  0  0  0  0  0
    0.8388   -5.8417   27.5264 C   0  0  0  0  0  0  0  0  0  0  0  0
   -2.0709   -7.6637   18.7817 C   0  0  0  0  0  0  0  0  0  0  0  0
   -0.5279   -8.2168   17.0717 C   0  0  0  0  0  0  0  0  0  0  0  0
    6.9694   -4.0191   27.8190 C   0  0  0  0  0  0  0  0  0  0  0  0
    5.1733   -4.5469   29.8123 C   0  0  0  0  0  0  0  0  0  0  0  0
   -1.7508  -11.3016   18.6072 C   0  0  0  0  0  0  0  0  0  0  0  0
    1.7497   -5.6771   26.4971 C   0  0  0  0  0  0  0  0  0  0  0  0
   -1.5799   -9.9322   18.3468 C   0  0  0  0  0  0  0  0  0  0  0  0
   -1.0871  -12.2214   17.8851 C   0  0  0  0  0  0  0  0  0  0  0  0
   -2.2706   -8.9669   19.0691 C   0  0  0  0  0  0  0  0  0  0  0  0
    3.0279   -5.3073   26.8197 C   0  0  0  0  0  0  0  0  0  0  0  0
    7.3282   -3.8948   29.1186 C   0  0  0  0  0  0  0  0  0  0  0  0
  1  3  4  0
  1  7  4  0
  2  3  1  0
  2  6  4  0
  2 16  4  0
  3 22  4  0
  4  9  4  0
  4 10  1  0
  4 20  4  0
  5 16  4  0
  5 23  4  0
  6 15  4  0
  7 12  4  0
  8 13  4  0
  8 14  4  0
  9 11  4  0
 11 14  4  0
 11 19  4  0
 12 18  4  0
 13 21  4  0
 15 23  4  0
 17 19  4  0
 17 20  4  0
 18 22  4  0
 19 21  4  0
M  END
$$$$

 Created by Python create_sdf_string function

 23 25  0  0  0  0  0  0  0  0999 V2000
    2.4610   -5.3070   29.1240 C   0  0  0  0  0  0  0  0  0  0  0  0
    4.7710   -4.6952   28.4803 C   0  0  0  0  0  0  0  0  0  0  0  0
    3.4047   -5.1087   28.1314 C   0  0  0  0  0  0  0  0  0  0  0  0
   -0.2234  -11.8615   16.8874 C   0  0  0  0  0  0  0  0  0  0  0  0
    6.4491   -4.1532   30.1213 C   0  0  0  0  0  0  0  0  0  0  0  0
    5.7060   -4.4340   27.4975 C   0  0  0  0  0  0  0  0  0  0  0  0
    1.1818   -5.6612   28.8399 C   0  0  0  0  0  0  0  0  0  0  0  0
   -1.2067   -7.3287   17.7772 C   0  0  0  0  0  0  0  0  0  0  0  0
   -0.0206  -10.5585   16.6210 C   0  0  0  0  0  0  0  0  0  0  0  0
    0.3696  -12.7626   16.2169 O   0  0  0  0  0  0  0  0  0  0  0  0
   -0.6895   -9.5676   17.3297 C   0  0  0  0  0  0  0  0  0  0  0  0
    0.8388   -5.8417   27.5264 C   0  0  0  0  0  0  0  0  0  0  0  0
   -2.0709   -7.6637   18.7817 C   0  0  0  0  0  0  0  0  0  0  0  0
   -0.5279   -8.2168   17.0717 C   0  0  0  0  0  0  0  0  0  0  0  0
    6.9694   -4.0191   27.8190 C   0  0  0  0  0  0  0  0  0  0  0  0
    5.1733   -4.5469   29.8123 C   0  0  0  0  0  0  0  0  0  0  0  0
   -1.7508  -11.3016   18.6072 C   0  0  0  0  0  0  0  0  0  0  0  0
    1.7497   -5.6771   26.4971 C   0  0  0  0  0  0  0  0  0  0  0  0
   -1.5799   -9.9322   18.3468 C   0  0  0  0  0  0  0  0  0  0  0  0
   -1.0871  -12.2214   17.8851 C   0  0  0  0  0  0  0  0  0  0  0  0
   -2.2706   -8.9669   19.0691 C   0  0  0  0  0  0  0  0  0  0  0  0
    3.0279   -5.3073   26.8197 C   0  0  0  0  0  0  0  0  0  0  0  0
    7.3282   -3.8948   29.1186 C   0  0  0  0  0  0  0  0  0  0  0  0
  1  3  4  0
  1  7  4  0
  2  3  1  0
  2  6  4  0
  2 16  4  0
  3 22  4  0
  4  9  4  0
  4 10  1  0
  4 20  4  0
  5 16  4  0
  5 23  4  0
  6 15  4  0
  7 12  4  0
  8 13  4  0
  8 14  4  0
  9 11  4  0
 11 14  4  0
 11 19  4  0
 12 18  4  0
 13 21  4  0
 15 23  4  0
 17 19  4  0
 17 20  4  0
 18 22  4  0
 19 21  4  0
M  END
$$$$

 Created by Python create_sdf_string function

 23 25  0  0  0  0  0  0  0  0999 V2000
    2.4610   -5.3070   29.1240 C   0  0  0  0  0  0  0  0  0  0  0  0
    4.7710   -4.6952   28.4803 C   0  0  0  0  0  0  0  0  0  0  0  0
    3.4047   -5.1087   28.1314 C   0  0  0  0  0  0  0  0  0  0  0  0
   -0.2234  -11.8615   16.8874 C   0  0  0  0  0  0  0  0  0  0  0  0
    6.4491   -4.1532   30.1213 C   0  0  0  0  0  0  0  0  0  0  0  0
    5.7060   -4.4340   27.4975 C   0  0  0  0  0  0  0  0  0  0  0  0
    1.1818   -5.6612   28.8399 C   0  0  0  0  0  0  0  0  0  0  0  0
   -1.2067   -7.3287   17.7772 C   0  0  0  0  0  0  0  0  0  0  0  0
   -0.0206  -10.5585   16.6210 C   0  0  0  0  0  0  0  0  0  0  0  0
    0.3696  -12.7626   16.2169 O   0  0  0  0  0  0  0  0  0  0  0  0
   -0.6895   -9.5676   17.3297 C   0  0  0  0  0  0  0  0  0  0  0  0
    0.8388   -5.8417   27.5264 C   0  0  0  0  0  0  0  0  0  0  0  0
   -2.0709   -7.6637   18.7817 C   0  0  0  0  0  0  0  0  0  0  0  0
   -0.5279   -8.2168   17.0717 C   0  0  0  0  0  0  0  0  0  0  0  0
    6.9694   -4.0191   27.8190 C   0  0  0  0  0  0  0  0  0  0  0  0
    5.1733   -4.5469   29.8123 C   0  0  0  0  0  0  0  0  0  0  0  0
   -1.7508  -11.3016   18.6072 C   0  0  0  0  0  0  0  0  0  0  0  0
    1.7497   -5.6771   26.4971 C   0  0  0  0  0  0  0  0  0  0  0  0
   -1.5799   -9.9322   18.3468 C   0  0  0  0  0  0  0  0  0  0  0  0
   -1.0871  -12.2214   17.8851 C   0  0  0  0  0  0  0  0  0  0  0  0
   -2.2706   -8.9669   19.0691 C   0  0  0  0  0  0  0  0  0  0  0  0
    3.0279   -5.3073   26.8197 C   0  0  0  0  0  0  0  0  0  0  0  0
    7.3282   -3.8948   29.1186 C   0  0  0  0  0  0  0  0  0  0  0  0
  1  3  4  0
  1  7  4  0
  2  3  1  0
  2  6  4  0
  2 16  4  0
  3 22  4  0
  4  9  4  0
  4 10  1  0
  4 20  4  0
  5 16  4  0
  5 23  4  0
  6 15  4  0
  7 12  4  0
  8 13  4  0
  8 14  4  0
  9 11  4  0
 11 14  4  0
 11 19  4  0
 12 18  4  0
 13 21  4  0
 15 23  4  0
 17 19  4  0
 17 20  4  0
 18 22  4  0
 19 21  4  0
M  END
$$$$

 Created by Python create_sdf_string function

 23 25  0  0  0  0  0  0  0  0999 V2000
    2.4610   -5.3070   29.1240 C   0  0  0  0  0  0  0  0  0  0  0  0
    4.7710   -4.6952   28.4803 C   0  0  0  0  0  0  0  0  0  0  0  0
    3.4047   -5.1087   28.1314 C   0  0  0  0  0  0  0  0  0  0  0  0
   -0.2234  -11.8615   16.8874 C   0  0  0  0  0  0  0  0  0  0  0  0
    6.4491   -4.1532   30.1213 C   0  0  0  0  0  0  0  0  0  0  0  0
    5.7060   -4.4340   27.4975 C   0  0  0  0  0  0  0  0  0  0  0  0
    1.1818   -5.6612   28.8399 C   0  0  0  0  0  0  0  0  0  0  0  0
   -1.2067   -7.3287   17.7772 C   0  0  0  0  0  0  0  0  0  0  0  0
   -0.0206  -10.5585   16.6210 C   0  0  0  0  0  0  0  0  0  0  0  0
    0.3696  -12.7626   16.2169 O   0  0  0  0  0  0  0  0  0  0  0  0
   -0.6895   -9.5676   17.3297 C   0  0  0  0  0  0  0  0  0  0  0  0
    0.8388   -5.8417   27.5264 C   0  0  0  0  0  0  0  0  0  0  0  0
   -2.0709   -7.6637   18.7817 C   0  0  0  0  0  0  0  0  0  0  0  0
   -0.5279   -8.2168   17.0717 C   0  0  0  0  0  0  0  0  0  0  0  0
    6.9694   -4.0191   27.8190 C   0  0  0  0  0  0  0  0  0  0  0  0
    5.1733   -4.5469   29.8123 C   0  0  0  0  0  0  0  0  0  0  0  0
   -1.7508  -11.3016   18.6072 C   0  0  0  0  0  0  0  0  0  0  0  0
    1.7497   -5.6771   26.4971 C   0  0  0  0  0  0  0  0  0  0  0  0
   -1.5799   -9.9322   18.3468 C   0  0  0  0  0  0  0  0  0  0  0  0
   -1.0871  -12.2214   17.8851 C   0  0  0  0  0  0  0  0  0  0  0  0
   -2.2706   -8.9669   19.0691 C   0  0  0  0  0  0  0  0  0  0  0  0
    3.0279   -5.3073   26.8197 C   0  0  0  0  0  0  0  0  0  0  0  0
    7.3282   -3.8948   29.1186 C   0  0  0  0  0  0  0  0  0  0  0  0
  1  3  4  0
  1  7  4  0
  2  3  1  0
  2  6  4  0
  2 16  4  0
  3 22  4  0
  4  9  4  0
  4 10  1  0
  4 20  4  0
  5 16  4  0
  5 23  4  0
  6 15  4  0
  7 12  4  0
  8 13  4  0
  8 14  4  0
  9 11  4  0
 11 14  4  0
 11 19  4  0
 12 18  4  0
 13 21  4  0
 15 23  4  0
 17 19  4  0
 17 20  4  0
 18 22  4  0
 19 21  4  0
M  END
$$$$

 Created by Python create_sdf_string function

 23 25  0  0  0  0  0  0  0  0999 V2000
    2.4610   -5.3070   29.1240 C   0  0  0  0  0  0  0  0  0  0  0  0
    4.7710   -4.6952   28.4803 C   0  0  0  0  0  0  0  0  0  0  0  0
    3.4047   -5.1087   28.1314 C   0  0  0  0  0  0  0  0  0  0  0  0
   -0.2234  -11.8615   16.8874 C   0  0  0  0  0  0  0  0  0  0  0  0
    6.4491   -4.1532   30.1213 C   0  0  0  0  0  0  0  0  0  0  0  0
    5.7060   -4.4340   27.4975 C   0  0  0  0  0  0  0  0  0  0  0  0
    1.1818   -5.6612   28.8399 C   0  0  0  0  0  0  0  0  0  0  0  0
   -1.2067   -7.3287   17.7772 C   0  0  0  0  0  0  0  0  0  0  0  0
   -0.0206  -10.5585   16.6210 C   0  0  0  0  0  0  0  0  0  0  0  0
    0.3696  -12.7626   16.2169 O   0  0  0  0  0  0  0  0  0  0  0  0
   -0.6895   -9.5676   17.3297 C   0  0  0  0  0  0  0  0  0  0  0  0
    0.8388   -5.8417   27.5264 C   0  0  0  0  0  0  0  0  0  0  0  0
   -2.0709   -7.6637   18.7817 C   0  0  0  0  0  0  0  0  0  0  0  0
   -0.5279   -8.2168   17.0717 C   0  0  0  0  0  0  0  0  0  0  0  0
    6.9694   -4.0191   27.8190 C   0  0  0  0  0  0  0  0  0  0  0  0
    5.1733   -4.5469   29.8123 C   0  0  0  0  0  0  0  0  0  0  0  0
   -1.7508  -11.3016   18.6072 C   0  0  0  0  0  0  0  0  0  0  0  0
    1.7497   -5.6771   26.4971 C   0  0  0  0  0  0  0  0  0  0  0  0
   -1.5799   -9.9322   18.3468 C   0  0  0  0  0  0  0  0  0  0  0  0
   -1.0871  -12.2214   17.8851 C   0  0  0  0  0  0  0  0  0  0  0  0
   -2.2706   -8.9669   19.0691 C   0  0  0  0  0  0  0  0  0  0  0  0
    3.0279   -5.3073   26.8197 C   0  0  0  0  0  0  0  0  0  0  0  0
    7.3282   -3.8948   29.1186 C   0  0  0  0  0  0  0  0  0  0  0  0
  1  3  4  0
  1  7  4  0
  2  3  1  0
  2  6  4  0
  2 16  4  0
  3 22  4  0
  4  9  4  0
  4 10  1  0
  4 20  4  0
  5 16  4  0
  5 23  4  0
  6 15  4  0
  7 12  4  0
  8 13  4  0
  8 14  4  0
  9 11  4  0
 11 14  4  0
 11 19  4  0
 12 18  4  0
 13 21  4  0
 15 23  4  0
 17 19  4  0
 17 20  4  0
 18 22  4  0
 19 21  4  0
M  END
$$$$

 Created by Python create_sdf_string function

 23 25  0  0  0  0  0  0  0  0999 V2000
    2.4610   -5.3070   29.1240 C   0  0  0  0  0  0  0  0  0  0  0  0
    4.7710   -4.6952   28.4803 C   0  0  0  0  0  0  0  0  0  0  0  0
    3.4047   -5.1087   28.1314 C   0  0  0  0  0  0  0  0  0  0  0  0
   -0.2234  -11.8615   16.8874 C   0  0  0  0  0  0  0  0  0  0  0  0
    6.4491   -4.1532   30.1213 C   0  0  0  0  0  0  0  0  0  0  0  0
    5.7060   -4.4340   27.4975 C   0  0  0  0  0  0  0  0  0  0  0  0
    1.1818   -5.6612   28.8399 C   0  0  0  0  0  0  0  0  0  0  0  0
   -1.2067   -7.3287   17.7772 C   0  0  0  0  0  0  0  0  0  0  0  0
   -0.0206  -10.5585   16.6210 C   0  0  0  0  0  0  0  0  0  0  0  0
    0.3696  -12.7626   16.2169 O   0  0  0  0  0  0  0  0  0  0  0  0
   -0.6895   -9.5676   17.3297 C   0  0  0  0  0  0  0  0  0  0  0  0
    0.8388   -5.8417   27.5264 C   0  0  0  0  0  0  0  0  0  0  0  0
   -2.0709   -7.6637   18.7817 C   0  0  0  0  0  0  0  0  0  0  0  0
   -0.5279   -8.2168   17.0717 C   0  0  0  0  0  0  0  0  0  0  0  0
    6.9694   -4.0191   27.8190 C   0  0  0  0  0  0  0  0  0  0  0  0
    5.1733   -4.5469   29.8123 C   0  0  0  0  0  0  0  0  0  0  0  0
   -1.7508  -11.3016   18.6072 C   0  0  0  0  0  0  0  0  0  0  0  0
    1.7497   -5.6771   26.4971 C   0  0  0  0  0  0  0  0  0  0  0  0
   -1.5799   -9.9322   18.3468 C   0  0  0  0  0  0  0  0  0  0  0  0
   -1.0871  -12.2214   17.8851 C   0  0  0  0  0  0  0  0  0  0  0  0
   -2.2706   -8.9669   19.0691 C   0  0  0  0  0  0  0  0  0  0  0  0
    3.0279   -5.3073   26.8197 C   0  0  0  0  0  0  0  0  0  0  0  0
    7.3282   -3.8948   29.1186 C   0  0  0  0  0  0  0  0  0  0  0  0
  1  3  4  0
  1  7  4  0
  2  3  1  0
  2  6  4  0
  2 16  4  0
  3 22  4  0
  4  9  4  0
  4 10  1  0
  4 20  4  0
  5 16  4  0
  5 23  4  0
  6 15  4  0
  7 12  4  0
  8 13  4  0
  8 14  4  0
  9 11  4  0
 11 14  4  0
 11 19  4  0
 12 18  4  0
 13 21  4  0
 15 23  4  0
 17 19  4  0
 17 20  4  0
 18 22  4  0
 19 21  4  0
M  END
$$$$

 Created by Python create_sdf_string function

 23 25  0  0  0  0  0  0  0  0999 V2000
    2.4610   -5.3070   29.1240 C   0  0  0  0  0  0  0  0  0  0  0  0
    4.7710   -4.6952   28.4803 C   0  0  0  0  0  0  0  0  0  0  0  0
    3.4047   -5.1087   28.1314 C   0  0  0  0  0  0  0  0  0  0  0  0
   -0.2234  -11.8615   16.8874 C   0  0  0  0  0  0  0  0  0  0  0  0
    6.4491   -4.1532   30.1213 C   0  0  0  0  0  0  0  0  0  0  0  0
    5.7060   -4.4340   27.4975 C   0  0  0  0  0  0  0  0  0  0  0  0
    1.1818   -5.6612   28.8399 C   0  0  0  0  0  0  0  0  0  0  0  0
   -1.2067   -7.3287   17.7772 C   0  0  0  0  0  0  0  0  0  0  0  0
   -0.0206  -10.5585   16.6210 C   0  0  0  0  0  0  0  0  0  0  0  0
    0.3696  -12.7626   16.2169 O   0  0  0  0  0  0  0  0  0  0  0  0
   -0.6895   -9.5676   17.3297 C   0  0  0  0  0  0  0  0  0  0  0  0
    0.8388   -5.8417   27.5264 C   0  0  0  0  0  0  0  0  0  0  0  0
   -2.0709   -7.6637   18.7817 C   0  0  0  0  0  0  0  0  0  0  0  0
   -0.5279   -8.2168   17.0717 C   0  0  0  0  0  0  0  0  0  0  0  0
    6.9694   -4.0191   27.8190 C   0  0  0  0  0  0  0  0  0  0  0  0
    5.1733   -4.5469   29.8123 C   0  0  0  0  0  0  0  0  0  0  0  0
   -1.7508  -11.3016   18.6072 C   0  0  0  0  0  0  0  0  0  0  0  0
    1.7497   -5.6771   26.4971 C   0  0  0  0  0  0  0  0  0  0  0  0
   -1.5799   -9.9322   18.3468 C   0  0  0  0  0  0  0  0  0  0  0  0
   -1.0871  -12.2214   17.8851 C   0  0  0  0  0  0  0  0  0  0  0  0
   -2.2706   -8.9669   19.0691 C   0  0  0  0  0  0  0  0  0  0  0  0
    3.0279   -5.3073   26.8197 C   0  0  0  0  0  0  0  0  0  0  0  0
    7.3282   -3.8948   29.1186 C   0  0  0  0  0  0  0  0  0  0  0  0
  1  3  4  0
  1  7  4  0
  2  3  1  0
  2  6  4  0
  2 16  4  0
  3 22  4  0
  4  9  4  0
  4 10  1  0
  4 20  4  0
  5 16  4  0
  5 23  4  0
  6 15  4  0
  7 12  4  0
  8 13  4  0
  8 14  4  0
  9 11  4  0
 11 14  4  0
 11 19  4  0
 12 18  4  0
 13 21  4  0
 15 23  4  0
 17 19  4  0
 17 20  4  0
 18 22  4  0
 19 21  4  0
M  END
$$$$

 Created by Python create_sdf_string function

 23 25  0  0  0  0  0  0  0  0999 V2000
    2.4610   -5.3070   29.1240 C   0  0  0  0  0  0  0  0  0  0  0  0
    4.7710   -4.6952   28.4803 C   0  0  0  0  0  0  0  0  0  0  0  0
    3.4047   -5.1087   28.1314 C   0  0  0  0  0  0  0  0  0  0  0  0
   -0.2234  -11.8615   16.8874 C   0  0  0  0  0  0  0  0  0  0  0  0
    6.4491   -4.1532   30.1213 C   0  0  0  0  0  0  0  0  0  0  0  0
    5.7060   -4.4340   27.4975 C   0  0  0  0  0  0  0  0  0  0  0  0
    1.1818   -5.6612   28.8399 C   0  0  0  0  0  0  0  0  0  0  0  0
   -1.2067   -7.3287   17.7772 C   0  0  0  0  0  0  0  0  0  0  0  0
   -0.0206  -10.5585   16.6210 C   0  0  0  0  0  0  0  0  0  0  0  0
    0.3696  -12.7626   16.2169 O   0  0  0  0  0  0  0  0  0  0  0  0
   -0.6895   -9.5676   17.3297 C   0  0  0  0  0  0  0  0  0  0  0  0
    0.8388   -5.8417   27.5264 C   0  0  0  0  0  0  0  0  0  0  0  0
   -2.0709   -7.6637   18.7817 C   0  0  0  0  0  0  0  0  0  0  0  0
   -0.5279   -8.2168   17.0717 C   0  0  0  0  0  0  0  0  0  0  0  0
    6.9694   -4.0191   27.8190 C   0  0  0  0  0  0  0  0  0  0  0  0
    5.1733   -4.5469   29.8123 C   0  0  0  0  0  0  0  0  0  0  0  0
   -1.7508  -11.3016   18.6072 C   0  0  0  0  0  0  0  0  0  0  0  0
    1.7497   -5.6771   26.4971 C   0  0  0  0  0  0  0  0  0  0  0  0
   -1.5799   -9.9322   18.3468 C   0  0  0  0  0  0  0  0  0  0  0  0
   -1.0871  -12.2214   17.8851 C   0  0  0  0  0  0  0  0  0  0  0  0
   -2.2706   -8.9669   19.0691 C   0  0  0  0  0  0  0  0  0  0  0  0
    3.0279   -5.3073   26.8197 C   0  0  0  0  0  0  0  0  0  0  0  0
    7.3282   -3.8948   29.1186 C   0  0  0  0  0  0  0  0  0  0  0  0
  1  3  4  0
  1  7  4  0
  2  3  1  0
  2  6  4  0
  2 16  4  0
  3 22  4  0
  4  9  4  0
  4 10  1  0
  4 20  4  0
  5 16  4  0
  5 23  4  0
  6 15  4  0
  7 12  4  0
  8 13  4  0
  8 14  4  0
  9 11  4  0
 11 14  4  0
 11 19  4  0
 12 18  4  0
 13 21  4  0
 15 23  4  0
 17 19  4  0
 17 20  4  0
 18 22  4  0
 19 21  4  0
M  END
$$$$

 Created by Python create_sdf_string function

 23 25  0  0  0  0  0  0  0  0999 V2000
    2.4610   -5.3070   29.1240 C   0  0  0  0  0  0  0  0  0  0  0  0
    4.7710   -4.6952   28.4803 C   0  0  0  0  0  0  0  0  0  0  0  0
    3.4047   -5.1087   28.1314 C   0  0  0  0  0  0  0  0  0  0  0  0
   -0.2234  -11.8615   16.8874 C   0  0  0  0  0  0  0  0  0  0  0  0
    6.4491   -4.1532   30.1213 C   0  0  0  0  0  0  0  0  0  0  0  0
    5.7060   -4.4340   27.4975 C   0  0  0  0  0  0  0  0  0  0  0  0
    1.1818   -5.6612   28.8399 C   0  0  0  0  0  0  0  0  0  0  0  0
   -1.2067   -7.3287   17.7772 C   0  0  0  0  0  0  0  0  0  0  0  0
   -0.0206  -10.5585   16.6210 C   0  0  0  0  0  0  0  0  0  0  0  0
    0.3696  -12.7626   16.2169 O   0  0  0  0  0  0  0  0  0  0  0  0
   -0.6895   -9.5676   17.3297 C   0  0  0  0  0  0  0  0  0  0  0  0
    0.8388   -5.8417   27.5264 C   0  0  0  0  0  0  0  0  0  0  0  0
   -2.0709   -7.6637   18.7817 C   0  0  0  0  0  0  0  0  0  0  0  0
   -0.5279   -8.2168   17.0717 C   0  0  0  0  0  0  0  0  0  0  0  0
    6.9694   -4.0191   27.8190 C   0  0  0  0  0  0  0  0  0  0  0  0
    5.1733   -4.5469   29.8123 C   0  0  0  0  0  0  0  0  0  0  0  0
   -1.7508  -11.3016   18.6072 C   0  0  0  0  0  0  0  0  0  0  0  0
    1.7497   -5.6771   26.4971 C   0  0  0  0  0  0  0  0  0  0  0  0
   -1.5799   -9.9322   18.3468 C   0  0  0  0  0  0  0  0  0  0  0  0
   -1.0871  -12.2214   17.8851 C   0  0  0  0  0  0  0  0  0  0  0  0
   -2.2706   -8.9669   19.0691 C   0  0  0  0  0  0  0  0  0  0  0  0
    3.0279   -5.3073   26.8197 C   0  0  0  0  0  0  0  0  0  0  0  0
    7.3282   -3.8948   29.1186 C   0  0  0  0  0  0  0  0  0  0  0  0
  1  3  4  0
  1  7  4  0
  2  3  1  0
  2  6  4  0
  2 16  4  0
  3 22  4  0
  4  9  4  0
  4 10  1  0
  4 20  4  0
  5 16  4  0
  5 23  4  0
  6 15  4  0
  7 12  4  0
  8 13  4  0
  8 14  4  0
  9 11  4  0
 11 14  4  0
 11 19  4  0
 12 18  4  0
 13 21  4  0
 15 23  4  0
 17 19  4  0
 17 20  4  0
 18 22  4  0
 19 21  4  0
M  END
$$$$

 Created by Python create_sdf_string function

 23 25  0  0  0  0  0  0  0  0999 V2000
    2.4610   -5.3070   29.1240 C   0  0  0  0  0  0  0  0  0  0  0  0
    4.7710   -4.6952   28.4803 C   0  0  0  0  0  0  0  0  0  0  0  0
    3.4047   -5.1087   28.1314 C   0  0  0  0  0  0  0  0  0  0  0  0
   -0.2234  -11.8615   16.8874 C   0  0  0  0  0  0  0  0  0  0  0  0
    6.4491   -4.1532   30.1213 C   0  0  0  0  0  0  0  0  0  0  0  0
    5.7060   -4.4340   27.4975 C   0  0  0  0  0  0  0  0  0  0  0  0
    1.1818   -5.6612   28.8399 C   0  0  0  0  0  0  0  0  0  0  0  0
   -1.2067   -7.3287   17.7772 C   0  0  0  0  0  0  0  0  0  0  0  0
   -0.0206  -10.5585   16.6210 C   0  0  0  0  0  0  0  0  0  0  0  0
    0.3696  -12.7626   16.2169 O   0  0  0  0  0  0  0  0  0  0  0  0
   -0.6895   -9.5676   17.3297 C   0  0  0  0  0  0  0  0  0  0  0  0
    0.8388   -5.8417   27.5264 C   0  0  0  0  0  0  0  0  0  0  0  0
   -2.0709   -7.6637   18.7817 C   0  0  0  0  0  0  0  0  0  0  0  0
   -0.5279   -8.2168   17.0717 C   0  0  0  0  0  0  0  0  0  0  0  0
    6.9694   -4.0191   27.8190 C   0  0  0  0  0  0  0  0  0  0  0  0
    5.1733   -4.5469   29.8123 C   0  0  0  0  0  0  0  0  0  0  0  0
   -1.7508  -11.3016   18.6072 C   0  0  0  0  0  0  0  0  0  0  0  0
    1.7497   -5.6771   26.4971 C   0  0  0  0  0  0  0  0  0  0  0  0
   -1.5799   -9.9322   18.3468 C   0  0  0  0  0  0  0  0  0  0  0  0
   -1.0871  -12.2214   17.8851 C   0  0  0  0  0  0  0  0  0  0  0  0
   -2.2706   -8.9669   19.0691 C   0  0  0  0  0  0  0  0  0  0  0  0
    3.0279   -5.3073   26.8197 C   0  0  0  0  0  0  0  0  0  0  0  0
    7.3282   -3.8948   29.1186 C   0  0  0  0  0  0  0  0  0  0  0  0
  1  3  4  0
  1  7  4  0
  2  3  1  0
  2  6  4  0
  2 16  4  0
  3 22  4  0
  4  9  4  0
  4 10  1  0
  4 20  4  0
  5 16  4  0
  5 23  4  0
  6 15  4  0
  7 12  4  0
  8 13  4  0
  8 14  4  0
  9 11  4  0
 11 14  4  0
 11 19  4  0
 12 18  4  0
 13 21  4  0
 15 23  4  0
 17 19  4  0
 17 20  4  0
 18 22  4  0
 19 21  4  0
M  END
$$$$

 Created by Python create_sdf_string function

 23 25  0  0  0  0  0  0  0  0999 V2000
    2.4610   -5.3070   29.1240 C   0  0  0  0  0  0  0  0  0  0  0  0
    4.7710   -4.6952   28.4803 C   0  0  0  0  0  0  0  0  0  0  0  0
    3.4047   -5.1087   28.1314 C   0  0  0  0  0  0  0  0  0  0  0  0
   -0.2234  -11.8615   16.8874 C   0  0  0  0  0  0  0  0  0  0  0  0
    6.4491   -4.1532   30.1213 C   0  0  0  0  0  0  0  0  0  0  0  0
    5.7060   -4.4340   27.4975 C   0  0  0  0  0  0  0  0  0  0  0  0
    1.1818   -5.6612   28.8399 C   0  0  0  0  0  0  0  0  0  0  0  0
   -1.2067   -7.3287   17.7772 C   0  0  0  0  0  0  0  0  0  0  0  0
   -0.0206  -10.5585   16.6210 C   0  0  0  0  0  0  0  0  0  0  0  0
    0.3696  -12.7626   16.2169 O   0  0  0  0  0  0  0  0  0  0  0  0
   -0.6895   -9.5676   17.3297 C   0  0  0  0  0  0  0  0  0  0  0  0
    0.8388   -5.8417   27.5264 C   0  0  0  0  0  0  0  0  0  0  0  0
   -2.0709   -7.6637   18.7817 C   0  0  0  0  0  0  0  0  0  0  0  0
   -0.5279   -8.2168   17.0717 C   0  0  0  0  0  0  0  0  0  0  0  0
    6.9694   -4.0191   27.8190 C   0  0  0  0  0  0  0  0  0  0  0  0
    5.1733   -4.5469   29.8123 C   0  0  0  0  0  0  0  0  0  0  0  0
   -1.7508  -11.3016   18.6072 C   0  0  0  0  0  0  0  0  0  0  0  0
    1.7497   -5.6771   26.4971 C   0  0  0  0  0  0  0  0  0  0  0  0
   -1.5799   -9.9322   18.3468 C   0  0  0  0  0  0  0  0  0  0  0  0
   -1.0871  -12.2214   17.8851 C   0  0  0  0  0  0  0  0  0  0  0  0
   -2.2706   -8.9669   19.0691 C   0  0  0  0  0  0  0  0  0  0  0  0
    3.0279   -5.3073   26.8197 C   0  0  0  0  0  0  0  0  0  0  0  0
    7.3282   -3.8948   29.1186 C   0  0  0  0  0  0  0  0  0  0  0  0
  1  3  4  0
  1  7  4  0
  2  3  1  0
  2  6  4  0
  2 16  4  0
  3 22  4  0
  4  9  4  0
  4 10  1  0
  4 20  4  0
  5 16  4  0
  5 23  4  0
  6 15  4  0
  7 12  4  0
  8 13  4  0
  8 14  4  0
  9 11  4  0
 11 14  4  0
 11 19  4  0
 12 18  4  0
 13 21  4  0
 15 23  4  0
 17 19  4  0
 17 20  4  0
 18 22  4  0
 19 21  4  0
M  END
$$$$

 Created by Python create_sdf_string function

 23 25  0  0  0  0  0  0  0  0999 V2000
    2.4610   -5.3070   29.1240 C   0  0  0  0  0  0  0  0  0  0  0  0
    4.7710   -4.6952   28.4803 C   0  0  0  0  0  0  0  0  0  0  0  0
    3.4047   -5.1087   28.1314 C   0  0  0  0  0  0  0  0  0  0  0  0
   -0.2234  -11.8615   16.8874 C   0  0  0  0  0  0  0  0  0  0  0  0
    6.4491   -4.1532   30.1213 C   0  0  0  0  0  0  0  0  0  0  0  0
    5.7060   -4.4340   27.4975 C   0  0  0  0  0  0  0  0  0  0  0  0
    1.1818   -5.6612   28.8399 C   0  0  0  0  0  0  0  0  0  0  0  0
   -1.2067   -7.3287   17.7772 C   0  0  0  0  0  0  0  0  0  0  0  0
   -0.0206  -10.5585   16.6210 C   0  0  0  0  0  0  0  0  0  0  0  0
    0.3696  -12.7626   16.2169 O   0  0  0  0  0  0  0  0  0  0  0  0
   -0.6895   -9.5676   17.3297 C   0  0  0  0  0  0  0  0  0  0  0  0
    0.8388   -5.8417   27.5264 C   0  0  0  0  0  0  0  0  0  0  0  0
   -2.0709   -7.6637   18.7817 C   0  0  0  0  0  0  0  0  0  0  0  0
   -0.5279   -8.2168   17.0717 C   0  0  0  0  0  0  0  0  0  0  0  0
    6.9694   -4.0191   27.8190 C   0  0  0  0  0  0  0  0  0  0  0  0
    5.1733   -4.5469   29.8123 C   0  0  0  0  0  0  0  0  0  0  0  0
   -1.7508  -11.3016   18.6072 C   0  0  0  0  0  0  0  0  0  0  0  0
    1.7497   -5.6771   26.4971 C   0  0  0  0  0  0  0  0  0  0  0  0
   -1.5799   -9.9322   18.3468 C   0  0  0  0  0  0  0  0  0  0  0  0
   -1.0871  -12.2214   17.8851 C   0  0  0  0  0  0  0  0  0  0  0  0
   -2.2706   -8.9669   19.0691 C   0  0  0  0  0  0  0  0  0  0  0  0
    3.0279   -5.3073   26.8197 C   0  0  0  0  0  0  0  0  0  0  0  0
    7.3282   -3.8948   29.1186 C   0  0  0  0  0  0  0  0  0  0  0  0
  1  3  4  0
  1  7  4  0
  2  3  1  0
  2  6  4  0
  2 16  4  0
  3 22  4  0
  4  9  4  0
  4 10  1  0
  4 20  4  0
  5 16  4  0
  5 23  4  0
  6 15  4  0
  7 12  4  0
  8 13  4  0
  8 14  4  0
  9 11  4  0
 11 14  4  0
 11 19  4  0
 12 18  4  0
 13 21  4  0
 15 23  4  0
 17 19  4  0
 17 20  4  0
 18 22  4  0
 19 21  4  0
M  END
$$$$

 Created by Python create_sdf_string function

 23 25  0  0  0  0  0  0  0  0999 V2000
    2.4610   -5.3070   29.1240 C   0  0  0  0  0  0  0  0  0  0  0  0
    4.7710   -4.6952   28.4803 C   0  0  0  0  0  0  0  0  0  0  0  0
    3.4047   -5.1087   28.1314 C   0  0  0  0  0  0  0  0  0  0  0  0
   -0.2234  -11.8615   16.8874 C   0  0  0  0  0  0  0  0  0  0  0  0
    6.4491   -4.1532   30.1213 C   0  0  0  0  0  0  0  0  0  0  0  0
    5.7060   -4.4340   27.4975 C   0  0  0  0  0  0  0  0  0  0  0  0
    1.1818   -5.6612   28.8399 C   0  0  0  0  0  0  0  0  0  0  0  0
   -1.2067   -7.3287   17.7772 C   0  0  0  0  0  0  0  0  0  0  0  0
   -0.0206  -10.5585   16.6210 C   0  0  0  0  0  0  0  0  0  0  0  0
    0.3696  -12.7626   16.2169 O   0  0  0  0  0  0  0  0  0  0  0  0
   -0.6895   -9.5676   17.3297 C   0  0  0  0  0  0  0  0  0  0  0  0
    0.8388   -5.8417   27.5264 C   0  0  0  0  0  0  0  0  0  0  0  0
   -2.0709   -7.6637   18.7817 C   0  0  0  0  0  0  0  0  0  0  0  0
   -0.5279   -8.2168   17.0717 C   0  0  0  0  0  0  0  0  0  0  0  0
    6.9694   -4.0191   27.8190 C   0  0  0  0  0  0  0  0  0  0  0  0
    5.1733   -4.5469   29.8123 C   0  0  0  0  0  0  0  0  0  0  0  0
   -1.7508  -11.3016   18.6072 C   0  0  0  0  0  0  0  0  0  0  0  0
    1.7497   -5.6771   26.4971 C   0  0  0  0  0  0  0  0  0  0  0  0
   -1.5799   -9.9322   18.3468 C   0  0  0  0  0  0  0  0  0  0  0  0
   -1.0871  -12.2214   17.8851 C   0  0  0  0  0  0  0  0  0  0  0  0
   -2.2706   -8.9669   19.0691 C   0  0  0  0  0  0  0  0  0  0  0  0
    3.0279   -5.3073   26.8197 C   0  0  0  0  0  0  0  0  0  0  0  0
    7.3282   -3.8948   29.1186 C   0  0  0  0  0  0  0  0  0  0  0  0
  1  3  4  0
  1  7  4  0
  2  3  1  0
  2  6  4  0
  2 16  4  0
  3 22  4  0
  4  9  4  0
  4 10  1  0
  4 20  4  0
  5 16  4  0
  5 23  4  0
  6 15  4  0
  7 12  4  0
  8 13  4  0
  8 14  4  0
  9 11  4  0
 11 14  4  0
 11 19  4  0
 12 18  4  0
 13 21  4  0
 15 23  4  0
 17 19  4  0
 17 20  4  0
 18 22  4  0
 19 21  4  0
M  END
$$$$

 Created by Python create_sdf_string function

 23 25  0  0  0  0  0  0  0  0999 V2000
    2.4610   -5.3070   29.1240 C   0  0  0  0  0  0  0  0  0  0  0  0
    4.7710   -4.6952   28.4803 C   0  0  0  0  0  0  0  0  0  0  0  0
    3.4047   -5.1087   28.1314 C   0  0  0  0  0  0  0  0  0  0  0  0
   -0.2234  -11.8615   16.8874 C   0  0  0  0  0  0  0  0  0  0  0  0
    6.4491   -4.1532   30.1213 C   0  0  0  0  0  0  0  0  0  0  0  0
    5.7060   -4.4340   27.4975 C   0  0  0  0  0  0  0  0  0  0  0  0
    1.1818   -5.6612   28.8399 C   0  0  0  0  0  0  0  0  0  0  0  0
   -1.2067   -7.3287   17.7772 C   0  0  0  0  0  0  0  0  0  0  0  0
   -0.0206  -10.5585   16.6210 C   0  0  0  0  0  0  0  0  0  0  0  0
    0.3696  -12.7626   16.2169 O   0  0  0  0  0  0  0  0  0  0  0  0
   -0.6895   -9.5676   17.3297 C   0  0  0  0  0  0  0  0  0  0  0  0
    0.8388   -5.8417   27.5264 C   0  0  0  0  0  0  0  0  0  0  0  0
   -2.0709   -7.6637   18.7817 C   0  0  0  0  0  0  0  0  0  0  0  0
   -0.5279   -8.2168   17.0717 C   0  0  0  0  0  0  0  0  0  0  0  0
    6.9694   -4.0191   27.8190 C   0  0  0  0  0  0  0  0  0  0  0  0
    5.1733   -4.5469   29.8123 C   0  0  0  0  0  0  0  0  0  0  0  0
   -1.7508  -11.3016   18.6072 C   0  0  0  0  0  0  0  0  0  0  0  0
    1.7497   -5.6771   26.4971 C   0  0  0  0  0  0  0  0  0  0  0  0
   -1.5799   -9.9322   18.3468 C   0  0  0  0  0  0  0  0  0  0  0  0
   -1.0871  -12.2214   17.8851 C   0  0  0  0  0  0  0  0  0  0  0  0
   -2.2706   -8.9669   19.0691 C   0  0  0  0  0  0  0  0  0  0  0  0
    3.0279   -5.3073   26.8197 C   0  0  0  0  0  0  0  0  0  0  0  0
    7.3282   -3.8948   29.1186 C   0  0  0  0  0  0  0  0  0  0  0  0
  1  3  4  0
  1  7  4  0
  2  3  1  0
  2  6  4  0
  2 16  4  0
  3 22  4  0
  4  9  4  0
  4 10  1  0
  4 20  4  0
  5 16  4  0
  5 23  4  0
  6 15  4  0
  7 12  4  0
  8 13  4  0
  8 14  4  0
  9 11  4  0
 11 14  4  0
 11 19  4  0
 12 18  4  0
 13 21  4  0
 15 23  4  0
 17 19  4  0
 17 20  4  0
 18 22  4  0
 19 21  4  0
M  END
$$$$

 Created by Python create_sdf_string function

 23 25  0  0  0  0  0  0  0  0999 V2000
    2.4610   -5.3070   29.1240 C   0  0  0  0  0  0  0  0  0  0  0  0
    4.7710   -4.6952   28.4803 C   0  0  0  0  0  0  0  0  0  0  0  0
    3.4047   -5.1087   28.1314 C   0  0  0  0  0  0  0  0  0  0  0  0
   -0.2234  -11.8615   16.8874 C   0  0  0  0  0  0  0  0  0  0  0  0
    6.4491   -4.1532   30.1213 C   0  0  0  0  0  0  0  0  0  0  0  0
    5.7060   -4.4340   27.4975 C   0  0  0  0  0  0  0  0  0  0  0  0
    1.1818   -5.6612   28.8399 C   0  0  0  0  0  0  0  0  0  0  0  0
   -1.2067   -7.3287   17.7772 C   0  0  0  0  0  0  0  0  0  0  0  0
   -0.0206  -10.5585   16.6210 C   0  0  0  0  0  0  0  0  0  0  0  0
    0.3696  -12.7626   16.2169 O   0  0  0  0  0  0  0  0  0  0  0  0
   -0.6895   -9.5676   17.3297 C   0  0  0  0  0  0  0  0  0  0  0  0
    0.8388   -5.8417   27.5264 C   0  0  0  0  0  0  0  0  0  0  0  0
   -2.0709   -7.6637   18.7817 C   0  0  0  0  0  0  0  0  0  0  0  0
   -0.5279   -8.2168   17.0717 C   0  0  0  0  0  0  0  0  0  0  0  0
    6.9694   -4.0191   27.8190 C   0  0  0  0  0  0  0  0  0  0  0  0
    5.1733   -4.5469   29.8123 C   0  0  0  0  0  0  0  0  0  0  0  0
   -1.7508  -11.3016   18.6072 C   0  0  0  0  0  0  0  0  0  0  0  0
    1.7497   -5.6771   26.4971 C   0  0  0  0  0  0  0  0  0  0  0  0
   -1.5799   -9.9322   18.3468 C   0  0  0  0  0  0  0  0  0  0  0  0
   -1.0871  -12.2214   17.8851 C   0  0  0  0  0  0  0  0  0  0  0  0
   -2.2706   -8.9669   19.0691 C   0  0  0  0  0  0  0  0  0  0  0  0
    3.0279   -5.3073   26.8197 C   0  0  0  0  0  0  0  0  0  0  0  0
    7.3282   -3.8948   29.1186 C   0  0  0  0  0  0  0  0  0  0  0  0
  1  3  4  0
  1  7  4  0
  2  3  1  0
  2  6  4  0
  2 16  4  0
  3 22  4  0
  4  9  4  0
  4 10  1  0
  4 20  4  0
  5 16  4  0
  5 23  4  0
  6 15  4  0
  7 12  4  0
  8 13  4  0
  8 14  4  0
  9 11  4  0
 11 14  4  0
 11 19  4  0
 12 18  4  0
 13 21  4  0
 15 23  4  0
 17 19  4  0
 17 20  4  0
 18 22  4  0
 19 21  4  0
M  END
$$$$

 Created by Python create_sdf_string function

 23 25  0  0  0  0  0  0  0  0999 V2000
    2.4610   -5.3070   29.1240 C   0  0  0  0  0  0  0  0  0  0  0  0
    4.7710   -4.6952   28.4803 C   0  0  0  0  0  0  0  0  0  0  0  0
    3.4047   -5.1087   28.1314 C   0  0  0  0  0  0  0  0  0  0  0  0
   -0.2234  -11.8615   16.8874 C   0  0  0  0  0  0  0  0  0  0  0  0
    6.4491   -4.1532   30.1213 C   0  0  0  0  0  0  0  0  0  0  0  0
    5.7060   -4.4340   27.4975 C   0  0  0  0  0  0  0  0  0  0  0  0
    1.1818   -5.6612   28.8399 C   0  0  0  0  0  0  0  0  0  0  0  0
   -1.2067   -7.3287   17.7772 C   0  0  0  0  0  0  0  0  0  0  0  0
   -0.0206  -10.5585   16.6210 C   0  0  0  0  0  0  0  0  0  0  0  0
    0.3696  -12.7626   16.2169 O   0  0  0  0  0  0  0  0  0  0  0  0
   -0.6895   -9.5676   17.3297 C   0  0  0  0  0  0  0  0  0  0  0  0
    0.8388   -5.8417   27.5264 C   0  0  0  0  0  0  0  0  0  0  0  0
   -2.0709   -7.6637   18.7817 C   0  0  0  0  0  0  0  0  0  0  0  0
   -0.5279   -8.2168   17.0717 C   0  0  0  0  0  0  0  0  0  0  0  0
    6.9694   -4.0191   27.8190 C   0  0  0  0  0  0  0  0  0  0  0  0
    5.1733   -4.5469   29.8123 C   0  0  0  0  0  0  0  0  0  0  0  0
   -1.7508  -11.3016   18.6072 C   0  0  0  0  0  0  0  0  0  0  0  0
    1.7497   -5.6771   26.4971 C   0  0  0  0  0  0  0  0  0  0  0  0
   -1.5799   -9.9322   18.3468 C   0  0  0  0  0  0  0  0  0  0  0  0
   -1.0871  -12.2214   17.8851 C   0  0  0  0  0  0  0  0  0  0  0  0
   -2.2706   -8.9669   19.0691 C   0  0  0  0  0  0  0  0  0  0  0  0
    3.0279   -5.3073   26.8197 C   0  0  0  0  0  0  0  0  0  0  0  0
    7.3282   -3.8948   29.1186 C   0  0  0  0  0  0  0  0  0  0  0  0
  1  3  4  0
  1  7  4  0
  2  3  1  0
  2  6  4  0
  2 16  4  0
  3 22  4  0
  4  9  4  0
  4 10  1  0
  4 20  4  0
  5 16  4  0
  5 23  4  0
  6 15  4  0
  7 12  4  0
  8 13  4  0
  8 14  4  0
  9 11  4  0
 11 14  4  0
 11 19  4  0
 12 18  4  0
 13 21  4  0
 15 23  4  0
 17 19  4  0
 17 20  4  0
 18 22  4  0
 19 21  4  0
M  END
$$$$

 Created by Python create_sdf_string function

 23 25  0  0  0  0  0  0  0  0999 V2000
    2.4610   -5.3070   29.1240 C   0  0  0  0  0  0  0  0  0  0  0  0
    4.7710   -4.6952   28.4803 C   0  0  0  0  0  0  0  0  0  0  0  0
    3.4047   -5.1087   28.1314 C   0  0  0  0  0  0  0  0  0  0  0  0
   -0.2234  -11.8615   16.8874 C   0  0  0  0  0  0  0  0  0  0  0  0
    6.4491   -4.1532   30.1213 C   0  0  0  0  0  0  0  0  0  0  0  0
    5.7060   -4.4340   27.4975 C   0  0  0  0  0  0  0  0  0  0  0  0
    1.1818   -5.6612   28.8399 C   0  0  0  0  0  0  0  0  0  0  0  0
   -1.2067   -7.3287   17.7772 C   0  0  0  0  0  0  0  0  0  0  0  0
   -0.0206  -10.5585   16.6210 C   0  0  0  0  0  0  0  0  0  0  0  0
    0.3696  -12.7626   16.2169 O   0  0  0  0  0  0  0  0  0  0  0  0
   -0.6895   -9.5676   17.3297 C   0  0  0  0  0  0  0  0  0  0  0  0
    0.8388   -5.8417   27.5264 C   0  0  0  0  0  0  0  0  0  0  0  0
   -2.0709   -7.6637   18.7817 C   0  0  0  0  0  0  0  0  0  0  0  0
   -0.5279   -8.2168   17.0717 C   0  0  0  0  0  0  0  0  0  0  0  0
    6.9694   -4.0191   27.8190 C   0  0  0  0  0  0  0  0  0  0  0  0
    5.1733   -4.5469   29.8123 C   0  0  0  0  0  0  0  0  0  0  0  0
   -1.7508  -11.3016   18.6072 C   0  0  0  0  0  0  0  0  0  0  0  0
    1.7497   -5.6771   26.4971 C   0  0  0  0  0  0  0  0  0  0  0  0
   -1.5799   -9.9322   18.3468 C   0  0  0  0  0  0  0  0  0  0  0  0
   -1.0871  -12.2214   17.8851 C   0  0  0  0  0  0  0  0  0  0  0  0
   -2.2706   -8.9669   19.0691 C   0  0  0  0  0  0  0  0  0  0  0  0
    3.0279   -5.3073   26.8197 C   0  0  0  0  0  0  0  0  0  0  0  0
    7.3282   -3.8948   29.1186 C   0  0  0  0  0  0  0  0  0  0  0  0
  1  3  4  0
  1  7  4  0
  2  3  1  0
  2  6  4  0
  2 16  4  0
  3 22  4  0
  4  9  4  0
  4 10  1  0
  4 20  4  0
  5 16  4  0
  5 23  4  0
  6 15  4  0
  7 12  4  0
  8 13  4  0
  8 14  4  0
  9 11  4  0
 11 14  4  0
 11 19  4  0
 12 18  4  0
 13 21  4  0
 15 23  4  0
 17 19  4  0
 17 20  4  0
 18 22  4  0
 19 21  4  0
M  END
$$$$

 Created by Python create_sdf_string function

 23 25  0  0  0  0  0  0  0  0999 V2000
    2.4610   -5.3070   29.1240 C   0  0  0  0  0  0  0  0  0  0  0  0
    4.7710   -4.6952   28.4803 C   0  0  0  0  0  0  0  0  0  0  0  0
    3.4047   -5.1087   28.1314 C   0  0  0  0  0  0  0  0  0  0  0  0
   -0.2234  -11.8615   16.8874 C   0  0  0  0  0  0  0  0  0  0  0  0
    6.4491   -4.1532   30.1213 C   0  0  0  0  0  0  0  0  0  0  0  0
    5.7060   -4.4340   27.4975 C   0  0  0  0  0  0  0  0  0  0  0  0
    1.1818   -5.6612   28.8399 C   0  0  0  0  0  0  0  0  0  0  0  0
   -1.2067   -7.3287   17.7772 C   0  0  0  0  0  0  0  0  0  0  0  0
   -0.0206  -10.5585   16.6210 C   0  0  0  0  0  0  0  0  0  0  0  0
    0.3696  -12.7626   16.2169 O   0  0  0  0  0  0  0  0  0  0  0  0
   -0.6895   -9.5676   17.3297 C   0  0  0  0  0  0  0  0  0  0  0  0
    0.8388   -5.8417   27.5264 C   0  0  0  0  0  0  0  0  0  0  0  0
   -2.0709   -7.6637   18.7817 C   0  0  0  0  0  0  0  0  0  0  0  0
   -0.5279   -8.2168   17.0717 C   0  0  0  0  0  0  0  0  0  0  0  0
    6.9694   -4.0191   27.8190 C   0  0  0  0  0  0  0  0  0  0  0  0
    5.1733   -4.5469   29.8123 C   0  0  0  0  0  0  0  0  0  0  0  0
   -1.7508  -11.3016   18.6072 C   0  0  0  0  0  0  0  0  0  0  0  0
    1.7497   -5.6771   26.4971 C   0  0  0  0  0  0  0  0  0  0  0  0
   -1.5799   -9.9322   18.3468 C   0  0  0  0  0  0  0  0  0  0  0  0
   -1.0871  -12.2214   17.8851 C   0  0  0  0  0  0  0  0  0  0  0  0
   -2.2706   -8.9669   19.0691 C   0  0  0  0  0  0  0  0  0  0  0  0
    3.0279   -5.3073   26.8197 C   0  0  0  0  0  0  0  0  0  0  0  0
    7.3282   -3.8948   29.1186 C   0  0  0  0  0  0  0  0  0  0  0  0
  1  3  4  0
  1  7  4  0
  2  3  1  0
  2  6  4  0
  2 16  4  0
  3 22  4  0
  4  9  4  0
  4 10  1  0
  4 20  4  0
  5 16  4  0
  5 23  4  0
  6 15  4  0
  7 12  4  0
  8 13  4  0
  8 14  4  0
  9 11  4  0
 11 14  4  0
 11 19  4  0
 12 18  4  0
 13 21  4  0
 15 23  4  0
 17 19  4  0
 17 20  4  0
 18 22  4  0
 19 21  4  0
M  END
$$$$

 Created by Python create_sdf_string function

 23 25  0  0  0  0  0  0  0  0999 V2000
    2.4610   -5.3070   29.1240 C   0  0  0  0  0  0  0  0  0  0  0  0
    4.7710   -4.6952   28.4803 C   0  0  0  0  0  0  0  0  0  0  0  0
    3.4047   -5.1087   28.1314 C   0  0  0  0  0  0  0  0  0  0  0  0
   -0.2234  -11.8615   16.8874 C   0  0  0  0  0  0  0  0  0  0  0  0
    6.4491   -4.1532   30.1213 C   0  0  0  0  0  0  0  0  0  0  0  0
    5.7060   -4.4340   27.4975 C   0  0  0  0  0  0  0  0  0  0  0  0
    1.1818   -5.6612   28.8399 C   0  0  0  0  0  0  0  0  0  0  0  0
   -1.2067   -7.3287   17.7772 C   0  0  0  0  0  0  0  0  0  0  0  0
   -0.0206  -10.5585   16.6210 C   0  0  0  0  0  0  0  0  0  0  0  0
    0.3696  -12.7626   16.2169 O   0  0  0  0  0  0  0  0  0  0  0  0
   -0.6895   -9.5676   17.3297 C   0  0  0  0  0  0  0  0  0  0  0  0
    0.8388   -5.8417   27.5264 C   0  0  0  0  0  0  0  0  0  0  0  0
   -2.0709   -7.6637   18.7817 C   0  0  0  0  0  0  0  0  0  0  0  0
   -0.5279   -8.2168   17.0717 C   0  0  0  0  0  0  0  0  0  0  0  0
    6.9694   -4.0191   27.8190 C   0  0  0  0  0  0  0  0  0  0  0  0
    5.1733   -4.5469   29.8123 C   0  0  0  0  0  0  0  0  0  0  0  0
   -1.7508  -11.3016   18.6072 C   0  0  0  0  0  0  0  0  0  0  0  0
    1.7497   -5.6771   26.4971 C   0  0  0  0  0  0  0  0  0  0  0  0
   -1.5799   -9.9322   18.3468 C   0  0  0  0  0  0  0  0  0  0  0  0
   -1.0871  -12.2214   17.8851 C   0  0  0  0  0  0  0  0  0  0  0  0
   -2.2706   -8.9669   19.0691 C   0  0  0  0  0  0  0  0  0  0  0  0
    3.0279   -5.3073   26.8197 C   0  0  0  0  0  0  0  0  0  0  0  0
    7.3282   -3.8948   29.1186 C   0  0  0  0  0  0  0  0  0  0  0  0
  1  3  4  0
  1  7  4  0
  2  3  1  0
  2  6  4  0
  2 16  4  0
  3 22  4  0
  4  9  4  0
  4 10  1  0
  4 20  4  0
  5 16  4  0
  5 23  4  0
  6 15  4  0
  7 12  4  0
  8 13  4  0
  8 14  4  0
  9 11  4  0
 11 14  4  0
 11 19  4  0
 12 18  4  0
 13 21  4  0
 15 23  4  0
 17 19  4  0
 17 20  4  0
 18 22  4  0
 19 21  4  0
M  END
$$$$

 Created by Python create_sdf_string function

 23 25  0  0  0  0  0  0  0  0999 V2000
    2.4610   -5.3070   29.1240 C   0  0  0  0  0  0  0  0  0  0  0  0
    4.7710   -4.6952   28.4803 C   0  0  0  0  0  0  0  0  0  0  0  0
    3.4047   -5.1087   28.1314 C   0  0  0  0  0  0  0  0  0  0  0  0
   -0.2234  -11.8615   16.8874 C   0  0  0  0  0  0  0  0  0  0  0  0
    6.4491   -4.1532   30.1213 C   0  0  0  0  0  0  0  0  0  0  0  0
    5.7060   -4.4340   27.4975 C   0  0  0  0  0  0  0  0  0  0  0  0
    1.1818   -5.6612   28.8399 C   0  0  0  0  0  0  0  0  0  0  0  0
   -1.2067   -7.3287   17.7772 C   0  0  0  0  0  0  0  0  0  0  0  0
   -0.0206  -10.5585   16.6210 C   0  0  0  0  0  0  0  0  0  0  0  0
    0.3696  -12.7626   16.2169 O   0  0  0  0  0  0  0  0  0  0  0  0
   -0.6895   -9.5676   17.3297 C   0  0  0  0  0  0  0  0  0  0  0  0
    0.8388   -5.8417   27.5264 C   0  0  0  0  0  0  0  0  0  0  0  0
   -2.0709   -7.6637   18.7817 C   0  0  0  0  0  0  0  0  0  0  0  0
   -0.5279   -8.2168   17.0717 C   0  0  0  0  0  0  0  0  0  0  0  0
    6.9694   -4.0191   27.8190 C   0  0  0  0  0  0  0  0  0  0  0  0
    5.1733   -4.5469   29.8123 C   0  0  0  0  0  0  0  0  0  0  0  0
   -1.7508  -11.3016   18.6072 C   0  0  0  0  0  0  0  0  0  0  0  0
    1.7497   -5.6771   26.4971 C   0  0  0  0  0  0  0  0  0  0  0  0
   -1.5799   -9.9322   18.3468 C   0  0  0  0  0  0  0  0  0  0  0  0
   -1.0871  -12.2214   17.8851 C   0  0  0  0  0  0  0  0  0  0  0  0
   -2.2706   -8.9669   19.0691 C   0  0  0  0  0  0  0  0  0  0  0  0
    3.0279   -5.3073   26.8197 C   0  0  0  0  0  0  0  0  0  0  0  0
    7.3282   -3.8948   29.1186 C   0  0  0  0  0  0  0  0  0  0  0  0
  1  3  4  0
  1  7  4  0
  2  3  1  0
  2  6  4  0
  2 16  4  0
  3 22  4  0
  4  9  4  0
  4 10  1  0
  4 20  4  0
  5 16  4  0
  5 23  4  0
  6 15  4  0
  7 12  4  0
  8 13  4  0
  8 14  4  0
  9 11  4  0
 11 14  4  0
 11 19  4  0
 12 18  4  0
 13 21  4  0
 15 23  4  0
 17 19  4  0
 17 20  4  0
 18 22  4  0
 19 21  4  0
M  END
$$$$

 Created by Python create_sdf_string function

 23 25  0  0  0  0  0  0  0  0999 V2000
    2.4610   -5.3070   29.1240 C   0  0  0  0  0  0  0  0  0  0  0  0
    4.7710   -4.6952   28.4803 C   0  0  0  0  0  0  0  0  0  0  0  0
    3.4047   -5.1087   28.1314 C   0  0  0  0  0  0  0  0  0  0  0  0
   -0.2234  -11.8615   16.8874 C   0  0  0  0  0  0  0  0  0  0  0  0
    6.4491   -4.1532   30.1213 C   0  0  0  0  0  0  0  0  0  0  0  0
    5.7060   -4.4340   27.4975 C   0  0  0  0  0  0  0  0  0  0  0  0
    1.1818   -5.6612   28.8399 C   0  0  0  0  0  0  0  0  0  0  0  0
   -1.2067   -7.3287   17.7772 C   0  0  0  0  0  0  0  0  0  0  0  0
   -0.0206  -10.5585   16.6210 C   0  0  0  0  0  0  0  0  0  0  0  0
    0.3696  -12.7626   16.2169 O   0  0  0  0  0  0  0  0  0  0  0  0
   -0.6895   -9.5676   17.3297 C   0  0  0  0  0  0  0  0  0  0  0  0
    0.8388   -5.8417   27.5264 C   0  0  0  0  0  0  0  0  0  0  0  0
   -2.0709   -7.6637   18.7817 C   0  0  0  0  0  0  0  0  0  0  0  0
   -0.5279   -8.2168   17.0717 C   0  0  0  0  0  0  0  0  0  0  0  0
    6.9694   -4.0191   27.8190 C   0  0  0  0  0  0  0  0  0  0  0  0
    5.1733   -4.5469   29.8123 C   0  0  0  0  0  0  0  0  0  0  0  0
   -1.7508  -11.3016   18.6072 C   0  0  0  0  0  0  0  0  0  0  0  0
    1.7497   -5.6771   26.4971 C   0  0  0  0  0  0  0  0  0  0  0  0
   -1.5799   -9.9322   18.3468 C   0  0  0  0  0  0  0  0  0  0  0  0
   -1.0871  -12.2214   17.8851 C   0  0  0  0  0  0  0  0  0  0  0  0
   -2.2706   -8.9669   19.0691 C   0  0  0  0  0  0  0  0  0  0  0  0
    3.0279   -5.3073   26.8197 C   0  0  0  0  0  0  0  0  0  0  0  0
    7.3282   -3.8948   29.1186 C   0  0  0  0  0  0  0  0  0  0  0  0
  1  3  4  0
  1  7  4  0
  2  3  1  0
  2  6  4  0
  2 16  4  0
  3 22  4  0
  4  9  4  0
  4 10  1  0
  4 20  4  0
  5 16  4  0
  5 23  4  0
  6 15  4  0
  7 12  4  0
  8 13  4  0
  8 14  4  0
  9 11  4  0
 11 14  4  0
 11 19  4  0
 12 18  4  0
 13 21  4  0
 15 23  4  0
 17 19  4  0
 17 20  4  0
 18 22  4  0
 19 21  4  0
M  END
$$$$

 Created by Python create_sdf_string function

 23 25  0  0  0  0  0  0  0  0999 V2000
    2.4610   -5.3070   29.1240 C   0  0  0  0  0  0  0  0  0  0  0  0
    4.7710   -4.6952   28.4803 C   0  0  0  0  0  0  0  0  0  0  0  0
    3.4047   -5.1087   28.1314 C   0  0  0  0  0  0  0  0  0  0  0  0
   -0.2234  -11.8615   16.8874 C   0  0  0  0  0  0  0  0  0  0  0  0
    6.4491   -4.1532   30.1213 C   0  0  0  0  0  0  0  0  0  0  0  0
    5.7060   -4.4340   27.4975 C   0  0  0  0  0  0  0  0  0  0  0  0
    1.1818   -5.6612   28.8399 C   0  0  0  0  0  0  0  0  0  0  0  0
   -1.2067   -7.3287   17.7772 C   0  0  0  0  0  0  0  0  0  0  0  0
   -0.0206  -10.5585   16.6210 C   0  0  0  0  0  0  0  0  0  0  0  0
    0.3696  -12.7626   16.2169 O   0  0  0  0  0  0  0  0  0  0  0  0
   -0.6895   -9.5676   17.3297 C   0  0  0  0  0  0  0  0  0  0  0  0
    0.8388   -5.8417   27.5264 C   0  0  0  0  0  0  0  0  0  0  0  0
   -2.0709   -7.6637   18.7817 C   0  0  0  0  0  0  0  0  0  0  0  0
   -0.5279   -8.2168   17.0717 C   0  0  0  0  0  0  0  0  0  0  0  0
    6.9694   -4.0191   27.8190 C   0  0  0  0  0  0  0  0  0  0  0  0
    5.1733   -4.5469   29.8123 C   0  0  0  0  0  0  0  0  0  0  0  0
   -1.7508  -11.3016   18.6072 C   0  0  0  0  0  0  0  0  0  0  0  0
    1.7497   -5.6771   26.4971 C   0  0  0  0  0  0  0  0  0  0  0  0
   -1.5799   -9.9322   18.3468 C   0  0  0  0  0  0  0  0  0  0  0  0
   -1.0871  -12.2214   17.8851 C   0  0  0  0  0  0  0  0  0  0  0  0
   -2.2706   -8.9669   19.0691 C   0  0  0  0  0  0  0  0  0  0  0  0
    3.0279   -5.3073   26.8197 C   0  0  0  0  0  0  0  0  0  0  0  0
    7.3282   -3.8948   29.1186 C   0  0  0  0  0  0  0  0  0  0  0  0
  1  3  4  0
  1  7  4  0
  2  3  1  0
  2  6  4  0
  2 16  4  0
  3 22  4  0
  4  9  4  0
  4 10  1  0
  4 20  4  0
  5 16  4  0
  5 23  4  0
  6 15  4  0
  7 12  4  0
  8 13  4  0
  8 14  4  0
  9 11  4  0
 11 14  4  0
 11 19  4  0
 12 18  4  0
 13 21  4  0
 15 23  4  0
 17 19  4  0
 17 20  4  0
 18 22  4  0
 19 21  4  0
M  END
$$$$

 Created by Python create_sdf_string function

 23 25  0  0  0  0  0  0  0  0999 V2000
    2.4610   -5.3070   29.1240 C   0  0  0  0  0  0  0  0  0  0  0  0
    4.7710   -4.6952   28.4803 C   0  0  0  0  0  0  0  0  0  0  0  0
    3.4047   -5.1087   28.1314 C   0  0  0  0  0  0  0  0  0  0  0  0
   -0.2234  -11.8615   16.8874 C   0  0  0  0  0  0  0  0  0  0  0  0
    6.4491   -4.1532   30.1213 C   0  0  0  0  0  0  0  0  0  0  0  0
    5.7060   -4.4340   27.4975 C   0  0  0  0  0  0  0  0  0  0  0  0
    1.1818   -5.6612   28.8399 C   0  0  0  0  0  0  0  0  0  0  0  0
   -1.2067   -7.3287   17.7772 C   0  0  0  0  0  0  0  0  0  0  0  0
   -0.0206  -10.5585   16.6210 C   0  0  0  0  0  0  0  0  0  0  0  0
    0.3696  -12.7626   16.2169 O   0  0  0  0  0  0  0  0  0  0  0  0
   -0.6895   -9.5676   17.3297 C   0  0  0  0  0  0  0  0  0  0  0  0
    0.8388   -5.8417   27.5264 C   0  0  0  0  0  0  0  0  0  0  0  0
   -2.0709   -7.6637   18.7817 C   0  0  0  0  0  0  0  0  0  0  0  0
   -0.5279   -8.2168   17.0717 C   0  0  0  0  0  0  0  0  0  0  0  0
    6.9694   -4.0191   27.8190 C   0  0  0  0  0  0  0  0  0  0  0  0
    5.1733   -4.5469   29.8123 C   0  0  0  0  0  0  0  0  0  0  0  0
   -1.7508  -11.3016   18.6072 C   0  0  0  0  0  0  0  0  0  0  0  0
    1.7497   -5.6771   26.4971 C   0  0  0  0  0  0  0  0  0  0  0  0
   -1.5799   -9.9322   18.3468 C   0  0  0  0  0  0  0  0  0  0  0  0
   -1.0871  -12.2214   17.8851 C   0  0  0  0  0  0  0  0  0  0  0  0
   -2.2706   -8.9669   19.0691 C   0  0  0  0  0  0  0  0  0  0  0  0
    3.0279   -5.3073   26.8197 C   0  0  0  0  0  0  0  0  0  0  0  0
    7.3282   -3.8948   29.1186 C   0  0  0  0  0  0  0  0  0  0  0  0
  1  3  4  0
  1  7  4  0
  2  3  1  0
  2  6  4  0
  2 16  4  0
  3 22  4  0
  4  9  4  0
  4 10  1  0
  4 20  4  0
  5 16  4  0
  5 23  4  0
  6 15  4  0
  7 12  4  0
  8 13  4  0
  8 14  4  0
  9 11  4  0
 11 14  4  0
 11 19  4  0
 12 18  4  0
 13 21  4  0
 15 23  4  0
 17 19  4  0
 17 20  4  0
 18 22  4  0
 19 21  4  0
M  END
$$$$

 Created by Python create_sdf_string function

 23 25  0  0  0  0  0  0  0  0999 V2000
    2.4610   -5.3070   29.1240 C   0  0  0  0  0  0  0  0  0  0  0  0
    4.7710   -4.6952   28.4803 C   0  0  0  0  0  0  0  0  0  0  0  0
    3.4047   -5.1087   28.1314 C   0  0  0  0  0  0  0  0  0  0  0  0
   -0.2234  -11.8615   16.8874 C   0  0  0  0  0  0  0  0  0  0  0  0
    6.4491   -4.1532   30.1213 C   0  0  0  0  0  0  0  0  0  0  0  0
    5.7060   -4.4340   27.4975 C   0  0  0  0  0  0  0  0  0  0  0  0
    1.1818   -5.6612   28.8399 C   0  0  0  0  0  0  0  0  0  0  0  0
   -1.2067   -7.3287   17.7772 C   0  0  0  0  0  0  0  0  0  0  0  0
   -0.0206  -10.5585   16.6210 C   0  0  0  0  0  0  0  0  0  0  0  0
    0.3696  -12.7626   16.2169 O   0  0  0  0  0  0  0  0  0  0  0  0
   -0.6895   -9.5676   17.3297 C   0  0  0  0  0  0  0  0  0  0  0  0
    0.8388   -5.8417   27.5264 C   0  0  0  0  0  0  0  0  0  0  0  0
   -2.0709   -7.6637   18.7817 C   0  0  0  0  0  0  0  0  0  0  0  0
   -0.5279   -8.2168   17.0717 C   0  0  0  0  0  0  0  0  0  0  0  0
    6.9694   -4.0191   27.8190 C   0  0  0  0  0  0  0  0  0  0  0  0
    5.1733   -4.5469   29.8123 C   0  0  0  0  0  0  0  0  0  0  0  0
   -1.7508  -11.3016   18.6072 C   0  0  0  0  0  0  0  0  0  0  0  0
    1.7497   -5.6771   26.4971 C   0  0  0  0  0  0  0  0  0  0  0  0
   -1.5799   -9.9322   18.3468 C   0  0  0  0  0  0  0  0  0  0  0  0
   -1.0871  -12.2214   17.8851 C   0  0  0  0  0  0  0  0  0  0  0  0
   -2.2706   -8.9669   19.0691 C   0  0  0  0  0  0  0  0  0  0  0  0
    3.0279   -5.3073   26.8197 C   0  0  0  0  0  0  0  0  0  0  0  0
    7.3282   -3.8948   29.1186 C   0  0  0  0  0  0  0  0  0  0  0  0
  1  3  4  0
  1  7  4  0
  2  3  1  0
  2  6  4  0
  2 16  4  0
  3 22  4  0
  4  9  4  0
  4 10  1  0
  4 20  4  0
  5 16  4  0
  5 23  4  0
  6 15  4  0
  7 12  4  0
  8 13  4  0
  8 14  4  0
  9 11  4  0
 11 14  4  0
 11 19  4  0
 12 18  4  0
 13 21  4  0
 15 23  4  0
 17 19  4  0
 17 20  4  0
 18 22  4  0
 19 21  4  0
M  END
$$$$

 Created by Python create_sdf_string function

 23 25  0  0  0  0  0  0  0  0999 V2000
    2.4610   -5.3070   29.1240 C   0  0  0  0  0  0  0  0  0  0  0  0
    4.7710   -4.6952   28.4803 C   0  0  0  0  0  0  0  0  0  0  0  0
    3.4047   -5.1087   28.1314 C   0  0  0  0  0  0  0  0  0  0  0  0
   -0.2234  -11.8615   16.8874 C   0  0  0  0  0  0  0  0  0  0  0  0
    6.4491   -4.1532   30.1213 C   0  0  0  0  0  0  0  0  0  0  0  0
    5.7060   -4.4340   27.4975 C   0  0  0  0  0  0  0  0  0  0  0  0
    1.1818   -5.6612   28.8399 C   0  0  0  0  0  0  0  0  0  0  0  0
   -1.2067   -7.3287   17.7772 C   0  0  0  0  0  0  0  0  0  0  0  0
   -0.0206  -10.5585   16.6210 C   0  0  0  0  0  0  0  0  0  0  0  0
    0.3696  -12.7626   16.2169 O   0  0  0  0  0  0  0  0  0  0  0  0
   -0.6895   -9.5676   17.3297 C   0  0  0  0  0  0  0  0  0  0  0  0
    0.8388   -5.8417   27.5264 C   0  0  0  0  0  0  0  0  0  0  0  0
   -2.0709   -7.6637   18.7817 C   0  0  0  0  0  0  0  0  0  0  0  0
   -0.5279   -8.2168   17.0717 C   0  0  0  0  0  0  0  0  0  0  0  0
    6.9694   -4.0191   27.8190 C   0  0  0  0  0  0  0  0  0  0  0  0
    5.1733   -4.5469   29.8123 C   0  0  0  0  0  0  0  0  0  0  0  0
   -1.7508  -11.3016   18.6072 C   0  0  0  0  0  0  0  0  0  0  0  0
    1.7497   -5.6771   26.4971 C   0  0  0  0  0  0  0  0  0  0  0  0
   -1.5799   -9.9322   18.3468 C   0  0  0  0  0  0  0  0  0  0  0  0
   -1.0871  -12.2214   17.8851 C   0  0  0  0  0  0  0  0  0  0  0  0
   -2.2706   -8.9669   19.0691 C   0  0  0  0  0  0  0  0  0  0  0  0
    3.0279   -5.3073   26.8197 C   0  0  0  0  0  0  0  0  0  0  0  0
    7.3282   -3.8948   29.1186 C   0  0  0  0  0  0  0  0  0  0  0  0
  1  3  4  0
  1  7  4  0
  2  3  1  0
  2  6  4  0
  2 16  4  0
  3 22  4  0
  4  9  4  0
  4 10  1  0
  4 20  4  0
  5 16  4  0
  5 23  4  0
  6 15  4  0
  7 12  4  0
  8 13  4  0
  8 14  4  0
  9 11  4  0
 11 14  4  0
 11 19  4  0
 12 18  4  0
 13 21  4  0
 15 23  4  0
 17 19  4  0
 17 20  4  0
 18 22  4  0
 19 21  4  0
M  END
$$$$

 Created by Python create_sdf_string function

 23 25  0  0  0  0  0  0  0  0999 V2000
    2.4610   -5.3070   29.1240 C   0  0  0  0  0  0  0  0  0  0  0  0
    4.7710   -4.6952   28.4803 C   0  0  0  0  0  0  0  0  0  0  0  0
    3.4047   -5.1087   28.1314 C   0  0  0  0  0  0  0  0  0  0  0  0
   -0.2234  -11.8615   16.8874 C   0  0  0  0  0  0  0  0  0  0  0  0
    6.4491   -4.1532   30.1213 C   0  0  0  0  0  0  0  0  0  0  0  0
    5.7060   -4.4340   27.4975 C   0  0  0  0  0  0  0  0  0  0  0  0
    1.1818   -5.6612   28.8399 C   0  0  0  0  0  0  0  0  0  0  0  0
   -1.2067   -7.3287   17.7772 C   0  0  0  0  0  0  0  0  0  0  0  0
   -0.0206  -10.5585   16.6210 C   0  0  0  0  0  0  0  0  0  0  0  0
    0.3696  -12.7626   16.2169 O   0  0  0  0  0  0  0  0  0  0  0  0
   -0.6895   -9.5676   17.3297 C   0  0  0  0  0  0  0  0  0  0  0  0
    0.8388   -5.8417   27.5264 C   0  0  0  0  0  0  0  0  0  0  0  0
   -2.0709   -7.6637   18.7817 C   0  0  0  0  0  0  0  0  0  0  0  0
   -0.5279   -8.2168   17.0717 C   0  0  0  0  0  0  0  0  0  0  0  0
    6.9694   -4.0191   27.8190 C   0  0  0  0  0  0  0  0  0  0  0  0
    5.1733   -4.5469   29.8123 C   0  0  0  0  0  0  0  0  0  0  0  0
   -1.7508  -11.3016   18.6072 C   0  0  0  0  0  0  0  0  0  0  0  0
    1.7497   -5.6771   26.4971 C   0  0  0  0  0  0  0  0  0  0  0  0
   -1.5799   -9.9322   18.3468 C   0  0  0  0  0  0  0  0  0  0  0  0
   -1.0871  -12.2214   17.8851 C   0  0  0  0  0  0  0  0  0  0  0  0
   -2.2706   -8.9669   19.0691 C   0  0  0  0  0  0  0  0  0  0  0  0
    3.0279   -5.3073   26.8197 C   0  0  0  0  0  0  0  0  0  0  0  0
    7.3282   -3.8948   29.1186 C   0  0  0  0  0  0  0  0  0  0  0  0
  1  3  4  0
  1  7  4  0
  2  3  1  0
  2  6  4  0
  2 16  4  0
  3 22  4  0
  4  9  4  0
  4 10  1  0
  4 20  4  0
  5 16  4  0
  5 23  4  0
  6 15  4  0
  7 12  4  0
  8 13  4  0
  8 14  4  0
  9 11  4  0
 11 14  4  0
 11 19  4  0
 12 18  4  0
 13 21  4  0
 15 23  4  0
 17 19  4  0
 17 20  4  0
 18 22  4  0
 19 21  4  0
M  END
$$$$

 Created by Python create_sdf_string function

 23 25  0  0  0  0  0  0  0  0999 V2000
    2.4610   -5.3070   29.1240 C   0  0  0  0  0  0  0  0  0  0  0  0
    4.7710   -4.6952   28.4803 C   0  0  0  0  0  0  0  0  0  0  0  0
    3.4047   -5.1087   28.1314 C   0  0  0  0  0  0  0  0  0  0  0  0
   -0.2234  -11.8615   16.8874 C   0  0  0  0  0  0  0  0  0  0  0  0
    6.4491   -4.1532   30.1213 C   0  0  0  0  0  0  0  0  0  0  0  0
    5.7060   -4.4340   27.4975 C   0  0  0  0  0  0  0  0  0  0  0  0
    1.1818   -5.6612   28.8399 C   0  0  0  0  0  0  0  0  0  0  0  0
   -1.2067   -7.3287   17.7772 C   0  0  0  0  0  0  0  0  0  0  0  0
   -0.0206  -10.5585   16.6210 C   0  0  0  0  0  0  0  0  0  0  0  0
    0.3696  -12.7626   16.2169 O   0  0  0  0  0  0  0  0  0  0  0  0
   -0.6895   -9.5676   17.3297 C   0  0  0  0  0  0  0  0  0  0  0  0
    0.8388   -5.8417   27.5264 C   0  0  0  0  0  0  0  0  0  0  0  0
   -2.0709   -7.6637   18.7817 C   0  0  0  0  0  0  0  0  0  0  0  0
   -0.5279   -8.2168   17.0717 C   0  0  0  0  0  0  0  0  0  0  0  0
    6.9694   -4.0191   27.8190 C   0  0  0  0  0  0  0  0  0  0  0  0
    5.1733   -4.5469   29.8123 C   0  0  0  0  0  0  0  0  0  0  0  0
   -1.7508  -11.3016   18.6072 C   0  0  0  0  0  0  0  0  0  0  0  0
    1.7497   -5.6771   26.4971 C   0  0  0  0  0  0  0  0  0  0  0  0
   -1.5799   -9.9322   18.3468 C   0  0  0  0  0  0  0  0  0  0  0  0
   -1.0871  -12.2214   17.8851 C   0  0  0  0  0  0  0  0  0  0  0  0
   -2.2706   -8.9669   19.0691 C   0  0  0  0  0  0  0  0  0  0  0  0
    3.0279   -5.3073   26.8197 C   0  0  0  0  0  0  0  0  0  0  0  0
    7.3282   -3.8948   29.1186 C   0  0  0  0  0  0  0  0  0  0  0  0
  1  3  4  0
  1  7  4  0
  2  3  1  0
  2  6  4  0
  2 16  4  0
  3 22  4  0
  4  9  4  0
  4 10  1  0
  4 20  4  0
  5 16  4  0
  5 23  4  0
  6 15  4  0
  7 12  4  0
  8 13  4  0
  8 14  4  0
  9 11  4  0
 11 14  4  0
 11 19  4  0
 12 18  4  0
 13 21  4  0
 15 23  4  0
 17 19  4  0
 17 20  4  0
 18 22  4  0
 19 21  4  0
M  END
$$$$

 Created by Python create_sdf_string function

 23 25  0  0  0  0  0  0  0  0999 V2000
    2.4610   -5.3070   29.1240 C   0  0  0  0  0  0  0  0  0  0  0  0
    4.7710   -4.6952   28.4803 C   0  0  0  0  0  0  0  0  0  0  0  0
    3.4047   -5.1087   28.1314 C   0  0  0  0  0  0  0  0  0  0  0  0
   -0.2234  -11.8615   16.8874 C   0  0  0  0  0  0  0  0  0  0  0  0
    6.4491   -4.1532   30.1213 C   0  0  0  0  0  0  0  0  0  0  0  0
    5.7060   -4.4340   27.4975 C   0  0  0  0  0  0  0  0  0  0  0  0
    1.1818   -5.6612   28.8399 C   0  0  0  0  0  0  0  0  0  0  0  0
   -1.2067   -7.3287   17.7772 C   0  0  0  0  0  0  0  0  0  0  0  0
   -0.0206  -10.5585   16.6210 C   0  0  0  0  0  0  0  0  0  0  0  0
    0.3696  -12.7626   16.2169 O   0  0  0  0  0  0  0  0  0  0  0  0
   -0.6895   -9.5676   17.3297 C   0  0  0  0  0  0  0  0  0  0  0  0
    0.8388   -5.8417   27.5264 C   0  0  0  0  0  0  0  0  0  0  0  0
   -2.0709   -7.6637   18.7817 C   0  0  0  0  0  0  0  0  0  0  0  0
   -0.5279   -8.2168   17.0717 C   0  0  0  0  0  0  0  0  0  0  0  0
    6.9694   -4.0191   27.8190 C   0  0  0  0  0  0  0  0  0  0  0  0
    5.1733   -4.5469   29.8123 C   0  0  0  0  0  0  0  0  0  0  0  0
   -1.7508  -11.3016   18.6072 C   0  0  0  0  0  0  0  0  0  0  0  0
    1.7497   -5.6771   26.4971 C   0  0  0  0  0  0  0  0  0  0  0  0
   -1.5799   -9.9322   18.3468 C   0  0  0  0  0  0  0  0  0  0  0  0
   -1.0871  -12.2214   17.8851 C   0  0  0  0  0  0  0  0  0  0  0  0
   -2.2706   -8.9669   19.0691 C   0  0  0  0  0  0  0  0  0  0  0  0
    3.0279   -5.3073   26.8197 C   0  0  0  0  0  0  0  0  0  0  0  0
    7.3282   -3.8948   29.1186 C   0  0  0  0  0  0  0  0  0  0  0  0
  1  3  4  0
  1  7  4  0
  2  3  1  0
  2  6  4  0
  2 16  4  0
  3 22  4  0
  4  9  4  0
  4 10  1  0
  4 20  4  0
  5 16  4  0
  5 23  4  0
  6 15  4  0
  7 12  4  0
  8 13  4  0
  8 14  4  0
  9 11  4  0
 11 14  4  0
 11 19  4  0
 12 18  4  0
 13 21  4  0
 15 23  4  0
 17 19  4  0
 17 20  4  0
 18 22  4  0
 19 21  4  0
M  END
$$$$

 Created by Python create_sdf_string function

 23 25  0  0  0  0  0  0  0  0999 V2000
    2.4610   -5.3070   29.1240 C   0  0  0  0  0  0  0  0  0  0  0  0
    4.7710   -4.6952   28.4803 C   0  0  0  0  0  0  0  0  0  0  0  0
    3.4047   -5.1087   28.1314 C   0  0  0  0  0  0  0  0  0  0  0  0
   -0.2234  -11.8615   16.8874 C   0  0  0  0  0  0  0  0  0  0  0  0
    6.4491   -4.1532   30.1213 C   0  0  0  0  0  0  0  0  0  0  0  0
    5.7060   -4.4340   27.4975 C   0  0  0  0  0  0  0  0  0  0  0  0
    1.1818   -5.6612   28.8399 C   0  0  0  0  0  0  0  0  0  0  0  0
   -1.2067   -7.3287   17.7772 C   0  0  0  0  0  0  0  0  0  0  0  0
   -0.0206  -10.5585   16.6210 C   0  0  0  0  0  0  0  0  0  0  0  0
    0.3696  -12.7626   16.2169 O   0  0  0  0  0  0  0  0  0  0  0  0
   -0.6895   -9.5676   17.3297 C   0  0  0  0  0  0  0  0  0  0  0  0
    0.8388   -5.8417   27.5264 C   0  0  0  0  0  0  0  0  0  0  0  0
   -2.0709   -7.6637   18.7817 C   0  0  0  0  0  0  0  0  0  0  0  0
   -0.5279   -8.2168   17.0717 C   0  0  0  0  0  0  0  0  0  0  0  0
    6.9694   -4.0191   27.8190 C   0  0  0  0  0  0  0  0  0  0  0  0
    5.1733   -4.5469   29.8123 C   0  0  0  0  0  0  0  0  0  0  0  0
   -1.7508  -11.3016   18.6072 C   0  0  0  0  0  0  0  0  0  0  0  0
    1.7497   -5.6771   26.4971 C   0  0  0  0  0  0  0  0  0  0  0  0
   -1.5799   -9.9322   18.3468 C   0  0  0  0  0  0  0  0  0  0  0  0
   -1.0871  -12.2214   17.8851 C   0  0  0  0  0  0  0  0  0  0  0  0
   -2.2706   -8.9669   19.0691 C   0  0  0  0  0  0  0  0  0  0  0  0
    3.0279   -5.3073   26.8197 C   0  0  0  0  0  0  0  0  0  0  0  0
    7.3282   -3.8948   29.1186 C   0  0  0  0  0  0  0  0  0  0  0  0
  1  3  4  0
  1  7  4  0
  2  3  1  0
  2  6  4  0
  2 16  4  0
  3 22  4  0
  4  9  4  0
  4 10  1  0
  4 20  4  0
  5 16  4  0
  5 23  4  0
  6 15  4  0
  7 12  4  0
  8 13  4  0
  8 14  4  0
  9 11  4  0
 11 14  4  0
 11 19  4  0
 12 18  4  0
 13 21  4  0
 15 23  4  0
 17 19  4  0
 17 20  4  0
 18 22  4  0
 19 21  4  0
M  END
$$$$

 Created by Python create_sdf_string function

 23 25  0  0  0  0  0  0  0  0999 V2000
    2.4610   -5.3070   29.1240 C   0  0  0  0  0  0  0  0  0  0  0  0
    4.7710   -4.6952   28.4803 C   0  0  0  0  0  0  0  0  0  0  0  0
    3.4047   -5.1087   28.1314 C   0  0  0  0  0  0  0  0  0  0  0  0
   -0.2234  -11.8615   16.8874 C   0  0  0  0  0  0  0  0  0  0  0  0
    6.4491   -4.1532   30.1213 C   0  0  0  0  0  0  0  0  0  0  0  0
    5.7060   -4.4340   27.4975 C   0  0  0  0  0  0  0  0  0  0  0  0
    1.1818   -5.6612   28.8399 C   0  0  0  0  0  0  0  0  0  0  0  0
   -1.2067   -7.3287   17.7772 C   0  0  0  0  0  0  0  0  0  0  0  0
   -0.0206  -10.5585   16.6210 C   0  0  0  0  0  0  0  0  0  0  0  0
    0.3696  -12.7626   16.2169 O   0  0  0  0  0  0  0  0  0  0  0  0
   -0.6895   -9.5676   17.3297 C   0  0  0  0  0  0  0  0  0  0  0  0
    0.8388   -5.8417   27.5264 C   0  0  0  0  0  0  0  0  0  0  0  0
   -2.0709   -7.6637   18.7817 C   0  0  0  0  0  0  0  0  0  0  0  0
   -0.5279   -8.2168   17.0717 C   0  0  0  0  0  0  0  0  0  0  0  0
    6.9694   -4.0191   27.8190 C   0  0  0  0  0  0  0  0  0  0  0  0
    5.1733   -4.5469   29.8123 C   0  0  0  0  0  0  0  0  0  0  0  0
   -1.7508  -11.3016   18.6072 C   0  0  0  0  0  0  0  0  0  0  0  0
    1.7497   -5.6771   26.4971 C   0  0  0  0  0  0  0  0  0  0  0  0
   -1.5799   -9.9322   18.3468 C   0  0  0  0  0  0  0  0  0  0  0  0
   -1.0871  -12.2214   17.8851 C   0  0  0  0  0  0  0  0  0  0  0  0
   -2.2706   -8.9669   19.0691 C   0  0  0  0  0  0  0  0  0  0  0  0
    3.0279   -5.3073   26.8197 C   0  0  0  0  0  0  0  0  0  0  0  0
    7.3282   -3.8948   29.1186 C   0  0  0  0  0  0  0  0  0  0  0  0
  1  3  4  0
  1  7  4  0
  2  3  1  0
  2  6  4  0
  2 16  4  0
  3 22  4  0
  4  9  4  0
  4 10  1  0
  4 20  4  0
  5 16  4  0
  5 23  4  0
  6 15  4  0
  7 12  4  0
  8 13  4  0
  8 14  4  0
  9 11  4  0
 11 14  4  0
 11 19  4  0
 12 18  4  0
 13 21  4  0
 15 23  4  0
 17 19  4  0
 17 20  4  0
 18 22  4  0
 19 21  4  0
M  END
$$$$

 Created by Python create_sdf_string function

 23 25  0  0  0  0  0  0  0  0999 V2000
    2.4610   -5.3070   29.1240 C   0  0  0  0  0  0  0  0  0  0  0  0
    4.7710   -4.6952   28.4803 C   0  0  0  0  0  0  0  0  0  0  0  0
    3.4047   -5.1087   28.1314 C   0  0  0  0  0  0  0  0  0  0  0  0
   -0.2234  -11.8615   16.8874 C   0  0  0  0  0  0  0  0  0  0  0  0
    6.4491   -4.1532   30.1213 C   0  0  0  0  0  0  0  0  0  0  0  0
    5.7060   -4.4340   27.4975 C   0  0  0  0  0  0  0  0  0  0  0  0
    1.1818   -5.6612   28.8399 C   0  0  0  0  0  0  0  0  0  0  0  0
   -1.2067   -7.3287   17.7772 C   0  0  0  0  0  0  0  0  0  0  0  0
   -0.0206  -10.5585   16.6210 C   0  0  0  0  0  0  0  0  0  0  0  0
    0.3696  -12.7626   16.2169 O   0  0  0  0  0  0  0  0  0  0  0  0
   -0.6895   -9.5676   17.3297 C   0  0  0  0  0  0  0  0  0  0  0  0
    0.8388   -5.8417   27.5264 C   0  0  0  0  0  0  0  0  0  0  0  0
   -2.0709   -7.6637   18.7817 C   0  0  0  0  0  0  0  0  0  0  0  0
   -0.5279   -8.2168   17.0717 C   0  0  0  0  0  0  0  0  0  0  0  0
    6.9694   -4.0191   27.8190 C   0  0  0  0  0  0  0  0  0  0  0  0
    5.1733   -4.5469   29.8123 C   0  0  0  0  0  0  0  0  0  0  0  0
   -1.7508  -11.3016   18.6072 C   0  0  0  0  0  0  0  0  0  0  0  0
    1.7497   -5.6771   26.4971 C   0  0  0  0  0  0  0  0  0  0  0  0
   -1.5799   -9.9322   18.3468 C   0  0  0  0  0  0  0  0  0  0  0  0
   -1.0871  -12.2214   17.8851 C   0  0  0  0  0  0  0  0  0  0  0  0
   -2.2706   -8.9669   19.0691 C   0  0  0  0  0  0  0  0  0  0  0  0
    3.0279   -5.3073   26.8197 C   0  0  0  0  0  0  0  0  0  0  0  0
    7.3282   -3.8948   29.1186 C   0  0  0  0  0  0  0  0  0  0  0  0
  1  3  4  0
  1  7  4  0
  2  3  1  0
  2  6  4  0
  2 16  4  0
  3 22  4  0
  4  9  4  0
  4 10  1  0
  4 20  4  0
  5 16  4  0
  5 23  4  0
  6 15  4  0
  7 12  4  0
  8 13  4  0
  8 14  4  0
  9 11  4  0
 11 14  4  0
 11 19  4  0
 12 18  4  0
 13 21  4  0
 15 23  4  0
 17 19  4  0
 17 20  4  0
 18 22  4  0
 19 21  4  0
M  END
$$$$

 Created by Python create_sdf_string function

 23 25  0  0  0  0  0  0  0  0999 V2000
    2.4610   -5.3070   29.1240 C   0  0  0  0  0  0  0  0  0  0  0  0
    4.7710   -4.6952   28.4803 C   0  0  0  0  0  0  0  0  0  0  0  0
    3.4047   -5.1087   28.1314 C   0  0  0  0  0  0  0  0  0  0  0  0
   -0.2234  -11.8615   16.8874 C   0  0  0  0  0  0  0  0  0  0  0  0
    6.4491   -4.1532   30.1213 C   0  0  0  0  0  0  0  0  0  0  0  0
    5.7060   -4.4340   27.4975 C   0  0  0  0  0  0  0  0  0  0  0  0
    1.1818   -5.6612   28.8399 C   0  0  0  0  0  0  0  0  0  0  0  0
   -1.2067   -7.3287   17.7772 C   0  0  0  0  0  0  0  0  0  0  0  0
   -0.0206  -10.5585   16.6210 C   0  0  0  0  0  0  0  0  0  0  0  0
    0.3696  -12.7626   16.2169 O   0  0  0  0  0  0  0  0  0  0  0  0
   -0.6895   -9.5676   17.3297 C   0  0  0  0  0  0  0  0  0  0  0  0
    0.8388   -5.8417   27.5264 C   0  0  0  0  0  0  0  0  0  0  0  0
   -2.0709   -7.6637   18.7817 C   0  0  0  0  0  0  0  0  0  0  0  0
   -0.5279   -8.2168   17.0717 C   0  0  0  0  0  0  0  0  0  0  0  0
    6.9694   -4.0191   27.8190 C   0  0  0  0  0  0  0  0  0  0  0  0
    5.1733   -4.5469   29.8123 C   0  0  0  0  0  0  0  0  0  0  0  0
   -1.7508  -11.3016   18.6072 C   0  0  0  0  0  0  0  0  0  0  0  0
    1.7497   -5.6771   26.4971 C   0  0  0  0  0  0  0  0  0  0  0  0
   -1.5799   -9.9322   18.3468 C   0  0  0  0  0  0  0  0  0  0  0  0
   -1.0871  -12.2214   17.8851 C   0  0  0  0  0  0  0  0  0  0  0  0
   -2.2706   -8.9669   19.0691 C   0  0  0  0  0  0  0  0  0  0  0  0
    3.0279   -5.3073   26.8197 C   0  0  0  0  0  0  0  0  0  0  0  0
    7.3282   -3.8948   29.1186 C   0  0  0  0  0  0  0  0  0  0  0  0
  1  3  4  0
  1  7  4  0
  2  3  1  0
  2  6  4  0
  2 16  4  0
  3 22  4  0
  4  9  4  0
  4 10  1  0
  4 20  4  0
  5 16  4  0
  5 23  4  0
  6 15  4  0
  7 12  4  0
  8 13  4  0
  8 14  4  0
  9 11  4  0
 11 14  4  0
 11 19  4  0
 12 18  4  0
 13 21  4  0
 15 23  4  0
 17 19  4  0
 17 20  4  0
 18 22  4  0
 19 21  4  0
M  END
$$$$

 Created by Python create_sdf_string function

 23 25  0  0  0  0  0  0  0  0999 V2000
    2.4610   -5.3070   29.1240 C   0  0  0  0  0  0  0  0  0  0  0  0
    4.7710   -4.6952   28.4803 C   0  0  0  0  0  0  0  0  0  0  0  0
    3.4047   -5.1087   28.1314 C   0  0  0  0  0  0  0  0  0  0  0  0
   -0.2234  -11.8615   16.8874 C   0  0  0  0  0  0  0  0  0  0  0  0
    6.4491   -4.1532   30.1213 C   0  0  0  0  0  0  0  0  0  0  0  0
    5.7060   -4.4340   27.4975 C   0  0  0  0  0  0  0  0  0  0  0  0
    1.1818   -5.6612   28.8399 C   0  0  0  0  0  0  0  0  0  0  0  0
   -1.2067   -7.3287   17.7772 C   0  0  0  0  0  0  0  0  0  0  0  0
   -0.0206  -10.5585   16.6210 C   0  0  0  0  0  0  0  0  0  0  0  0
    0.3696  -12.7626   16.2169 O   0  0  0  0  0  0  0  0  0  0  0  0
   -0.6895   -9.5676   17.3297 C   0  0  0  0  0  0  0  0  0  0  0  0
    0.8388   -5.8417   27.5264 C   0  0  0  0  0  0  0  0  0  0  0  0
   -2.0709   -7.6637   18.7817 C   0  0  0  0  0  0  0  0  0  0  0  0
   -0.5279   -8.2168   17.0717 C   0  0  0  0  0  0  0  0  0  0  0  0
    6.9694   -4.0191   27.8190 C   0  0  0  0  0  0  0  0  0  0  0  0
    5.1733   -4.5469   29.8123 C   0  0  0  0  0  0  0  0  0  0  0  0
   -1.7508  -11.3016   18.6072 C   0  0  0  0  0  0  0  0  0  0  0  0
    1.7497   -5.6771   26.4971 C   0  0  0  0  0  0  0  0  0  0  0  0
   -1.5799   -9.9322   18.3468 C   0  0  0  0  0  0  0  0  0  0  0  0
   -1.0871  -12.2214   17.8851 C   0  0  0  0  0  0  0  0  0  0  0  0
   -2.2706   -8.9669   19.0691 C   0  0  0  0  0  0  0  0  0  0  0  0
    3.0279   -5.3073   26.8197 C   0  0  0  0  0  0  0  0  0  0  0  0
    7.3282   -3.8948   29.1186 C   0  0  0  0  0  0  0  0  0  0  0  0
  1  3  4  0
  1  7  4  0
  2  3  1  0
  2  6  4  0
  2 16  4  0
  3 22  4  0
  4  9  4  0
  4 10  1  0
  4 20  4  0
  5 16  4  0
  5 23  4  0
  6 15  4  0
  7 12  4  0
  8 13  4  0
  8 14  4  0
  9 11  4  0
 11 14  4  0
 11 19  4  0
 12 18  4  0
 13 21  4  0
 15 23  4  0
 17 19  4  0
 17 20  4  0
 18 22  4  0
 19 21  4  0
M  END
$$$$

 Created by Python create_sdf_string function

 23 25  0  0  0  0  0  0  0  0999 V2000
    2.4610   -5.3070   29.1240 C   0  0  0  0  0  0  0  0  0  0  0  0
    4.7710   -4.6952   28.4803 C   0  0  0  0  0  0  0  0  0  0  0  0
    3.4047   -5.1087   28.1314 C   0  0  0  0  0  0  0  0  0  0  0  0
   -0.2234  -11.8615   16.8874 C   0  0  0  0  0  0  0  0  0  0  0  0
    6.4491   -4.1532   30.1213 C   0  0  0  0  0  0  0  0  0  0  0  0
    5.7060   -4.4340   27.4975 C   0  0  0  0  0  0  0  0  0  0  0  0
    1.1818   -5.6612   28.8399 C   0  0  0  0  0  0  0  0  0  0  0  0
   -1.2067   -7.3287   17.7772 C   0  0  0  0  0  0  0  0  0  0  0  0
   -0.0206  -10.5585   16.6210 C   0  0  0  0  0  0  0  0  0  0  0  0
    0.3696  -12.7626   16.2169 O   0  0  0  0  0  0  0  0  0  0  0  0
   -0.6895   -9.5676   17.3297 C   0  0  0  0  0  0  0  0  0  0  0  0
    0.8388   -5.8417   27.5264 C   0  0  0  0  0  0  0  0  0  0  0  0
   -2.0709   -7.6637   18.7817 C   0  0  0  0  0  0  0  0  0  0  0  0
   -0.5279   -8.2168   17.0717 C   0  0  0  0  0  0  0  0  0  0  0  0
    6.9694   -4.0191   27.8190 C   0  0  0  0  0  0  0  0  0  0  0  0
    5.1733   -4.5469   29.8123 C   0  0  0  0  0  0  0  0  0  0  0  0
   -1.7508  -11.3016   18.6072 C   0  0  0  0  0  0  0  0  0  0  0  0
    1.7497   -5.6771   26.4971 C   0  0  0  0  0  0  0  0  0  0  0  0
   -1.5799   -9.9322   18.3468 C   0  0  0  0  0  0  0  0  0  0  0  0
   -1.0871  -12.2214   17.8851 C   0  0  0  0  0  0  0  0  0  0  0  0
   -2.2706   -8.9669   19.0691 C   0  0  0  0  0  0  0  0  0  0  0  0
    3.0279   -5.3073   26.8197 C   0  0  0  0  0  0  0  0  0  0  0  0
    7.3282   -3.8948   29.1186 C   0  0  0  0  0  0  0  0  0  0  0  0
  1  3  4  0
  1  7  4  0
  2  3  1  0
  2  6  4  0
  2 16  4  0
  3 22  4  0
  4  9  4  0
  4 10  1  0
  4 20  4  0
  5 16  4  0
  5 23  4  0
  6 15  4  0
  7 12  4  0
  8 13  4  0
  8 14  4  0
  9 11  4  0
 11 14  4  0
 11 19  4  0
 12 18  4  0
 13 21  4  0
 15 23  4  0
 17 19  4  0
 17 20  4  0
 18 22  4  0
 19 21  4  0
M  END
$$$$

 Created by Python create_sdf_string function

 23 25  0  0  0  0  0  0  0  0999 V2000
    2.4610   -5.3070   29.1240 C   0  0  0  0  0  0  0  0  0  0  0  0
    4.7710   -4.6952   28.4803 C   0  0  0  0  0  0  0  0  0  0  0  0
    3.4047   -5.1087   28.1314 C   0  0  0  0  0  0  0  0  0  0  0  0
   -0.2234  -11.8615   16.8874 C   0  0  0  0  0  0  0  0  0  0  0  0
    6.4491   -4.1532   30.1213 C   0  0  0  0  0  0  0  0  0  0  0  0
    5.7060   -4.4340   27.4975 C   0  0  0  0  0  0  0  0  0  0  0  0
    1.1818   -5.6612   28.8399 C   0  0  0  0  0  0  0  0  0  0  0  0
   -1.2067   -7.3287   17.7772 C   0  0  0  0  0  0  0  0  0  0  0  0
   -0.0206  -10.5585   16.6210 C   0  0  0  0  0  0  0  0  0  0  0  0
    0.3696  -12.7626   16.2169 O   0  0  0  0  0  0  0  0  0  0  0  0
   -0.6895   -9.5676   17.3297 C   0  0  0  0  0  0  0  0  0  0  0  0
    0.8388   -5.8417   27.5264 C   0  0  0  0  0  0  0  0  0  0  0  0
   -2.0709   -7.6637   18.7817 C   0  0  0  0  0  0  0  0  0  0  0  0
   -0.5279   -8.2168   17.0717 C   0  0  0  0  0  0  0  0  0  0  0  0
    6.9694   -4.0191   27.8190 C   0  0  0  0  0  0  0  0  0  0  0  0
    5.1733   -4.5469   29.8123 C   0  0  0  0  0  0  0  0  0  0  0  0
   -1.7508  -11.3016   18.6072 C   0  0  0  0  0  0  0  0  0  0  0  0
    1.7497   -5.6771   26.4971 C   0  0  0  0  0  0  0  0  0  0  0  0
   -1.5799   -9.9322   18.3468 C   0  0  0  0  0  0  0  0  0  0  0  0
   -1.0871  -12.2214   17.8851 C   0  0  0  0  0  0  0  0  0  0  0  0
   -2.2706   -8.9669   19.0691 C   0  0  0  0  0  0  0  0  0  0  0  0
    3.0279   -5.3073   26.8197 C   0  0  0  0  0  0  0  0  0  0  0  0
    7.3282   -3.8948   29.1186 C   0  0  0  0  0  0  0  0  0  0  0  0
  1  3  4  0
  1  7  4  0
  2  3  1  0
  2  6  4  0
  2 16  4  0
  3 22  4  0
  4  9  4  0
  4 10  1  0
  4 20  4  0
  5 16  4  0
  5 23  4  0
  6 15  4  0
  7 12  4  0
  8 13  4  0
  8 14  4  0
  9 11  4  0
 11 14  4  0
 11 19  4  0
 12 18  4  0
 13 21  4  0
 15 23  4  0
 17 19  4  0
 17 20  4  0
 18 22  4  0
 19 21  4  0
M  END
$$$$

 Created by Python create_sdf_string function

 23 25  0  0  0  0  0  0  0  0999 V2000
    2.4610   -5.3070   29.1240 C   0  0  0  0  0  0  0  0  0  0  0  0
    4.7710   -4.6952   28.4803 C   0  0  0  0  0  0  0  0  0  0  0  0
    3.4047   -5.1087   28.1314 C   0  0  0  0  0  0  0  0  0  0  0  0
   -0.2234  -11.8615   16.8874 C   0  0  0  0  0  0  0  0  0  0  0  0
    6.4491   -4.1532   30.1213 C   0  0  0  0  0  0  0  0  0  0  0  0
    5.7060   -4.4340   27.4975 C   0  0  0  0  0  0  0  0  0  0  0  0
    1.1818   -5.6612   28.8399 C   0  0  0  0  0  0  0  0  0  0  0  0
   -1.2067   -7.3287   17.7772 C   0  0  0  0  0  0  0  0  0  0  0  0
   -0.0206  -10.5585   16.6210 C   0  0  0  0  0  0  0  0  0  0  0  0
    0.3696  -12.7626   16.2169 O   0  0  0  0  0  0  0  0  0  0  0  0
   -0.6895   -9.5676   17.3297 C   0  0  0  0  0  0  0  0  0  0  0  0
    0.8388   -5.8417   27.5264 C   0  0  0  0  0  0  0  0  0  0  0  0
   -2.0709   -7.6637   18.7817 C   0  0  0  0  0  0  0  0  0  0  0  0
   -0.5279   -8.2168   17.0717 C   0  0  0  0  0  0  0  0  0  0  0  0
    6.9694   -4.0191   27.8190 C   0  0  0  0  0  0  0  0  0  0  0  0
    5.1733   -4.5469   29.8123 C   0  0  0  0  0  0  0  0  0  0  0  0
   -1.7508  -11.3016   18.6072 C   0  0  0  0  0  0  0  0  0  0  0  0
    1.7497   -5.6771   26.4971 C   0  0  0  0  0  0  0  0  0  0  0  0
   -1.5799   -9.9322   18.3468 C   0  0  0  0  0  0  0  0  0  0  0  0
   -1.0871  -12.2214   17.8851 C   0  0  0  0  0  0  0  0  0  0  0  0
   -2.2706   -8.9669   19.0691 C   0  0  0  0  0  0  0  0  0  0  0  0
    3.0279   -5.3073   26.8197 C   0  0  0  0  0  0  0  0  0  0  0  0
    7.3282   -3.8948   29.1186 C   0  0  0  0  0  0  0  0  0  0  0  0
  1  3  4  0
  1  7  4  0
  2  3  1  0
  2  6  4  0
  2 16  4  0
  3 22  4  0
  4  9  4  0
  4 10  1  0
  4 20  4  0
  5 16  4  0
  5 23  4  0
  6 15  4  0
  7 12  4  0
  8 13  4  0
  8 14  4  0
  9 11  4  0
 11 14  4  0
 11 19  4  0
 12 18  4  0
 13 21  4  0
 15 23  4  0
 17 19  4  0
 17 20  4  0
 18 22  4  0
 19 21  4  0
M  END
$$$$

 Created by Python create_sdf_string function

 23 25  0  0  0  0  0  0  0  0999 V2000
    2.4610   -5.3070   29.1240 C   0  0  0  0  0  0  0  0  0  0  0  0
    4.7710   -4.6952   28.4803 C   0  0  0  0  0  0  0  0  0  0  0  0
    3.4047   -5.1087   28.1314 C   0  0  0  0  0  0  0  0  0  0  0  0
   -0.2234  -11.8615   16.8874 C   0  0  0  0  0  0  0  0  0  0  0  0
    6.4491   -4.1532   30.1213 C   0  0  0  0  0  0  0  0  0  0  0  0
    5.7060   -4.4340   27.4975 C   0  0  0  0  0  0  0  0  0  0  0  0
    1.1818   -5.6612   28.8399 C   0  0  0  0  0  0  0  0  0  0  0  0
   -1.2067   -7.3287   17.7772 C   0  0  0  0  0  0  0  0  0  0  0  0
   -0.0206  -10.5585   16.6210 C   0  0  0  0  0  0  0  0  0  0  0  0
    0.3696  -12.7626   16.2169 O   0  0  0  0  0  0  0  0  0  0  0  0
   -0.6895   -9.5676   17.3297 C   0  0  0  0  0  0  0  0  0  0  0  0
    0.8388   -5.8417   27.5264 C   0  0  0  0  0  0  0  0  0  0  0  0
   -2.0709   -7.6637   18.7817 C   0  0  0  0  0  0  0  0  0  0  0  0
   -0.5279   -8.2168   17.0717 C   0  0  0  0  0  0  0  0  0  0  0  0
    6.9694   -4.0191   27.8190 C   0  0  0  0  0  0  0  0  0  0  0  0
    5.1733   -4.5469   29.8123 C   0  0  0  0  0  0  0  0  0  0  0  0
   -1.7508  -11.3016   18.6072 C   0  0  0  0  0  0  0  0  0  0  0  0
    1.7497   -5.6771   26.4971 C   0  0  0  0  0  0  0  0  0  0  0  0
   -1.5799   -9.9322   18.3468 C   0  0  0  0  0  0  0  0  0  0  0  0
   -1.0871  -12.2214   17.8851 C   0  0  0  0  0  0  0  0  0  0  0  0
   -2.2706   -8.9669   19.0691 C   0  0  0  0  0  0  0  0  0  0  0  0
    3.0279   -5.3073   26.8197 C   0  0  0  0  0  0  0  0  0  0  0  0
    7.3282   -3.8948   29.1186 C   0  0  0  0  0  0  0  0  0  0  0  0
  1  3  4  0
  1  7  4  0
  2  3  1  0
  2  6  4  0
  2 16  4  0
  3 22  4  0
  4  9  4  0
  4 10  1  0
  4 20  4  0
  5 16  4  0
  5 23  4  0
  6 15  4  0
  7 12  4  0
  8 13  4  0
  8 14  4  0
  9 11  4  0
 11 14  4  0
 11 19  4  0
 12 18  4  0
 13 21  4  0
 15 23  4  0
 17 19  4  0
 17 20  4  0
 18 22  4  0
 19 21  4  0
M  END
$$$$

 Created by Python create_sdf_string function

 23 25  0  0  0  0  0  0  0  0999 V2000
    2.4610   -5.3070   29.1240 C   0  0  0  0  0  0  0  0  0  0  0  0
    4.7710   -4.6952   28.4803 C   0  0  0  0  0  0  0  0  0  0  0  0
    3.4047   -5.1087   28.1314 C   0  0  0  0  0  0  0  0  0  0  0  0
   -0.2234  -11.8615   16.8874 C   0  0  0  0  0  0  0  0  0  0  0  0
    6.4491   -4.1532   30.1213 C   0  0  0  0  0  0  0  0  0  0  0  0
    5.7060   -4.4340   27.4975 C   0  0  0  0  0  0  0  0  0  0  0  0
    1.1818   -5.6612   28.8399 C   0  0  0  0  0  0  0  0  0  0  0  0
   -1.2067   -7.3287   17.7772 C   0  0  0  0  0  0  0  0  0  0  0  0
   -0.0206  -10.5585   16.6210 C   0  0  0  0  0  0  0  0  0  0  0  0
    0.3696  -12.7626   16.2169 O   0  0  0  0  0  0  0  0  0  0  0  0
   -0.6895   -9.5676   17.3297 C   0  0  0  0  0  0  0  0  0  0  0  0
    0.8388   -5.8417   27.5264 C   0  0  0  0  0  0  0  0  0  0  0  0
   -2.0709   -7.6637   18.7817 C   0  0  0  0  0  0  0  0  0  0  0  0
   -0.5279   -8.2168   17.0717 C   0  0  0  0  0  0  0  0  0  0  0  0
    6.9694   -4.0191   27.8190 C   0  0  0  0  0  0  0  0  0  0  0  0
    5.1733   -4.5469   29.8123 C   0  0  0  0  0  0  0  0  0  0  0  0
   -1.7508  -11.3016   18.6072 C   0  0  0  0  0  0  0  0  0  0  0  0
    1.7497   -5.6771   26.4971 C   0  0  0  0  0  0  0  0  0  0  0  0
   -1.5799   -9.9322   18.3468 C   0  0  0  0  0  0  0  0  0  0  0  0
   -1.0871  -12.2214   17.8851 C   0  0  0  0  0  0  0  0  0  0  0  0
   -2.2706   -8.9669   19.0691 C   0  0  0  0  0  0  0  0  0  0  0  0
    3.0279   -5.3073   26.8197 C   0  0  0  0  0  0  0  0  0  0  0  0
    7.3282   -3.8948   29.1186 C   0  0  0  0  0  0  0  0  0  0  0  0
  1  3  4  0
  1  7  4  0
  2  3  1  0
  2  6  4  0
  2 16  4  0
  3 22  4  0
  4  9  4  0
  4 10  1  0
  4 20  4  0
  5 16  4  0
  5 23  4  0
  6 15  4  0
  7 12  4  0
  8 13  4  0
  8 14  4  0
  9 11  4  0
 11 14  4  0
 11 19  4  0
 12 18  4  0
 13 21  4  0
 15 23  4  0
 17 19  4  0
 17 20  4  0
 18 22  4  0
 19 21  4  0
M  END
$$$$

 Created by Python create_sdf_string function

 23 25  0  0  0  0  0  0  0  0999 V2000
    2.4610   -5.3070   29.1240 C   0  0  0  0  0  0  0  0  0  0  0  0
    4.7710   -4.6952   28.4803 C   0  0  0  0  0  0  0  0  0  0  0  0
    3.4047   -5.1087   28.1314 C   0  0  0  0  0  0  0  0  0  0  0  0
   -0.2234  -11.8615   16.8874 C   0  0  0  0  0  0  0  0  0  0  0  0
    6.4491   -4.1532   30.1213 C   0  0  0  0  0  0  0  0  0  0  0  0
    5.7060   -4.4340   27.4975 C   0  0  0  0  0  0  0  0  0  0  0  0
    1.1818   -5.6612   28.8399 C   0  0  0  0  0  0  0  0  0  0  0  0
   -1.2067   -7.3287   17.7772 C   0  0  0  0  0  0  0  0  0  0  0  0
   -0.0206  -10.5585   16.6210 C   0  0  0  0  0  0  0  0  0  0  0  0
    0.3696  -12.7626   16.2169 O   0  0  0  0  0  0  0  0  0  0  0  0
   -0.6895   -9.5676   17.3297 C   0  0  0  0  0  0  0  0  0  0  0  0
    0.8388   -5.8417   27.5264 C   0  0  0  0  0  0  0  0  0  0  0  0
   -2.0709   -7.6637   18.7817 C   0  0  0  0  0  0  0  0  0  0  0  0
   -0.5279   -8.2168   17.0717 C   0  0  0  0  0  0  0  0  0  0  0  0
    6.9694   -4.0191   27.8190 C   0  0  0  0  0  0  0  0  0  0  0  0
    5.1733   -4.5469   29.8123 C   0  0  0  0  0  0  0  0  0  0  0  0
   -1.7508  -11.3016   18.6072 C   0  0  0  0  0  0  0  0  0  0  0  0
    1.7497   -5.6771   26.4971 C   0  0  0  0  0  0  0  0  0  0  0  0
   -1.5799   -9.9322   18.3468 C   0  0  0  0  0  0  0  0  0  0  0  0
   -1.0871  -12.2214   17.8851 C   0  0  0  0  0  0  0  0  0  0  0  0
   -2.2706   -8.9669   19.0691 C   0  0  0  0  0  0  0  0  0  0  0  0
    3.0279   -5.3073   26.8197 C   0  0  0  0  0  0  0  0  0  0  0  0
    7.3282   -3.8948   29.1186 C   0  0  0  0  0  0  0  0  0  0  0  0
  1  3  4  0
  1  7  4  0
  2  3  1  0
  2  6  4  0
  2 16  4  0
  3 22  4  0
  4  9  4  0
  4 10  1  0
  4 20  4  0
  5 16  4  0
  5 23  4  0
  6 15  4  0
  7 12  4  0
  8 13  4  0
  8 14  4  0
  9 11  4  0
 11 14  4  0
 11 19  4  0
 12 18  4  0
 13 21  4  0
 15 23  4  0
 17 19  4  0
 17 20  4  0
 18 22  4  0
 19 21  4  0
M  END
$$$$

 Created by Python create_sdf_string function

 23 25  0  0  0  0  0  0  0  0999 V2000
    2.4610   -5.3070   29.1240 C   0  0  0  0  0  0  0  0  0  0  0  0
    4.7710   -4.6952   28.4803 C   0  0  0  0  0  0  0  0  0  0  0  0
    3.4047   -5.1087   28.1314 C   0  0  0  0  0  0  0  0  0  0  0  0
   -0.2234  -11.8615   16.8874 C   0  0  0  0  0  0  0  0  0  0  0  0
    6.4491   -4.1532   30.1213 C   0  0  0  0  0  0  0  0  0  0  0  0
    5.7060   -4.4340   27.4975 C   0  0  0  0  0  0  0  0  0  0  0  0
    1.1818   -5.6612   28.8399 C   0  0  0  0  0  0  0  0  0  0  0  0
   -1.2067   -7.3287   17.7772 C   0  0  0  0  0  0  0  0  0  0  0  0
   -0.0206  -10.5585   16.6210 C   0  0  0  0  0  0  0  0  0  0  0  0
    0.3696  -12.7626   16.2169 O   0  0  0  0  0  0  0  0  0  0  0  0
   -0.6895   -9.5676   17.3297 C   0  0  0  0  0  0  0  0  0  0  0  0
    0.8388   -5.8417   27.5264 C   0  0  0  0  0  0  0  0  0  0  0  0
   -2.0709   -7.6637   18.7817 C   0  0  0  0  0  0  0  0  0  0  0  0
   -0.5279   -8.2168   17.0717 C   0  0  0  0  0  0  0  0  0  0  0  0
    6.9694   -4.0191   27.8190 C   0  0  0  0  0  0  0  0  0  0  0  0
    5.1733   -4.5469   29.8123 C   0  0  0  0  0  0  0  0  0  0  0  0
   -1.7508  -11.3016   18.6072 C   0  0  0  0  0  0  0  0  0  0  0  0
    1.7497   -5.6771   26.4971 C   0  0  0  0  0  0  0  0  0  0  0  0
   -1.5799   -9.9322   18.3468 C   0  0  0  0  0  0  0  0  0  0  0  0
   -1.0871  -12.2214   17.8851 C   0  0  0  0  0  0  0  0  0  0  0  0
   -2.2706   -8.9669   19.0691 C   0  0  0  0  0  0  0  0  0  0  0  0
    3.0279   -5.3073   26.8197 C   0  0  0  0  0  0  0  0  0  0  0  0
    7.3282   -3.8948   29.1186 C   0  0  0  0  0  0  0  0  0  0  0  0
  1  3  4  0
  1  7  4  0
  2  3  1  0
  2  6  4  0
  2 16  4  0
  3 22  4  0
  4  9  4  0
  4 10  1  0
  4 20  4  0
  5 16  4  0
  5 23  4  0
  6 15  4  0
  7 12  4  0
  8 13  4  0
  8 14  4  0
  9 11  4  0
 11 14  4  0
 11 19  4  0
 12 18  4  0
 13 21  4  0
 15 23  4  0
 17 19  4  0
 17 20  4  0
 18 22  4  0
 19 21  4  0
M  END
$$$$

 Created by Python create_sdf_string function

 23 25  0  0  0  0  0  0  0  0999 V2000
    2.4610   -5.3070   29.1240 C   0  0  0  0  0  0  0  0  0  0  0  0
    4.7710   -4.6952   28.4803 C   0  0  0  0  0  0  0  0  0  0  0  0
    3.4047   -5.1087   28.1314 C   0  0  0  0  0  0  0  0  0  0  0  0
   -0.2234  -11.8615   16.8874 C   0  0  0  0  0  0  0  0  0  0  0  0
    6.4491   -4.1532   30.1213 C   0  0  0  0  0  0  0  0  0  0  0  0
    5.7060   -4.4340   27.4975 C   0  0  0  0  0  0  0  0  0  0  0  0
    1.1818   -5.6612   28.8399 C   0  0  0  0  0  0  0  0  0  0  0  0
   -1.2067   -7.3287   17.7772 C   0  0  0  0  0  0  0  0  0  0  0  0
   -0.0206  -10.5585   16.6210 C   0  0  0  0  0  0  0  0  0  0  0  0
    0.3696  -12.7626   16.2169 O   0  0  0  0  0  0  0  0  0  0  0  0
   -0.6895   -9.5676   17.3297 C   0  0  0  0  0  0  0  0  0  0  0  0
    0.8388   -5.8417   27.5264 C   0  0  0  0  0  0  0  0  0  0  0  0
   -2.0709   -7.6637   18.7817 C   0  0  0  0  0  0  0  0  0  0  0  0
   -0.5279   -8.2168   17.0717 C   0  0  0  0  0  0  0  0  0  0  0  0
    6.9694   -4.0191   27.8190 C   0  0  0  0  0  0  0  0  0  0  0  0
    5.1733   -4.5469   29.8123 C   0  0  0  0  0  0  0  0  0  0  0  0
   -1.7508  -11.3016   18.6072 C   0  0  0  0  0  0  0  0  0  0  0  0
    1.7497   -5.6771   26.4971 C   0  0  0  0  0  0  0  0  0  0  0  0
   -1.5799   -9.9322   18.3468 C   0  0  0  0  0  0  0  0  0  0  0  0
   -1.0871  -12.2214   17.8851 C   0  0  0  0  0  0  0  0  0  0  0  0
   -2.2706   -8.9669   19.0691 C   0  0  0  0  0  0  0  0  0  0  0  0
    3.0279   -5.3073   26.8197 C   0  0  0  0  0  0  0  0  0  0  0  0
    7.3282   -3.8948   29.1186 C   0  0  0  0  0  0  0  0  0  0  0  0
  1  3  4  0
  1  7  4  0
  2  3  1  0
  2  6  4  0
  2 16  4  0
  3 22  4  0
  4  9  4  0
  4 10  1  0
  4 20  4  0
  5 16  4  0
  5 23  4  0
  6 15  4  0
  7 12  4  0
  8 13  4  0
  8 14  4  0
  9 11  4  0
 11 14  4  0
 11 19  4  0
 12 18  4  0
 13 21  4  0
 15 23  4  0
 17 19  4  0
 17 20  4  0
 18 22  4  0
 19 21  4  0
M  END
$$$$

 Created by Python create_sdf_string function

 23 25  0  0  0  0  0  0  0  0999 V2000
    2.4610   -5.3070   29.1240 C   0  0  0  0  0  0  0  0  0  0  0  0
    4.7710   -4.6952   28.4803 C   0  0  0  0  0  0  0  0  0  0  0  0
    3.4047   -5.1087   28.1314 C   0  0  0  0  0  0  0  0  0  0  0  0
   -0.2234  -11.8615   16.8874 C   0  0  0  0  0  0  0  0  0  0  0  0
    6.4491   -4.1532   30.1213 C   0  0  0  0  0  0  0  0  0  0  0  0
    5.7060   -4.4340   27.4975 C   0  0  0  0  0  0  0  0  0  0  0  0
    1.1818   -5.6612   28.8399 C   0  0  0  0  0  0  0  0  0  0  0  0
   -1.2067   -7.3287   17.7772 C   0  0  0  0  0  0  0  0  0  0  0  0
   -0.0206  -10.5585   16.6210 C   0  0  0  0  0  0  0  0  0  0  0  0
    0.3696  -12.7626   16.2169 O   0  0  0  0  0  0  0  0  0  0  0  0
   -0.6895   -9.5676   17.3297 C   0  0  0  0  0  0  0  0  0  0  0  0
    0.8388   -5.8417   27.5264 C   0  0  0  0  0  0  0  0  0  0  0  0
   -2.0709   -7.6637   18.7817 C   0  0  0  0  0  0  0  0  0  0  0  0
   -0.5279   -8.2168   17.0717 C   0  0  0  0  0  0  0  0  0  0  0  0
    6.9694   -4.0191   27.8190 C   0  0  0  0  0  0  0  0  0  0  0  0
    5.1733   -4.5469   29.8123 C   0  0  0  0  0  0  0  0  0  0  0  0
   -1.7508  -11.3016   18.6072 C   0  0  0  0  0  0  0  0  0  0  0  0
    1.7497   -5.6771   26.4971 C   0  0  0  0  0  0  0  0  0  0  0  0
   -1.5799   -9.9322   18.3468 C   0  0  0  0  0  0  0  0  0  0  0  0
   -1.0871  -12.2214   17.8851 C   0  0  0  0  0  0  0  0  0  0  0  0
   -2.2706   -8.9669   19.0691 C   0  0  0  0  0  0  0  0  0  0  0  0
    3.0279   -5.3073   26.8197 C   0  0  0  0  0  0  0  0  0  0  0  0
    7.3282   -3.8948   29.1186 C   0  0  0  0  0  0  0  0  0  0  0  0
  1  3  4  0
  1  7  4  0
  2  3  1  0
  2  6  4  0
  2 16  4  0
  3 22  4  0
  4  9  4  0
  4 10  1  0
  4 20  4  0
  5 16  4  0
  5 23  4  0
  6 15  4  0
  7 12  4  0
  8 13  4  0
  8 14  4  0
  9 11  4  0
 11 14  4  0
 11 19  4  0
 12 18  4  0
 13 21  4  0
 15 23  4  0
 17 19  4  0
 17 20  4  0
 18 22  4  0
 19 21  4  0
M  END
$$$$

 Created by Python create_sdf_string function

 23 25  0  0  0  0  0  0  0  0999 V2000
    2.4610   -5.3070   29.1240 C   0  0  0  0  0  0  0  0  0  0  0  0
    4.7710   -4.6952   28.4803 C   0  0  0  0  0  0  0  0  0  0  0  0
    3.4047   -5.1087   28.1314 C   0  0  0  0  0  0  0  0  0  0  0  0
   -0.2234  -11.8615   16.8874 C   0  0  0  0  0  0  0  0  0  0  0  0
    6.4491   -4.1532   30.1213 C   0  0  0  0  0  0  0  0  0  0  0  0
    5.7060   -4.4340   27.4975 C   0  0  0  0  0  0  0  0  0  0  0  0
    1.1818   -5.6612   28.8399 C   0  0  0  0  0  0  0  0  0  0  0  0
   -1.2067   -7.3287   17.7772 C   0  0  0  0  0  0  0  0  0  0  0  0
   -0.0206  -10.5585   16.6210 C   0  0  0  0  0  0  0  0  0  0  0  0
    0.3696  -12.7626   16.2169 O   0  0  0  0  0  0  0  0  0  0  0  0
   -0.6895   -9.5676   17.3297 C   0  0  0  0  0  0  0  0  0  0  0  0
    0.8388   -5.8417   27.5264 C   0  0  0  0  0  0  0  0  0  0  0  0
   -2.0709   -7.6637   18.7817 C   0  0  0  0  0  0  0  0  0  0  0  0
   -0.5279   -8.2168   17.0717 C   0  0  0  0  0  0  0  0  0  0  0  0
    6.9694   -4.0191   27.8190 C   0  0  0  0  0  0  0  0  0  0  0  0
    5.1733   -4.5469   29.8123 C   0  0  0  0  0  0  0  0  0  0  0  0
   -1.7508  -11.3016   18.6072 C   0  0  0  0  0  0  0  0  0  0  0  0
    1.7497   -5.6771   26.4971 C   0  0  0  0  0  0  0  0  0  0  0  0
   -1.5799   -9.9322   18.3468 C   0  0  0  0  0  0  0  0  0  0  0  0
   -1.0871  -12.2214   17.8851 C   0  0  0  0  0  0  0  0  0  0  0  0
   -2.2706   -8.9669   19.0691 C   0  0  0  0  0  0  0  0  0  0  0  0
    3.0279   -5.3073   26.8197 C   0  0  0  0  0  0  0  0  0  0  0  0
    7.3282   -3.8948   29.1186 C   0  0  0  0  0  0  0  0  0  0  0  0
  1  3  4  0
  1  7  4  0
  2  3  1  0
  2  6  4  0
  2 16  4  0
  3 22  4  0
  4  9  4  0
  4 10  1  0
  4 20  4  0
  5 16  4  0
  5 23  4  0
  6 15  4  0
  7 12  4  0
  8 13  4  0
  8 14  4  0
  9 11  4  0
 11 14  4  0
 11 19  4  0
 12 18  4  0
 13 21  4  0
 15 23  4  0
 17 19  4  0
 17 20  4  0
 18 22  4  0
 19 21  4  0
M  END
$$$$

 Created by Python create_sdf_string function

 23 25  0  0  0  0  0  0  0  0999 V2000
    2.4610   -5.3070   29.1240 C   0  0  0  0  0  0  0  0  0  0  0  0
    4.7710   -4.6952   28.4803 C   0  0  0  0  0  0  0  0  0  0  0  0
    3.4047   -5.1087   28.1314 C   0  0  0  0  0  0  0  0  0  0  0  0
   -0.2234  -11.8615   16.8874 C   0  0  0  0  0  0  0  0  0  0  0  0
    6.4491   -4.1532   30.1213 C   0  0  0  0  0  0  0  0  0  0  0  0
    5.7060   -4.4340   27.4975 C   0  0  0  0  0  0  0  0  0  0  0  0
    1.1818   -5.6612   28.8399 C   0  0  0  0  0  0  0  0  0  0  0  0
   -1.2067   -7.3287   17.7772 C   0  0  0  0  0  0  0  0  0  0  0  0
   -0.0206  -10.5585   16.6210 C   0  0  0  0  0  0  0  0  0  0  0  0
    0.3696  -12.7626   16.2169 O   0  0  0  0  0  0  0  0  0  0  0  0
   -0.6895   -9.5676   17.3297 C   0  0  0  0  0  0  0  0  0  0  0  0
    0.8388   -5.8417   27.5264 C   0  0  0  0  0  0  0  0  0  0  0  0
   -2.0709   -7.6637   18.7817 C   0  0  0  0  0  0  0  0  0  0  0  0
   -0.5279   -8.2168   17.0717 C   0  0  0  0  0  0  0  0  0  0  0  0
    6.9694   -4.0191   27.8190 C   0  0  0  0  0  0  0  0  0  0  0  0
    5.1733   -4.5469   29.8123 C   0  0  0  0  0  0  0  0  0  0  0  0
   -1.7508  -11.3016   18.6072 C   0  0  0  0  0  0  0  0  0  0  0  0
    1.7497   -5.6771   26.4971 C   0  0  0  0  0  0  0  0  0  0  0  0
   -1.5799   -9.9322   18.3468 C   0  0  0  0  0  0  0  0  0  0  0  0
   -1.0871  -12.2214   17.8851 C   0  0  0  0  0  0  0  0  0  0  0  0
   -2.2706   -8.9669   19.0691 C   0  0  0  0  0  0  0  0  0  0  0  0
    3.0279   -5.3073   26.8197 C   0  0  0  0  0  0  0  0  0  0  0  0
    7.3282   -3.8948   29.1186 C   0  0  0  0  0  0  0  0  0  0  0  0
  1  3  4  0
  1  7  4  0
  2  3  1  0
  2  6  4  0
  2 16  4  0
  3 22  4  0
  4  9  4  0
  4 10  1  0
  4 20  4  0
  5 16  4  0
  5 23  4  0
  6 15  4  0
  7 12  4  0
  8 13  4  0
  8 14  4  0
  9 11  4  0
 11 14  4  0
 11 19  4  0
 12 18  4  0
 13 21  4  0
 15 23  4  0
 17 19  4  0
 17 20  4  0
 18 22  4  0
 19 21  4  0
M  END
$$$$

 Created by Python create_sdf_string function

 23 25  0  0  0  0  0  0  0  0999 V2000
    2.4610   -5.3070   29.1240 C   0  0  0  0  0  0  0  0  0  0  0  0
    4.7710   -4.6952   28.4803 C   0  0  0  0  0  0  0  0  0  0  0  0
    3.4047   -5.1087   28.1314 C   0  0  0  0  0  0  0  0  0  0  0  0
   -0.2234  -11.8615   16.8874 C   0  0  0  0  0  0  0  0  0  0  0  0
    6.4491   -4.1532   30.1213 C   0  0  0  0  0  0  0  0  0  0  0  0
    5.7060   -4.4340   27.4975 C   0  0  0  0  0  0  0  0  0  0  0  0
    1.1818   -5.6612   28.8399 C   0  0  0  0  0  0  0  0  0  0  0  0
   -1.2067   -7.3287   17.7772 C   0  0  0  0  0  0  0  0  0  0  0  0
   -0.0206  -10.5585   16.6210 C   0  0  0  0  0  0  0  0  0  0  0  0
    0.3696  -12.7626   16.2169 O   0  0  0  0  0  0  0  0  0  0  0  0
   -0.6895   -9.5676   17.3297 C   0  0  0  0  0  0  0  0  0  0  0  0
    0.8388   -5.8417   27.5264 C   0  0  0  0  0  0  0  0  0  0  0  0
   -2.0709   -7.6637   18.7817 C   0  0  0  0  0  0  0  0  0  0  0  0
   -0.5279   -8.2168   17.0717 C   0  0  0  0  0  0  0  0  0  0  0  0
    6.9694   -4.0191   27.8190 C   0  0  0  0  0  0  0  0  0  0  0  0
    5.1733   -4.5469   29.8123 C   0  0  0  0  0  0  0  0  0  0  0  0
   -1.7508  -11.3016   18.6072 C   0  0  0  0  0  0  0  0  0  0  0  0
    1.7497   -5.6771   26.4971 C   0  0  0  0  0  0  0  0  0  0  0  0
   -1.5799   -9.9322   18.3468 C   0  0  0  0  0  0  0  0  0  0  0  0
   -1.0871  -12.2214   17.8851 C   0  0  0  0  0  0  0  0  0  0  0  0
   -2.2706   -8.9669   19.0691 C   0  0  0  0  0  0  0  0  0  0  0  0
    3.0279   -5.3073   26.8197 C   0  0  0  0  0  0  0  0  0  0  0  0
    7.3282   -3.8948   29.1186 C   0  0  0  0  0  0  0  0  0  0  0  0
  1  3  4  0
  1  7  4  0
  2  3  1  0
  2  6  4  0
  2 16  4  0
  3 22  4  0
  4  9  4  0
  4 10  1  0
  4 20  4  0
  5 16  4  0
  5 23  4  0
  6 15  4  0
  7 12  4  0
  8 13  4  0
  8 14  4  0
  9 11  4  0
 11 14  4  0
 11 19  4  0
 12 18  4  0
 13 21  4  0
 15 23  4  0
 17 19  4  0
 17 20  4  0
 18 22  4  0
 19 21  4  0
M  END
$$$$

 Created by Python create_sdf_string function

 23 25  0  0  0  0  0  0  0  0999 V2000
    2.4610   -5.3070   29.1240 C   0  0  0  0  0  0  0  0  0  0  0  0
    4.7710   -4.6952   28.4803 C   0  0  0  0  0  0  0  0  0  0  0  0
    3.4047   -5.1087   28.1314 C   0  0  0  0  0  0  0  0  0  0  0  0
   -0.2234  -11.8615   16.8874 C   0  0  0  0  0  0  0  0  0  0  0  0
    6.4491   -4.1532   30.1213 C   0  0  0  0  0  0  0  0  0  0  0  0
    5.7060   -4.4340   27.4975 C   0  0  0  0  0  0  0  0  0  0  0  0
    1.1818   -5.6612   28.8399 C   0  0  0  0  0  0  0  0  0  0  0  0
   -1.2067   -7.3287   17.7772 C   0  0  0  0  0  0  0  0  0  0  0  0
   -0.0206  -10.5585   16.6210 C   0  0  0  0  0  0  0  0  0  0  0  0
    0.3696  -12.7626   16.2169 O   0  0  0  0  0  0  0  0  0  0  0  0
   -0.6895   -9.5676   17.3297 C   0  0  0  0  0  0  0  0  0  0  0  0
    0.8388   -5.8417   27.5264 C   0  0  0  0  0  0  0  0  0  0  0  0
   -2.0709   -7.6637   18.7817 C   0  0  0  0  0  0  0  0  0  0  0  0
   -0.5279   -8.2168   17.0717 C   0  0  0  0  0  0  0  0  0  0  0  0
    6.9694   -4.0191   27.8190 C   0  0  0  0  0  0  0  0  0  0  0  0
    5.1733   -4.5469   29.8123 C   0  0  0  0  0  0  0  0  0  0  0  0
   -1.7508  -11.3016   18.6072 C   0  0  0  0  0  0  0  0  0  0  0  0
    1.7497   -5.6771   26.4971 C   0  0  0  0  0  0  0  0  0  0  0  0
   -1.5799   -9.9322   18.3468 C   0  0  0  0  0  0  0  0  0  0  0  0
   -1.0871  -12.2214   17.8851 C   0  0  0  0  0  0  0  0  0  0  0  0
   -2.2706   -8.9669   19.0691 C   0  0  0  0  0  0  0  0  0  0  0  0
    3.0279   -5.3073   26.8197 C   0  0  0  0  0  0  0  0  0  0  0  0
    7.3282   -3.8948   29.1186 C   0  0  0  0  0  0  0  0  0  0  0  0
  1  3  4  0
  1  7  4  0
  2  3  1  0
  2  6  4  0
  2 16  4  0
  3 22  4  0
  4  9  4  0
  4 10  1  0
  4 20  4  0
  5 16  4  0
  5 23  4  0
  6 15  4  0
  7 12  4  0
  8 13  4  0
  8 14  4  0
  9 11  4  0
 11 14  4  0
 11 19  4  0
 12 18  4  0
 13 21  4  0
 15 23  4  0
 17 19  4  0
 17 20  4  0
 18 22  4  0
 19 21  4  0
M  END
$$$$

 Created by Python create_sdf_string function

 23 25  0  0  0  0  0  0  0  0999 V2000
    2.4610   -5.3070   29.1240 C   0  0  0  0  0  0  0  0  0  0  0  0
    4.7710   -4.6952   28.4803 C   0  0  0  0  0  0  0  0  0  0  0  0
    3.4047   -5.1087   28.1314 C   0  0  0  0  0  0  0  0  0  0  0  0
   -0.2234  -11.8615   16.8874 C   0  0  0  0  0  0  0  0  0  0  0  0
    6.4491   -4.1532   30.1213 C   0  0  0  0  0  0  0  0  0  0  0  0
    5.7060   -4.4340   27.4975 C   0  0  0  0  0  0  0  0  0  0  0  0
    1.1818   -5.6612   28.8399 C   0  0  0  0  0  0  0  0  0  0  0  0
   -1.2067   -7.3287   17.7772 C   0  0  0  0  0  0  0  0  0  0  0  0
   -0.0206  -10.5585   16.6210 C   0  0  0  0  0  0  0  0  0  0  0  0
    0.3696  -12.7626   16.2169 O   0  0  0  0  0  0  0  0  0  0  0  0
   -0.6895   -9.5676   17.3297 C   0  0  0  0  0  0  0  0  0  0  0  0
    0.8388   -5.8417   27.5264 C   0  0  0  0  0  0  0  0  0  0  0  0
   -2.0709   -7.6637   18.7817 C   0  0  0  0  0  0  0  0  0  0  0  0
   -0.5279   -8.2168   17.0717 C   0  0  0  0  0  0  0  0  0  0  0  0
    6.9694   -4.0191   27.8190 C   0  0  0  0  0  0  0  0  0  0  0  0
    5.1733   -4.5469   29.8123 C   0  0  0  0  0  0  0  0  0  0  0  0
   -1.7508  -11.3016   18.6072 C   0  0  0  0  0  0  0  0  0  0  0  0
    1.7497   -5.6771   26.4971 C   0  0  0  0  0  0  0  0  0  0  0  0
   -1.5799   -9.9322   18.3468 C   0  0  0  0  0  0  0  0  0  0  0  0
   -1.0871  -12.2214   17.8851 C   0  0  0  0  0  0  0  0  0  0  0  0
   -2.2706   -8.9669   19.0691 C   0  0  0  0  0  0  0  0  0  0  0  0
    3.0279   -5.3073   26.8197 C   0  0  0  0  0  0  0  0  0  0  0  0
    7.3282   -3.8948   29.1186 C   0  0  0  0  0  0  0  0  0  0  0  0
  1  3  4  0
  1  7  4  0
  2  3  1  0
  2  6  4  0
  2 16  4  0
  3 22  4  0
  4  9  4  0
  4 10  1  0
  4 20  4  0
  5 16  4  0
  5 23  4  0
  6 15  4  0
  7 12  4  0
  8 13  4  0
  8 14  4  0
  9 11  4  0
 11 14  4  0
 11 19  4  0
 12 18  4  0
 13 21  4  0
 15 23  4  0
 17 19  4  0
 17 20  4  0
 18 22  4  0
 19 21  4  0
M  END
$$$$

 Created by Python create_sdf_string function

 23 25  0  0  0  0  0  0  0  0999 V2000
    2.4610   -5.3070   29.1240 C   0  0  0  0  0  0  0  0  0  0  0  0
    4.7710   -4.6952   28.4803 C   0  0  0  0  0  0  0  0  0  0  0  0
    3.4047   -5.1087   28.1314 C   0  0  0  0  0  0  0  0  0  0  0  0
   -0.2234  -11.8615   16.8874 C   0  0  0  0  0  0  0  0  0  0  0  0
    6.4491   -4.1532   30.1213 C   0  0  0  0  0  0  0  0  0  0  0  0
    5.7060   -4.4340   27.4975 C   0  0  0  0  0  0  0  0  0  0  0  0
    1.1818   -5.6612   28.8399 C   0  0  0  0  0  0  0  0  0  0  0  0
   -1.2067   -7.3287   17.7772 C   0  0  0  0  0  0  0  0  0  0  0  0
   -0.0206  -10.5585   16.6210 C   0  0  0  0  0  0  0  0  0  0  0  0
    0.3696  -12.7626   16.2169 O   0  0  0  0  0  0  0  0  0  0  0  0
   -0.6895   -9.5676   17.3297 C   0  0  0  0  0  0  0  0  0  0  0  0
    0.8388   -5.8417   27.5264 C   0  0  0  0  0  0  0  0  0  0  0  0
   -2.0709   -7.6637   18.7817 C   0  0  0  0  0  0  0  0  0  0  0  0
   -0.5279   -8.2168   17.0717 C   0  0  0  0  0  0  0  0  0  0  0  0
    6.9694   -4.0191   27.8190 C   0  0  0  0  0  0  0  0  0  0  0  0
    5.1733   -4.5469   29.8123 C   0  0  0  0  0  0  0  0  0  0  0  0
   -1.7508  -11.3016   18.6072 C   0  0  0  0  0  0  0  0  0  0  0  0
    1.7497   -5.6771   26.4971 C   0  0  0  0  0  0  0  0  0  0  0  0
   -1.5799   -9.9322   18.3468 C   0  0  0  0  0  0  0  0  0  0  0  0
   -1.0871  -12.2214   17.8851 C   0  0  0  0  0  0  0  0  0  0  0  0
   -2.2706   -8.9669   19.0691 C   0  0  0  0  0  0  0  0  0  0  0  0
    3.0279   -5.3073   26.8197 C   0  0  0  0  0  0  0  0  0  0  0  0
    7.3282   -3.8948   29.1186 C   0  0  0  0  0  0  0  0  0  0  0  0
  1  3  4  0
  1  7  4  0
  2  3  1  0
  2  6  4  0
  2 16  4  0
  3 22  4  0
  4  9  4  0
  4 10  1  0
  4 20  4  0
  5 16  4  0
  5 23  4  0
  6 15  4  0
  7 12  4  0
  8 13  4  0
  8 14  4  0
  9 11  4  0
 11 14  4  0
 11 19  4  0
 12 18  4  0
 13 21  4  0
 15 23  4  0
 17 19  4  0
 17 20  4  0
 18 22  4  0
 19 21  4  0
M  END
$$$$

 Created by Python create_sdf_string function

 23 25  0  0  0  0  0  0  0  0999 V2000
    2.4610   -5.3070   29.1240 C   0  0  0  0  0  0  0  0  0  0  0  0
    4.7710   -4.6952   28.4803 C   0  0  0  0  0  0  0  0  0  0  0  0
    3.4047   -5.1087   28.1314 C   0  0  0  0  0  0  0  0  0  0  0  0
   -0.2234  -11.8615   16.8874 C   0  0  0  0  0  0  0  0  0  0  0  0
    6.4491   -4.1532   30.1213 C   0  0  0  0  0  0  0  0  0  0  0  0
    5.7060   -4.4340   27.4975 C   0  0  0  0  0  0  0  0  0  0  0  0
    1.1818   -5.6612   28.8399 C   0  0  0  0  0  0  0  0  0  0  0  0
   -1.2067   -7.3287   17.7772 C   0  0  0  0  0  0  0  0  0  0  0  0
   -0.0206  -10.5585   16.6210 C   0  0  0  0  0  0  0  0  0  0  0  0
    0.3696  -12.7626   16.2169 O   0  0  0  0  0  0  0  0  0  0  0  0
   -0.6895   -9.5676   17.3297 C   0  0  0  0  0  0  0  0  0  0  0  0
    0.8388   -5.8417   27.5264 C   0  0  0  0  0  0  0  0  0  0  0  0
   -2.0709   -7.6637   18.7817 C   0  0  0  0  0  0  0  0  0  0  0  0
   -0.5279   -8.2168   17.0717 C   0  0  0  0  0  0  0  0  0  0  0  0
    6.9694   -4.0191   27.8190 C   0  0  0  0  0  0  0  0  0  0  0  0
    5.1733   -4.5469   29.8123 C   0  0  0  0  0  0  0  0  0  0  0  0
   -1.7508  -11.3016   18.6072 C   0  0  0  0  0  0  0  0  0  0  0  0
    1.7497   -5.6771   26.4971 C   0  0  0  0  0  0  0  0  0  0  0  0
   -1.5799   -9.9322   18.3468 C   0  0  0  0  0  0  0  0  0  0  0  0
   -1.0871  -12.2214   17.8851 C   0  0  0  0  0  0  0  0  0  0  0  0
   -2.2706   -8.9669   19.0691 C   0  0  0  0  0  0  0  0  0  0  0  0
    3.0279   -5.3073   26.8197 C   0  0  0  0  0  0  0  0  0  0  0  0
    7.3282   -3.8948   29.1186 C   0  0  0  0  0  0  0  0  0  0  0  0
  1  3  4  0
  1  7  4  0
  2  3  1  0
  2  6  4  0
  2 16  4  0
  3 22  4  0
  4  9  4  0
  4 10  1  0
  4 20  4  0
  5 16  4  0
  5 23  4  0
  6 15  4  0
  7 12  4  0
  8 13  4  0
  8 14  4  0
  9 11  4  0
 11 14  4  0
 11 19  4  0
 12 18  4  0
 13 21  4  0
 15 23  4  0
 17 19  4  0
 17 20  4  0
 18 22  4  0
 19 21  4  0
M  END
$$$$

 Created by Python create_sdf_string function

 23 25  0  0  0  0  0  0  0  0999 V2000
    2.4610   -5.3070   29.1240 C   0  0  0  0  0  0  0  0  0  0  0  0
    4.7710   -4.6952   28.4803 C   0  0  0  0  0  0  0  0  0  0  0  0
    3.4047   -5.1087   28.1314 C   0  0  0  0  0  0  0  0  0  0  0  0
   -0.2234  -11.8615   16.8874 C   0  0  0  0  0  0  0  0  0  0  0  0
    6.4491   -4.1532   30.1213 C   0  0  0  0  0  0  0  0  0  0  0  0
    5.7060   -4.4340   27.4975 C   0  0  0  0  0  0  0  0  0  0  0  0
    1.1818   -5.6612   28.8399 C   0  0  0  0  0  0  0  0  0  0  0  0
   -1.2067   -7.3287   17.7772 C   0  0  0  0  0  0  0  0  0  0  0  0
   -0.0206  -10.5585   16.6210 C   0  0  0  0  0  0  0  0  0  0  0  0
    0.3696  -12.7626   16.2169 O   0  0  0  0  0  0  0  0  0  0  0  0
   -0.6895   -9.5676   17.3297 C   0  0  0  0  0  0  0  0  0  0  0  0
    0.8388   -5.8417   27.5264 C   0  0  0  0  0  0  0  0  0  0  0  0
   -2.0709   -7.6637   18.7817 C   0  0  0  0  0  0  0  0  0  0  0  0
   -0.5279   -8.2168   17.0717 C   0  0  0  0  0  0  0  0  0  0  0  0
    6.9694   -4.0191   27.8190 C   0  0  0  0  0  0  0  0  0  0  0  0
    5.1733   -4.5469   29.8123 C   0  0  0  0  0  0  0  0  0  0  0  0
   -1.7508  -11.3016   18.6072 C   0  0  0  0  0  0  0  0  0  0  0  0
    1.7497   -5.6771   26.4971 C   0  0  0  0  0  0  0  0  0  0  0  0
   -1.5799   -9.9322   18.3468 C   0  0  0  0  0  0  0  0  0  0  0  0
   -1.0871  -12.2214   17.8851 C   0  0  0  0  0  0  0  0  0  0  0  0
   -2.2706   -8.9669   19.0691 C   0  0  0  0  0  0  0  0  0  0  0  0
    3.0279   -5.3073   26.8197 C   0  0  0  0  0  0  0  0  0  0  0  0
    7.3282   -3.8948   29.1186 C   0  0  0  0  0  0  0  0  0  0  0  0
  1  3  4  0
  1  7  4  0
  2  3  1  0
  2  6  4  0
  2 16  4  0
  3 22  4  0
  4  9  4  0
  4 10  1  0
  4 20  4  0
  5 16  4  0
  5 23  4  0
  6 15  4  0
  7 12  4  0
  8 13  4  0
  8 14  4  0
  9 11  4  0
 11 14  4  0
 11 19  4  0
 12 18  4  0
 13 21  4  0
 15 23  4  0
 17 19  4  0
 17 20  4  0
 18 22  4  0
 19 21  4  0
M  END
$$$$

 Created by Python create_sdf_string function

 23 25  0  0  0  0  0  0  0  0999 V2000
    2.4610   -5.3070   29.1240 C   0  0  0  0  0  0  0  0  0  0  0  0
    4.7710   -4.6952   28.4803 C   0  0  0  0  0  0  0  0  0  0  0  0
    3.4047   -5.1087   28.1314 C   0  0  0  0  0  0  0  0  0  0  0  0
   -0.2234  -11.8615   16.8874 C   0  0  0  0  0  0  0  0  0  0  0  0
    6.4491   -4.1532   30.1213 C   0  0  0  0  0  0  0  0  0  0  0  0
    5.7060   -4.4340   27.4975 C   0  0  0  0  0  0  0  0  0  0  0  0
    1.1818   -5.6612   28.8399 C   0  0  0  0  0  0  0  0  0  0  0  0
   -1.2067   -7.3287   17.7772 C   0  0  0  0  0  0  0  0  0  0  0  0
   -0.0206  -10.5585   16.6210 C   0  0  0  0  0  0  0  0  0  0  0  0
    0.3696  -12.7626   16.2169 O   0  0  0  0  0  0  0  0  0  0  0  0
   -0.6895   -9.5676   17.3297 C   0  0  0  0  0  0  0  0  0  0  0  0
    0.8388   -5.8417   27.5264 C   0  0  0  0  0  0  0  0  0  0  0  0
   -2.0709   -7.6637   18.7817 C   0  0  0  0  0  0  0  0  0  0  0  0
   -0.5279   -8.2168   17.0717 C   0  0  0  0  0  0  0  0  0  0  0  0
    6.9694   -4.0191   27.8190 C   0  0  0  0  0  0  0  0  0  0  0  0
    5.1733   -4.5469   29.8123 C   0  0  0  0  0  0  0  0  0  0  0  0
   -1.7508  -11.3016   18.6072 C   0  0  0  0  0  0  0  0  0  0  0  0
    1.7497   -5.6771   26.4971 C   0  0  0  0  0  0  0  0  0  0  0  0
   -1.5799   -9.9322   18.3468 C   0  0  0  0  0  0  0  0  0  0  0  0
   -1.0871  -12.2214   17.8851 C   0  0  0  0  0  0  0  0  0  0  0  0
   -2.2706   -8.9669   19.0691 C   0  0  0  0  0  0  0  0  0  0  0  0
    3.0279   -5.3073   26.8197 C   0  0  0  0  0  0  0  0  0  0  0  0
    7.3282   -3.8948   29.1186 C   0  0  0  0  0  0  0  0  0  0  0  0
  1  3  4  0
  1  7  4  0
  2  3  1  0
  2  6  4  0
  2 16  4  0
  3 22  4  0
  4  9  4  0
  4 10  1  0
  4 20  4  0
  5 16  4  0
  5 23  4  0
  6 15  4  0
  7 12  4  0
  8 13  4  0
  8 14  4  0
  9 11  4  0
 11 14  4  0
 11 19  4  0
 12 18  4  0
 13 21  4  0
 15 23  4  0
 17 19  4  0
 17 20  4  0
 18 22  4  0
 19 21  4  0
M  END
$$$$

 Created by Python create_sdf_string function

 23 25  0  0  0  0  0  0  0  0999 V2000
    2.4610   -5.3070   29.1240 C   0  0  0  0  0  0  0  0  0  0  0  0
    4.7710   -4.6952   28.4803 C   0  0  0  0  0  0  0  0  0  0  0  0
    3.4047   -5.1087   28.1314 C   0  0  0  0  0  0  0  0  0  0  0  0
   -0.2234  -11.8615   16.8874 C   0  0  0  0  0  0  0  0  0  0  0  0
    6.4491   -4.1532   30.1213 C   0  0  0  0  0  0  0  0  0  0  0  0
    5.7060   -4.4340   27.4975 C   0  0  0  0  0  0  0  0  0  0  0  0
    1.1818   -5.6612   28.8399 C   0  0  0  0  0  0  0  0  0  0  0  0
   -1.2067   -7.3287   17.7772 C   0  0  0  0  0  0  0  0  0  0  0  0
   -0.0206  -10.5585   16.6210 C   0  0  0  0  0  0  0  0  0  0  0  0
    0.3696  -12.7626   16.2169 O   0  0  0  0  0  0  0  0  0  0  0  0
   -0.6895   -9.5676   17.3297 C   0  0  0  0  0  0  0  0  0  0  0  0
    0.8388   -5.8417   27.5264 C   0  0  0  0  0  0  0  0  0  0  0  0
   -2.0709   -7.6637   18.7817 C   0  0  0  0  0  0  0  0  0  0  0  0
   -0.5279   -8.2168   17.0717 C   0  0  0  0  0  0  0  0  0  0  0  0
    6.9694   -4.0191   27.8190 C   0  0  0  0  0  0  0  0  0  0  0  0
    5.1733   -4.5469   29.8123 C   0  0  0  0  0  0  0  0  0  0  0  0
   -1.7508  -11.3016   18.6072 C   0  0  0  0  0  0  0  0  0  0  0  0
    1.7497   -5.6771   26.4971 C   0  0  0  0  0  0  0  0  0  0  0  0
   -1.5799   -9.9322   18.3468 C   0  0  0  0  0  0  0  0  0  0  0  0
   -1.0871  -12.2214   17.8851 C   0  0  0  0  0  0  0  0  0  0  0  0
   -2.2706   -8.9669   19.0691 C   0  0  0  0  0  0  0  0  0  0  0  0
    3.0279   -5.3073   26.8197 C   0  0  0  0  0  0  0  0  0  0  0  0
    7.3282   -3.8948   29.1186 C   0  0  0  0  0  0  0  0  0  0  0  0
  1  3  4  0
  1  7  4  0
  2  3  1  0
  2  6  4  0
  2 16  4  0
  3 22  4  0
  4  9  4  0
  4 10  1  0
  4 20  4  0
  5 16  4  0
  5 23  4  0
  6 15  4  0
  7 12  4  0
  8 13  4  0
  8 14  4  0
  9 11  4  0
 11 14  4  0
 11 19  4  0
 12 18  4  0
 13 21  4  0
 15 23  4  0
 17 19  4  0
 17 20  4  0
 18 22  4  0
 19 21  4  0
M  END
$$$$

 Created by Python create_sdf_string function

 23 25  0  0  0  0  0  0  0  0999 V2000
    2.4610   -5.3070   29.1240 C   0  0  0  0  0  0  0  0  0  0  0  0
    4.7710   -4.6952   28.4803 C   0  0  0  0  0  0  0  0  0  0  0  0
    3.4047   -5.1087   28.1314 C   0  0  0  0  0  0  0  0  0  0  0  0
   -0.2234  -11.8615   16.8874 C   0  0  0  0  0  0  0  0  0  0  0  0
    6.4491   -4.1532   30.1213 C   0  0  0  0  0  0  0  0  0  0  0  0
    5.7060   -4.4340   27.4975 C   0  0  0  0  0  0  0  0  0  0  0  0
    1.1818   -5.6612   28.8399 C   0  0  0  0  0  0  0  0  0  0  0  0
   -1.2067   -7.3287   17.7772 C   0  0  0  0  0  0  0  0  0  0  0  0
   -0.0206  -10.5585   16.6210 C   0  0  0  0  0  0  0  0  0  0  0  0
    0.3696  -12.7626   16.2169 O   0  0  0  0  0  0  0  0  0  0  0  0
   -0.6895   -9.5676   17.3297 C   0  0  0  0  0  0  0  0  0  0  0  0
    0.8388   -5.8417   27.5264 C   0  0  0  0  0  0  0  0  0  0  0  0
   -2.0709   -7.6637   18.7817 C   0  0  0  0  0  0  0  0  0  0  0  0
   -0.5279   -8.2168   17.0717 C   0  0  0  0  0  0  0  0  0  0  0  0
    6.9694   -4.0191   27.8190 C   0  0  0  0  0  0  0  0  0  0  0  0
    5.1733   -4.5469   29.8123 C   0  0  0  0  0  0  0  0  0  0  0  0
   -1.7508  -11.3016   18.6072 C   0  0  0  0  0  0  0  0  0  0  0  0
    1.7497   -5.6771   26.4971 C   0  0  0  0  0  0  0  0  0  0  0  0
   -1.5799   -9.9322   18.3468 C   0  0  0  0  0  0  0  0  0  0  0  0
   -1.0871  -12.2214   17.8851 C   0  0  0  0  0  0  0  0  0  0  0  0
   -2.2706   -8.9669   19.0691 C   0  0  0  0  0  0  0  0  0  0  0  0
    3.0279   -5.3073   26.8197 C   0  0  0  0  0  0  0  0  0  0  0  0
    7.3282   -3.8948   29.1186 C   0  0  0  0  0  0  0  0  0  0  0  0
  1  3  4  0
  1  7  4  0
  2  3  1  0
  2  6  4  0
  2 16  4  0
  3 22  4  0
  4  9  4  0
  4 10  1  0
  4 20  4  0
  5 16  4  0
  5 23  4  0
  6 15  4  0
  7 12  4  0
  8 13  4  0
  8 14  4  0
  9 11  4  0
 11 14  4  0
 11 19  4  0
 12 18  4  0
 13 21  4  0
 15 23  4  0
 17 19  4  0
 17 20  4  0
 18 22  4  0
 19 21  4  0
M  END
$$$$

 Created by Python create_sdf_string function

 23 25  0  0  0  0  0  0  0  0999 V2000
    2.4610   -5.3070   29.1240 C   0  0  0  0  0  0  0  0  0  0  0  0
    4.7710   -4.6952   28.4803 C   0  0  0  0  0  0  0  0  0  0  0  0
    3.4047   -5.1087   28.1314 C   0  0  0  0  0  0  0  0  0  0  0  0
   -0.2234  -11.8615   16.8874 C   0  0  0  0  0  0  0  0  0  0  0  0
    6.4491   -4.1532   30.1213 C   0  0  0  0  0  0  0  0  0  0  0  0
    5.7060   -4.4340   27.4975 C   0  0  0  0  0  0  0  0  0  0  0  0
    1.1818   -5.6612   28.8399 C   0  0  0  0  0  0  0  0  0  0  0  0
   -1.2067   -7.3287   17.7772 C   0  0  0  0  0  0  0  0  0  0  0  0
   -0.0206  -10.5585   16.6210 C   0  0  0  0  0  0  0  0  0  0  0  0
    0.3696  -12.7626   16.2169 O   0  0  0  0  0  0  0  0  0  0  0  0
   -0.6895   -9.5676   17.3297 C   0  0  0  0  0  0  0  0  0  0  0  0
    0.8388   -5.8417   27.5264 C   0  0  0  0  0  0  0  0  0  0  0  0
   -2.0709   -7.6637   18.7817 C   0  0  0  0  0  0  0  0  0  0  0  0
   -0.5279   -8.2168   17.0717 C   0  0  0  0  0  0  0  0  0  0  0  0
    6.9694   -4.0191   27.8190 C   0  0  0  0  0  0  0  0  0  0  0  0
    5.1733   -4.5469   29.8123 C   0  0  0  0  0  0  0  0  0  0  0  0
   -1.7508  -11.3016   18.6072 C   0  0  0  0  0  0  0  0  0  0  0  0
    1.7497   -5.6771   26.4971 C   0  0  0  0  0  0  0  0  0  0  0  0
   -1.5799   -9.9322   18.3468 C   0  0  0  0  0  0  0  0  0  0  0  0
   -1.0871  -12.2214   17.8851 C   0  0  0  0  0  0  0  0  0  0  0  0
   -2.2706   -8.9669   19.0691 C   0  0  0  0  0  0  0  0  0  0  0  0
    3.0279   -5.3073   26.8197 C   0  0  0  0  0  0  0  0  0  0  0  0
    7.3282   -3.8948   29.1186 C   0  0  0  0  0  0  0  0  0  0  0  0
  1  3  4  0
  1  7  4  0
  2  3  1  0
  2  6  4  0
  2 16  4  0
  3 22  4  0
  4  9  4  0
  4 10  1  0
  4 20  4  0
  5 16  4  0
  5 23  4  0
  6 15  4  0
  7 12  4  0
  8 13  4  0
  8 14  4  0
  9 11  4  0
 11 14  4  0
 11 19  4  0
 12 18  4  0
 13 21  4  0
 15 23  4  0
 17 19  4  0
 17 20  4  0
 18 22  4  0
 19 21  4  0
M  END
$$$$

 Created by Python create_sdf_string function

 23 25  0  0  0  0  0  0  0  0999 V2000
    2.4610   -5.3070   29.1240 C   0  0  0  0  0  0  0  0  0  0  0  0
    4.7710   -4.6952   28.4803 C   0  0  0  0  0  0  0  0  0  0  0  0
    3.4047   -5.1087   28.1314 C   0  0  0  0  0  0  0  0  0  0  0  0
   -0.2234  -11.8615   16.8874 C   0  0  0  0  0  0  0  0  0  0  0  0
    6.4491   -4.1532   30.1213 C   0  0  0  0  0  0  0  0  0  0  0  0
    5.7060   -4.4340   27.4975 C   0  0  0  0  0  0  0  0  0  0  0  0
    1.1818   -5.6612   28.8399 C   0  0  0  0  0  0  0  0  0  0  0  0
   -1.2067   -7.3287   17.7772 C   0  0  0  0  0  0  0  0  0  0  0  0
   -0.0206  -10.5585   16.6210 C   0  0  0  0  0  0  0  0  0  0  0  0
    0.3696  -12.7626   16.2169 O   0  0  0  0  0  0  0  0  0  0  0  0
   -0.6895   -9.5676   17.3297 C   0  0  0  0  0  0  0  0  0  0  0  0
    0.8388   -5.8417   27.5264 C   0  0  0  0  0  0  0  0  0  0  0  0
   -2.0709   -7.6637   18.7817 C   0  0  0  0  0  0  0  0  0  0  0  0
   -0.5279   -8.2168   17.0717 C   0  0  0  0  0  0  0  0  0  0  0  0
    6.9694   -4.0191   27.8190 C   0  0  0  0  0  0  0  0  0  0  0  0
    5.1733   -4.5469   29.8123 C   0  0  0  0  0  0  0  0  0  0  0  0
   -1.7508  -11.3016   18.6072 C   0  0  0  0  0  0  0  0  0  0  0  0
    1.7497   -5.6771   26.4971 C   0  0  0  0  0  0  0  0  0  0  0  0
   -1.5799   -9.9322   18.3468 C   0  0  0  0  0  0  0  0  0  0  0  0
   -1.0871  -12.2214   17.8851 C   0  0  0  0  0  0  0  0  0  0  0  0
   -2.2706   -8.9669   19.0691 C   0  0  0  0  0  0  0  0  0  0  0  0
    3.0279   -5.3073   26.8197 C   0  0  0  0  0  0  0  0  0  0  0  0
    7.3282   -3.8948   29.1186 C   0  0  0  0  0  0  0  0  0  0  0  0
  1  3  4  0
  1  7  4  0
  2  3  1  0
  2  6  4  0
  2 16  4  0
  3 22  4  0
  4  9  4  0
  4 10  1  0
  4 20  4  0
  5 16  4  0
  5 23  4  0
  6 15  4  0
  7 12  4  0
  8 13  4  0
  8 14  4  0
  9 11  4  0
 11 14  4  0
 11 19  4  0
 12 18  4  0
 13 21  4  0
 15 23  4  0
 17 19  4  0
 17 20  4  0
 18 22  4  0
 19 21  4  0
M  END
$$$$

 Created by Python create_sdf_string function

 23 25  0  0  0  0  0  0  0  0999 V2000
    2.4610   -5.3070   29.1240 C   0  0  0  0  0  0  0  0  0  0  0  0
    4.7710   -4.6952   28.4803 C   0  0  0  0  0  0  0  0  0  0  0  0
    3.4047   -5.1087   28.1314 C   0  0  0  0  0  0  0  0  0  0  0  0
   -0.2234  -11.8615   16.8874 C   0  0  0  0  0  0  0  0  0  0  0  0
    6.4491   -4.1532   30.1213 C   0  0  0  0  0  0  0  0  0  0  0  0
    5.7060   -4.4340   27.4975 C   0  0  0  0  0  0  0  0  0  0  0  0
    1.1818   -5.6612   28.8399 C   0  0  0  0  0  0  0  0  0  0  0  0
   -1.2067   -7.3287   17.7772 C   0  0  0  0  0  0  0  0  0  0  0  0
   -0.0206  -10.5585   16.6210 C   0  0  0  0  0  0  0  0  0  0  0  0
    0.3696  -12.7626   16.2169 O   0  0  0  0  0  0  0  0  0  0  0  0
   -0.6895   -9.5676   17.3297 C   0  0  0  0  0  0  0  0  0  0  0  0
    0.8388   -5.8417   27.5264 C   0  0  0  0  0  0  0  0  0  0  0  0
   -2.0709   -7.6637   18.7817 C   0  0  0  0  0  0  0  0  0  0  0  0
   -0.5279   -8.2168   17.0717 C   0  0  0  0  0  0  0  0  0  0  0  0
    6.9694   -4.0191   27.8190 C   0  0  0  0  0  0  0  0  0  0  0  0
    5.1733   -4.5469   29.8123 C   0  0  0  0  0  0  0  0  0  0  0  0
   -1.7508  -11.3016   18.6072 C   0  0  0  0  0  0  0  0  0  0  0  0
    1.7497   -5.6771   26.4971 C   0  0  0  0  0  0  0  0  0  0  0  0
   -1.5799   -9.9322   18.3468 C   0  0  0  0  0  0  0  0  0  0  0  0
   -1.0871  -12.2214   17.8851 C   0  0  0  0  0  0  0  0  0  0  0  0
   -2.2706   -8.9669   19.0691 C   0  0  0  0  0  0  0  0  0  0  0  0
    3.0279   -5.3073   26.8197 C   0  0  0  0  0  0  0  0  0  0  0  0
    7.3282   -3.8948   29.1186 C   0  0  0  0  0  0  0  0  0  0  0  0
  1  3  4  0
  1  7  4  0
  2  3  1  0
  2  6  4  0
  2 16  4  0
  3 22  4  0
  4  9  4  0
  4 10  1  0
  4 20  4  0
  5 16  4  0
  5 23  4  0
  6 15  4  0
  7 12  4  0
  8 13  4  0
  8 14  4  0
  9 11  4  0
 11 14  4  0
 11 19  4  0
 12 18  4  0
 13 21  4  0
 15 23  4  0
 17 19  4  0
 17 20  4  0
 18 22  4  0
 19 21  4  0
M  END
$$$$

 Created by Python create_sdf_string function

 23 25  0  0  0  0  0  0  0  0999 V2000
    2.4610   -5.3070   29.1240 C   0  0  0  0  0  0  0  0  0  0  0  0
    4.7710   -4.6952   28.4803 C   0  0  0  0  0  0  0  0  0  0  0  0
    3.4047   -5.1087   28.1314 C   0  0  0  0  0  0  0  0  0  0  0  0
   -0.2234  -11.8615   16.8874 C   0  0  0  0  0  0  0  0  0  0  0  0
    6.4491   -4.1532   30.1213 C   0  0  0  0  0  0  0  0  0  0  0  0
    5.7060   -4.4340   27.4975 C   0  0  0  0  0  0  0  0  0  0  0  0
    1.1818   -5.6612   28.8399 C   0  0  0  0  0  0  0  0  0  0  0  0
   -1.2067   -7.3287   17.7772 C   0  0  0  0  0  0  0  0  0  0  0  0
   -0.0206  -10.5585   16.6210 C   0  0  0  0  0  0  0  0  0  0  0  0
    0.3696  -12.7626   16.2169 O   0  0  0  0  0  0  0  0  0  0  0  0
   -0.6895   -9.5676   17.3297 C   0  0  0  0  0  0  0  0  0  0  0  0
    0.8388   -5.8417   27.5264 C   0  0  0  0  0  0  0  0  0  0  0  0
   -2.0709   -7.6637   18.7817 C   0  0  0  0  0  0  0  0  0  0  0  0
   -0.5279   -8.2168   17.0717 C   0  0  0  0  0  0  0  0  0  0  0  0
    6.9694   -4.0191   27.8190 C   0  0  0  0  0  0  0  0  0  0  0  0
    5.1733   -4.5469   29.8123 C   0  0  0  0  0  0  0  0  0  0  0  0
   -1.7508  -11.3016   18.6072 C   0  0  0  0  0  0  0  0  0  0  0  0
    1.7497   -5.6771   26.4971 C   0  0  0  0  0  0  0  0  0  0  0  0
   -1.5799   -9.9322   18.3468 C   0  0  0  0  0  0  0  0  0  0  0  0
   -1.0871  -12.2214   17.8851 C   0  0  0  0  0  0  0  0  0  0  0  0
   -2.2706   -8.9669   19.0691 C   0  0  0  0  0  0  0  0  0  0  0  0
    3.0279   -5.3073   26.8197 C   0  0  0  0  0  0  0  0  0  0  0  0
    7.3282   -3.8948   29.1186 C   0  0  0  0  0  0  0  0  0  0  0  0
  1  3  4  0
  1  7  4  0
  2  3  1  0
  2  6  4  0
  2 16  4  0
  3 22  4  0
  4  9  4  0
  4 10  1  0
  4 20  4  0
  5 16  4  0
  5 23  4  0
  6 15  4  0
  7 12  4  0
  8 13  4  0
  8 14  4  0
  9 11  4  0
 11 14  4  0
 11 19  4  0
 12 18  4  0
 13 21  4  0
 15 23  4  0
 17 19  4  0
 17 20  4  0
 18 22  4  0
 19 21  4  0
M  END
$$$$

 Created by Python create_sdf_string function

 23 25  0  0  0  0  0  0  0  0999 V2000
    2.4610   -5.3070   29.1240 C   0  0  0  0  0  0  0  0  0  0  0  0
    4.7710   -4.6952   28.4803 C   0  0  0  0  0  0  0  0  0  0  0  0
    3.4047   -5.1087   28.1314 C   0  0  0  0  0  0  0  0  0  0  0  0
   -0.2234  -11.8615   16.8874 C   0  0  0  0  0  0  0  0  0  0  0  0
    6.4491   -4.1532   30.1213 C   0  0  0  0  0  0  0  0  0  0  0  0
    5.7060   -4.4340   27.4975 C   0  0  0  0  0  0  0  0  0  0  0  0
    1.1818   -5.6612   28.8399 C   0  0  0  0  0  0  0  0  0  0  0  0
   -1.2067   -7.3287   17.7772 C   0  0  0  0  0  0  0  0  0  0  0  0
   -0.0206  -10.5585   16.6210 C   0  0  0  0  0  0  0  0  0  0  0  0
    0.3696  -12.7626   16.2169 O   0  0  0  0  0  0  0  0  0  0  0  0
   -0.6895   -9.5676   17.3297 C   0  0  0  0  0  0  0  0  0  0  0  0
    0.8388   -5.8417   27.5264 C   0  0  0  0  0  0  0  0  0  0  0  0
   -2.0709   -7.6637   18.7817 C   0  0  0  0  0  0  0  0  0  0  0  0
   -0.5279   -8.2168   17.0717 C   0  0  0  0  0  0  0  0  0  0  0  0
    6.9694   -4.0191   27.8190 C   0  0  0  0  0  0  0  0  0  0  0  0
    5.1733   -4.5469   29.8123 C   0  0  0  0  0  0  0  0  0  0  0  0
   -1.7508  -11.3016   18.6072 C   0  0  0  0  0  0  0  0  0  0  0  0
    1.7497   -5.6771   26.4971 C   0  0  0  0  0  0  0  0  0  0  0  0
   -1.5799   -9.9322   18.3468 C   0  0  0  0  0  0  0  0  0  0  0  0
   -1.0871  -12.2214   17.8851 C   0  0  0  0  0  0  0  0  0  0  0  0
   -2.2706   -8.9669   19.0691 C   0  0  0  0  0  0  0  0  0  0  0  0
    3.0279   -5.3073   26.8197 C   0  0  0  0  0  0  0  0  0  0  0  0
    7.3282   -3.8948   29.1186 C   0  0  0  0  0  0  0  0  0  0  0  0
  1  3  4  0
  1  7  4  0
  2  3  1  0
  2  6  4  0
  2 16  4  0
  3 22  4  0
  4  9  4  0
  4 10  1  0
  4 20  4  0
  5 16  4  0
  5 23  4  0
  6 15  4  0
  7 12  4  0
  8 13  4  0
  8 14  4  0
  9 11  4  0
 11 14  4  0
 11 19  4  0
 12 18  4  0
 13 21  4  0
 15 23  4  0
 17 19  4  0
 17 20  4  0
 18 22  4  0
 19 21  4  0
M  END
$$$$

 Created by Python create_sdf_string function

 23 25  0  0  0  0  0  0  0  0999 V2000
    2.4610   -5.3070   29.1240 C   0  0  0  0  0  0  0  0  0  0  0  0
    4.7710   -4.6952   28.4803 C   0  0  0  0  0  0  0  0  0  0  0  0
    3.4047   -5.1087   28.1314 C   0  0  0  0  0  0  0  0  0  0  0  0
   -0.2234  -11.8615   16.8874 C   0  0  0  0  0  0  0  0  0  0  0  0
    6.4491   -4.1532   30.1213 C   0  0  0  0  0  0  0  0  0  0  0  0
    5.7060   -4.4340   27.4975 C   0  0  0  0  0  0  0  0  0  0  0  0
    1.1818   -5.6612   28.8399 C   0  0  0  0  0  0  0  0  0  0  0  0
   -1.2067   -7.3287   17.7772 C   0  0  0  0  0  0  0  0  0  0  0  0
   -0.0206  -10.5585   16.6210 C   0  0  0  0  0  0  0  0  0  0  0  0
    0.3696  -12.7626   16.2169 O   0  0  0  0  0  0  0  0  0  0  0  0
   -0.6895   -9.5676   17.3297 C   0  0  0  0  0  0  0  0  0  0  0  0
    0.8388   -5.8417   27.5264 C   0  0  0  0  0  0  0  0  0  0  0  0
   -2.0709   -7.6637   18.7817 C   0  0  0  0  0  0  0  0  0  0  0  0
   -0.5279   -8.2168   17.0717 C   0  0  0  0  0  0  0  0  0  0  0  0
    6.9694   -4.0191   27.8190 C   0  0  0  0  0  0  0  0  0  0  0  0
    5.1733   -4.5469   29.8123 C   0  0  0  0  0  0  0  0  0  0  0  0
   -1.7508  -11.3016   18.6072 C   0  0  0  0  0  0  0  0  0  0  0  0
    1.7497   -5.6771   26.4971 C   0  0  0  0  0  0  0  0  0  0  0  0
   -1.5799   -9.9322   18.3468 C   0  0  0  0  0  0  0  0  0  0  0  0
   -1.0871  -12.2214   17.8851 C   0  0  0  0  0  0  0  0  0  0  0  0
   -2.2706   -8.9669   19.0691 C   0  0  0  0  0  0  0  0  0  0  0  0
    3.0279   -5.3073   26.8197 C   0  0  0  0  0  0  0  0  0  0  0  0
    7.3282   -3.8948   29.1186 C   0  0  0  0  0  0  0  0  0  0  0  0
  1  3  4  0
  1  7  4  0
  2  3  1  0
  2  6  4  0
  2 16  4  0
  3 22  4  0
  4  9  4  0
  4 10  1  0
  4 20  4  0
  5 16  4  0
  5 23  4  0
  6 15  4  0
  7 12  4  0
  8 13  4  0
  8 14  4  0
  9 11  4  0
 11 14  4  0
 11 19  4  0
 12 18  4  0
 13 21  4  0
 15 23  4  0
 17 19  4  0
 17 20  4  0
 18 22  4  0
 19 21  4  0
M  END
$$$$

 Created by Python create_sdf_string function

 23 25  0  0  0  0  0  0  0  0999 V2000
    2.4610   -5.3070   29.1240 C   0  0  0  0  0  0  0  0  0  0  0  0
    4.7710   -4.6952   28.4803 C   0  0  0  0  0  0  0  0  0  0  0  0
    3.4047   -5.1087   28.1314 C   0  0  0  0  0  0  0  0  0  0  0  0
   -0.2234  -11.8615   16.8874 C   0  0  0  0  0  0  0  0  0  0  0  0
    6.4491   -4.1532   30.1213 C   0  0  0  0  0  0  0  0  0  0  0  0
    5.7060   -4.4340   27.4975 C   0  0  0  0  0  0  0  0  0  0  0  0
    1.1818   -5.6612   28.8399 C   0  0  0  0  0  0  0  0  0  0  0  0
   -1.2067   -7.3287   17.7772 C   0  0  0  0  0  0  0  0  0  0  0  0
   -0.0206  -10.5585   16.6210 C   0  0  0  0  0  0  0  0  0  0  0  0
    0.3696  -12.7626   16.2169 O   0  0  0  0  0  0  0  0  0  0  0  0
   -0.6895   -9.5676   17.3297 C   0  0  0  0  0  0  0  0  0  0  0  0
    0.8388   -5.8417   27.5264 C   0  0  0  0  0  0  0  0  0  0  0  0
   -2.0709   -7.6637   18.7817 C   0  0  0  0  0  0  0  0  0  0  0  0
   -0.5279   -8.2168   17.0717 C   0  0  0  0  0  0  0  0  0  0  0  0
    6.9694   -4.0191   27.8190 C   0  0  0  0  0  0  0  0  0  0  0  0
    5.1733   -4.5469   29.8123 C   0  0  0  0  0  0  0  0  0  0  0  0
   -1.7508  -11.3016   18.6072 C   0  0  0  0  0  0  0  0  0  0  0  0
    1.7497   -5.6771   26.4971 C   0  0  0  0  0  0  0  0  0  0  0  0
   -1.5799   -9.9322   18.3468 C   0  0  0  0  0  0  0  0  0  0  0  0
   -1.0871  -12.2214   17.8851 C   0  0  0  0  0  0  0  0  0  0  0  0
   -2.2706   -8.9669   19.0691 C   0  0  0  0  0  0  0  0  0  0  0  0
    3.0279   -5.3073   26.8197 C   0  0  0  0  0  0  0  0  0  0  0  0
    7.3282   -3.8948   29.1186 C   0  0  0  0  0  0  0  0  0  0  0  0
  1  3  4  0
  1  7  4  0
  2  3  1  0
  2  6  4  0
  2 16  4  0
  3 22  4  0
  4  9  4  0
  4 10  1  0
  4 20  4  0
  5 16  4  0
  5 23  4  0
  6 15  4  0
  7 12  4  0
  8 13  4  0
  8 14  4  0
  9 11  4  0
 11 14  4  0
 11 19  4  0
 12 18  4  0
 13 21  4  0
 15 23  4  0
 17 19  4  0
 17 20  4  0
 18 22  4  0
 19 21  4  0
M  END
$$$$

 Created by Python create_sdf_string function

 23 25  0  0  0  0  0  0  0  0999 V2000
    2.4610   -5.3070   29.1240 C   0  0  0  0  0  0  0  0  0  0  0  0
    4.7710   -4.6952   28.4803 C   0  0  0  0  0  0  0  0  0  0  0  0
    3.4047   -5.1087   28.1314 C   0  0  0  0  0  0  0  0  0  0  0  0
   -0.2234  -11.8615   16.8874 C   0  0  0  0  0  0  0  0  0  0  0  0
    6.4491   -4.1532   30.1213 C   0  0  0  0  0  0  0  0  0  0  0  0
    5.7060   -4.4340   27.4975 C   0  0  0  0  0  0  0  0  0  0  0  0
    1.1818   -5.6612   28.8399 C   0  0  0  0  0  0  0  0  0  0  0  0
   -1.2067   -7.3287   17.7772 C   0  0  0  0  0  0  0  0  0  0  0  0
   -0.0206  -10.5585   16.6210 C   0  0  0  0  0  0  0  0  0  0  0  0
    0.3696  -12.7626   16.2169 O   0  0  0  0  0  0  0  0  0  0  0  0
   -0.6895   -9.5676   17.3297 C   0  0  0  0  0  0  0  0  0  0  0  0
    0.8388   -5.8417   27.5264 C   0  0  0  0  0  0  0  0  0  0  0  0
   -2.0709   -7.6637   18.7817 C   0  0  0  0  0  0  0  0  0  0  0  0
   -0.5279   -8.2168   17.0717 C   0  0  0  0  0  0  0  0  0  0  0  0
    6.9694   -4.0191   27.8190 C   0  0  0  0  0  0  0  0  0  0  0  0
    5.1733   -4.5469   29.8123 C   0  0  0  0  0  0  0  0  0  0  0  0
   -1.7508  -11.3016   18.6072 C   0  0  0  0  0  0  0  0  0  0  0  0
    1.7497   -5.6771   26.4971 C   0  0  0  0  0  0  0  0  0  0  0  0
   -1.5799   -9.9322   18.3468 C   0  0  0  0  0  0  0  0  0  0  0  0
   -1.0871  -12.2214   17.8851 C   0  0  0  0  0  0  0  0  0  0  0  0
   -2.2706   -8.9669   19.0691 C   0  0  0  0  0  0  0  0  0  0  0  0
    3.0279   -5.3073   26.8197 C   0  0  0  0  0  0  0  0  0  0  0  0
    7.3282   -3.8948   29.1186 C   0  0  0  0  0  0  0  0  0  0  0  0
  1  3  4  0
  1  7  4  0
  2  3  1  0
  2  6  4  0
  2 16  4  0
  3 22  4  0
  4  9  4  0
  4 10  1  0
  4 20  4  0
  5 16  4  0
  5 23  4  0
  6 15  4  0
  7 12  4  0
  8 13  4  0
  8 14  4  0
  9 11  4  0
 11 14  4  0
 11 19  4  0
 12 18  4  0
 13 21  4  0
 15 23  4  0
 17 19  4  0
 17 20  4  0
 18 22  4  0
 19 21  4  0
M  END
$$$$

 Created by Python create_sdf_string function

 23 25  0  0  0  0  0  0  0  0999 V2000
    2.4610   -5.3070   29.1240 C   0  0  0  0  0  0  0  0  0  0  0  0
    4.7710   -4.6952   28.4803 C   0  0  0  0  0  0  0  0  0  0  0  0
    3.4047   -5.1087   28.1314 C   0  0  0  0  0  0  0  0  0  0  0  0
   -0.2234  -11.8615   16.8874 C   0  0  0  0  0  0  0  0  0  0  0  0
    6.4491   -4.1532   30.1213 C   0  0  0  0  0  0  0  0  0  0  0  0
    5.7060   -4.4340   27.4975 C   0  0  0  0  0  0  0  0  0  0  0  0
    1.1818   -5.6612   28.8399 C   0  0  0  0  0  0  0  0  0  0  0  0
   -1.2067   -7.3287   17.7772 C   0  0  0  0  0  0  0  0  0  0  0  0
   -0.0206  -10.5585   16.6210 C   0  0  0  0  0  0  0  0  0  0  0  0
    0.3696  -12.7626   16.2169 O   0  0  0  0  0  0  0  0  0  0  0  0
   -0.6895   -9.5676   17.3297 C   0  0  0  0  0  0  0  0  0  0  0  0
    0.8388   -5.8417   27.5264 C   0  0  0  0  0  0  0  0  0  0  0  0
   -2.0709   -7.6637   18.7817 C   0  0  0  0  0  0  0  0  0  0  0  0
   -0.5279   -8.2168   17.0717 C   0  0  0  0  0  0  0  0  0  0  0  0
    6.9694   -4.0191   27.8190 C   0  0  0  0  0  0  0  0  0  0  0  0
    5.1733   -4.5469   29.8123 C   0  0  0  0  0  0  0  0  0  0  0  0
   -1.7508  -11.3016   18.6072 C   0  0  0  0  0  0  0  0  0  0  0  0
    1.7497   -5.6771   26.4971 C   0  0  0  0  0  0  0  0  0  0  0  0
   -1.5799   -9.9322   18.3468 C   0  0  0  0  0  0  0  0  0  0  0  0
   -1.0871  -12.2214   17.8851 C   0  0  0  0  0  0  0  0  0  0  0  0
   -2.2706   -8.9669   19.0691 C   0  0  0  0  0  0  0  0  0  0  0  0
    3.0279   -5.3073   26.8197 C   0  0  0  0  0  0  0  0  0  0  0  0
    7.3282   -3.8948   29.1186 C   0  0  0  0  0  0  0  0  0  0  0  0
  1  3  4  0
  1  7  4  0
  2  3  1  0
  2  6  4  0
  2 16  4  0
  3 22  4  0
  4  9  4  0
  4 10  1  0
  4 20  4  0
  5 16  4  0
  5 23  4  0
  6 15  4  0
  7 12  4  0
  8 13  4  0
  8 14  4  0
  9 11  4  0
 11 14  4  0
 11 19  4  0
 12 18  4  0
 13 21  4  0
 15 23  4  0
 17 19  4  0
 17 20  4  0
 18 22  4  0
 19 21  4  0
M  END
$$$$

 Created by Python create_sdf_string function

 23 25  0  0  0  0  0  0  0  0999 V2000
    2.4610   -5.3070   29.1240 C   0  0  0  0  0  0  0  0  0  0  0  0
    4.7710   -4.6952   28.4803 C   0  0  0  0  0  0  0  0  0  0  0  0
    3.4047   -5.1087   28.1314 C   0  0  0  0  0  0  0  0  0  0  0  0
   -0.2234  -11.8615   16.8874 C   0  0  0  0  0  0  0  0  0  0  0  0
    6.4491   -4.1532   30.1213 C   0  0  0  0  0  0  0  0  0  0  0  0
    5.7060   -4.4340   27.4975 C   0  0  0  0  0  0  0  0  0  0  0  0
    1.1818   -5.6612   28.8399 C   0  0  0  0  0  0  0  0  0  0  0  0
   -1.2067   -7.3287   17.7772 C   0  0  0  0  0  0  0  0  0  0  0  0
   -0.0206  -10.5585   16.6210 C   0  0  0  0  0  0  0  0  0  0  0  0
    0.3696  -12.7626   16.2169 O   0  0  0  0  0  0  0  0  0  0  0  0
   -0.6895   -9.5676   17.3297 C   0  0  0  0  0  0  0  0  0  0  0  0
    0.8388   -5.8417   27.5264 C   0  0  0  0  0  0  0  0  0  0  0  0
   -2.0709   -7.6637   18.7817 C   0  0  0  0  0  0  0  0  0  0  0  0
   -0.5279   -8.2168   17.0717 C   0  0  0  0  0  0  0  0  0  0  0  0
    6.9694   -4.0191   27.8190 C   0  0  0  0  0  0  0  0  0  0  0  0
    5.1733   -4.5469   29.8123 C   0  0  0  0  0  0  0  0  0  0  0  0
   -1.7508  -11.3016   18.6072 C   0  0  0  0  0  0  0  0  0  0  0  0
    1.7497   -5.6771   26.4971 C   0  0  0  0  0  0  0  0  0  0  0  0
   -1.5799   -9.9322   18.3468 C   0  0  0  0  0  0  0  0  0  0  0  0
   -1.0871  -12.2214   17.8851 C   0  0  0  0  0  0  0  0  0  0  0  0
   -2.2706   -8.9669   19.0691 C   0  0  0  0  0  0  0  0  0  0  0  0
    3.0279   -5.3073   26.8197 C   0  0  0  0  0  0  0  0  0  0  0  0
    7.3282   -3.8948   29.1186 C   0  0  0  0  0  0  0  0  0  0  0  0
  1  3  4  0
  1  7  4  0
  2  3  1  0
  2  6  4  0
  2 16  4  0
  3 22  4  0
  4  9  4  0
  4 10  1  0
  4 20  4  0
  5 16  4  0
  5 23  4  0
  6 15  4  0
  7 12  4  0
  8 13  4  0
  8 14  4  0
  9 11  4  0
 11 14  4  0
 11 19  4  0
 12 18  4  0
 13 21  4  0
 15 23  4  0
 17 19  4  0
 17 20  4  0
 18 22  4  0
 19 21  4  0
M  END
$$$$

 Created by Python create_sdf_string function

 23 25  0  0  0  0  0  0  0  0999 V2000
    2.4610   -5.3070   29.1240 C   0  0  0  0  0  0  0  0  0  0  0  0
    4.7710   -4.6952   28.4803 C   0  0  0  0  0  0  0  0  0  0  0  0
    3.4047   -5.1087   28.1314 C   0  0  0  0  0  0  0  0  0  0  0  0
   -0.2234  -11.8615   16.8874 C   0  0  0  0  0  0  0  0  0  0  0  0
    6.4491   -4.1532   30.1213 C   0  0  0  0  0  0  0  0  0  0  0  0
    5.7060   -4.4340   27.4975 C   0  0  0  0  0  0  0  0  0  0  0  0
    1.1818   -5.6612   28.8399 C   0  0  0  0  0  0  0  0  0  0  0  0
   -1.2067   -7.3287   17.7772 C   0  0  0  0  0  0  0  0  0  0  0  0
   -0.0206  -10.5585   16.6210 C   0  0  0  0  0  0  0  0  0  0  0  0
    0.3696  -12.7626   16.2169 O   0  0  0  0  0  0  0  0  0  0  0  0
   -0.6895   -9.5676   17.3297 C   0  0  0  0  0  0  0  0  0  0  0  0
    0.8388   -5.8417   27.5264 C   0  0  0  0  0  0  0  0  0  0  0  0
   -2.0709   -7.6637   18.7817 C   0  0  0  0  0  0  0  0  0  0  0  0
   -0.5279   -8.2168   17.0717 C   0  0  0  0  0  0  0  0  0  0  0  0
    6.9694   -4.0191   27.8190 C   0  0  0  0  0  0  0  0  0  0  0  0
    5.1733   -4.5469   29.8123 C   0  0  0  0  0  0  0  0  0  0  0  0
   -1.7508  -11.3016   18.6072 C   0  0  0  0  0  0  0  0  0  0  0  0
    1.7497   -5.6771   26.4971 C   0  0  0  0  0  0  0  0  0  0  0  0
   -1.5799   -9.9322   18.3468 C   0  0  0  0  0  0  0  0  0  0  0  0
   -1.0871  -12.2214   17.8851 C   0  0  0  0  0  0  0  0  0  0  0  0
   -2.2706   -8.9669   19.0691 C   0  0  0  0  0  0  0  0  0  0  0  0
    3.0279   -5.3073   26.8197 C   0  0  0  0  0  0  0  0  0  0  0  0
    7.3282   -3.8948   29.1186 C   0  0  0  0  0  0  0  0  0  0  0  0
  1  3  4  0
  1  7  4  0
  2  3  1  0
  2  6  4  0
  2 16  4  0
  3 22  4  0
  4  9  4  0
  4 10  1  0
  4 20  4  0
  5 16  4  0
  5 23  4  0
  6 15  4  0
  7 12  4  0
  8 13  4  0
  8 14  4  0
  9 11  4  0
 11 14  4  0
 11 19  4  0
 12 18  4  0
 13 21  4  0
 15 23  4  0
 17 19  4  0
 17 20  4  0
 18 22  4  0
 19 21  4  0
M  END
$$$$

 Created by Python create_sdf_string function

 23 25  0  0  0  0  0  0  0  0999 V2000
    2.4610   -5.3070   29.1240 C   0  0  0  0  0  0  0  0  0  0  0  0
    4.7710   -4.6952   28.4803 C   0  0  0  0  0  0  0  0  0  0  0  0
    3.4047   -5.1087   28.1314 C   0  0  0  0  0  0  0  0  0  0  0  0
   -0.2234  -11.8615   16.8874 C   0  0  0  0  0  0  0  0  0  0  0  0
    6.4491   -4.1532   30.1213 C   0  0  0  0  0  0  0  0  0  0  0  0
    5.7060   -4.4340   27.4975 C   0  0  0  0  0  0  0  0  0  0  0  0
    1.1818   -5.6612   28.8399 C   0  0  0  0  0  0  0  0  0  0  0  0
   -1.2067   -7.3287   17.7772 C   0  0  0  0  0  0  0  0  0  0  0  0
   -0.0206  -10.5585   16.6210 C   0  0  0  0  0  0  0  0  0  0  0  0
    0.3696  -12.7626   16.2169 O   0  0  0  0  0  0  0  0  0  0  0  0
   -0.6895   -9.5676   17.3297 C   0  0  0  0  0  0  0  0  0  0  0  0
    0.8388   -5.8417   27.5264 C   0  0  0  0  0  0  0  0  0  0  0  0
   -2.0709   -7.6637   18.7817 C   0  0  0  0  0  0  0  0  0  0  0  0
   -0.5279   -8.2168   17.0717 C   0  0  0  0  0  0  0  0  0  0  0  0
    6.9694   -4.0191   27.8190 C   0  0  0  0  0  0  0  0  0  0  0  0
    5.1733   -4.5469   29.8123 C   0  0  0  0  0  0  0  0  0  0  0  0
   -1.7508  -11.3016   18.6072 C   0  0  0  0  0  0  0  0  0  0  0  0
    1.7497   -5.6771   26.4971 C   0  0  0  0  0  0  0  0  0  0  0  0
   -1.5799   -9.9322   18.3468 C   0  0  0  0  0  0  0  0  0  0  0  0
   -1.0871  -12.2214   17.8851 C   0  0  0  0  0  0  0  0  0  0  0  0
   -2.2706   -8.9669   19.0691 C   0  0  0  0  0  0  0  0  0  0  0  0
    3.0279   -5.3073   26.8197 C   0  0  0  0  0  0  0  0  0  0  0  0
    7.3282   -3.8948   29.1186 C   0  0  0  0  0  0  0  0  0  0  0  0
  1  3  4  0
  1  7  4  0
  2  3  1  0
  2  6  4  0
  2 16  4  0
  3 22  4  0
  4  9  4  0
  4 10  1  0
  4 20  4  0
  5 16  4  0
  5 23  4  0
  6 15  4  0
  7 12  4  0
  8 13  4  0
  8 14  4  0
  9 11  4  0
 11 14  4  0
 11 19  4  0
 12 18  4  0
 13 21  4  0
 15 23  4  0
 17 19  4  0
 17 20  4  0
 18 22  4  0
 19 21  4  0
M  END
$$$$

 Created by Python create_sdf_string function

 23 25  0  0  0  0  0  0  0  0999 V2000
    2.4610   -5.3070   29.1240 C   0  0  0  0  0  0  0  0  0  0  0  0
    4.7710   -4.6952   28.4803 C   0  0  0  0  0  0  0  0  0  0  0  0
    3.4047   -5.1087   28.1314 C   0  0  0  0  0  0  0  0  0  0  0  0
   -0.2234  -11.8615   16.8874 C   0  0  0  0  0  0  0  0  0  0  0  0
    6.4491   -4.1532   30.1213 C   0  0  0  0  0  0  0  0  0  0  0  0
    5.7060   -4.4340   27.4975 C   0  0  0  0  0  0  0  0  0  0  0  0
    1.1818   -5.6612   28.8399 C   0  0  0  0  0  0  0  0  0  0  0  0
   -1.2067   -7.3287   17.7772 C   0  0  0  0  0  0  0  0  0  0  0  0
   -0.0206  -10.5585   16.6210 C   0  0  0  0  0  0  0  0  0  0  0  0
    0.3696  -12.7626   16.2169 O   0  0  0  0  0  0  0  0  0  0  0  0
   -0.6895   -9.5676   17.3297 C   0  0  0  0  0  0  0  0  0  0  0  0
    0.8388   -5.8417   27.5264 C   0  0  0  0  0  0  0  0  0  0  0  0
   -2.0709   -7.6637   18.7817 C   0  0  0  0  0  0  0  0  0  0  0  0
   -0.5279   -8.2168   17.0717 C   0  0  0  0  0  0  0  0  0  0  0  0
    6.9694   -4.0191   27.8190 C   0  0  0  0  0  0  0  0  0  0  0  0
    5.1733   -4.5469   29.8123 C   0  0  0  0  0  0  0  0  0  0  0  0
   -1.7508  -11.3016   18.6072 C   0  0  0  0  0  0  0  0  0  0  0  0
    1.7497   -5.6771   26.4971 C   0  0  0  0  0  0  0  0  0  0  0  0
   -1.5799   -9.9322   18.3468 C   0  0  0  0  0  0  0  0  0  0  0  0
   -1.0871  -12.2214   17.8851 C   0  0  0  0  0  0  0  0  0  0  0  0
   -2.2706   -8.9669   19.0691 C   0  0  0  0  0  0  0  0  0  0  0  0
    3.0279   -5.3073   26.8197 C   0  0  0  0  0  0  0  0  0  0  0  0
    7.3282   -3.8948   29.1186 C   0  0  0  0  0  0  0  0  0  0  0  0
  1  3  4  0
  1  7  4  0
  2  3  1  0
  2  6  4  0
  2 16  4  0
  3 22  4  0
  4  9  4  0
  4 10  1  0
  4 20  4  0
  5 16  4  0
  5 23  4  0
  6 15  4  0
  7 12  4  0
  8 13  4  0
  8 14  4  0
  9 11  4  0
 11 14  4  0
 11 19  4  0
 12 18  4  0
 13 21  4  0
 15 23  4  0
 17 19  4  0
 17 20  4  0
 18 22  4  0
 19 21  4  0
M  END
$$$$

 Created by Python create_sdf_string function

 23 25  0  0  0  0  0  0  0  0999 V2000
    2.4610   -5.3070   29.1240 C   0  0  0  0  0  0  0  0  0  0  0  0
    4.7710   -4.6952   28.4803 C   0  0  0  0  0  0  0  0  0  0  0  0
    3.4047   -5.1087   28.1314 C   0  0  0  0  0  0  0  0  0  0  0  0
   -0.2234  -11.8615   16.8874 C   0  0  0  0  0  0  0  0  0  0  0  0
    6.4491   -4.1532   30.1213 C   0  0  0  0  0  0  0  0  0  0  0  0
    5.7060   -4.4340   27.4975 C   0  0  0  0  0  0  0  0  0  0  0  0
    1.1818   -5.6612   28.8399 C   0  0  0  0  0  0  0  0  0  0  0  0
   -1.2067   -7.3287   17.7772 C   0  0  0  0  0  0  0  0  0  0  0  0
   -0.0206  -10.5585   16.6210 C   0  0  0  0  0  0  0  0  0  0  0  0
    0.3696  -12.7626   16.2169 O   0  0  0  0  0  0  0  0  0  0  0  0
   -0.6895   -9.5676   17.3297 C   0  0  0  0  0  0  0  0  0  0  0  0
    0.8388   -5.8417   27.5264 C   0  0  0  0  0  0  0  0  0  0  0  0
   -2.0709   -7.6637   18.7817 C   0  0  0  0  0  0  0  0  0  0  0  0
   -0.5279   -8.2168   17.0717 C   0  0  0  0  0  0  0  0  0  0  0  0
    6.9694   -4.0191   27.8190 C   0  0  0  0  0  0  0  0  0  0  0  0
    5.1733   -4.5469   29.8123 C   0  0  0  0  0  0  0  0  0  0  0  0
   -1.7508  -11.3016   18.6072 C   0  0  0  0  0  0  0  0  0  0  0  0
    1.7497   -5.6771   26.4971 C   0  0  0  0  0  0  0  0  0  0  0  0
   -1.5799   -9.9322   18.3468 C   0  0  0  0  0  0  0  0  0  0  0  0
   -1.0871  -12.2214   17.8851 C   0  0  0  0  0  0  0  0  0  0  0  0
   -2.2706   -8.9669   19.0691 C   0  0  0  0  0  0  0  0  0  0  0  0
    3.0279   -5.3073   26.8197 C   0  0  0  0  0  0  0  0  0  0  0  0
    7.3282   -3.8948   29.1186 C   0  0  0  0  0  0  0  0  0  0  0  0
  1  3  4  0
  1  7  4  0
  2  3  1  0
  2  6  4  0
  2 16  4  0
  3 22  4  0
  4  9  4  0
  4 10  1  0
  4 20  4  0
  5 16  4  0
  5 23  4  0
  6 15  4  0
  7 12  4  0
  8 13  4  0
  8 14  4  0
  9 11  4  0
 11 14  4  0
 11 19  4  0
 12 18  4  0
 13 21  4  0
 15 23  4  0
 17 19  4  0
 17 20  4  0
 18 22  4  0
 19 21  4  0
M  END
$$$$

 Created by Python create_sdf_string function

 23 25  0  0  0  0  0  0  0  0999 V2000
    2.4610   -5.3070   29.1240 C   0  0  0  0  0  0  0  0  0  0  0  0
    4.7710   -4.6952   28.4803 C   0  0  0  0  0  0  0  0  0  0  0  0
    3.4047   -5.1087   28.1314 C   0  0  0  0  0  0  0  0  0  0  0  0
   -0.2234  -11.8615   16.8874 C   0  0  0  0  0  0  0  0  0  0  0  0
    6.4491   -4.1532   30.1213 C   0  0  0  0  0  0  0  0  0  0  0  0
    5.7060   -4.4340   27.4975 C   0  0  0  0  0  0  0  0  0  0  0  0
    1.1818   -5.6612   28.8399 C   0  0  0  0  0  0  0  0  0  0  0  0
   -1.2067   -7.3287   17.7772 C   0  0  0  0  0  0  0  0  0  0  0  0
   -0.0206  -10.5585   16.6210 C   0  0  0  0  0  0  0  0  0  0  0  0
    0.3696  -12.7626   16.2169 O   0  0  0  0  0  0  0  0  0  0  0  0
   -0.6895   -9.5676   17.3297 C   0  0  0  0  0  0  0  0  0  0  0  0
    0.8388   -5.8417   27.5264 C   0  0  0  0  0  0  0  0  0  0  0  0
   -2.0709   -7.6637   18.7817 C   0  0  0  0  0  0  0  0  0  0  0  0
   -0.5279   -8.2168   17.0717 C   0  0  0  0  0  0  0  0  0  0  0  0
    6.9694   -4.0191   27.8190 C   0  0  0  0  0  0  0  0  0  0  0  0
    5.1733   -4.5469   29.8123 C   0  0  0  0  0  0  0  0  0  0  0  0
   -1.7508  -11.3016   18.6072 C   0  0  0  0  0  0  0  0  0  0  0  0
    1.7497   -5.6771   26.4971 C   0  0  0  0  0  0  0  0  0  0  0  0
   -1.5799   -9.9322   18.3468 C   0  0  0  0  0  0  0  0  0  0  0  0
   -1.0871  -12.2214   17.8851 C   0  0  0  0  0  0  0  0  0  0  0  0
   -2.2706   -8.9669   19.0691 C   0  0  0  0  0  0  0  0  0  0  0  0
    3.0279   -5.3073   26.8197 C   0  0  0  0  0  0  0  0  0  0  0  0
    7.3282   -3.8948   29.1186 C   0  0  0  0  0  0  0  0  0  0  0  0
  1  3  4  0
  1  7  4  0
  2  3  1  0
  2  6  4  0
  2 16  4  0
  3 22  4  0
  4  9  4  0
  4 10  1  0
  4 20  4  0
  5 16  4  0
  5 23  4  0
  6 15  4  0
  7 12  4  0
  8 13  4  0
  8 14  4  0
  9 11  4  0
 11 14  4  0
 11 19  4  0
 12 18  4  0
 13 21  4  0
 15 23  4  0
 17 19  4  0
 17 20  4  0
 18 22  4  0
 19 21  4  0
M  END
$$$$

 Created by Python create_sdf_string function

 23 25  0  0  0  0  0  0  0  0999 V2000
    2.4610   -5.3070   29.1240 C   0  0  0  0  0  0  0  0  0  0  0  0
    4.7710   -4.6952   28.4803 C   0  0  0  0  0  0  0  0  0  0  0  0
    3.4047   -5.1087   28.1314 C   0  0  0  0  0  0  0  0  0  0  0  0
   -0.2234  -11.8615   16.8874 C   0  0  0  0  0  0  0  0  0  0  0  0
    6.4491   -4.1532   30.1213 C   0  0  0  0  0  0  0  0  0  0  0  0
    5.7060   -4.4340   27.4975 C   0  0  0  0  0  0  0  0  0  0  0  0
    1.1818   -5.6612   28.8399 C   0  0  0  0  0  0  0  0  0  0  0  0
   -1.2067   -7.3287   17.7772 C   0  0  0  0  0  0  0  0  0  0  0  0
   -0.0206  -10.5585   16.6210 C   0  0  0  0  0  0  0  0  0  0  0  0
    0.3696  -12.7626   16.2169 O   0  0  0  0  0  0  0  0  0  0  0  0
   -0.6895   -9.5676   17.3297 C   0  0  0  0  0  0  0  0  0  0  0  0
    0.8388   -5.8417   27.5264 C   0  0  0  0  0  0  0  0  0  0  0  0
   -2.0709   -7.6637   18.7817 C   0  0  0  0  0  0  0  0  0  0  0  0
   -0.5279   -8.2168   17.0717 C   0  0  0  0  0  0  0  0  0  0  0  0
    6.9694   -4.0191   27.8190 C   0  0  0  0  0  0  0  0  0  0  0  0
    5.1733   -4.5469   29.8123 C   0  0  0  0  0  0  0  0  0  0  0  0
   -1.7508  -11.3016   18.6072 C   0  0  0  0  0  0  0  0  0  0  0  0
    1.7497   -5.6771   26.4971 C   0  0  0  0  0  0  0  0  0  0  0  0
   -1.5799   -9.9322   18.3468 C   0  0  0  0  0  0  0  0  0  0  0  0
   -1.0871  -12.2214   17.8851 C   0  0  0  0  0  0  0  0  0  0  0  0
   -2.2706   -8.9669   19.0691 C   0  0  0  0  0  0  0  0  0  0  0  0
    3.0279   -5.3073   26.8197 C   0  0  0  0  0  0  0  0  0  0  0  0
    7.3282   -3.8948   29.1186 C   0  0  0  0  0  0  0  0  0  0  0  0
  1  3  4  0
  1  7  4  0
  2  3  1  0
  2  6  4  0
  2 16  4  0
  3 22  4  0
  4  9  4  0
  4 10  1  0
  4 20  4  0
  5 16  4  0
  5 23  4  0
  6 15  4  0
  7 12  4  0
  8 13  4  0
  8 14  4  0
  9 11  4  0
 11 14  4  0
 11 19  4  0
 12 18  4  0
 13 21  4  0
 15 23  4  0
 17 19  4  0
 17 20  4  0
 18 22  4  0
 19 21  4  0
M  END
$$$$

 Created by Python create_sdf_string function

 23 25  0  0  0  0  0  0  0  0999 V2000
    2.4610   -5.3070   29.1240 C   0  0  0  0  0  0  0  0  0  0  0  0
    4.7710   -4.6952   28.4803 C   0  0  0  0  0  0  0  0  0  0  0  0
    3.4047   -5.1087   28.1314 C   0  0  0  0  0  0  0  0  0  0  0  0
   -0.2234  -11.8615   16.8874 C   0  0  0  0  0  0  0  0  0  0  0  0
    6.4491   -4.1532   30.1213 C   0  0  0  0  0  0  0  0  0  0  0  0
    5.7060   -4.4340   27.4975 C   0  0  0  0  0  0  0  0  0  0  0  0
    1.1818   -5.6612   28.8399 C   0  0  0  0  0  0  0  0  0  0  0  0
   -1.2067   -7.3287   17.7772 C   0  0  0  0  0  0  0  0  0  0  0  0
   -0.0206  -10.5585   16.6210 C   0  0  0  0  0  0  0  0  0  0  0  0
    0.3696  -12.7626   16.2169 O   0  0  0  0  0  0  0  0  0  0  0  0
   -0.6895   -9.5676   17.3297 C   0  0  0  0  0  0  0  0  0  0  0  0
    0.8388   -5.8417   27.5264 C   0  0  0  0  0  0  0  0  0  0  0  0
   -2.0709   -7.6637   18.7817 C   0  0  0  0  0  0  0  0  0  0  0  0
   -0.5279   -8.2168   17.0717 C   0  0  0  0  0  0  0  0  0  0  0  0
    6.9694   -4.0191   27.8190 C   0  0  0  0  0  0  0  0  0  0  0  0
    5.1733   -4.5469   29.8123 C   0  0  0  0  0  0  0  0  0  0  0  0
   -1.7508  -11.3016   18.6072 C   0  0  0  0  0  0  0  0  0  0  0  0
    1.7497   -5.6771   26.4971 C   0  0  0  0  0  0  0  0  0  0  0  0
   -1.5799   -9.9322   18.3468 C   0  0  0  0  0  0  0  0  0  0  0  0
   -1.0871  -12.2214   17.8851 C   0  0  0  0  0  0  0  0  0  0  0  0
   -2.2706   -8.9669   19.0691 C   0  0  0  0  0  0  0  0  0  0  0  0
    3.0279   -5.3073   26.8197 C   0  0  0  0  0  0  0  0  0  0  0  0
    7.3282   -3.8948   29.1186 C   0  0  0  0  0  0  0  0  0  0  0  0
  1  3  4  0
  1  7  4  0
  2  3  1  0
  2  6  4  0
  2 16  4  0
  3 22  4  0
  4  9  4  0
  4 10  1  0
  4 20  4  0
  5 16  4  0
  5 23  4  0
  6 15  4  0
  7 12  4  0
  8 13  4  0
  8 14  4  0
  9 11  4  0
 11 14  4  0
 11 19  4  0
 12 18  4  0
 13 21  4  0
 15 23  4  0
 17 19  4  0
 17 20  4  0
 18 22  4  0
 19 21  4  0
M  END
$$$$

 Created by Python create_sdf_string function

 23 25  0  0  0  0  0  0  0  0999 V2000
    2.4610   -5.3070   29.1240 C   0  0  0  0  0  0  0  0  0  0  0  0
    4.7710   -4.6952   28.4803 C   0  0  0  0  0  0  0  0  0  0  0  0
    3.4047   -5.1087   28.1314 C   0  0  0  0  0  0  0  0  0  0  0  0
   -0.2234  -11.8615   16.8874 C   0  0  0  0  0  0  0  0  0  0  0  0
    6.4491   -4.1532   30.1213 C   0  0  0  0  0  0  0  0  0  0  0  0
    5.7060   -4.4340   27.4975 C   0  0  0  0  0  0  0  0  0  0  0  0
    1.1818   -5.6612   28.8399 C   0  0  0  0  0  0  0  0  0  0  0  0
   -1.2067   -7.3287   17.7772 C   0  0  0  0  0  0  0  0  0  0  0  0
   -0.0206  -10.5585   16.6210 C   0  0  0  0  0  0  0  0  0  0  0  0
    0.3696  -12.7626   16.2169 O   0  0  0  0  0  0  0  0  0  0  0  0
   -0.6895   -9.5676   17.3297 C   0  0  0  0  0  0  0  0  0  0  0  0
    0.8388   -5.8417   27.5264 C   0  0  0  0  0  0  0  0  0  0  0  0
   -2.0709   -7.6637   18.7817 C   0  0  0  0  0  0  0  0  0  0  0  0
   -0.5279   -8.2168   17.0717 C   0  0  0  0  0  0  0  0  0  0  0  0
    6.9694   -4.0191   27.8190 C   0  0  0  0  0  0  0  0  0  0  0  0
    5.1733   -4.5469   29.8123 C   0  0  0  0  0  0  0  0  0  0  0  0
   -1.7508  -11.3016   18.6072 C   0  0  0  0  0  0  0  0  0  0  0  0
    1.7497   -5.6771   26.4971 C   0  0  0  0  0  0  0  0  0  0  0  0
   -1.5799   -9.9322   18.3468 C   0  0  0  0  0  0  0  0  0  0  0  0
   -1.0871  -12.2214   17.8851 C   0  0  0  0  0  0  0  0  0  0  0  0
   -2.2706   -8.9669   19.0691 C   0  0  0  0  0  0  0  0  0  0  0  0
    3.0279   -5.3073   26.8197 C   0  0  0  0  0  0  0  0  0  0  0  0
    7.3282   -3.8948   29.1186 C   0  0  0  0  0  0  0  0  0  0  0  0
  1  3  4  0
  1  7  4  0
  2  3  1  0
  2  6  4  0
  2 16  4  0
  3 22  4  0
  4  9  4  0
  4 10  1  0
  4 20  4  0
  5 16  4  0
  5 23  4  0
  6 15  4  0
  7 12  4  0
  8 13  4  0
  8 14  4  0
  9 11  4  0
 11 14  4  0
 11 19  4  0
 12 18  4  0
 13 21  4  0
 15 23  4  0
 17 19  4  0
 17 20  4  0
 18 22  4  0
 19 21  4  0
M  END
$$$$

 Created by Python create_sdf_string function

 23 25  0  0  0  0  0  0  0  0999 V2000
    2.4610   -5.3070   29.1240 C   0  0  0  0  0  0  0  0  0  0  0  0
    4.7710   -4.6952   28.4803 C   0  0  0  0  0  0  0  0  0  0  0  0
    3.4047   -5.1087   28.1314 C   0  0  0  0  0  0  0  0  0  0  0  0
   -0.2234  -11.8615   16.8874 C   0  0  0  0  0  0  0  0  0  0  0  0
    6.4491   -4.1532   30.1213 C   0  0  0  0  0  0  0  0  0  0  0  0
    5.7060   -4.4340   27.4975 C   0  0  0  0  0  0  0  0  0  0  0  0
    1.1818   -5.6612   28.8399 C   0  0  0  0  0  0  0  0  0  0  0  0
   -1.2067   -7.3287   17.7772 C   0  0  0  0  0  0  0  0  0  0  0  0
   -0.0206  -10.5585   16.6210 C   0  0  0  0  0  0  0  0  0  0  0  0
    0.3696  -12.7626   16.2169 O   0  0  0  0  0  0  0  0  0  0  0  0
   -0.6895   -9.5676   17.3297 C   0  0  0  0  0  0  0  0  0  0  0  0
    0.8388   -5.8417   27.5264 C   0  0  0  0  0  0  0  0  0  0  0  0
   -2.0709   -7.6637   18.7817 C   0  0  0  0  0  0  0  0  0  0  0  0
   -0.5279   -8.2168   17.0717 C   0  0  0  0  0  0  0  0  0  0  0  0
    6.9694   -4.0191   27.8190 C   0  0  0  0  0  0  0  0  0  0  0  0
    5.1733   -4.5469   29.8123 C   0  0  0  0  0  0  0  0  0  0  0  0
   -1.7508  -11.3016   18.6072 C   0  0  0  0  0  0  0  0  0  0  0  0
    1.7497   -5.6771   26.4971 C   0  0  0  0  0  0  0  0  0  0  0  0
   -1.5799   -9.9322   18.3468 C   0  0  0  0  0  0  0  0  0  0  0  0
   -1.0871  -12.2214   17.8851 C   0  0  0  0  0  0  0  0  0  0  0  0
   -2.2706   -8.9669   19.0691 C   0  0  0  0  0  0  0  0  0  0  0  0
    3.0279   -5.3073   26.8197 C   0  0  0  0  0  0  0  0  0  0  0  0
    7.3282   -3.8948   29.1186 C   0  0  0  0  0  0  0  0  0  0  0  0
  1  3  4  0
  1  7  4  0
  2  3  1  0
  2  6  4  0
  2 16  4  0
  3 22  4  0
  4  9  4  0
  4 10  1  0
  4 20  4  0
  5 16  4  0
  5 23  4  0
  6 15  4  0
  7 12  4  0
  8 13  4  0
  8 14  4  0
  9 11  4  0
 11 14  4  0
 11 19  4  0
 12 18  4  0
 13 21  4  0
 15 23  4  0
 17 19  4  0
 17 20  4  0
 18 22  4  0
 19 21  4  0
M  END
$$$$

 Created by Python create_sdf_string function

 23 25  0  0  0  0  0  0  0  0999 V2000
    2.4610   -5.3070   29.1240 C   0  0  0  0  0  0  0  0  0  0  0  0
    4.7710   -4.6952   28.4803 C   0  0  0  0  0  0  0  0  0  0  0  0
    3.4047   -5.1087   28.1314 C   0  0  0  0  0  0  0  0  0  0  0  0
   -0.2234  -11.8615   16.8874 C   0  0  0  0  0  0  0  0  0  0  0  0
    6.4491   -4.1532   30.1213 C   0  0  0  0  0  0  0  0  0  0  0  0
    5.7060   -4.4340   27.4975 C   0  0  0  0  0  0  0  0  0  0  0  0
    1.1818   -5.6612   28.8399 C   0  0  0  0  0  0  0  0  0  0  0  0
   -1.2067   -7.3287   17.7772 C   0  0  0  0  0  0  0  0  0  0  0  0
   -0.0206  -10.5585   16.6210 C   0  0  0  0  0  0  0  0  0  0  0  0
    0.3696  -12.7626   16.2169 O   0  0  0  0  0  0  0  0  0  0  0  0
   -0.6895   -9.5676   17.3297 C   0  0  0  0  0  0  0  0  0  0  0  0
    0.8388   -5.8417   27.5264 C   0  0  0  0  0  0  0  0  0  0  0  0
   -2.0709   -7.6637   18.7817 C   0  0  0  0  0  0  0  0  0  0  0  0
   -0.5279   -8.2168   17.0717 C   0  0  0  0  0  0  0  0  0  0  0  0
    6.9694   -4.0191   27.8190 C   0  0  0  0  0  0  0  0  0  0  0  0
    5.1733   -4.5469   29.8123 C   0  0  0  0  0  0  0  0  0  0  0  0
   -1.7508  -11.3016   18.6072 C   0  0  0  0  0  0  0  0  0  0  0  0
    1.7497   -5.6771   26.4971 C   0  0  0  0  0  0  0  0  0  0  0  0
   -1.5799   -9.9322   18.3468 C   0  0  0  0  0  0  0  0  0  0  0  0
   -1.0871  -12.2214   17.8851 C   0  0  0  0  0  0  0  0  0  0  0  0
   -2.2706   -8.9669   19.0691 C   0  0  0  0  0  0  0  0  0  0  0  0
    3.0279   -5.3073   26.8197 C   0  0  0  0  0  0  0  0  0  0  0  0
    7.3282   -3.8948   29.1186 C   0  0  0  0  0  0  0  0  0  0  0  0
  1  3  4  0
  1  7  4  0
  2  3  1  0
  2  6  4  0
  2 16  4  0
  3 22  4  0
  4  9  4  0
  4 10  1  0
  4 20  4  0
  5 16  4  0
  5 23  4  0
  6 15  4  0
  7 12  4  0
  8 13  4  0
  8 14  4  0
  9 11  4  0
 11 14  4  0
 11 19  4  0
 12 18  4  0
 13 21  4  0
 15 23  4  0
 17 19  4  0
 17 20  4  0
 18 22  4  0
 19 21  4  0
M  END
$$$$

 Created by Python create_sdf_string function

 23 25  0  0  0  0  0  0  0  0999 V2000
    2.4610   -5.3070   29.1240 C   0  0  0  0  0  0  0  0  0  0  0  0
    4.7710   -4.6952   28.4803 C   0  0  0  0  0  0  0  0  0  0  0  0
    3.4047   -5.1087   28.1314 C   0  0  0  0  0  0  0  0  0  0  0  0
   -0.2234  -11.8615   16.8874 C   0  0  0  0  0  0  0  0  0  0  0  0
    6.4491   -4.1532   30.1213 C   0  0  0  0  0  0  0  0  0  0  0  0
    5.7060   -4.4340   27.4975 C   0  0  0  0  0  0  0  0  0  0  0  0
    1.1818   -5.6612   28.8399 C   0  0  0  0  0  0  0  0  0  0  0  0
   -1.2067   -7.3287   17.7772 C   0  0  0  0  0  0  0  0  0  0  0  0
   -0.0206  -10.5585   16.6210 C   0  0  0  0  0  0  0  0  0  0  0  0
    0.3696  -12.7626   16.2169 O   0  0  0  0  0  0  0  0  0  0  0  0
   -0.6895   -9.5676   17.3297 C   0  0  0  0  0  0  0  0  0  0  0  0
    0.8388   -5.8417   27.5264 C   0  0  0  0  0  0  0  0  0  0  0  0
   -2.0709   -7.6637   18.7817 C   0  0  0  0  0  0  0  0  0  0  0  0
   -0.5279   -8.2168   17.0717 C   0  0  0  0  0  0  0  0  0  0  0  0
    6.9694   -4.0191   27.8190 C   0  0  0  0  0  0  0  0  0  0  0  0
    5.1733   -4.5469   29.8123 C   0  0  0  0  0  0  0  0  0  0  0  0
   -1.7508  -11.3016   18.6072 C   0  0  0  0  0  0  0  0  0  0  0  0
    1.7497   -5.6771   26.4971 C   0  0  0  0  0  0  0  0  0  0  0  0
   -1.5799   -9.9322   18.3468 C   0  0  0  0  0  0  0  0  0  0  0  0
   -1.0871  -12.2214   17.8851 C   0  0  0  0  0  0  0  0  0  0  0  0
   -2.2706   -8.9669   19.0691 C   0  0  0  0  0  0  0  0  0  0  0  0
    3.0279   -5.3073   26.8197 C   0  0  0  0  0  0  0  0  0  0  0  0
    7.3282   -3.8948   29.1186 C   0  0  0  0  0  0  0  0  0  0  0  0
  1  3  4  0
  1  7  4  0
  2  3  1  0
  2  6  4  0
  2 16  4  0
  3 22  4  0
  4  9  4  0
  4 10  1  0
  4 20  4  0
  5 16  4  0
  5 23  4  0
  6 15  4  0
  7 12  4  0
  8 13  4  0
  8 14  4  0
  9 11  4  0
 11 14  4  0
 11 19  4  0
 12 18  4  0
 13 21  4  0
 15 23  4  0
 17 19  4  0
 17 20  4  0
 18 22  4  0
 19 21  4  0
M  END
$$$$

 Created by Python create_sdf_string function

 23 25  0  0  0  0  0  0  0  0999 V2000
    2.4610   -5.3070   29.1240 C   0  0  0  0  0  0  0  0  0  0  0  0
    4.7710   -4.6952   28.4803 C   0  0  0  0  0  0  0  0  0  0  0  0
    3.4047   -5.1087   28.1314 C   0  0  0  0  0  0  0  0  0  0  0  0
   -0.2234  -11.8615   16.8874 C   0  0  0  0  0  0  0  0  0  0  0  0
    6.4491   -4.1532   30.1213 C   0  0  0  0  0  0  0  0  0  0  0  0
    5.7060   -4.4340   27.4975 C   0  0  0  0  0  0  0  0  0  0  0  0
    1.1818   -5.6612   28.8399 C   0  0  0  0  0  0  0  0  0  0  0  0
   -1.2067   -7.3287   17.7772 C   0  0  0  0  0  0  0  0  0  0  0  0
   -0.0206  -10.5585   16.6210 C   0  0  0  0  0  0  0  0  0  0  0  0
    0.3696  -12.7626   16.2169 O   0  0  0  0  0  0  0  0  0  0  0  0
   -0.6895   -9.5676   17.3297 C   0  0  0  0  0  0  0  0  0  0  0  0
    0.8388   -5.8417   27.5264 C   0  0  0  0  0  0  0  0  0  0  0  0
   -2.0709   -7.6637   18.7817 C   0  0  0  0  0  0  0  0  0  0  0  0
   -0.5279   -8.2168   17.0717 C   0  0  0  0  0  0  0  0  0  0  0  0
    6.9694   -4.0191   27.8190 C   0  0  0  0  0  0  0  0  0  0  0  0
    5.1733   -4.5469   29.8123 C   0  0  0  0  0  0  0  0  0  0  0  0
   -1.7508  -11.3016   18.6072 C   0  0  0  0  0  0  0  0  0  0  0  0
    1.7497   -5.6771   26.4971 C   0  0  0  0  0  0  0  0  0  0  0  0
   -1.5799   -9.9322   18.3468 C   0  0  0  0  0  0  0  0  0  0  0  0
   -1.0871  -12.2214   17.8851 C   0  0  0  0  0  0  0  0  0  0  0  0
   -2.2706   -8.9669   19.0691 C   0  0  0  0  0  0  0  0  0  0  0  0
    3.0279   -5.3073   26.8197 C   0  0  0  0  0  0  0  0  0  0  0  0
    7.3282   -3.8948   29.1186 C   0  0  0  0  0  0  0  0  0  0  0  0
  1  3  4  0
  1  7  4  0
  2  3  1  0
  2  6  4  0
  2 16  4  0
  3 22  4  0
  4  9  4  0
  4 10  1  0
  4 20  4  0
  5 16  4  0
  5 23  4  0
  6 15  4  0
  7 12  4  0
  8 13  4  0
  8 14  4  0
  9 11  4  0
 11 14  4  0
 11 19  4  0
 12 18  4  0
 13 21  4  0
 15 23  4  0
 17 19  4  0
 17 20  4  0
 18 22  4  0
 19 21  4  0
M  END
$$$$

 Created by Python create_sdf_string function

 23 25  0  0  0  0  0  0  0  0999 V2000
    2.4610   -5.3070   29.1240 C   0  0  0  0  0  0  0  0  0  0  0  0
    4.7710   -4.6952   28.4803 C   0  0  0  0  0  0  0  0  0  0  0  0
    3.4047   -5.1087   28.1314 C   0  0  0  0  0  0  0  0  0  0  0  0
   -0.2234  -11.8615   16.8874 C   0  0  0  0  0  0  0  0  0  0  0  0
    6.4491   -4.1532   30.1213 C   0  0  0  0  0  0  0  0  0  0  0  0
    5.7060   -4.4340   27.4975 C   0  0  0  0  0  0  0  0  0  0  0  0
    1.1818   -5.6612   28.8399 C   0  0  0  0  0  0  0  0  0  0  0  0
   -1.2067   -7.3287   17.7772 C   0  0  0  0  0  0  0  0  0  0  0  0
   -0.0206  -10.5585   16.6210 C   0  0  0  0  0  0  0  0  0  0  0  0
    0.3696  -12.7626   16.2169 O   0  0  0  0  0  0  0  0  0  0  0  0
   -0.6895   -9.5676   17.3297 C   0  0  0  0  0  0  0  0  0  0  0  0
    0.8388   -5.8417   27.5264 C   0  0  0  0  0  0  0  0  0  0  0  0
   -2.0709   -7.6637   18.7817 C   0  0  0  0  0  0  0  0  0  0  0  0
   -0.5279   -8.2168   17.0717 C   0  0  0  0  0  0  0  0  0  0  0  0
    6.9694   -4.0191   27.8190 C   0  0  0  0  0  0  0  0  0  0  0  0
    5.1733   -4.5469   29.8123 C   0  0  0  0  0  0  0  0  0  0  0  0
   -1.7508  -11.3016   18.6072 C   0  0  0  0  0  0  0  0  0  0  0  0
    1.7497   -5.6771   26.4971 C   0  0  0  0  0  0  0  0  0  0  0  0
   -1.5799   -9.9322   18.3468 C   0  0  0  0  0  0  0  0  0  0  0  0
   -1.0871  -12.2214   17.8851 C   0  0  0  0  0  0  0  0  0  0  0  0
   -2.2706   -8.9669   19.0691 C   0  0  0  0  0  0  0  0  0  0  0  0
    3.0279   -5.3073   26.8197 C   0  0  0  0  0  0  0  0  0  0  0  0
    7.3282   -3.8948   29.1186 C   0  0  0  0  0  0  0  0  0  0  0  0
  1  3  4  0
  1  7  4  0
  2  3  1  0
  2  6  4  0
  2 16  4  0
  3 22  4  0
  4  9  4  0
  4 10  1  0
  4 20  4  0
  5 16  4  0
  5 23  4  0
  6 15  4  0
  7 12  4  0
  8 13  4  0
  8 14  4  0
  9 11  4  0
 11 14  4  0
 11 19  4  0
 12 18  4  0
 13 21  4  0
 15 23  4  0
 17 19  4  0
 17 20  4  0
 18 22  4  0
 19 21  4  0
M  END
$$$$

 Created by Python create_sdf_string function

 23 25  0  0  0  0  0  0  0  0999 V2000
    2.4610   -5.3070   29.1240 C   0  0  0  0  0  0  0  0  0  0  0  0
    4.7710   -4.6952   28.4803 C   0  0  0  0  0  0  0  0  0  0  0  0
    3.4047   -5.1087   28.1314 C   0  0  0  0  0  0  0  0  0  0  0  0
   -0.2234  -11.8615   16.8874 C   0  0  0  0  0  0  0  0  0  0  0  0
    6.4491   -4.1532   30.1213 C   0  0  0  0  0  0  0  0  0  0  0  0
    5.7060   -4.4340   27.4975 C   0  0  0  0  0  0  0  0  0  0  0  0
    1.1818   -5.6612   28.8399 C   0  0  0  0  0  0  0  0  0  0  0  0
   -1.2067   -7.3287   17.7772 C   0  0  0  0  0  0  0  0  0  0  0  0
   -0.0206  -10.5585   16.6210 C   0  0  0  0  0  0  0  0  0  0  0  0
    0.3696  -12.7626   16.2169 O   0  0  0  0  0  0  0  0  0  0  0  0
   -0.6895   -9.5676   17.3297 C   0  0  0  0  0  0  0  0  0  0  0  0
    0.8388   -5.8417   27.5264 C   0  0  0  0  0  0  0  0  0  0  0  0
   -2.0709   -7.6637   18.7817 C   0  0  0  0  0  0  0  0  0  0  0  0
   -0.5279   -8.2168   17.0717 C   0  0  0  0  0  0  0  0  0  0  0  0
    6.9694   -4.0191   27.8190 C   0  0  0  0  0  0  0  0  0  0  0  0
    5.1733   -4.5469   29.8123 C   0  0  0  0  0  0  0  0  0  0  0  0
   -1.7508  -11.3016   18.6072 C   0  0  0  0  0  0  0  0  0  0  0  0
    1.7497   -5.6771   26.4971 C   0  0  0  0  0  0  0  0  0  0  0  0
   -1.5799   -9.9322   18.3468 C   0  0  0  0  0  0  0  0  0  0  0  0
   -1.0871  -12.2214   17.8851 C   0  0  0  0  0  0  0  0  0  0  0  0
   -2.2706   -8.9669   19.0691 C   0  0  0  0  0  0  0  0  0  0  0  0
    3.0279   -5.3073   26.8197 C   0  0  0  0  0  0  0  0  0  0  0  0
    7.3282   -3.8948   29.1186 C   0  0  0  0  0  0  0  0  0  0  0  0
  1  3  4  0
  1  7  4  0
  2  3  1  0
  2  6  4  0
  2 16  4  0
  3 22  4  0
  4  9  4  0
  4 10  1  0
  4 20  4  0
  5 16  4  0
  5 23  4  0
  6 15  4  0
  7 12  4  0
  8 13  4  0
  8 14  4  0
  9 11  4  0
 11 14  4  0
 11 19  4  0
 12 18  4  0
 13 21  4  0
 15 23  4  0
 17 19  4  0
 17 20  4  0
 18 22  4  0
 19 21  4  0
M  END
$$$$

 Created by Python create_sdf_string function

 23 25  0  0  0  0  0  0  0  0999 V2000
    2.4610   -5.3070   29.1240 C   0  0  0  0  0  0  0  0  0  0  0  0
    4.7710   -4.6952   28.4803 C   0  0  0  0  0  0  0  0  0  0  0  0
    3.4047   -5.1087   28.1314 C   0  0  0  0  0  0  0  0  0  0  0  0
   -0.2234  -11.8615   16.8874 C   0  0  0  0  0  0  0  0  0  0  0  0
    6.4491   -4.1532   30.1213 C   0  0  0  0  0  0  0  0  0  0  0  0
    5.7060   -4.4340   27.4975 C   0  0  0  0  0  0  0  0  0  0  0  0
    1.1818   -5.6612   28.8399 C   0  0  0  0  0  0  0  0  0  0  0  0
   -1.2067   -7.3287   17.7772 C   0  0  0  0  0  0  0  0  0  0  0  0
   -0.0206  -10.5585   16.6210 C   0  0  0  0  0  0  0  0  0  0  0  0
    0.3696  -12.7626   16.2169 O   0  0  0  0  0  0  0  0  0  0  0  0
   -0.6895   -9.5676   17.3297 C   0  0  0  0  0  0  0  0  0  0  0  0
    0.8388   -5.8417   27.5264 C   0  0  0  0  0  0  0  0  0  0  0  0
   -2.0709   -7.6637   18.7817 C   0  0  0  0  0  0  0  0  0  0  0  0
   -0.5279   -8.2168   17.0717 C   0  0  0  0  0  0  0  0  0  0  0  0
    6.9694   -4.0191   27.8190 C   0  0  0  0  0  0  0  0  0  0  0  0
    5.1733   -4.5469   29.8123 C   0  0  0  0  0  0  0  0  0  0  0  0
   -1.7508  -11.3016   18.6072 C   0  0  0  0  0  0  0  0  0  0  0  0
    1.7497   -5.6771   26.4971 C   0  0  0  0  0  0  0  0  0  0  0  0
   -1.5799   -9.9322   18.3468 C   0  0  0  0  0  0  0  0  0  0  0  0
   -1.0871  -12.2214   17.8851 C   0  0  0  0  0  0  0  0  0  0  0  0
   -2.2706   -8.9669   19.0691 C   0  0  0  0  0  0  0  0  0  0  0  0
    3.0279   -5.3073   26.8197 C   0  0  0  0  0  0  0  0  0  0  0  0
    7.3282   -3.8948   29.1186 C   0  0  0  0  0  0  0  0  0  0  0  0
  1  3  4  0
  1  7  4  0
  2  3  1  0
  2  6  4  0
  2 16  4  0
  3 22  4  0
  4  9  4  0
  4 10  1  0
  4 20  4  0
  5 16  4  0
  5 23  4  0
  6 15  4  0
  7 12  4  0
  8 13  4  0
  8 14  4  0
  9 11  4  0
 11 14  4  0
 11 19  4  0
 12 18  4  0
 13 21  4  0
 15 23  4  0
 17 19  4  0
 17 20  4  0
 18 22  4  0
 19 21  4  0
M  END
$$$$

 Created by Python create_sdf_string function

 23 25  0  0  0  0  0  0  0  0999 V2000
    2.4610   -5.3070   29.1240 C   0  0  0  0  0  0  0  0  0  0  0  0
    4.7710   -4.6952   28.4803 C   0  0  0  0  0  0  0  0  0  0  0  0
    3.4047   -5.1087   28.1314 C   0  0  0  0  0  0  0  0  0  0  0  0
   -0.2234  -11.8615   16.8874 C   0  0  0  0  0  0  0  0  0  0  0  0
    6.4491   -4.1532   30.1213 C   0  0  0  0  0  0  0  0  0  0  0  0
    5.7060   -4.4340   27.4975 C   0  0  0  0  0  0  0  0  0  0  0  0
    1.1818   -5.6612   28.8399 C   0  0  0  0  0  0  0  0  0  0  0  0
   -1.2067   -7.3287   17.7772 C   0  0  0  0  0  0  0  0  0  0  0  0
   -0.0206  -10.5585   16.6210 C   0  0  0  0  0  0  0  0  0  0  0  0
    0.3696  -12.7626   16.2169 O   0  0  0  0  0  0  0  0  0  0  0  0
   -0.6895   -9.5676   17.3297 C   0  0  0  0  0  0  0  0  0  0  0  0
    0.8388   -5.8417   27.5264 C   0  0  0  0  0  0  0  0  0  0  0  0
   -2.0709   -7.6637   18.7817 C   0  0  0  0  0  0  0  0  0  0  0  0
   -0.5279   -8.2168   17.0717 C   0  0  0  0  0  0  0  0  0  0  0  0
    6.9694   -4.0191   27.8190 C   0  0  0  0  0  0  0  0  0  0  0  0
    5.1733   -4.5469   29.8123 C   0  0  0  0  0  0  0  0  0  0  0  0
   -1.7508  -11.3016   18.6072 C   0  0  0  0  0  0  0  0  0  0  0  0
    1.7497   -5.6771   26.4971 C   0  0  0  0  0  0  0  0  0  0  0  0
   -1.5799   -9.9322   18.3468 C   0  0  0  0  0  0  0  0  0  0  0  0
   -1.0871  -12.2214   17.8851 C   0  0  0  0  0  0  0  0  0  0  0  0
   -2.2706   -8.9669   19.0691 C   0  0  0  0  0  0  0  0  0  0  0  0
    3.0279   -5.3073   26.8197 C   0  0  0  0  0  0  0  0  0  0  0  0
    7.3282   -3.8948   29.1186 C   0  0  0  0  0  0  0  0  0  0  0  0
  1  3  4  0
  1  7  4  0
  2  3  1  0
  2  6  4  0
  2 16  4  0
  3 22  4  0
  4  9  4  0
  4 10  1  0
  4 20  4  0
  5 16  4  0
  5 23  4  0
  6 15  4  0
  7 12  4  0
  8 13  4  0
  8 14  4  0
  9 11  4  0
 11 14  4  0
 11 19  4  0
 12 18  4  0
 13 21  4  0
 15 23  4  0
 17 19  4  0
 17 20  4  0
 18 22  4  0
 19 21  4  0
M  END
$$$$

 Created by Python create_sdf_string function

 23 25  0  0  0  0  0  0  0  0999 V2000
    2.4610   -5.3070   29.1240 C   0  0  0  0  0  0  0  0  0  0  0  0
    4.7710   -4.6952   28.4803 C   0  0  0  0  0  0  0  0  0  0  0  0
    3.4047   -5.1087   28.1314 C   0  0  0  0  0  0  0  0  0  0  0  0
   -0.2234  -11.8615   16.8874 C   0  0  0  0  0  0  0  0  0  0  0  0
    6.4491   -4.1532   30.1213 C   0  0  0  0  0  0  0  0  0  0  0  0
    5.7060   -4.4340   27.4975 C   0  0  0  0  0  0  0  0  0  0  0  0
    1.1818   -5.6612   28.8399 C   0  0  0  0  0  0  0  0  0  0  0  0
   -1.2067   -7.3287   17.7772 C   0  0  0  0  0  0  0  0  0  0  0  0
   -0.0206  -10.5585   16.6210 C   0  0  0  0  0  0  0  0  0  0  0  0
    0.3696  -12.7626   16.2169 O   0  0  0  0  0  0  0  0  0  0  0  0
   -0.6895   -9.5676   17.3297 C   0  0  0  0  0  0  0  0  0  0  0  0
    0.8388   -5.8417   27.5264 C   0  0  0  0  0  0  0  0  0  0  0  0
   -2.0709   -7.6637   18.7817 C   0  0  0  0  0  0  0  0  0  0  0  0
   -0.5279   -8.2168   17.0717 C   0  0  0  0  0  0  0  0  0  0  0  0
    6.9694   -4.0191   27.8190 C   0  0  0  0  0  0  0  0  0  0  0  0
    5.1733   -4.5469   29.8123 C   0  0  0  0  0  0  0  0  0  0  0  0
   -1.7508  -11.3016   18.6072 C   0  0  0  0  0  0  0  0  0  0  0  0
    1.7497   -5.6771   26.4971 C   0  0  0  0  0  0  0  0  0  0  0  0
   -1.5799   -9.9322   18.3468 C   0  0  0  0  0  0  0  0  0  0  0  0
   -1.0871  -12.2214   17.8851 C   0  0  0  0  0  0  0  0  0  0  0  0
   -2.2706   -8.9669   19.0691 C   0  0  0  0  0  0  0  0  0  0  0  0
    3.0279   -5.3073   26.8197 C   0  0  0  0  0  0  0  0  0  0  0  0
    7.3282   -3.8948   29.1186 C   0  0  0  0  0  0  0  0  0  0  0  0
  1  3  4  0
  1  7  4  0
  2  3  1  0
  2  6  4  0
  2 16  4  0
  3 22  4  0
  4  9  4  0
  4 10  1  0
  4 20  4  0
  5 16  4  0
  5 23  4  0
  6 15  4  0
  7 12  4  0
  8 13  4  0
  8 14  4  0
  9 11  4  0
 11 14  4  0
 11 19  4  0
 12 18  4  0
 13 21  4  0
 15 23  4  0
 17 19  4  0
 17 20  4  0
 18 22  4  0
 19 21  4  0
M  END
$$$$

 Created by Python create_sdf_string function

 23 25  0  0  0  0  0  0  0  0999 V2000
    2.4610   -5.3070   29.1240 C   0  0  0  0  0  0  0  0  0  0  0  0
    4.7710   -4.6952   28.4803 C   0  0  0  0  0  0  0  0  0  0  0  0
    3.4047   -5.1087   28.1314 C   0  0  0  0  0  0  0  0  0  0  0  0
   -0.2234  -11.8615   16.8874 C   0  0  0  0  0  0  0  0  0  0  0  0
    6.4491   -4.1532   30.1213 C   0  0  0  0  0  0  0  0  0  0  0  0
    5.7060   -4.4340   27.4975 C   0  0  0  0  0  0  0  0  0  0  0  0
    1.1818   -5.6612   28.8399 C   0  0  0  0  0  0  0  0  0  0  0  0
   -1.2067   -7.3287   17.7772 C   0  0  0  0  0  0  0  0  0  0  0  0
   -0.0206  -10.5585   16.6210 C   0  0  0  0  0  0  0  0  0  0  0  0
    0.3696  -12.7626   16.2169 O   0  0  0  0  0  0  0  0  0  0  0  0
   -0.6895   -9.5676   17.3297 C   0  0  0  0  0  0  0  0  0  0  0  0
    0.8388   -5.8417   27.5264 C   0  0  0  0  0  0  0  0  0  0  0  0
   -2.0709   -7.6637   18.7817 C   0  0  0  0  0  0  0  0  0  0  0  0
   -0.5279   -8.2168   17.0717 C   0  0  0  0  0  0  0  0  0  0  0  0
    6.9694   -4.0191   27.8190 C   0  0  0  0  0  0  0  0  0  0  0  0
    5.1733   -4.5469   29.8123 C   0  0  0  0  0  0  0  0  0  0  0  0
   -1.7508  -11.3016   18.6072 C   0  0  0  0  0  0  0  0  0  0  0  0
    1.7497   -5.6771   26.4971 C   0  0  0  0  0  0  0  0  0  0  0  0
   -1.5799   -9.9322   18.3468 C   0  0  0  0  0  0  0  0  0  0  0  0
   -1.0871  -12.2214   17.8851 C   0  0  0  0  0  0  0  0  0  0  0  0
   -2.2706   -8.9669   19.0691 C   0  0  0  0  0  0  0  0  0  0  0  0
    3.0279   -5.3073   26.8197 C   0  0  0  0  0  0  0  0  0  0  0  0
    7.3282   -3.8948   29.1186 C   0  0  0  0  0  0  0  0  0  0  0  0
  1  3  4  0
  1  7  4  0
  2  3  1  0
  2  6  4  0
  2 16  4  0
  3 22  4  0
  4  9  4  0
  4 10  1  0
  4 20  4  0
  5 16  4  0
  5 23  4  0
  6 15  4  0
  7 12  4  0
  8 13  4  0
  8 14  4  0
  9 11  4  0
 11 14  4  0
 11 19  4  0
 12 18  4  0
 13 21  4  0
 15 23  4  0
 17 19  4  0
 17 20  4  0
 18 22  4  0
 19 21  4  0
M  END
$$$$

 Created by Python create_sdf_string function

 23 25  0  0  0  0  0  0  0  0999 V2000
    2.4610   -5.3070   29.1240 C   0  0  0  0  0  0  0  0  0  0  0  0
    4.7710   -4.6952   28.4803 C   0  0  0  0  0  0  0  0  0  0  0  0
    3.4047   -5.1087   28.1314 C   0  0  0  0  0  0  0  0  0  0  0  0
   -0.2234  -11.8615   16.8874 C   0  0  0  0  0  0  0  0  0  0  0  0
    6.4491   -4.1532   30.1213 C   0  0  0  0  0  0  0  0  0  0  0  0
    5.7060   -4.4340   27.4975 C   0  0  0  0  0  0  0  0  0  0  0  0
    1.1818   -5.6612   28.8399 C   0  0  0  0  0  0  0  0  0  0  0  0
   -1.2067   -7.3287   17.7772 C   0  0  0  0  0  0  0  0  0  0  0  0
   -0.0206  -10.5585   16.6210 C   0  0  0  0  0  0  0  0  0  0  0  0
    0.3696  -12.7626   16.2169 O   0  0  0  0  0  0  0  0  0  0  0  0
   -0.6895   -9.5676   17.3297 C   0  0  0  0  0  0  0  0  0  0  0  0
    0.8388   -5.8417   27.5264 C   0  0  0  0  0  0  0  0  0  0  0  0
   -2.0709   -7.6637   18.7817 C   0  0  0  0  0  0  0  0  0  0  0  0
   -0.5279   -8.2168   17.0717 C   0  0  0  0  0  0  0  0  0  0  0  0
    6.9694   -4.0191   27.8190 C   0  0  0  0  0  0  0  0  0  0  0  0
    5.1733   -4.5469   29.8123 C   0  0  0  0  0  0  0  0  0  0  0  0
   -1.7508  -11.3016   18.6072 C   0  0  0  0  0  0  0  0  0  0  0  0
    1.7497   -5.6771   26.4971 C   0  0  0  0  0  0  0  0  0  0  0  0
   -1.5799   -9.9322   18.3468 C   0  0  0  0  0  0  0  0  0  0  0  0
   -1.0871  -12.2214   17.8851 C   0  0  0  0  0  0  0  0  0  0  0  0
   -2.2706   -8.9669   19.0691 C   0  0  0  0  0  0  0  0  0  0  0  0
    3.0279   -5.3073   26.8197 C   0  0  0  0  0  0  0  0  0  0  0  0
    7.3282   -3.8948   29.1186 C   0  0  0  0  0  0  0  0  0  0  0  0
  1  3  4  0
  1  7  4  0
  2  3  1  0
  2  6  4  0
  2 16  4  0
  3 22  4  0
  4  9  4  0
  4 10  1  0
  4 20  4  0
  5 16  4  0
  5 23  4  0
  6 15  4  0
  7 12  4  0
  8 13  4  0
  8 14  4  0
  9 11  4  0
 11 14  4  0
 11 19  4  0
 12 18  4  0
 13 21  4  0
 15 23  4  0
 17 19  4  0
 17 20  4  0
 18 22  4  0
 19 21  4  0
M  END
$$$$

 Created by Python create_sdf_string function

 23 25  0  0  0  0  0  0  0  0999 V2000
    2.4610   -5.3070   29.1240 C   0  0  0  0  0  0  0  0  0  0  0  0
    4.7710   -4.6952   28.4803 C   0  0  0  0  0  0  0  0  0  0  0  0
    3.4047   -5.1087   28.1314 C   0  0  0  0  0  0  0  0  0  0  0  0
   -0.2234  -11.8615   16.8874 C   0  0  0  0  0  0  0  0  0  0  0  0
    6.4491   -4.1532   30.1213 C   0  0  0  0  0  0  0  0  0  0  0  0
    5.7060   -4.4340   27.4975 C   0  0  0  0  0  0  0  0  0  0  0  0
    1.1818   -5.6612   28.8399 C   0  0  0  0  0  0  0  0  0  0  0  0
   -1.2067   -7.3287   17.7772 C   0  0  0  0  0  0  0  0  0  0  0  0
   -0.0206  -10.5585   16.6210 C   0  0  0  0  0  0  0  0  0  0  0  0
    0.3696  -12.7626   16.2169 O   0  0  0  0  0  0  0  0  0  0  0  0
   -0.6895   -9.5676   17.3297 C   0  0  0  0  0  0  0  0  0  0  0  0
    0.8388   -5.8417   27.5264 C   0  0  0  0  0  0  0  0  0  0  0  0
   -2.0709   -7.6637   18.7817 C   0  0  0  0  0  0  0  0  0  0  0  0
   -0.5279   -8.2168   17.0717 C   0  0  0  0  0  0  0  0  0  0  0  0
    6.9694   -4.0191   27.8190 C   0  0  0  0  0  0  0  0  0  0  0  0
    5.1733   -4.5469   29.8123 C   0  0  0  0  0  0  0  0  0  0  0  0
   -1.7508  -11.3016   18.6072 C   0  0  0  0  0  0  0  0  0  0  0  0
    1.7497   -5.6771   26.4971 C   0  0  0  0  0  0  0  0  0  0  0  0
   -1.5799   -9.9322   18.3468 C   0  0  0  0  0  0  0  0  0  0  0  0
   -1.0871  -12.2214   17.8851 C   0  0  0  0  0  0  0  0  0  0  0  0
   -2.2706   -8.9669   19.0691 C   0  0  0  0  0  0  0  0  0  0  0  0
    3.0279   -5.3073   26.8197 C   0  0  0  0  0  0  0  0  0  0  0  0
    7.3282   -3.8948   29.1186 C   0  0  0  0  0  0  0  0  0  0  0  0
  1  3  4  0
  1  7  4  0
  2  3  1  0
  2  6  4  0
  2 16  4  0
  3 22  4  0
  4  9  4  0
  4 10  1  0
  4 20  4  0
  5 16  4  0
  5 23  4  0
  6 15  4  0
  7 12  4  0
  8 13  4  0
  8 14  4  0
  9 11  4  0
 11 14  4  0
 11 19  4  0
 12 18  4  0
 13 21  4  0
 15 23  4  0
 17 19  4  0
 17 20  4  0
 18 22  4  0
 19 21  4  0
M  END
$$$$

 Created by Python create_sdf_string function

 23 25  0  0  0  0  0  0  0  0999 V2000
    2.4610   -5.3070   29.1240 C   0  0  0  0  0  0  0  0  0  0  0  0
    4.7710   -4.6952   28.4803 C   0  0  0  0  0  0  0  0  0  0  0  0
    3.4047   -5.1087   28.1314 C   0  0  0  0  0  0  0  0  0  0  0  0
   -0.2234  -11.8615   16.8874 C   0  0  0  0  0  0  0  0  0  0  0  0
    6.4491   -4.1532   30.1213 C   0  0  0  0  0  0  0  0  0  0  0  0
    5.7060   -4.4340   27.4975 C   0  0  0  0  0  0  0  0  0  0  0  0
    1.1818   -5.6612   28.8399 C   0  0  0  0  0  0  0  0  0  0  0  0
   -1.2067   -7.3287   17.7772 C   0  0  0  0  0  0  0  0  0  0  0  0
   -0.0206  -10.5585   16.6210 C   0  0  0  0  0  0  0  0  0  0  0  0
    0.3696  -12.7626   16.2169 O   0  0  0  0  0  0  0  0  0  0  0  0
   -0.6895   -9.5676   17.3297 C   0  0  0  0  0  0  0  0  0  0  0  0
    0.8388   -5.8417   27.5264 C   0  0  0  0  0  0  0  0  0  0  0  0
   -2.0709   -7.6637   18.7817 C   0  0  0  0  0  0  0  0  0  0  0  0
   -0.5279   -8.2168   17.0717 C   0  0  0  0  0  0  0  0  0  0  0  0
    6.9694   -4.0191   27.8190 C   0  0  0  0  0  0  0  0  0  0  0  0
    5.1733   -4.5469   29.8123 C   0  0  0  0  0  0  0  0  0  0  0  0
   -1.7508  -11.3016   18.6072 C   0  0  0  0  0  0  0  0  0  0  0  0
    1.7497   -5.6771   26.4971 C   0  0  0  0  0  0  0  0  0  0  0  0
   -1.5799   -9.9322   18.3468 C   0  0  0  0  0  0  0  0  0  0  0  0
   -1.0871  -12.2214   17.8851 C   0  0  0  0  0  0  0  0  0  0  0  0
   -2.2706   -8.9669   19.0691 C   0  0  0  0  0  0  0  0  0  0  0  0
    3.0279   -5.3073   26.8197 C   0  0  0  0  0  0  0  0  0  0  0  0
    7.3282   -3.8948   29.1186 C   0  0  0  0  0  0  0  0  0  0  0  0
  1  3  4  0
  1  7  4  0
  2  3  1  0
  2  6  4  0
  2 16  4  0
  3 22  4  0
  4  9  4  0
  4 10  1  0
  4 20  4  0
  5 16  4  0
  5 23  4  0
  6 15  4  0
  7 12  4  0
  8 13  4  0
  8 14  4  0
  9 11  4  0
 11 14  4  0
 11 19  4  0
 12 18  4  0
 13 21  4  0
 15 23  4  0
 17 19  4  0
 17 20  4  0
 18 22  4  0
 19 21  4  0
M  END
$$$$

 Created by Python create_sdf_string function

 23 25  0  0  0  0  0  0  0  0999 V2000
    2.4610   -5.3070   29.1240 C   0  0  0  0  0  0  0  0  0  0  0  0
    4.7710   -4.6952   28.4803 C   0  0  0  0  0  0  0  0  0  0  0  0
    3.4047   -5.1087   28.1314 C   0  0  0  0  0  0  0  0  0  0  0  0
   -0.2234  -11.8615   16.8874 C   0  0  0  0  0  0  0  0  0  0  0  0
    6.4491   -4.1532   30.1213 C   0  0  0  0  0  0  0  0  0  0  0  0
    5.7060   -4.4340   27.4975 C   0  0  0  0  0  0  0  0  0  0  0  0
    1.1818   -5.6612   28.8399 C   0  0  0  0  0  0  0  0  0  0  0  0
   -1.2067   -7.3287   17.7772 C   0  0  0  0  0  0  0  0  0  0  0  0
   -0.0206  -10.5585   16.6210 C   0  0  0  0  0  0  0  0  0  0  0  0
    0.3696  -12.7626   16.2169 O   0  0  0  0  0  0  0  0  0  0  0  0
   -0.6895   -9.5676   17.3297 C   0  0  0  0  0  0  0  0  0  0  0  0
    0.8388   -5.8417   27.5264 C   0  0  0  0  0  0  0  0  0  0  0  0
   -2.0709   -7.6637   18.7817 C   0  0  0  0  0  0  0  0  0  0  0  0
   -0.5279   -8.2168   17.0717 C   0  0  0  0  0  0  0  0  0  0  0  0
    6.9694   -4.0191   27.8190 C   0  0  0  0  0  0  0  0  0  0  0  0
    5.1733   -4.5469   29.8123 C   0  0  0  0  0  0  0  0  0  0  0  0
   -1.7508  -11.3016   18.6072 C   0  0  0  0  0  0  0  0  0  0  0  0
    1.7497   -5.6771   26.4971 C   0  0  0  0  0  0  0  0  0  0  0  0
   -1.5799   -9.9322   18.3468 C   0  0  0  0  0  0  0  0  0  0  0  0
   -1.0871  -12.2214   17.8851 C   0  0  0  0  0  0  0  0  0  0  0  0
   -2.2706   -8.9669   19.0691 C   0  0  0  0  0  0  0  0  0  0  0  0
    3.0279   -5.3073   26.8197 C   0  0  0  0  0  0  0  0  0  0  0  0
    7.3282   -3.8948   29.1186 C   0  0  0  0  0  0  0  0  0  0  0  0
  1  3  4  0
  1  7  4  0
  2  3  1  0
  2  6  4  0
  2 16  4  0
  3 22  4  0
  4  9  4  0
  4 10  1  0
  4 20  4  0
  5 16  4  0
  5 23  4  0
  6 15  4  0
  7 12  4  0
  8 13  4  0
  8 14  4  0
  9 11  4  0
 11 14  4  0
 11 19  4  0
 12 18  4  0
 13 21  4  0
 15 23  4  0
 17 19  4  0
 17 20  4  0
 18 22  4  0
 19 21  4  0
M  END
$$$$

 Created by Python create_sdf_string function

 23 25  0  0  0  0  0  0  0  0999 V2000
    2.4610   -5.3070   29.1240 C   0  0  0  0  0  0  0  0  0  0  0  0
    4.7710   -4.6952   28.4803 C   0  0  0  0  0  0  0  0  0  0  0  0
    3.4047   -5.1087   28.1314 C   0  0  0  0  0  0  0  0  0  0  0  0
   -0.2234  -11.8615   16.8874 C   0  0  0  0  0  0  0  0  0  0  0  0
    6.4491   -4.1532   30.1213 C   0  0  0  0  0  0  0  0  0  0  0  0
    5.7060   -4.4340   27.4975 C   0  0  0  0  0  0  0  0  0  0  0  0
    1.1818   -5.6612   28.8399 C   0  0  0  0  0  0  0  0  0  0  0  0
   -1.2067   -7.3287   17.7772 C   0  0  0  0  0  0  0  0  0  0  0  0
   -0.0206  -10.5585   16.6210 C   0  0  0  0  0  0  0  0  0  0  0  0
    0.3696  -12.7626   16.2169 O   0  0  0  0  0  0  0  0  0  0  0  0
   -0.6895   -9.5676   17.3297 C   0  0  0  0  0  0  0  0  0  0  0  0
    0.8388   -5.8417   27.5264 C   0  0  0  0  0  0  0  0  0  0  0  0
   -2.0709   -7.6637   18.7817 C   0  0  0  0  0  0  0  0  0  0  0  0
   -0.5279   -8.2168   17.0717 C   0  0  0  0  0  0  0  0  0  0  0  0
    6.9694   -4.0191   27.8190 C   0  0  0  0  0  0  0  0  0  0  0  0
    5.1733   -4.5469   29.8123 C   0  0  0  0  0  0  0  0  0  0  0  0
   -1.7508  -11.3016   18.6072 C   0  0  0  0  0  0  0  0  0  0  0  0
    1.7497   -5.6771   26.4971 C   0  0  0  0  0  0  0  0  0  0  0  0
   -1.5799   -9.9322   18.3468 C   0  0  0  0  0  0  0  0  0  0  0  0
   -1.0871  -12.2214   17.8851 C   0  0  0  0  0  0  0  0  0  0  0  0
   -2.2706   -8.9669   19.0691 C   0  0  0  0  0  0  0  0  0  0  0  0
    3.0279   -5.3073   26.8197 C   0  0  0  0  0  0  0  0  0  0  0  0
    7.3282   -3.8948   29.1186 C   0  0  0  0  0  0  0  0  0  0  0  0
  1  3  4  0
  1  7  4  0
  2  3  1  0
  2  6  4  0
  2 16  4  0
  3 22  4  0
  4  9  4  0
  4 10  1  0
  4 20  4  0
  5 16  4  0
  5 23  4  0
  6 15  4  0
  7 12  4  0
  8 13  4  0
  8 14  4  0
  9 11  4  0
 11 14  4  0
 11 19  4  0
 12 18  4  0
 13 21  4  0
 15 23  4  0
 17 19  4  0
 17 20  4  0
 18 22  4  0
 19 21  4  0
M  END
$$$$

 Created by Python create_sdf_string function

 23 25  0  0  0  0  0  0  0  0999 V2000
    2.4610   -5.3070   29.1240 C   0  0  0  0  0  0  0  0  0  0  0  0
    4.7710   -4.6952   28.4803 C   0  0  0  0  0  0  0  0  0  0  0  0
    3.4047   -5.1087   28.1314 C   0  0  0  0  0  0  0  0  0  0  0  0
   -0.2234  -11.8615   16.8874 C   0  0  0  0  0  0  0  0  0  0  0  0
    6.4491   -4.1532   30.1213 C   0  0  0  0  0  0  0  0  0  0  0  0
    5.7060   -4.4340   27.4975 C   0  0  0  0  0  0  0  0  0  0  0  0
    1.1818   -5.6612   28.8399 C   0  0  0  0  0  0  0  0  0  0  0  0
   -1.2067   -7.3287   17.7772 C   0  0  0  0  0  0  0  0  0  0  0  0
   -0.0206  -10.5585   16.6210 C   0  0  0  0  0  0  0  0  0  0  0  0
    0.3696  -12.7626   16.2169 O   0  0  0  0  0  0  0  0  0  0  0  0
   -0.6895   -9.5676   17.3297 C   0  0  0  0  0  0  0  0  0  0  0  0
    0.8388   -5.8417   27.5264 C   0  0  0  0  0  0  0  0  0  0  0  0
   -2.0709   -7.6637   18.7817 C   0  0  0  0  0  0  0  0  0  0  0  0
   -0.5279   -8.2168   17.0717 C   0  0  0  0  0  0  0  0  0  0  0  0
    6.9694   -4.0191   27.8190 C   0  0  0  0  0  0  0  0  0  0  0  0
    5.1733   -4.5469   29.8123 C   0  0  0  0  0  0  0  0  0  0  0  0
   -1.7508  -11.3016   18.6072 C   0  0  0  0  0  0  0  0  0  0  0  0
    1.7497   -5.6771   26.4971 C   0  0  0  0  0  0  0  0  0  0  0  0
   -1.5799   -9.9322   18.3468 C   0  0  0  0  0  0  0  0  0  0  0  0
   -1.0871  -12.2214   17.8851 C   0  0  0  0  0  0  0  0  0  0  0  0
   -2.2706   -8.9669   19.0691 C   0  0  0  0  0  0  0  0  0  0  0  0
    3.0279   -5.3073   26.8197 C   0  0  0  0  0  0  0  0  0  0  0  0
    7.3282   -3.8948   29.1186 C   0  0  0  0  0  0  0  0  0  0  0  0
  1  3  4  0
  1  7  4  0
  2  3  1  0
  2  6  4  0
  2 16  4  0
  3 22  4  0
  4  9  4  0
  4 10  1  0
  4 20  4  0
  5 16  4  0
  5 23  4  0
  6 15  4  0
  7 12  4  0
  8 13  4  0
  8 14  4  0
  9 11  4  0
 11 14  4  0
 11 19  4  0
 12 18  4  0
 13 21  4  0
 15 23  4  0
 17 19  4  0
 17 20  4  0
 18 22  4  0
 19 21  4  0
M  END
$$$$

 Created by Python create_sdf_string function

 23 25  0  0  0  0  0  0  0  0999 V2000
    2.4610   -5.3070   29.1240 C   0  0  0  0  0  0  0  0  0  0  0  0
    4.7710   -4.6952   28.4803 C   0  0  0  0  0  0  0  0  0  0  0  0
    3.4047   -5.1087   28.1314 C   0  0  0  0  0  0  0  0  0  0  0  0
   -0.2234  -11.8615   16.8874 C   0  0  0  0  0  0  0  0  0  0  0  0
    6.4491   -4.1532   30.1213 C   0  0  0  0  0  0  0  0  0  0  0  0
    5.7060   -4.4340   27.4975 C   0  0  0  0  0  0  0  0  0  0  0  0
    1.1818   -5.6612   28.8399 C   0  0  0  0  0  0  0  0  0  0  0  0
   -1.2067   -7.3287   17.7772 C   0  0  0  0  0  0  0  0  0  0  0  0
   -0.0206  -10.5585   16.6210 C   0  0  0  0  0  0  0  0  0  0  0  0
    0.3696  -12.7626   16.2169 O   0  0  0  0  0  0  0  0  0  0  0  0
   -0.6895   -9.5676   17.3297 C   0  0  0  0  0  0  0  0  0  0  0  0
    0.8388   -5.8417   27.5264 C   0  0  0  0  0  0  0  0  0  0  0  0
   -2.0709   -7.6637   18.7817 C   0  0  0  0  0  0  0  0  0  0  0  0
   -0.5279   -8.2168   17.0717 C   0  0  0  0  0  0  0  0  0  0  0  0
    6.9694   -4.0191   27.8190 C   0  0  0  0  0  0  0  0  0  0  0  0
    5.1733   -4.5469   29.8123 C   0  0  0  0  0  0  0  0  0  0  0  0
   -1.7508  -11.3016   18.6072 C   0  0  0  0  0  0  0  0  0  0  0  0
    1.7497   -5.6771   26.4971 C   0  0  0  0  0  0  0  0  0  0  0  0
   -1.5799   -9.9322   18.3468 C   0  0  0  0  0  0  0  0  0  0  0  0
   -1.0871  -12.2214   17.8851 C   0  0  0  0  0  0  0  0  0  0  0  0
   -2.2706   -8.9669   19.0691 C   0  0  0  0  0  0  0  0  0  0  0  0
    3.0279   -5.3073   26.8197 C   0  0  0  0  0  0  0  0  0  0  0  0
    7.3282   -3.8948   29.1186 C   0  0  0  0  0  0  0  0  0  0  0  0
  1  3  4  0
  1  7  4  0
  2  3  1  0
  2  6  4  0
  2 16  4  0
  3 22  4  0
  4  9  4  0
  4 10  1  0
  4 20  4  0
  5 16  4  0
  5 23  4  0
  6 15  4  0
  7 12  4  0
  8 13  4  0
  8 14  4  0
  9 11  4  0
 11 14  4  0
 11 19  4  0
 12 18  4  0
 13 21  4  0
 15 23  4  0
 17 19  4  0
 17 20  4  0
 18 22  4  0
 19 21  4  0
M  END
$$$$

 Created by Python create_sdf_string function

 23 25  0  0  0  0  0  0  0  0999 V2000
    2.4610   -5.3070   29.1240 C   0  0  0  0  0  0  0  0  0  0  0  0
    4.7710   -4.6952   28.4803 C   0  0  0  0  0  0  0  0  0  0  0  0
    3.4047   -5.1087   28.1314 C   0  0  0  0  0  0  0  0  0  0  0  0
   -0.2234  -11.8615   16.8874 C   0  0  0  0  0  0  0  0  0  0  0  0
    6.4491   -4.1532   30.1213 C   0  0  0  0  0  0  0  0  0  0  0  0
    5.7060   -4.4340   27.4975 C   0  0  0  0  0  0  0  0  0  0  0  0
    1.1818   -5.6612   28.8399 C   0  0  0  0  0  0  0  0  0  0  0  0
   -1.2067   -7.3287   17.7772 C   0  0  0  0  0  0  0  0  0  0  0  0
   -0.0206  -10.5585   16.6210 C   0  0  0  0  0  0  0  0  0  0  0  0
    0.3696  -12.7626   16.2169 O   0  0  0  0  0  0  0  0  0  0  0  0
   -0.6895   -9.5676   17.3297 C   0  0  0  0  0  0  0  0  0  0  0  0
    0.8388   -5.8417   27.5264 C   0  0  0  0  0  0  0  0  0  0  0  0
   -2.0709   -7.6637   18.7817 C   0  0  0  0  0  0  0  0  0  0  0  0
   -0.5279   -8.2168   17.0717 C   0  0  0  0  0  0  0  0  0  0  0  0
    6.9694   -4.0191   27.8190 C   0  0  0  0  0  0  0  0  0  0  0  0
    5.1733   -4.5469   29.8123 C   0  0  0  0  0  0  0  0  0  0  0  0
   -1.7508  -11.3016   18.6072 C   0  0  0  0  0  0  0  0  0  0  0  0
    1.7497   -5.6771   26.4971 C   0  0  0  0  0  0  0  0  0  0  0  0
   -1.5799   -9.9322   18.3468 C   0  0  0  0  0  0  0  0  0  0  0  0
   -1.0871  -12.2214   17.8851 C   0  0  0  0  0  0  0  0  0  0  0  0
   -2.2706   -8.9669   19.0691 C   0  0  0  0  0  0  0  0  0  0  0  0
    3.0279   -5.3073   26.8197 C   0  0  0  0  0  0  0  0  0  0  0  0
    7.3282   -3.8948   29.1186 C   0  0  0  0  0  0  0  0  0  0  0  0
  1  3  4  0
  1  7  4  0
  2  3  1  0
  2  6  4  0
  2 16  4  0
  3 22  4  0
  4  9  4  0
  4 10  1  0
  4 20  4  0
  5 16  4  0
  5 23  4  0
  6 15  4  0
  7 12  4  0
  8 13  4  0
  8 14  4  0
  9 11  4  0
 11 14  4  0
 11 19  4  0
 12 18  4  0
 13 21  4  0
 15 23  4  0
 17 19  4  0
 17 20  4  0
 18 22  4  0
 19 21  4  0
M  END
$$$$

 Created by Python create_sdf_string function

 23 25  0  0  0  0  0  0  0  0999 V2000
    2.4610   -5.3070   29.1240 C   0  0  0  0  0  0  0  0  0  0  0  0
    4.7710   -4.6952   28.4803 C   0  0  0  0  0  0  0  0  0  0  0  0
    3.4047   -5.1087   28.1314 C   0  0  0  0  0  0  0  0  0  0  0  0
   -0.2234  -11.8615   16.8874 C   0  0  0  0  0  0  0  0  0  0  0  0
    6.4491   -4.1532   30.1213 C   0  0  0  0  0  0  0  0  0  0  0  0
    5.7060   -4.4340   27.4975 C   0  0  0  0  0  0  0  0  0  0  0  0
    1.1818   -5.6612   28.8399 C   0  0  0  0  0  0  0  0  0  0  0  0
   -1.2067   -7.3287   17.7772 C   0  0  0  0  0  0  0  0  0  0  0  0
   -0.0206  -10.5585   16.6210 C   0  0  0  0  0  0  0  0  0  0  0  0
    0.3696  -12.7626   16.2169 O   0  0  0  0  0  0  0  0  0  0  0  0
   -0.6895   -9.5676   17.3297 C   0  0  0  0  0  0  0  0  0  0  0  0
    0.8388   -5.8417   27.5264 C   0  0  0  0  0  0  0  0  0  0  0  0
   -2.0709   -7.6637   18.7817 C   0  0  0  0  0  0  0  0  0  0  0  0
   -0.5279   -8.2168   17.0717 C   0  0  0  0  0  0  0  0  0  0  0  0
    6.9694   -4.0191   27.8190 C   0  0  0  0  0  0  0  0  0  0  0  0
    5.1733   -4.5469   29.8123 C   0  0  0  0  0  0  0  0  0  0  0  0
   -1.7508  -11.3016   18.6072 C   0  0  0  0  0  0  0  0  0  0  0  0
    1.7497   -5.6771   26.4971 C   0  0  0  0  0  0  0  0  0  0  0  0
   -1.5799   -9.9322   18.3468 C   0  0  0  0  0  0  0  0  0  0  0  0
   -1.0871  -12.2214   17.8851 C   0  0  0  0  0  0  0  0  0  0  0  0
   -2.2706   -8.9669   19.0691 C   0  0  0  0  0  0  0  0  0  0  0  0
    3.0279   -5.3073   26.8197 C   0  0  0  0  0  0  0  0  0  0  0  0
    7.3282   -3.8948   29.1186 C   0  0  0  0  0  0  0  0  0  0  0  0
  1  3  4  0
  1  7  4  0
  2  3  1  0
  2  6  4  0
  2 16  4  0
  3 22  4  0
  4  9  4  0
  4 10  1  0
  4 20  4  0
  5 16  4  0
  5 23  4  0
  6 15  4  0
  7 12  4  0
  8 13  4  0
  8 14  4  0
  9 11  4  0
 11 14  4  0
 11 19  4  0
 12 18  4  0
 13 21  4  0
 15 23  4  0
 17 19  4  0
 17 20  4  0
 18 22  4  0
 19 21  4  0
M  END
$$$$

 Created by Python create_sdf_string function

 23 25  0  0  0  0  0  0  0  0999 V2000
    2.4610   -5.3070   29.1240 C   0  0  0  0  0  0  0  0  0  0  0  0
    4.7710   -4.6952   28.4803 C   0  0  0  0  0  0  0  0  0  0  0  0
    3.4047   -5.1087   28.1314 C   0  0  0  0  0  0  0  0  0  0  0  0
   -0.2234  -11.8615   16.8874 C   0  0  0  0  0  0  0  0  0  0  0  0
    6.4491   -4.1532   30.1213 C   0  0  0  0  0  0  0  0  0  0  0  0
    5.7060   -4.4340   27.4975 C   0  0  0  0  0  0  0  0  0  0  0  0
    1.1818   -5.6612   28.8399 C   0  0  0  0  0  0  0  0  0  0  0  0
   -1.2067   -7.3287   17.7772 C   0  0  0  0  0  0  0  0  0  0  0  0
   -0.0206  -10.5585   16.6210 C   0  0  0  0  0  0  0  0  0  0  0  0
    0.3696  -12.7626   16.2169 O   0  0  0  0  0  0  0  0  0  0  0  0
   -0.6895   -9.5676   17.3297 C   0  0  0  0  0  0  0  0  0  0  0  0
    0.8388   -5.8417   27.5264 C   0  0  0  0  0  0  0  0  0  0  0  0
   -2.0709   -7.6637   18.7817 C   0  0  0  0  0  0  0  0  0  0  0  0
   -0.5279   -8.2168   17.0717 C   0  0  0  0  0  0  0  0  0  0  0  0
    6.9694   -4.0191   27.8190 C   0  0  0  0  0  0  0  0  0  0  0  0
    5.1733   -4.5469   29.8123 C   0  0  0  0  0  0  0  0  0  0  0  0
   -1.7508  -11.3016   18.6072 C   0  0  0  0  0  0  0  0  0  0  0  0
    1.7497   -5.6771   26.4971 C   0  0  0  0  0  0  0  0  0  0  0  0
   -1.5799   -9.9322   18.3468 C   0  0  0  0  0  0  0  0  0  0  0  0
   -1.0871  -12.2214   17.8851 C   0  0  0  0  0  0  0  0  0  0  0  0
   -2.2706   -8.9669   19.0691 C   0  0  0  0  0  0  0  0  0  0  0  0
    3.0279   -5.3073   26.8197 C   0  0  0  0  0  0  0  0  0  0  0  0
    7.3282   -3.8948   29.1186 C   0  0  0  0  0  0  0  0  0  0  0  0
  1  3  4  0
  1  7  4  0
  2  3  1  0
  2  6  4  0
  2 16  4  0
  3 22  4  0
  4  9  4  0
  4 10  1  0
  4 20  4  0
  5 16  4  0
  5 23  4  0
  6 15  4  0
  7 12  4  0
  8 13  4  0
  8 14  4  0
  9 11  4  0
 11 14  4  0
 11 19  4  0
 12 18  4  0
 13 21  4  0
 15 23  4  0
 17 19  4  0
 17 20  4  0
 18 22  4  0
 19 21  4  0
M  END
$$$$

 Created by Python create_sdf_string function

 23 25  0  0  0  0  0  0  0  0999 V2000
    2.4610   -5.3070   29.1240 C   0  0  0  0  0  0  0  0  0  0  0  0
    4.7710   -4.6952   28.4803 C   0  0  0  0  0  0  0  0  0  0  0  0
    3.4047   -5.1087   28.1314 C   0  0  0  0  0  0  0  0  0  0  0  0
   -0.2234  -11.8615   16.8874 C   0  0  0  0  0  0  0  0  0  0  0  0
    6.4491   -4.1532   30.1213 C   0  0  0  0  0  0  0  0  0  0  0  0
    5.7060   -4.4340   27.4975 C   0  0  0  0  0  0  0  0  0  0  0  0
    1.1818   -5.6612   28.8399 C   0  0  0  0  0  0  0  0  0  0  0  0
   -1.2067   -7.3287   17.7772 C   0  0  0  0  0  0  0  0  0  0  0  0
   -0.0206  -10.5585   16.6210 C   0  0  0  0  0  0  0  0  0  0  0  0
    0.3696  -12.7626   16.2169 O   0  0  0  0  0  0  0  0  0  0  0  0
   -0.6895   -9.5676   17.3297 C   0  0  0  0  0  0  0  0  0  0  0  0
    0.8388   -5.8417   27.5264 C   0  0  0  0  0  0  0  0  0  0  0  0
   -2.0709   -7.6637   18.7817 C   0  0  0  0  0  0  0  0  0  0  0  0
   -0.5279   -8.2168   17.0717 C   0  0  0  0  0  0  0  0  0  0  0  0
    6.9694   -4.0191   27.8190 C   0  0  0  0  0  0  0  0  0  0  0  0
    5.1733   -4.5469   29.8123 C   0  0  0  0  0  0  0  0  0  0  0  0
   -1.7508  -11.3016   18.6072 C   0  0  0  0  0  0  0  0  0  0  0  0
    1.7497   -5.6771   26.4971 C   0  0  0  0  0  0  0  0  0  0  0  0
   -1.5799   -9.9322   18.3468 C   0  0  0  0  0  0  0  0  0  0  0  0
   -1.0871  -12.2214   17.8851 C   0  0  0  0  0  0  0  0  0  0  0  0
   -2.2706   -8.9669   19.0691 C   0  0  0  0  0  0  0  0  0  0  0  0
    3.0279   -5.3073   26.8197 C   0  0  0  0  0  0  0  0  0  0  0  0
    7.3282   -3.8948   29.1186 C   0  0  0  0  0  0  0  0  0  0  0  0
  1  3  4  0
  1  7  4  0
  2  3  1  0
  2  6  4  0
  2 16  4  0
  3 22  4  0
  4  9  4  0
  4 10  1  0
  4 20  4  0
  5 16  4  0
  5 23  4  0
  6 15  4  0
  7 12  4  0
  8 13  4  0
  8 14  4  0
  9 11  4  0
 11 14  4  0
 11 19  4  0
 12 18  4  0
 13 21  4  0
 15 23  4  0
 17 19  4  0
 17 20  4  0
 18 22  4  0
 19 21  4  0
M  END
$$$$

 Created by Python create_sdf_string function

 23 25  0  0  0  0  0  0  0  0999 V2000
    2.4610   -5.3070   29.1240 C   0  0  0  0  0  0  0  0  0  0  0  0
    4.7710   -4.6952   28.4803 C   0  0  0  0  0  0  0  0  0  0  0  0
    3.4047   -5.1087   28.1314 C   0  0  0  0  0  0  0  0  0  0  0  0
   -0.2234  -11.8615   16.8874 C   0  0  0  0  0  0  0  0  0  0  0  0
    6.4491   -4.1532   30.1213 C   0  0  0  0  0  0  0  0  0  0  0  0
    5.7060   -4.4340   27.4975 C   0  0  0  0  0  0  0  0  0  0  0  0
    1.1818   -5.6612   28.8399 C   0  0  0  0  0  0  0  0  0  0  0  0
   -1.2067   -7.3287   17.7772 C   0  0  0  0  0  0  0  0  0  0  0  0
   -0.0206  -10.5585   16.6210 C   0  0  0  0  0  0  0  0  0  0  0  0
    0.3696  -12.7626   16.2169 O   0  0  0  0  0  0  0  0  0  0  0  0
   -0.6895   -9.5676   17.3297 C   0  0  0  0  0  0  0  0  0  0  0  0
    0.8388   -5.8417   27.5264 C   0  0  0  0  0  0  0  0  0  0  0  0
   -2.0709   -7.6637   18.7817 C   0  0  0  0  0  0  0  0  0  0  0  0
   -0.5279   -8.2168   17.0717 C   0  0  0  0  0  0  0  0  0  0  0  0
    6.9694   -4.0191   27.8190 C   0  0  0  0  0  0  0  0  0  0  0  0
    5.1733   -4.5469   29.8123 C   0  0  0  0  0  0  0  0  0  0  0  0
   -1.7508  -11.3016   18.6072 C   0  0  0  0  0  0  0  0  0  0  0  0
    1.7497   -5.6771   26.4971 C   0  0  0  0  0  0  0  0  0  0  0  0
   -1.5799   -9.9322   18.3468 C   0  0  0  0  0  0  0  0  0  0  0  0
   -1.0871  -12.2214   17.8851 C   0  0  0  0  0  0  0  0  0  0  0  0
   -2.2706   -8.9669   19.0691 C   0  0  0  0  0  0  0  0  0  0  0  0
    3.0279   -5.3073   26.8197 C   0  0  0  0  0  0  0  0  0  0  0  0
    7.3282   -3.8948   29.1186 C   0  0  0  0  0  0  0  0  0  0  0  0
  1  3  4  0
  1  7  4  0
  2  3  1  0
  2  6  4  0
  2 16  4  0
  3 22  4  0
  4  9  4  0
  4 10  1  0
  4 20  4  0
  5 16  4  0
  5 23  4  0
  6 15  4  0
  7 12  4  0
  8 13  4  0
  8 14  4  0
  9 11  4  0
 11 14  4  0
 11 19  4  0
 12 18  4  0
 13 21  4  0
 15 23  4  0
 17 19  4  0
 17 20  4  0
 18 22  4  0
 19 21  4  0
M  END
$$$$

 Created by Python create_sdf_string function

 23 25  0  0  0  0  0  0  0  0999 V2000
    2.4610   -5.3070   29.1240 C   0  0  0  0  0  0  0  0  0  0  0  0
    4.7710   -4.6952   28.4803 C   0  0  0  0  0  0  0  0  0  0  0  0
    3.4047   -5.1087   28.1314 C   0  0  0  0  0  0  0  0  0  0  0  0
   -0.2234  -11.8615   16.8874 C   0  0  0  0  0  0  0  0  0  0  0  0
    6.4491   -4.1532   30.1213 C   0  0  0  0  0  0  0  0  0  0  0  0
    5.7060   -4.4340   27.4975 C   0  0  0  0  0  0  0  0  0  0  0  0
    1.1818   -5.6612   28.8399 C   0  0  0  0  0  0  0  0  0  0  0  0
   -1.2067   -7.3287   17.7772 C   0  0  0  0  0  0  0  0  0  0  0  0
   -0.0206  -10.5585   16.6210 C   0  0  0  0  0  0  0  0  0  0  0  0
    0.3696  -12.7626   16.2169 O   0  0  0  0  0  0  0  0  0  0  0  0
   -0.6895   -9.5676   17.3297 C   0  0  0  0  0  0  0  0  0  0  0  0
    0.8388   -5.8417   27.5264 C   0  0  0  0  0  0  0  0  0  0  0  0
   -2.0709   -7.6637   18.7817 C   0  0  0  0  0  0  0  0  0  0  0  0
   -0.5279   -8.2168   17.0717 C   0  0  0  0  0  0  0  0  0  0  0  0
    6.9694   -4.0191   27.8190 C   0  0  0  0  0  0  0  0  0  0  0  0
    5.1733   -4.5469   29.8123 C   0  0  0  0  0  0  0  0  0  0  0  0
   -1.7508  -11.3016   18.6072 C   0  0  0  0  0  0  0  0  0  0  0  0
    1.7497   -5.6771   26.4971 C   0  0  0  0  0  0  0  0  0  0  0  0
   -1.5799   -9.9322   18.3468 C   0  0  0  0  0  0  0  0  0  0  0  0
   -1.0871  -12.2214   17.8851 C   0  0  0  0  0  0  0  0  0  0  0  0
   -2.2706   -8.9669   19.0691 C   0  0  0  0  0  0  0  0  0  0  0  0
    3.0279   -5.3073   26.8197 C   0  0  0  0  0  0  0  0  0  0  0  0
    7.3282   -3.8948   29.1186 C   0  0  0  0  0  0  0  0  0  0  0  0
  1  3  4  0
  1  7  4  0
  2  3  1  0
  2  6  4  0
  2 16  4  0
  3 22  4  0
  4  9  4  0
  4 10  1  0
  4 20  4  0
  5 16  4  0
  5 23  4  0
  6 15  4  0
  7 12  4  0
  8 13  4  0
  8 14  4  0
  9 11  4  0
 11 14  4  0
 11 19  4  0
 12 18  4  0
 13 21  4  0
 15 23  4  0
 17 19  4  0
 17 20  4  0
 18 22  4  0
 19 21  4  0
M  END
$$$$

 Created by Python create_sdf_string function

 23 25  0  0  0  0  0  0  0  0999 V2000
    2.4610   -5.3070   29.1240 C   0  0  0  0  0  0  0  0  0  0  0  0
    4.7710   -4.6952   28.4803 C   0  0  0  0  0  0  0  0  0  0  0  0
    3.4047   -5.1087   28.1314 C   0  0  0  0  0  0  0  0  0  0  0  0
   -0.2234  -11.8615   16.8874 C   0  0  0  0  0  0  0  0  0  0  0  0
    6.4491   -4.1532   30.1213 C   0  0  0  0  0  0  0  0  0  0  0  0
    5.7060   -4.4340   27.4975 C   0  0  0  0  0  0  0  0  0  0  0  0
    1.1818   -5.6612   28.8399 C   0  0  0  0  0  0  0  0  0  0  0  0
   -1.2067   -7.3287   17.7772 C   0  0  0  0  0  0  0  0  0  0  0  0
   -0.0206  -10.5585   16.6210 C   0  0  0  0  0  0  0  0  0  0  0  0
    0.3696  -12.7626   16.2169 O   0  0  0  0  0  0  0  0  0  0  0  0
   -0.6895   -9.5676   17.3297 C   0  0  0  0  0  0  0  0  0  0  0  0
    0.8388   -5.8417   27.5264 C   0  0  0  0  0  0  0  0  0  0  0  0
   -2.0709   -7.6637   18.7817 C   0  0  0  0  0  0  0  0  0  0  0  0
   -0.5279   -8.2168   17.0717 C   0  0  0  0  0  0  0  0  0  0  0  0
    6.9694   -4.0191   27.8190 C   0  0  0  0  0  0  0  0  0  0  0  0
    5.1733   -4.5469   29.8123 C   0  0  0  0  0  0  0  0  0  0  0  0
   -1.7508  -11.3016   18.6072 C   0  0  0  0  0  0  0  0  0  0  0  0
    1.7497   -5.6771   26.4971 C   0  0  0  0  0  0  0  0  0  0  0  0
   -1.5799   -9.9322   18.3468 C   0  0  0  0  0  0  0  0  0  0  0  0
   -1.0871  -12.2214   17.8851 C   0  0  0  0  0  0  0  0  0  0  0  0
   -2.2706   -8.9669   19.0691 C   0  0  0  0  0  0  0  0  0  0  0  0
    3.0279   -5.3073   26.8197 C   0  0  0  0  0  0  0  0  0  0  0  0
    7.3282   -3.8948   29.1186 C   0  0  0  0  0  0  0  0  0  0  0  0
  1  3  4  0
  1  7  4  0
  2  3  1  0
  2  6  4  0
  2 16  4  0
  3 22  4  0
  4  9  4  0
  4 10  1  0
  4 20  4  0
  5 16  4  0
  5 23  4  0
  6 15  4  0
  7 12  4  0
  8 13  4  0
  8 14  4  0
  9 11  4  0
 11 14  4  0
 11 19  4  0
 12 18  4  0
 13 21  4  0
 15 23  4  0
 17 19  4  0
 17 20  4  0
 18 22  4  0
 19 21  4  0
M  END
$$$$

 Created by Python create_sdf_string function

 23 25  0  0  0  0  0  0  0  0999 V2000
    2.4610   -5.3070   29.1240 C   0  0  0  0  0  0  0  0  0  0  0  0
    4.7710   -4.6952   28.4803 C   0  0  0  0  0  0  0  0  0  0  0  0
    3.4047   -5.1087   28.1314 C   0  0  0  0  0  0  0  0  0  0  0  0
   -0.2234  -11.8615   16.8874 C   0  0  0  0  0  0  0  0  0  0  0  0
    6.4491   -4.1532   30.1213 C   0  0  0  0  0  0  0  0  0  0  0  0
    5.7060   -4.4340   27.4975 C   0  0  0  0  0  0  0  0  0  0  0  0
    1.1818   -5.6612   28.8399 C   0  0  0  0  0  0  0  0  0  0  0  0
   -1.2067   -7.3287   17.7772 C   0  0  0  0  0  0  0  0  0  0  0  0
   -0.0206  -10.5585   16.6210 C   0  0  0  0  0  0  0  0  0  0  0  0
    0.3696  -12.7626   16.2169 O   0  0  0  0  0  0  0  0  0  0  0  0
   -0.6895   -9.5676   17.3297 C   0  0  0  0  0  0  0  0  0  0  0  0
    0.8388   -5.8417   27.5264 C   0  0  0  0  0  0  0  0  0  0  0  0
   -2.0709   -7.6637   18.7817 C   0  0  0  0  0  0  0  0  0  0  0  0
   -0.5279   -8.2168   17.0717 C   0  0  0  0  0  0  0  0  0  0  0  0
    6.9694   -4.0191   27.8190 C   0  0  0  0  0  0  0  0  0  0  0  0
    5.1733   -4.5469   29.8123 C   0  0  0  0  0  0  0  0  0  0  0  0
   -1.7508  -11.3016   18.6072 C   0  0  0  0  0  0  0  0  0  0  0  0
    1.7497   -5.6771   26.4971 C   0  0  0  0  0  0  0  0  0  0  0  0
   -1.5799   -9.9322   18.3468 C   0  0  0  0  0  0  0  0  0  0  0  0
   -1.0871  -12.2214   17.8851 C   0  0  0  0  0  0  0  0  0  0  0  0
   -2.2706   -8.9669   19.0691 C   0  0  0  0  0  0  0  0  0  0  0  0
    3.0279   -5.3073   26.8197 C   0  0  0  0  0  0  0  0  0  0  0  0
    7.3282   -3.8948   29.1186 C   0  0  0  0  0  0  0  0  0  0  0  0
  1  3  4  0
  1  7  4  0
  2  3  1  0
  2  6  4  0
  2 16  4  0
  3 22  4  0
  4  9  4  0
  4 10  1  0
  4 20  4  0
  5 16  4  0
  5 23  4  0
  6 15  4  0
  7 12  4  0
  8 13  4  0
  8 14  4  0
  9 11  4  0
 11 14  4  0
 11 19  4  0
 12 18  4  0
 13 21  4  0
 15 23  4  0
 17 19  4  0
 17 20  4  0
 18 22  4  0
 19 21  4  0
M  END
$$$$

 Created by Python create_sdf_string function

 23 25  0  0  0  0  0  0  0  0999 V2000
    2.4610   -5.3070   29.1240 C   0  0  0  0  0  0  0  0  0  0  0  0
    4.7710   -4.6952   28.4803 C   0  0  0  0  0  0  0  0  0  0  0  0
    3.4047   -5.1087   28.1314 C   0  0  0  0  0  0  0  0  0  0  0  0
   -0.2234  -11.8615   16.8874 C   0  0  0  0  0  0  0  0  0  0  0  0
    6.4491   -4.1532   30.1213 C   0  0  0  0  0  0  0  0  0  0  0  0
    5.7060   -4.4340   27.4975 C   0  0  0  0  0  0  0  0  0  0  0  0
    1.1818   -5.6612   28.8399 C   0  0  0  0  0  0  0  0  0  0  0  0
   -1.2067   -7.3287   17.7772 C   0  0  0  0  0  0  0  0  0  0  0  0
   -0.0206  -10.5585   16.6210 C   0  0  0  0  0  0  0  0  0  0  0  0
    0.3696  -12.7626   16.2169 O   0  0  0  0  0  0  0  0  0  0  0  0
   -0.6895   -9.5676   17.3297 C   0  0  0  0  0  0  0  0  0  0  0  0
    0.8388   -5.8417   27.5264 C   0  0  0  0  0  0  0  0  0  0  0  0
   -2.0709   -7.6637   18.7817 C   0  0  0  0  0  0  0  0  0  0  0  0
   -0.5279   -8.2168   17.0717 C   0  0  0  0  0  0  0  0  0  0  0  0
    6.9694   -4.0191   27.8190 C   0  0  0  0  0  0  0  0  0  0  0  0
    5.1733   -4.5469   29.8123 C   0  0  0  0  0  0  0  0  0  0  0  0
   -1.7508  -11.3016   18.6072 C   0  0  0  0  0  0  0  0  0  0  0  0
    1.7497   -5.6771   26.4971 C   0  0  0  0  0  0  0  0  0  0  0  0
   -1.5799   -9.9322   18.3468 C   0  0  0  0  0  0  0  0  0  0  0  0
   -1.0871  -12.2214   17.8851 C   0  0  0  0  0  0  0  0  0  0  0  0
   -2.2706   -8.9669   19.0691 C   0  0  0  0  0  0  0  0  0  0  0  0
    3.0279   -5.3073   26.8197 C   0  0  0  0  0  0  0  0  0  0  0  0
    7.3282   -3.8948   29.1186 C   0  0  0  0  0  0  0  0  0  0  0  0
  1  3  4  0
  1  7  4  0
  2  3  1  0
  2  6  4  0
  2 16  4  0
  3 22  4  0
  4  9  4  0
  4 10  1  0
  4 20  4  0
  5 16  4  0
  5 23  4  0
  6 15  4  0
  7 12  4  0
  8 13  4  0
  8 14  4  0
  9 11  4  0
 11 14  4  0
 11 19  4  0
 12 18  4  0
 13 21  4  0
 15 23  4  0
 17 19  4  0
 17 20  4  0
 18 22  4  0
 19 21  4  0
M  END
$$$$

 Created by Python create_sdf_string function

 23 25  0  0  0  0  0  0  0  0999 V2000
    2.4610   -5.3070   29.1240 C   0  0  0  0  0  0  0  0  0  0  0  0
    4.7710   -4.6952   28.4803 C   0  0  0  0  0  0  0  0  0  0  0  0
    3.4047   -5.1087   28.1314 C   0  0  0  0  0  0  0  0  0  0  0  0
   -0.2234  -11.8615   16.8874 C   0  0  0  0  0  0  0  0  0  0  0  0
    6.4491   -4.1532   30.1213 C   0  0  0  0  0  0  0  0  0  0  0  0
    5.7060   -4.4340   27.4975 C   0  0  0  0  0  0  0  0  0  0  0  0
    1.1818   -5.6612   28.8399 C   0  0  0  0  0  0  0  0  0  0  0  0
   -1.2067   -7.3287   17.7772 C   0  0  0  0  0  0  0  0  0  0  0  0
   -0.0206  -10.5585   16.6210 C   0  0  0  0  0  0  0  0  0  0  0  0
    0.3696  -12.7626   16.2169 O   0  0  0  0  0  0  0  0  0  0  0  0
   -0.6895   -9.5676   17.3297 C   0  0  0  0  0  0  0  0  0  0  0  0
    0.8388   -5.8417   27.5264 C   0  0  0  0  0  0  0  0  0  0  0  0
   -2.0709   -7.6637   18.7817 C   0  0  0  0  0  0  0  0  0  0  0  0
   -0.5279   -8.2168   17.0717 C   0  0  0  0  0  0  0  0  0  0  0  0
    6.9694   -4.0191   27.8190 C   0  0  0  0  0  0  0  0  0  0  0  0
    5.1733   -4.5469   29.8123 C   0  0  0  0  0  0  0  0  0  0  0  0
   -1.7508  -11.3016   18.6072 C   0  0  0  0  0  0  0  0  0  0  0  0
    1.7497   -5.6771   26.4971 C   0  0  0  0  0  0  0  0  0  0  0  0
   -1.5799   -9.9322   18.3468 C   0  0  0  0  0  0  0  0  0  0  0  0
   -1.0871  -12.2214   17.8851 C   0  0  0  0  0  0  0  0  0  0  0  0
   -2.2706   -8.9669   19.0691 C   0  0  0  0  0  0  0  0  0  0  0  0
    3.0279   -5.3073   26.8197 C   0  0  0  0  0  0  0  0  0  0  0  0
    7.3282   -3.8948   29.1186 C   0  0  0  0  0  0  0  0  0  0  0  0
  1  3  4  0
  1  7  4  0
  2  3  1  0
  2  6  4  0
  2 16  4  0
  3 22  4  0
  4  9  4  0
  4 10  1  0
  4 20  4  0
  5 16  4  0
  5 23  4  0
  6 15  4  0
  7 12  4  0
  8 13  4  0
  8 14  4  0
  9 11  4  0
 11 14  4  0
 11 19  4  0
 12 18  4  0
 13 21  4  0
 15 23  4  0
 17 19  4  0
 17 20  4  0
 18 22  4  0
 19 21  4  0
M  END
$$$$

 Created by Python create_sdf_string function

 23 25  0  0  0  0  0  0  0  0999 V2000
    2.4610   -5.3070   29.1240 C   0  0  0  0  0  0  0  0  0  0  0  0
    4.7710   -4.6952   28.4803 C   0  0  0  0  0  0  0  0  0  0  0  0
    3.4047   -5.1087   28.1314 C   0  0  0  0  0  0  0  0  0  0  0  0
   -0.2234  -11.8615   16.8874 C   0  0  0  0  0  0  0  0  0  0  0  0
    6.4491   -4.1532   30.1213 C   0  0  0  0  0  0  0  0  0  0  0  0
    5.7060   -4.4340   27.4975 C   0  0  0  0  0  0  0  0  0  0  0  0
    1.1818   -5.6612   28.8399 C   0  0  0  0  0  0  0  0  0  0  0  0
   -1.2067   -7.3287   17.7772 C   0  0  0  0  0  0  0  0  0  0  0  0
   -0.0206  -10.5585   16.6210 C   0  0  0  0  0  0  0  0  0  0  0  0
    0.3696  -12.7626   16.2169 O   0  0  0  0  0  0  0  0  0  0  0  0
   -0.6895   -9.5676   17.3297 C   0  0  0  0  0  0  0  0  0  0  0  0
    0.8388   -5.8417   27.5264 C   0  0  0  0  0  0  0  0  0  0  0  0
   -2.0709   -7.6637   18.7817 C   0  0  0  0  0  0  0  0  0  0  0  0
   -0.5279   -8.2168   17.0717 C   0  0  0  0  0  0  0  0  0  0  0  0
    6.9694   -4.0191   27.8190 C   0  0  0  0  0  0  0  0  0  0  0  0
    5.1733   -4.5469   29.8123 C   0  0  0  0  0  0  0  0  0  0  0  0
   -1.7508  -11.3016   18.6072 C   0  0  0  0  0  0  0  0  0  0  0  0
    1.7497   -5.6771   26.4971 C   0  0  0  0  0  0  0  0  0  0  0  0
   -1.5799   -9.9322   18.3468 C   0  0  0  0  0  0  0  0  0  0  0  0
   -1.0871  -12.2214   17.8851 C   0  0  0  0  0  0  0  0  0  0  0  0
   -2.2706   -8.9669   19.0691 C   0  0  0  0  0  0  0  0  0  0  0  0
    3.0279   -5.3073   26.8197 C   0  0  0  0  0  0  0  0  0  0  0  0
    7.3282   -3.8948   29.1186 C   0  0  0  0  0  0  0  0  0  0  0  0
  1  3  4  0
  1  7  4  0
  2  3  1  0
  2  6  4  0
  2 16  4  0
  3 22  4  0
  4  9  4  0
  4 10  1  0
  4 20  4  0
  5 16  4  0
  5 23  4  0
  6 15  4  0
  7 12  4  0
  8 13  4  0
  8 14  4  0
  9 11  4  0
 11 14  4  0
 11 19  4  0
 12 18  4  0
 13 21  4  0
 15 23  4  0
 17 19  4  0
 17 20  4  0
 18 22  4  0
 19 21  4  0
M  END
$$$$

 Created by Python create_sdf_string function

 23 25  0  0  0  0  0  0  0  0999 V2000
    2.4610   -5.3070   29.1240 C   0  0  0  0  0  0  0  0  0  0  0  0
    4.7710   -4.6952   28.4803 C   0  0  0  0  0  0  0  0  0  0  0  0
    3.4047   -5.1087   28.1314 C   0  0  0  0  0  0  0  0  0  0  0  0
   -0.2234  -11.8615   16.8874 C   0  0  0  0  0  0  0  0  0  0  0  0
    6.4491   -4.1532   30.1213 C   0  0  0  0  0  0  0  0  0  0  0  0
    5.7060   -4.4340   27.4975 C   0  0  0  0  0  0  0  0  0  0  0  0
    1.1818   -5.6612   28.8399 C   0  0  0  0  0  0  0  0  0  0  0  0
   -1.2067   -7.3287   17.7772 C   0  0  0  0  0  0  0  0  0  0  0  0
   -0.0206  -10.5585   16.6210 C   0  0  0  0  0  0  0  0  0  0  0  0
    0.3696  -12.7626   16.2169 O   0  0  0  0  0  0  0  0  0  0  0  0
   -0.6895   -9.5676   17.3297 C   0  0  0  0  0  0  0  0  0  0  0  0
    0.8388   -5.8417   27.5264 C   0  0  0  0  0  0  0  0  0  0  0  0
   -2.0709   -7.6637   18.7817 C   0  0  0  0  0  0  0  0  0  0  0  0
   -0.5279   -8.2168   17.0717 C   0  0  0  0  0  0  0  0  0  0  0  0
    6.9694   -4.0191   27.8190 C   0  0  0  0  0  0  0  0  0  0  0  0
    5.1733   -4.5469   29.8123 C   0  0  0  0  0  0  0  0  0  0  0  0
   -1.7508  -11.3016   18.6072 C   0  0  0  0  0  0  0  0  0  0  0  0
    1.7497   -5.6771   26.4971 C   0  0  0  0  0  0  0  0  0  0  0  0
   -1.5799   -9.9322   18.3468 C   0  0  0  0  0  0  0  0  0  0  0  0
   -1.0871  -12.2214   17.8851 C   0  0  0  0  0  0  0  0  0  0  0  0
   -2.2706   -8.9669   19.0691 C   0  0  0  0  0  0  0  0  0  0  0  0
    3.0279   -5.3073   26.8197 C   0  0  0  0  0  0  0  0  0  0  0  0
    7.3282   -3.8948   29.1186 C   0  0  0  0  0  0  0  0  0  0  0  0
  1  3  4  0
  1  7  4  0
  2  3  1  0
  2  6  4  0
  2 16  4  0
  3 22  4  0
  4  9  4  0
  4 10  1  0
  4 20  4  0
  5 16  4  0
  5 23  4  0
  6 15  4  0
  7 12  4  0
  8 13  4  0
  8 14  4  0
  9 11  4  0
 11 14  4  0
 11 19  4  0
 12 18  4  0
 13 21  4  0
 15 23  4  0
 17 19  4  0
 17 20  4  0
 18 22  4  0
 19 21  4  0
M  END
$$$$

 Created by Python create_sdf_string function

 23 25  0  0  0  0  0  0  0  0999 V2000
    2.4610   -5.3070   29.1240 C   0  0  0  0  0  0  0  0  0  0  0  0
    4.7710   -4.6952   28.4803 C   0  0  0  0  0  0  0  0  0  0  0  0
    3.4047   -5.1087   28.1314 C   0  0  0  0  0  0  0  0  0  0  0  0
   -0.2234  -11.8615   16.8874 C   0  0  0  0  0  0  0  0  0  0  0  0
    6.4491   -4.1532   30.1213 C   0  0  0  0  0  0  0  0  0  0  0  0
    5.7060   -4.4340   27.4975 C   0  0  0  0  0  0  0  0  0  0  0  0
    1.1818   -5.6612   28.8399 C   0  0  0  0  0  0  0  0  0  0  0  0
   -1.2067   -7.3287   17.7772 C   0  0  0  0  0  0  0  0  0  0  0  0
   -0.0206  -10.5585   16.6210 C   0  0  0  0  0  0  0  0  0  0  0  0
    0.3696  -12.7626   16.2169 O   0  0  0  0  0  0  0  0  0  0  0  0
   -0.6895   -9.5676   17.3297 C   0  0  0  0  0  0  0  0  0  0  0  0
    0.8388   -5.8417   27.5264 C   0  0  0  0  0  0  0  0  0  0  0  0
   -2.0709   -7.6637   18.7817 C   0  0  0  0  0  0  0  0  0  0  0  0
   -0.5279   -8.2168   17.0717 C   0  0  0  0  0  0  0  0  0  0  0  0
    6.9694   -4.0191   27.8190 C   0  0  0  0  0  0  0  0  0  0  0  0
    5.1733   -4.5469   29.8123 C   0  0  0  0  0  0  0  0  0  0  0  0
   -1.7508  -11.3016   18.6072 C   0  0  0  0  0  0  0  0  0  0  0  0
    1.7497   -5.6771   26.4971 C   0  0  0  0  0  0  0  0  0  0  0  0
   -1.5799   -9.9322   18.3468 C   0  0  0  0  0  0  0  0  0  0  0  0
   -1.0871  -12.2214   17.8851 C   0  0  0  0  0  0  0  0  0  0  0  0
   -2.2706   -8.9669   19.0691 C   0  0  0  0  0  0  0  0  0  0  0  0
    3.0279   -5.3073   26.8197 C   0  0  0  0  0  0  0  0  0  0  0  0
    7.3282   -3.8948   29.1186 C   0  0  0  0  0  0  0  0  0  0  0  0
  1  3  4  0
  1  7  4  0
  2  3  1  0
  2  6  4  0
  2 16  4  0
  3 22  4  0
  4  9  4  0
  4 10  1  0
  4 20  4  0
  5 16  4  0
  5 23  4  0
  6 15  4  0
  7 12  4  0
  8 13  4  0
  8 14  4  0
  9 11  4  0
 11 14  4  0
 11 19  4  0
 12 18  4  0
 13 21  4  0
 15 23  4  0
 17 19  4  0
 17 20  4  0
 18 22  4  0
 19 21  4  0
M  END
$$$$

 Created by Python create_sdf_string function

 23 25  0  0  0  0  0  0  0  0999 V2000
    2.4610   -5.3070   29.1240 C   0  0  0  0  0  0  0  0  0  0  0  0
    4.7710   -4.6952   28.4803 C   0  0  0  0  0  0  0  0  0  0  0  0
    3.4047   -5.1087   28.1314 C   0  0  0  0  0  0  0  0  0  0  0  0
   -0.2234  -11.8615   16.8874 C   0  0  0  0  0  0  0  0  0  0  0  0
    6.4491   -4.1532   30.1213 C   0  0  0  0  0  0  0  0  0  0  0  0
    5.7060   -4.4340   27.4975 C   0  0  0  0  0  0  0  0  0  0  0  0
    1.1818   -5.6612   28.8399 C   0  0  0  0  0  0  0  0  0  0  0  0
   -1.2067   -7.3287   17.7772 C   0  0  0  0  0  0  0  0  0  0  0  0
   -0.0206  -10.5585   16.6210 C   0  0  0  0  0  0  0  0  0  0  0  0
    0.3696  -12.7626   16.2169 O   0  0  0  0  0  0  0  0  0  0  0  0
   -0.6895   -9.5676   17.3297 C   0  0  0  0  0  0  0  0  0  0  0  0
    0.8388   -5.8417   27.5264 C   0  0  0  0  0  0  0  0  0  0  0  0
   -2.0709   -7.6637   18.7817 C   0  0  0  0  0  0  0  0  0  0  0  0
   -0.5279   -8.2168   17.0717 C   0  0  0  0  0  0  0  0  0  0  0  0
    6.9694   -4.0191   27.8190 C   0  0  0  0  0  0  0  0  0  0  0  0
    5.1733   -4.5469   29.8123 C   0  0  0  0  0  0  0  0  0  0  0  0
   -1.7508  -11.3016   18.6072 C   0  0  0  0  0  0  0  0  0  0  0  0
    1.7497   -5.6771   26.4971 C   0  0  0  0  0  0  0  0  0  0  0  0
   -1.5799   -9.9322   18.3468 C   0  0  0  0  0  0  0  0  0  0  0  0
   -1.0871  -12.2214   17.8851 C   0  0  0  0  0  0  0  0  0  0  0  0
   -2.2706   -8.9669   19.0691 C   0  0  0  0  0  0  0  0  0  0  0  0
    3.0279   -5.3073   26.8197 C   0  0  0  0  0  0  0  0  0  0  0  0
    7.3282   -3.8948   29.1186 C   0  0  0  0  0  0  0  0  0  0  0  0
  1  3  4  0
  1  7  4  0
  2  3  1  0
  2  6  4  0
  2 16  4  0
  3 22  4  0
  4  9  4  0
  4 10  1  0
  4 20  4  0
  5 16  4  0
  5 23  4  0
  6 15  4  0
  7 12  4  0
  8 13  4  0
  8 14  4  0
  9 11  4  0
 11 14  4  0
 11 19  4  0
 12 18  4  0
 13 21  4  0
 15 23  4  0
 17 19  4  0
 17 20  4  0
 18 22  4  0
 19 21  4  0
M  END
$$$$

 Created by Python create_sdf_string function

 23 25  0  0  0  0  0  0  0  0999 V2000
    2.4610   -5.3070   29.1240 C   0  0  0  0  0  0  0  0  0  0  0  0
    4.7710   -4.6952   28.4803 C   0  0  0  0  0  0  0  0  0  0  0  0
    3.4047   -5.1087   28.1314 C   0  0  0  0  0  0  0  0  0  0  0  0
   -0.2234  -11.8615   16.8874 C   0  0  0  0  0  0  0  0  0  0  0  0
    6.4491   -4.1532   30.1213 C   0  0  0  0  0  0  0  0  0  0  0  0
    5.7060   -4.4340   27.4975 C   0  0  0  0  0  0  0  0  0  0  0  0
    1.1818   -5.6612   28.8399 C   0  0  0  0  0  0  0  0  0  0  0  0
   -1.2067   -7.3287   17.7772 C   0  0  0  0  0  0  0  0  0  0  0  0
   -0.0206  -10.5585   16.6210 C   0  0  0  0  0  0  0  0  0  0  0  0
    0.3696  -12.7626   16.2169 O   0  0  0  0  0  0  0  0  0  0  0  0
   -0.6895   -9.5676   17.3297 C   0  0  0  0  0  0  0  0  0  0  0  0
    0.8388   -5.8417   27.5264 C   0  0  0  0  0  0  0  0  0  0  0  0
   -2.0709   -7.6637   18.7817 C   0  0  0  0  0  0  0  0  0  0  0  0
   -0.5279   -8.2168   17.0717 C   0  0  0  0  0  0  0  0  0  0  0  0
    6.9694   -4.0191   27.8190 C   0  0  0  0  0  0  0  0  0  0  0  0
    5.1733   -4.5469   29.8123 C   0  0  0  0  0  0  0  0  0  0  0  0
   -1.7508  -11.3016   18.6072 C   0  0  0  0  0  0  0  0  0  0  0  0
    1.7497   -5.6771   26.4971 C   0  0  0  0  0  0  0  0  0  0  0  0
   -1.5799   -9.9322   18.3468 C   0  0  0  0  0  0  0  0  0  0  0  0
   -1.0871  -12.2214   17.8851 C   0  0  0  0  0  0  0  0  0  0  0  0
   -2.2706   -8.9669   19.0691 C   0  0  0  0  0  0  0  0  0  0  0  0
    3.0279   -5.3073   26.8197 C   0  0  0  0  0  0  0  0  0  0  0  0
    7.3282   -3.8948   29.1186 C   0  0  0  0  0  0  0  0  0  0  0  0
  1  3  4  0
  1  7  4  0
  2  3  1  0
  2  6  4  0
  2 16  4  0
  3 22  4  0
  4  9  4  0
  4 10  1  0
  4 20  4  0
  5 16  4  0
  5 23  4  0
  6 15  4  0
  7 12  4  0
  8 13  4  0
  8 14  4  0
  9 11  4  0
 11 14  4  0
 11 19  4  0
 12 18  4  0
 13 21  4  0
 15 23  4  0
 17 19  4  0
 17 20  4  0
 18 22  4  0
 19 21  4  0
M  END
$$$$

 Created by Python create_sdf_string function

 23 25  0  0  0  0  0  0  0  0999 V2000
    2.4610   -5.3070   29.1240 C   0  0  0  0  0  0  0  0  0  0  0  0
    4.7710   -4.6952   28.4803 C   0  0  0  0  0  0  0  0  0  0  0  0
    3.4047   -5.1087   28.1314 C   0  0  0  0  0  0  0  0  0  0  0  0
   -0.2234  -11.8615   16.8874 C   0  0  0  0  0  0  0  0  0  0  0  0
    6.4491   -4.1532   30.1213 C   0  0  0  0  0  0  0  0  0  0  0  0
    5.7060   -4.4340   27.4975 C   0  0  0  0  0  0  0  0  0  0  0  0
    1.1818   -5.6612   28.8399 C   0  0  0  0  0  0  0  0  0  0  0  0
   -1.2067   -7.3287   17.7772 C   0  0  0  0  0  0  0  0  0  0  0  0
   -0.0206  -10.5585   16.6210 C   0  0  0  0  0  0  0  0  0  0  0  0
    0.3696  -12.7626   16.2169 O   0  0  0  0  0  0  0  0  0  0  0  0
   -0.6895   -9.5676   17.3297 C   0  0  0  0  0  0  0  0  0  0  0  0
    0.8388   -5.8417   27.5264 C   0  0  0  0  0  0  0  0  0  0  0  0
   -2.0709   -7.6637   18.7817 C   0  0  0  0  0  0  0  0  0  0  0  0
   -0.5279   -8.2168   17.0717 C   0  0  0  0  0  0  0  0  0  0  0  0
    6.9694   -4.0191   27.8190 C   0  0  0  0  0  0  0  0  0  0  0  0
    5.1733   -4.5469   29.8123 C   0  0  0  0  0  0  0  0  0  0  0  0
   -1.7508  -11.3016   18.6072 C   0  0  0  0  0  0  0  0  0  0  0  0
    1.7497   -5.6771   26.4971 C   0  0  0  0  0  0  0  0  0  0  0  0
   -1.5799   -9.9322   18.3468 C   0  0  0  0  0  0  0  0  0  0  0  0
   -1.0871  -12.2214   17.8851 C   0  0  0  0  0  0  0  0  0  0  0  0
   -2.2706   -8.9669   19.0691 C   0  0  0  0  0  0  0  0  0  0  0  0
    3.0279   -5.3073   26.8197 C   0  0  0  0  0  0  0  0  0  0  0  0
    7.3282   -3.8948   29.1186 C   0  0  0  0  0  0  0  0  0  0  0  0
  1  3  4  0
  1  7  4  0
  2  3  1  0
  2  6  4  0
  2 16  4  0
  3 22  4  0
  4  9  4  0
  4 10  1  0
  4 20  4  0
  5 16  4  0
  5 23  4  0
  6 15  4  0
  7 12  4  0
  8 13  4  0
  8 14  4  0
  9 11  4  0
 11 14  4  0
 11 19  4  0
 12 18  4  0
 13 21  4  0
 15 23  4  0
 17 19  4  0
 17 20  4  0
 18 22  4  0
 19 21  4  0
M  END
$$$$

 Created by Python create_sdf_string function

 23 25  0  0  0  0  0  0  0  0999 V2000
    2.4610   -5.3070   29.1240 C   0  0  0  0  0  0  0  0  0  0  0  0
    4.7710   -4.6952   28.4803 C   0  0  0  0  0  0  0  0  0  0  0  0
    3.4047   -5.1087   28.1314 C   0  0  0  0  0  0  0  0  0  0  0  0
   -0.2234  -11.8615   16.8874 C   0  0  0  0  0  0  0  0  0  0  0  0
    6.4491   -4.1532   30.1213 C   0  0  0  0  0  0  0  0  0  0  0  0
    5.7060   -4.4340   27.4975 C   0  0  0  0  0  0  0  0  0  0  0  0
    1.1818   -5.6612   28.8399 C   0  0  0  0  0  0  0  0  0  0  0  0
   -1.2067   -7.3287   17.7772 C   0  0  0  0  0  0  0  0  0  0  0  0
   -0.0206  -10.5585   16.6210 C   0  0  0  0  0  0  0  0  0  0  0  0
    0.3696  -12.7626   16.2169 O   0  0  0  0  0  0  0  0  0  0  0  0
   -0.6895   -9.5676   17.3297 C   0  0  0  0  0  0  0  0  0  0  0  0
    0.8388   -5.8417   27.5264 C   0  0  0  0  0  0  0  0  0  0  0  0
   -2.0709   -7.6637   18.7817 C   0  0  0  0  0  0  0  0  0  0  0  0
   -0.5279   -8.2168   17.0717 C   0  0  0  0  0  0  0  0  0  0  0  0
    6.9694   -4.0191   27.8190 C   0  0  0  0  0  0  0  0  0  0  0  0
    5.1733   -4.5469   29.8123 C   0  0  0  0  0  0  0  0  0  0  0  0
   -1.7508  -11.3016   18.6072 C   0  0  0  0  0  0  0  0  0  0  0  0
    1.7497   -5.6771   26.4971 C   0  0  0  0  0  0  0  0  0  0  0  0
   -1.5799   -9.9322   18.3468 C   0  0  0  0  0  0  0  0  0  0  0  0
   -1.0871  -12.2214   17.8851 C   0  0  0  0  0  0  0  0  0  0  0  0
   -2.2706   -8.9669   19.0691 C   0  0  0  0  0  0  0  0  0  0  0  0
    3.0279   -5.3073   26.8197 C   0  0  0  0  0  0  0  0  0  0  0  0
    7.3282   -3.8948   29.1186 C   0  0  0  0  0  0  0  0  0  0  0  0
  1  3  4  0
  1  7  4  0
  2  3  1  0
  2  6  4  0
  2 16  4  0
  3 22  4  0
  4  9  4  0
  4 10  1  0
  4 20  4  0
  5 16  4  0
  5 23  4  0
  6 15  4  0
  7 12  4  0
  8 13  4  0
  8 14  4  0
  9 11  4  0
 11 14  4  0
 11 19  4  0
 12 18  4  0
 13 21  4  0
 15 23  4  0
 17 19  4  0
 17 20  4  0
 18 22  4  0
 19 21  4  0
M  END
$$$$

 Created by Python create_sdf_string function

 23 25  0  0  0  0  0  0  0  0999 V2000
    2.4610   -5.3070   29.1240 C   0  0  0  0  0  0  0  0  0  0  0  0
    4.7710   -4.6952   28.4803 C   0  0  0  0  0  0  0  0  0  0  0  0
    3.4047   -5.1087   28.1314 C   0  0  0  0  0  0  0  0  0  0  0  0
   -0.2234  -11.8615   16.8874 C   0  0  0  0  0  0  0  0  0  0  0  0
    6.4491   -4.1532   30.1213 C   0  0  0  0  0  0  0  0  0  0  0  0
    5.7060   -4.4340   27.4975 C   0  0  0  0  0  0  0  0  0  0  0  0
    1.1818   -5.6612   28.8399 C   0  0  0  0  0  0  0  0  0  0  0  0
   -1.2067   -7.3287   17.7772 C   0  0  0  0  0  0  0  0  0  0  0  0
   -0.0206  -10.5585   16.6210 C   0  0  0  0  0  0  0  0  0  0  0  0
    0.3696  -12.7626   16.2169 O   0  0  0  0  0  0  0  0  0  0  0  0
   -0.6895   -9.5676   17.3297 C   0  0  0  0  0  0  0  0  0  0  0  0
    0.8388   -5.8417   27.5264 C   0  0  0  0  0  0  0  0  0  0  0  0
   -2.0709   -7.6637   18.7817 C   0  0  0  0  0  0  0  0  0  0  0  0
   -0.5279   -8.2168   17.0717 C   0  0  0  0  0  0  0  0  0  0  0  0
    6.9694   -4.0191   27.8190 C   0  0  0  0  0  0  0  0  0  0  0  0
    5.1733   -4.5469   29.8123 C   0  0  0  0  0  0  0  0  0  0  0  0
   -1.7508  -11.3016   18.6072 C   0  0  0  0  0  0  0  0  0  0  0  0
    1.7497   -5.6771   26.4971 C   0  0  0  0  0  0  0  0  0  0  0  0
   -1.5799   -9.9322   18.3468 C   0  0  0  0  0  0  0  0  0  0  0  0
   -1.0871  -12.2214   17.8851 C   0  0  0  0  0  0  0  0  0  0  0  0
   -2.2706   -8.9669   19.0691 C   0  0  0  0  0  0  0  0  0  0  0  0
    3.0279   -5.3073   26.8197 C   0  0  0  0  0  0  0  0  0  0  0  0
    7.3282   -3.8948   29.1186 C   0  0  0  0  0  0  0  0  0  0  0  0
  1  3  4  0
  1  7  4  0
  2  3  1  0
  2  6  4  0
  2 16  4  0
  3 22  4  0
  4  9  4  0
  4 10  1  0
  4 20  4  0
  5 16  4  0
  5 23  4  0
  6 15  4  0
  7 12  4  0
  8 13  4  0
  8 14  4  0
  9 11  4  0
 11 14  4  0
 11 19  4  0
 12 18  4  0
 13 21  4  0
 15 23  4  0
 17 19  4  0
 17 20  4  0
 18 22  4  0
 19 21  4  0
M  END
$$$$

 Created by Python create_sdf_string function

 23 25  0  0  0  0  0  0  0  0999 V2000
    2.4610   -5.3070   29.1240 C   0  0  0  0  0  0  0  0  0  0  0  0
    4.7710   -4.6952   28.4803 C   0  0  0  0  0  0  0  0  0  0  0  0
    3.4047   -5.1087   28.1314 C   0  0  0  0  0  0  0  0  0  0  0  0
   -0.2234  -11.8615   16.8874 C   0  0  0  0  0  0  0  0  0  0  0  0
    6.4491   -4.1532   30.1213 C   0  0  0  0  0  0  0  0  0  0  0  0
    5.7060   -4.4340   27.4975 C   0  0  0  0  0  0  0  0  0  0  0  0
    1.1818   -5.6612   28.8399 C   0  0  0  0  0  0  0  0  0  0  0  0
   -1.2067   -7.3287   17.7772 C   0  0  0  0  0  0  0  0  0  0  0  0
   -0.0206  -10.5585   16.6210 C   0  0  0  0  0  0  0  0  0  0  0  0
    0.3696  -12.7626   16.2169 O   0  0  0  0  0  0  0  0  0  0  0  0
   -0.6895   -9.5676   17.3297 C   0  0  0  0  0  0  0  0  0  0  0  0
    0.8388   -5.8417   27.5264 C   0  0  0  0  0  0  0  0  0  0  0  0
   -2.0709   -7.6637   18.7817 C   0  0  0  0  0  0  0  0  0  0  0  0
   -0.5279   -8.2168   17.0717 C   0  0  0  0  0  0  0  0  0  0  0  0
    6.9694   -4.0191   27.8190 C   0  0  0  0  0  0  0  0  0  0  0  0
    5.1733   -4.5469   29.8123 C   0  0  0  0  0  0  0  0  0  0  0  0
   -1.7508  -11.3016   18.6072 C   0  0  0  0  0  0  0  0  0  0  0  0
    1.7497   -5.6771   26.4971 C   0  0  0  0  0  0  0  0  0  0  0  0
   -1.5799   -9.9322   18.3468 C   0  0  0  0  0  0  0  0  0  0  0  0
   -1.0871  -12.2214   17.8851 C   0  0  0  0  0  0  0  0  0  0  0  0
   -2.2706   -8.9669   19.0691 C   0  0  0  0  0  0  0  0  0  0  0  0
    3.0279   -5.3073   26.8197 C   0  0  0  0  0  0  0  0  0  0  0  0
    7.3282   -3.8948   29.1186 C   0  0  0  0  0  0  0  0  0  0  0  0
  1  3  4  0
  1  7  4  0
  2  3  1  0
  2  6  4  0
  2 16  4  0
  3 22  4  0
  4  9  4  0
  4 10  1  0
  4 20  4  0
  5 16  4  0
  5 23  4  0
  6 15  4  0
  7 12  4  0
  8 13  4  0
  8 14  4  0
  9 11  4  0
 11 14  4  0
 11 19  4  0
 12 18  4  0
 13 21  4  0
 15 23  4  0
 17 19  4  0
 17 20  4  0
 18 22  4  0
 19 21  4  0
M  END
$$$$

 Created by Python create_sdf_string function

 23 25  0  0  0  0  0  0  0  0999 V2000
    2.4610   -5.3070   29.1240 C   0  0  0  0  0  0  0  0  0  0  0  0
    4.7710   -4.6952   28.4803 C   0  0  0  0  0  0  0  0  0  0  0  0
    3.4047   -5.1087   28.1314 C   0  0  0  0  0  0  0  0  0  0  0  0
   -0.2234  -11.8615   16.8874 C   0  0  0  0  0  0  0  0  0  0  0  0
    6.4491   -4.1532   30.1213 C   0  0  0  0  0  0  0  0  0  0  0  0
    5.7060   -4.4340   27.4975 C   0  0  0  0  0  0  0  0  0  0  0  0
    1.1818   -5.6612   28.8399 C   0  0  0  0  0  0  0  0  0  0  0  0
   -1.2067   -7.3287   17.7772 C   0  0  0  0  0  0  0  0  0  0  0  0
   -0.0206  -10.5585   16.6210 C   0  0  0  0  0  0  0  0  0  0  0  0
    0.3696  -12.7626   16.2169 O   0  0  0  0  0  0  0  0  0  0  0  0
   -0.6895   -9.5676   17.3297 C   0  0  0  0  0  0  0  0  0  0  0  0
    0.8388   -5.8417   27.5264 C   0  0  0  0  0  0  0  0  0  0  0  0
   -2.0709   -7.6637   18.7817 C   0  0  0  0  0  0  0  0  0  0  0  0
   -0.5279   -8.2168   17.0717 C   0  0  0  0  0  0  0  0  0  0  0  0
    6.9694   -4.0191   27.8190 C   0  0  0  0  0  0  0  0  0  0  0  0
    5.1733   -4.5469   29.8123 C   0  0  0  0  0  0  0  0  0  0  0  0
   -1.7508  -11.3016   18.6072 C   0  0  0  0  0  0  0  0  0  0  0  0
    1.7497   -5.6771   26.4971 C   0  0  0  0  0  0  0  0  0  0  0  0
   -1.5799   -9.9322   18.3468 C   0  0  0  0  0  0  0  0  0  0  0  0
   -1.0871  -12.2214   17.8851 C   0  0  0  0  0  0  0  0  0  0  0  0
   -2.2706   -8.9669   19.0691 C   0  0  0  0  0  0  0  0  0  0  0  0
    3.0279   -5.3073   26.8197 C   0  0  0  0  0  0  0  0  0  0  0  0
    7.3282   -3.8948   29.1186 C   0  0  0  0  0  0  0  0  0  0  0  0
  1  3  4  0
  1  7  4  0
  2  3  1  0
  2  6  4  0
  2 16  4  0
  3 22  4  0
  4  9  4  0
  4 10  1  0
  4 20  4  0
  5 16  4  0
  5 23  4  0
  6 15  4  0
  7 12  4  0
  8 13  4  0
  8 14  4  0
  9 11  4  0
 11 14  4  0
 11 19  4  0
 12 18  4  0
 13 21  4  0
 15 23  4  0
 17 19  4  0
 17 20  4  0
 18 22  4  0
 19 21  4  0
M  END
$$$$

 Created by Python create_sdf_string function

 23 25  0  0  0  0  0  0  0  0999 V2000
    2.4610   -5.3070   29.1240 C   0  0  0  0  0  0  0  0  0  0  0  0
    4.7710   -4.6952   28.4803 C   0  0  0  0  0  0  0  0  0  0  0  0
    3.4047   -5.1087   28.1314 C   0  0  0  0  0  0  0  0  0  0  0  0
   -0.2234  -11.8615   16.8874 C   0  0  0  0  0  0  0  0  0  0  0  0
    6.4491   -4.1532   30.1213 C   0  0  0  0  0  0  0  0  0  0  0  0
    5.7060   -4.4340   27.4975 C   0  0  0  0  0  0  0  0  0  0  0  0
    1.1818   -5.6612   28.8399 C   0  0  0  0  0  0  0  0  0  0  0  0
   -1.2067   -7.3287   17.7772 C   0  0  0  0  0  0  0  0  0  0  0  0
   -0.0206  -10.5585   16.6210 C   0  0  0  0  0  0  0  0  0  0  0  0
    0.3696  -12.7626   16.2169 O   0  0  0  0  0  0  0  0  0  0  0  0
   -0.6895   -9.5676   17.3297 C   0  0  0  0  0  0  0  0  0  0  0  0
    0.8388   -5.8417   27.5264 C   0  0  0  0  0  0  0  0  0  0  0  0
   -2.0709   -7.6637   18.7817 C   0  0  0  0  0  0  0  0  0  0  0  0
   -0.5279   -8.2168   17.0717 C   0  0  0  0  0  0  0  0  0  0  0  0
    6.9694   -4.0191   27.8190 C   0  0  0  0  0  0  0  0  0  0  0  0
    5.1733   -4.5469   29.8123 C   0  0  0  0  0  0  0  0  0  0  0  0
   -1.7508  -11.3016   18.6072 C   0  0  0  0  0  0  0  0  0  0  0  0
    1.7497   -5.6771   26.4971 C   0  0  0  0  0  0  0  0  0  0  0  0
   -1.5799   -9.9322   18.3468 C   0  0  0  0  0  0  0  0  0  0  0  0
   -1.0871  -12.2214   17.8851 C   0  0  0  0  0  0  0  0  0  0  0  0
   -2.2706   -8.9669   19.0691 C   0  0  0  0  0  0  0  0  0  0  0  0
    3.0279   -5.3073   26.8197 C   0  0  0  0  0  0  0  0  0  0  0  0
    7.3282   -3.8948   29.1186 C   0  0  0  0  0  0  0  0  0  0  0  0
  1  3  4  0
  1  7  4  0
  2  3  1  0
  2  6  4  0
  2 16  4  0
  3 22  4  0
  4  9  4  0
  4 10  1  0
  4 20  4  0
  5 16  4  0
  5 23  4  0
  6 15  4  0
  7 12  4  0
  8 13  4  0
  8 14  4  0
  9 11  4  0
 11 14  4  0
 11 19  4  0
 12 18  4  0
 13 21  4  0
 15 23  4  0
 17 19  4  0
 17 20  4  0
 18 22  4  0
 19 21  4  0
M  END
$$$$

 Created by Python create_sdf_string function

 23 25  0  0  0  0  0  0  0  0999 V2000
    2.4610   -5.3070   29.1240 C   0  0  0  0  0  0  0  0  0  0  0  0
    4.7710   -4.6952   28.4803 C   0  0  0  0  0  0  0  0  0  0  0  0
    3.4047   -5.1087   28.1314 C   0  0  0  0  0  0  0  0  0  0  0  0
   -0.2234  -11.8615   16.8874 C   0  0  0  0  0  0  0  0  0  0  0  0
    6.4491   -4.1532   30.1213 C   0  0  0  0  0  0  0  0  0  0  0  0
    5.7060   -4.4340   27.4975 C   0  0  0  0  0  0  0  0  0  0  0  0
    1.1818   -5.6612   28.8399 C   0  0  0  0  0  0  0  0  0  0  0  0
   -1.2067   -7.3287   17.7772 C   0  0  0  0  0  0  0  0  0  0  0  0
   -0.0206  -10.5585   16.6210 C   0  0  0  0  0  0  0  0  0  0  0  0
    0.3696  -12.7626   16.2169 O   0  0  0  0  0  0  0  0  0  0  0  0
   -0.6895   -9.5676   17.3297 C   0  0  0  0  0  0  0  0  0  0  0  0
    0.8388   -5.8417   27.5264 C   0  0  0  0  0  0  0  0  0  0  0  0
   -2.0709   -7.6637   18.7817 C   0  0  0  0  0  0  0  0  0  0  0  0
   -0.5279   -8.2168   17.0717 C   0  0  0  0  0  0  0  0  0  0  0  0
    6.9694   -4.0191   27.8190 C   0  0  0  0  0  0  0  0  0  0  0  0
    5.1733   -4.5469   29.8123 C   0  0  0  0  0  0  0  0  0  0  0  0
   -1.7508  -11.3016   18.6072 C   0  0  0  0  0  0  0  0  0  0  0  0
    1.7497   -5.6771   26.4971 C   0  0  0  0  0  0  0  0  0  0  0  0
   -1.5799   -9.9322   18.3468 C   0  0  0  0  0  0  0  0  0  0  0  0
   -1.0871  -12.2214   17.8851 C   0  0  0  0  0  0  0  0  0  0  0  0
   -2.2706   -8.9669   19.0691 C   0  0  0  0  0  0  0  0  0  0  0  0
    3.0279   -5.3073   26.8197 C   0  0  0  0  0  0  0  0  0  0  0  0
    7.3282   -3.8948   29.1186 C   0  0  0  0  0  0  0  0  0  0  0  0
  1  3  4  0
  1  7  4  0
  2  3  1  0
  2  6  4  0
  2 16  4  0
  3 22  4  0
  4  9  4  0
  4 10  1  0
  4 20  4  0
  5 16  4  0
  5 23  4  0
  6 15  4  0
  7 12  4  0
  8 13  4  0
  8 14  4  0
  9 11  4  0
 11 14  4  0
 11 19  4  0
 12 18  4  0
 13 21  4  0
 15 23  4  0
 17 19  4  0
 17 20  4  0
 18 22  4  0
 19 21  4  0
M  END
$$$$

 Created by Python create_sdf_string function

 23 25  0  0  0  0  0  0  0  0999 V2000
    2.4610   -5.3070   29.1240 C   0  0  0  0  0  0  0  0  0  0  0  0
    4.7710   -4.6952   28.4803 C   0  0  0  0  0  0  0  0  0  0  0  0
    3.4047   -5.1087   28.1314 C   0  0  0  0  0  0  0  0  0  0  0  0
   -0.2234  -11.8615   16.8874 C   0  0  0  0  0  0  0  0  0  0  0  0
    6.4491   -4.1532   30.1213 C   0  0  0  0  0  0  0  0  0  0  0  0
    5.7060   -4.4340   27.4975 C   0  0  0  0  0  0  0  0  0  0  0  0
    1.1818   -5.6612   28.8399 C   0  0  0  0  0  0  0  0  0  0  0  0
   -1.2067   -7.3287   17.7772 C   0  0  0  0  0  0  0  0  0  0  0  0
   -0.0206  -10.5585   16.6210 C   0  0  0  0  0  0  0  0  0  0  0  0
    0.3696  -12.7626   16.2169 O   0  0  0  0  0  0  0  0  0  0  0  0
   -0.6895   -9.5676   17.3297 C   0  0  0  0  0  0  0  0  0  0  0  0
    0.8388   -5.8417   27.5264 C   0  0  0  0  0  0  0  0  0  0  0  0
   -2.0709   -7.6637   18.7817 C   0  0  0  0  0  0  0  0  0  0  0  0
   -0.5279   -8.2168   17.0717 C   0  0  0  0  0  0  0  0  0  0  0  0
    6.9694   -4.0191   27.8190 C   0  0  0  0  0  0  0  0  0  0  0  0
    5.1733   -4.5469   29.8123 C   0  0  0  0  0  0  0  0  0  0  0  0
   -1.7508  -11.3016   18.6072 C   0  0  0  0  0  0  0  0  0  0  0  0
    1.7497   -5.6771   26.4971 C   0  0  0  0  0  0  0  0  0  0  0  0
   -1.5799   -9.9322   18.3468 C   0  0  0  0  0  0  0  0  0  0  0  0
   -1.0871  -12.2214   17.8851 C   0  0  0  0  0  0  0  0  0  0  0  0
   -2.2706   -8.9669   19.0691 C   0  0  0  0  0  0  0  0  0  0  0  0
    3.0279   -5.3073   26.8197 C   0  0  0  0  0  0  0  0  0  0  0  0
    7.3282   -3.8948   29.1186 C   0  0  0  0  0  0  0  0  0  0  0  0
  1  3  4  0
  1  7  4  0
  2  3  1  0
  2  6  4  0
  2 16  4  0
  3 22  4  0
  4  9  4  0
  4 10  1  0
  4 20  4  0
  5 16  4  0
  5 23  4  0
  6 15  4  0
  7 12  4  0
  8 13  4  0
  8 14  4  0
  9 11  4  0
 11 14  4  0
 11 19  4  0
 12 18  4  0
 13 21  4  0
 15 23  4  0
 17 19  4  0
 17 20  4  0
 18 22  4  0
 19 21  4  0
M  END
$$$$

 Created by Python create_sdf_string function

 23 25  0  0  0  0  0  0  0  0999 V2000
    2.4610   -5.3070   29.1240 C   0  0  0  0  0  0  0  0  0  0  0  0
    4.7710   -4.6952   28.4803 C   0  0  0  0  0  0  0  0  0  0  0  0
    3.4047   -5.1087   28.1314 C   0  0  0  0  0  0  0  0  0  0  0  0
   -0.2234  -11.8615   16.8874 C   0  0  0  0  0  0  0  0  0  0  0  0
    6.4491   -4.1532   30.1213 C   0  0  0  0  0  0  0  0  0  0  0  0
    5.7060   -4.4340   27.4975 C   0  0  0  0  0  0  0  0  0  0  0  0
    1.1818   -5.6612   28.8399 C   0  0  0  0  0  0  0  0  0  0  0  0
   -1.2067   -7.3287   17.7772 C   0  0  0  0  0  0  0  0  0  0  0  0
   -0.0206  -10.5585   16.6210 C   0  0  0  0  0  0  0  0  0  0  0  0
    0.3696  -12.7626   16.2169 O   0  0  0  0  0  0  0  0  0  0  0  0
   -0.6895   -9.5676   17.3297 C   0  0  0  0  0  0  0  0  0  0  0  0
    0.8388   -5.8417   27.5264 C   0  0  0  0  0  0  0  0  0  0  0  0
   -2.0709   -7.6637   18.7817 C   0  0  0  0  0  0  0  0  0  0  0  0
   -0.5279   -8.2168   17.0717 C   0  0  0  0  0  0  0  0  0  0  0  0
    6.9694   -4.0191   27.8190 C   0  0  0  0  0  0  0  0  0  0  0  0
    5.1733   -4.5469   29.8123 C   0  0  0  0  0  0  0  0  0  0  0  0
   -1.7508  -11.3016   18.6072 C   0  0  0  0  0  0  0  0  0  0  0  0
    1.7497   -5.6771   26.4971 C   0  0  0  0  0  0  0  0  0  0  0  0
   -1.5799   -9.9322   18.3468 C   0  0  0  0  0  0  0  0  0  0  0  0
   -1.0871  -12.2214   17.8851 C   0  0  0  0  0  0  0  0  0  0  0  0
   -2.2706   -8.9669   19.0691 C   0  0  0  0  0  0  0  0  0  0  0  0
    3.0279   -5.3073   26.8197 C   0  0  0  0  0  0  0  0  0  0  0  0
    7.3282   -3.8948   29.1186 C   0  0  0  0  0  0  0  0  0  0  0  0
  1  3  4  0
  1  7  4  0
  2  3  1  0
  2  6  4  0
  2 16  4  0
  3 22  4  0
  4  9  4  0
  4 10  1  0
  4 20  4  0
  5 16  4  0
  5 23  4  0
  6 15  4  0
  7 12  4  0
  8 13  4  0
  8 14  4  0
  9 11  4  0
 11 14  4  0
 11 19  4  0
 12 18  4  0
 13 21  4  0
 15 23  4  0
 17 19  4  0
 17 20  4  0
 18 22  4  0
 19 21  4  0
M  END
$$$$

 Created by Python create_sdf_string function

 23 25  0  0  0  0  0  0  0  0999 V2000
    2.4610   -5.3070   29.1240 C   0  0  0  0  0  0  0  0  0  0  0  0
    4.7710   -4.6952   28.4803 C   0  0  0  0  0  0  0  0  0  0  0  0
    3.4047   -5.1087   28.1314 C   0  0  0  0  0  0  0  0  0  0  0  0
   -0.2234  -11.8615   16.8874 C   0  0  0  0  0  0  0  0  0  0  0  0
    6.4491   -4.1532   30.1213 C   0  0  0  0  0  0  0  0  0  0  0  0
    5.7060   -4.4340   27.4975 C   0  0  0  0  0  0  0  0  0  0  0  0
    1.1818   -5.6612   28.8399 C   0  0  0  0  0  0  0  0  0  0  0  0
   -1.2067   -7.3287   17.7772 C   0  0  0  0  0  0  0  0  0  0  0  0
   -0.0206  -10.5585   16.6210 C   0  0  0  0  0  0  0  0  0  0  0  0
    0.3696  -12.7626   16.2169 O   0  0  0  0  0  0  0  0  0  0  0  0
   -0.6895   -9.5676   17.3297 C   0  0  0  0  0  0  0  0  0  0  0  0
    0.8388   -5.8417   27.5264 C   0  0  0  0  0  0  0  0  0  0  0  0
   -2.0709   -7.6637   18.7817 C   0  0  0  0  0  0  0  0  0  0  0  0
   -0.5279   -8.2168   17.0717 C   0  0  0  0  0  0  0  0  0  0  0  0
    6.9694   -4.0191   27.8190 C   0  0  0  0  0  0  0  0  0  0  0  0
    5.1733   -4.5469   29.8123 C   0  0  0  0  0  0  0  0  0  0  0  0
   -1.7508  -11.3016   18.6072 C   0  0  0  0  0  0  0  0  0  0  0  0
    1.7497   -5.6771   26.4971 C   0  0  0  0  0  0  0  0  0  0  0  0
   -1.5799   -9.9322   18.3468 C   0  0  0  0  0  0  0  0  0  0  0  0
   -1.0871  -12.2214   17.8851 C   0  0  0  0  0  0  0  0  0  0  0  0
   -2.2706   -8.9669   19.0691 C   0  0  0  0  0  0  0  0  0  0  0  0
    3.0279   -5.3073   26.8197 C   0  0  0  0  0  0  0  0  0  0  0  0
    7.3282   -3.8948   29.1186 C   0  0  0  0  0  0  0  0  0  0  0  0
  1  3  4  0
  1  7  4  0
  2  3  1  0
  2  6  4  0
  2 16  4  0
  3 22  4  0
  4  9  4  0
  4 10  1  0
  4 20  4  0
  5 16  4  0
  5 23  4  0
  6 15  4  0
  7 12  4  0
  8 13  4  0
  8 14  4  0
  9 11  4  0
 11 14  4  0
 11 19  4  0
 12 18  4  0
 13 21  4  0
 15 23  4  0
 17 19  4  0
 17 20  4  0
 18 22  4  0
 19 21  4  0
M  END
$$$$

 Created by Python create_sdf_string function

 23 25  0  0  0  0  0  0  0  0999 V2000
    2.4610   -5.3070   29.1240 C   0  0  0  0  0  0  0  0  0  0  0  0
    4.7710   -4.6952   28.4803 C   0  0  0  0  0  0  0  0  0  0  0  0
    3.4047   -5.1087   28.1314 C   0  0  0  0  0  0  0  0  0  0  0  0
   -0.2234  -11.8615   16.8874 C   0  0  0  0  0  0  0  0  0  0  0  0
    6.4491   -4.1532   30.1213 C   0  0  0  0  0  0  0  0  0  0  0  0
    5.7060   -4.4340   27.4975 C   0  0  0  0  0  0  0  0  0  0  0  0
    1.1818   -5.6612   28.8399 C   0  0  0  0  0  0  0  0  0  0  0  0
   -1.2067   -7.3287   17.7772 C   0  0  0  0  0  0  0  0  0  0  0  0
   -0.0206  -10.5585   16.6210 C   0  0  0  0  0  0  0  0  0  0  0  0
    0.3696  -12.7626   16.2169 O   0  0  0  0  0  0  0  0  0  0  0  0
   -0.6895   -9.5676   17.3297 C   0  0  0  0  0  0  0  0  0  0  0  0
    0.8388   -5.8417   27.5264 C   0  0  0  0  0  0  0  0  0  0  0  0
   -2.0709   -7.6637   18.7817 C   0  0  0  0  0  0  0  0  0  0  0  0
   -0.5279   -8.2168   17.0717 C   0  0  0  0  0  0  0  0  0  0  0  0
    6.9694   -4.0191   27.8190 C   0  0  0  0  0  0  0  0  0  0  0  0
    5.1733   -4.5469   29.8123 C   0  0  0  0  0  0  0  0  0  0  0  0
   -1.7508  -11.3016   18.6072 C   0  0  0  0  0  0  0  0  0  0  0  0
    1.7497   -5.6771   26.4971 C   0  0  0  0  0  0  0  0  0  0  0  0
   -1.5799   -9.9322   18.3468 C   0  0  0  0  0  0  0  0  0  0  0  0
   -1.0871  -12.2214   17.8851 C   0  0  0  0  0  0  0  0  0  0  0  0
   -2.2706   -8.9669   19.0691 C   0  0  0  0  0  0  0  0  0  0  0  0
    3.0279   -5.3073   26.8197 C   0  0  0  0  0  0  0  0  0  0  0  0
    7.3282   -3.8948   29.1186 C   0  0  0  0  0  0  0  0  0  0  0  0
  1  3  4  0
  1  7  4  0
  2  3  1  0
  2  6  4  0
  2 16  4  0
  3 22  4  0
  4  9  4  0
  4 10  1  0
  4 20  4  0
  5 16  4  0
  5 23  4  0
  6 15  4  0
  7 12  4  0
  8 13  4  0
  8 14  4  0
  9 11  4  0
 11 14  4  0
 11 19  4  0
 12 18  4  0
 13 21  4  0
 15 23  4  0
 17 19  4  0
 17 20  4  0
 18 22  4  0
 19 21  4  0
M  END
$$$$

 Created by Python create_sdf_string function

 23 25  0  0  0  0  0  0  0  0999 V2000
    2.4610   -5.3070   29.1240 C   0  0  0  0  0  0  0  0  0  0  0  0
    4.7710   -4.6952   28.4803 C   0  0  0  0  0  0  0  0  0  0  0  0
    3.4047   -5.1087   28.1314 C   0  0  0  0  0  0  0  0  0  0  0  0
   -0.2234  -11.8615   16.8874 C   0  0  0  0  0  0  0  0  0  0  0  0
    6.4491   -4.1532   30.1213 C   0  0  0  0  0  0  0  0  0  0  0  0
    5.7060   -4.4340   27.4975 C   0  0  0  0  0  0  0  0  0  0  0  0
    1.1818   -5.6612   28.8399 C   0  0  0  0  0  0  0  0  0  0  0  0
   -1.2067   -7.3287   17.7772 C   0  0  0  0  0  0  0  0  0  0  0  0
   -0.0206  -10.5585   16.6210 C   0  0  0  0  0  0  0  0  0  0  0  0
    0.3696  -12.7626   16.2169 O   0  0  0  0  0  0  0  0  0  0  0  0
   -0.6895   -9.5676   17.3297 C   0  0  0  0  0  0  0  0  0  0  0  0
    0.8388   -5.8417   27.5264 C   0  0  0  0  0  0  0  0  0  0  0  0
   -2.0709   -7.6637   18.7817 C   0  0  0  0  0  0  0  0  0  0  0  0
   -0.5279   -8.2168   17.0717 C   0  0  0  0  0  0  0  0  0  0  0  0
    6.9694   -4.0191   27.8190 C   0  0  0  0  0  0  0  0  0  0  0  0
    5.1733   -4.5469   29.8123 C   0  0  0  0  0  0  0  0  0  0  0  0
   -1.7508  -11.3016   18.6072 C   0  0  0  0  0  0  0  0  0  0  0  0
    1.7497   -5.6771   26.4971 C   0  0  0  0  0  0  0  0  0  0  0  0
   -1.5799   -9.9322   18.3468 C   0  0  0  0  0  0  0  0  0  0  0  0
   -1.0871  -12.2214   17.8851 C   0  0  0  0  0  0  0  0  0  0  0  0
   -2.2706   -8.9669   19.0691 C   0  0  0  0  0  0  0  0  0  0  0  0
    3.0279   -5.3073   26.8197 C   0  0  0  0  0  0  0  0  0  0  0  0
    7.3282   -3.8948   29.1186 C   0  0  0  0  0  0  0  0  0  0  0  0
  1  3  4  0
  1  7  4  0
  2  3  1  0
  2  6  4  0
  2 16  4  0
  3 22  4  0
  4  9  4  0
  4 10  1  0
  4 20  4  0
  5 16  4  0
  5 23  4  0
  6 15  4  0
  7 12  4  0
  8 13  4  0
  8 14  4  0
  9 11  4  0
 11 14  4  0
 11 19  4  0
 12 18  4  0
 13 21  4  0
 15 23  4  0
 17 19  4  0
 17 20  4  0
 18 22  4  0
 19 21  4  0
M  END
$$$$

 Created by Python create_sdf_string function

 23 25  0  0  0  0  0  0  0  0999 V2000
    2.4610   -5.3070   29.1240 C   0  0  0  0  0  0  0  0  0  0  0  0
    4.7710   -4.6952   28.4803 C   0  0  0  0  0  0  0  0  0  0  0  0
    3.4047   -5.1087   28.1314 C   0  0  0  0  0  0  0  0  0  0  0  0
   -0.2234  -11.8615   16.8874 C   0  0  0  0  0  0  0  0  0  0  0  0
    6.4491   -4.1532   30.1213 C   0  0  0  0  0  0  0  0  0  0  0  0
    5.7060   -4.4340   27.4975 C   0  0  0  0  0  0  0  0  0  0  0  0
    1.1818   -5.6612   28.8399 C   0  0  0  0  0  0  0  0  0  0  0  0
   -1.2067   -7.3287   17.7772 C   0  0  0  0  0  0  0  0  0  0  0  0
   -0.0206  -10.5585   16.6210 C   0  0  0  0  0  0  0  0  0  0  0  0
    0.3696  -12.7626   16.2169 O   0  0  0  0  0  0  0  0  0  0  0  0
   -0.6895   -9.5676   17.3297 C   0  0  0  0  0  0  0  0  0  0  0  0
    0.8388   -5.8417   27.5264 C   0  0  0  0  0  0  0  0  0  0  0  0
   -2.0709   -7.6637   18.7817 C   0  0  0  0  0  0  0  0  0  0  0  0
   -0.5279   -8.2168   17.0717 C   0  0  0  0  0  0  0  0  0  0  0  0
    6.9694   -4.0191   27.8190 C   0  0  0  0  0  0  0  0  0  0  0  0
    5.1733   -4.5469   29.8123 C   0  0  0  0  0  0  0  0  0  0  0  0
   -1.7508  -11.3016   18.6072 C   0  0  0  0  0  0  0  0  0  0  0  0
    1.7497   -5.6771   26.4971 C   0  0  0  0  0  0  0  0  0  0  0  0
   -1.5799   -9.9322   18.3468 C   0  0  0  0  0  0  0  0  0  0  0  0
   -1.0871  -12.2214   17.8851 C   0  0  0  0  0  0  0  0  0  0  0  0
   -2.2706   -8.9669   19.0691 C   0  0  0  0  0  0  0  0  0  0  0  0
    3.0279   -5.3073   26.8197 C   0  0  0  0  0  0  0  0  0  0  0  0
    7.3282   -3.8948   29.1186 C   0  0  0  0  0  0  0  0  0  0  0  0
  1  3  4  0
  1  7  4  0
  2  3  1  0
  2  6  4  0
  2 16  4  0
  3 22  4  0
  4  9  4  0
  4 10  1  0
  4 20  4  0
  5 16  4  0
  5 23  4  0
  6 15  4  0
  7 12  4  0
  8 13  4  0
  8 14  4  0
  9 11  4  0
 11 14  4  0
 11 19  4  0
 12 18  4  0
 13 21  4  0
 15 23  4  0
 17 19  4  0
 17 20  4  0
 18 22  4  0
 19 21  4  0
M  END
$$$$

 Created by Python create_sdf_string function

 23 25  0  0  0  0  0  0  0  0999 V2000
    2.4610   -5.3070   29.1240 C   0  0  0  0  0  0  0  0  0  0  0  0
    4.7710   -4.6952   28.4803 C   0  0  0  0  0  0  0  0  0  0  0  0
    3.4047   -5.1087   28.1314 C   0  0  0  0  0  0  0  0  0  0  0  0
   -0.2234  -11.8615   16.8874 C   0  0  0  0  0  0  0  0  0  0  0  0
    6.4491   -4.1532   30.1213 C   0  0  0  0  0  0  0  0  0  0  0  0
    5.7060   -4.4340   27.4975 C   0  0  0  0  0  0  0  0  0  0  0  0
    1.1818   -5.6612   28.8399 C   0  0  0  0  0  0  0  0  0  0  0  0
   -1.2067   -7.3287   17.7772 C   0  0  0  0  0  0  0  0  0  0  0  0
   -0.0206  -10.5585   16.6210 C   0  0  0  0  0  0  0  0  0  0  0  0
    0.3696  -12.7626   16.2169 O   0  0  0  0  0  0  0  0  0  0  0  0
   -0.6895   -9.5676   17.3297 C   0  0  0  0  0  0  0  0  0  0  0  0
    0.8388   -5.8417   27.5264 C   0  0  0  0  0  0  0  0  0  0  0  0
   -2.0709   -7.6637   18.7817 C   0  0  0  0  0  0  0  0  0  0  0  0
   -0.5279   -8.2168   17.0717 C   0  0  0  0  0  0  0  0  0  0  0  0
    6.9694   -4.0191   27.8190 C   0  0  0  0  0  0  0  0  0  0  0  0
    5.1733   -4.5469   29.8123 C   0  0  0  0  0  0  0  0  0  0  0  0
   -1.7508  -11.3016   18.6072 C   0  0  0  0  0  0  0  0  0  0  0  0
    1.7497   -5.6771   26.4971 C   0  0  0  0  0  0  0  0  0  0  0  0
   -1.5799   -9.9322   18.3468 C   0  0  0  0  0  0  0  0  0  0  0  0
   -1.0871  -12.2214   17.8851 C   0  0  0  0  0  0  0  0  0  0  0  0
   -2.2706   -8.9669   19.0691 C   0  0  0  0  0  0  0  0  0  0  0  0
    3.0279   -5.3073   26.8197 C   0  0  0  0  0  0  0  0  0  0  0  0
    7.3282   -3.8948   29.1186 C   0  0  0  0  0  0  0  0  0  0  0  0
  1  3  4  0
  1  7  4  0
  2  3  1  0
  2  6  4  0
  2 16  4  0
  3 22  4  0
  4  9  4  0
  4 10  1  0
  4 20  4  0
  5 16  4  0
  5 23  4  0
  6 15  4  0
  7 12  4  0
  8 13  4  0
  8 14  4  0
  9 11  4  0
 11 14  4  0
 11 19  4  0
 12 18  4  0
 13 21  4  0
 15 23  4  0
 17 19  4  0
 17 20  4  0
 18 22  4  0
 19 21  4  0
M  END
$$$$

 Created by Python create_sdf_string function

 23 25  0  0  0  0  0  0  0  0999 V2000
    2.4610   -5.3070   29.1240 C   0  0  0  0  0  0  0  0  0  0  0  0
    4.7710   -4.6952   28.4803 C   0  0  0  0  0  0  0  0  0  0  0  0
    3.4047   -5.1087   28.1314 C   0  0  0  0  0  0  0  0  0  0  0  0
   -0.2234  -11.8615   16.8874 C   0  0  0  0  0  0  0  0  0  0  0  0
    6.4491   -4.1532   30.1213 C   0  0  0  0  0  0  0  0  0  0  0  0
    5.7060   -4.4340   27.4975 C   0  0  0  0  0  0  0  0  0  0  0  0
    1.1818   -5.6612   28.8399 C   0  0  0  0  0  0  0  0  0  0  0  0
   -1.2067   -7.3287   17.7772 C   0  0  0  0  0  0  0  0  0  0  0  0
   -0.0206  -10.5585   16.6210 C   0  0  0  0  0  0  0  0  0  0  0  0
    0.3696  -12.7626   16.2169 O   0  0  0  0  0  0  0  0  0  0  0  0
   -0.6895   -9.5676   17.3297 C   0  0  0  0  0  0  0  0  0  0  0  0
    0.8388   -5.8417   27.5264 C   0  0  0  0  0  0  0  0  0  0  0  0
   -2.0709   -7.6637   18.7817 C   0  0  0  0  0  0  0  0  0  0  0  0
   -0.5279   -8.2168   17.0717 C   0  0  0  0  0  0  0  0  0  0  0  0
    6.9694   -4.0191   27.8190 C   0  0  0  0  0  0  0  0  0  0  0  0
    5.1733   -4.5469   29.8123 C   0  0  0  0  0  0  0  0  0  0  0  0
   -1.7508  -11.3016   18.6072 C   0  0  0  0  0  0  0  0  0  0  0  0
    1.7497   -5.6771   26.4971 C   0  0  0  0  0  0  0  0  0  0  0  0
   -1.5799   -9.9322   18.3468 C   0  0  0  0  0  0  0  0  0  0  0  0
   -1.0871  -12.2214   17.8851 C   0  0  0  0  0  0  0  0  0  0  0  0
   -2.2706   -8.9669   19.0691 C   0  0  0  0  0  0  0  0  0  0  0  0
    3.0279   -5.3073   26.8197 C   0  0  0  0  0  0  0  0  0  0  0  0
    7.3282   -3.8948   29.1186 C   0  0  0  0  0  0  0  0  0  0  0  0
  1  3  4  0
  1  7  4  0
  2  3  1  0
  2  6  4  0
  2 16  4  0
  3 22  4  0
  4  9  4  0
  4 10  1  0
  4 20  4  0
  5 16  4  0
  5 23  4  0
  6 15  4  0
  7 12  4  0
  8 13  4  0
  8 14  4  0
  9 11  4  0
 11 14  4  0
 11 19  4  0
 12 18  4  0
 13 21  4  0
 15 23  4  0
 17 19  4  0
 17 20  4  0
 18 22  4  0
 19 21  4  0
M  END
$$$$

 Created by Python create_sdf_string function

 23 25  0  0  0  0  0  0  0  0999 V2000
    2.4610   -5.3070   29.1240 C   0  0  0  0  0  0  0  0  0  0  0  0
    4.7710   -4.6952   28.4803 C   0  0  0  0  0  0  0  0  0  0  0  0
    3.4047   -5.1087   28.1314 C   0  0  0  0  0  0  0  0  0  0  0  0
   -0.2234  -11.8615   16.8874 C   0  0  0  0  0  0  0  0  0  0  0  0
    6.4491   -4.1532   30.1213 C   0  0  0  0  0  0  0  0  0  0  0  0
    5.7060   -4.4340   27.4975 C   0  0  0  0  0  0  0  0  0  0  0  0
    1.1818   -5.6612   28.8399 C   0  0  0  0  0  0  0  0  0  0  0  0
   -1.2067   -7.3287   17.7772 C   0  0  0  0  0  0  0  0  0  0  0  0
   -0.0206  -10.5585   16.6210 C   0  0  0  0  0  0  0  0  0  0  0  0
    0.3696  -12.7626   16.2169 O   0  0  0  0  0  0  0  0  0  0  0  0
   -0.6895   -9.5676   17.3297 C   0  0  0  0  0  0  0  0  0  0  0  0
    0.8388   -5.8417   27.5264 C   0  0  0  0  0  0  0  0  0  0  0  0
   -2.0709   -7.6637   18.7817 C   0  0  0  0  0  0  0  0  0  0  0  0
   -0.5279   -8.2168   17.0717 C   0  0  0  0  0  0  0  0  0  0  0  0
    6.9694   -4.0191   27.8190 C   0  0  0  0  0  0  0  0  0  0  0  0
    5.1733   -4.5469   29.8123 C   0  0  0  0  0  0  0  0  0  0  0  0
   -1.7508  -11.3016   18.6072 C   0  0  0  0  0  0  0  0  0  0  0  0
    1.7497   -5.6771   26.4971 C   0  0  0  0  0  0  0  0  0  0  0  0
   -1.5799   -9.9322   18.3468 C   0  0  0  0  0  0  0  0  0  0  0  0
   -1.0871  -12.2214   17.8851 C   0  0  0  0  0  0  0  0  0  0  0  0
   -2.2706   -8.9669   19.0691 C   0  0  0  0  0  0  0  0  0  0  0  0
    3.0279   -5.3073   26.8197 C   0  0  0  0  0  0  0  0  0  0  0  0
    7.3282   -3.8948   29.1186 C   0  0  0  0  0  0  0  0  0  0  0  0
  1  3  4  0
  1  7  4  0
  2  3  1  0
  2  6  4  0
  2 16  4  0
  3 22  4  0
  4  9  4  0
  4 10  1  0
  4 20  4  0
  5 16  4  0
  5 23  4  0
  6 15  4  0
  7 12  4  0
  8 13  4  0
  8 14  4  0
  9 11  4  0
 11 14  4  0
 11 19  4  0
 12 18  4  0
 13 21  4  0
 15 23  4  0
 17 19  4  0
 17 20  4  0
 18 22  4  0
 19 21  4  0
M  END
$$$$

 Created by Python create_sdf_string function

 23 25  0  0  0  0  0  0  0  0999 V2000
    2.4610   -5.3070   29.1240 C   0  0  0  0  0  0  0  0  0  0  0  0
    4.7710   -4.6952   28.4803 C   0  0  0  0  0  0  0  0  0  0  0  0
    3.4047   -5.1087   28.1314 C   0  0  0  0  0  0  0  0  0  0  0  0
   -0.2234  -11.8615   16.8874 C   0  0  0  0  0  0  0  0  0  0  0  0
    6.4491   -4.1532   30.1213 C   0  0  0  0  0  0  0  0  0  0  0  0
    5.7060   -4.4340   27.4975 C   0  0  0  0  0  0  0  0  0  0  0  0
    1.1818   -5.6612   28.8399 C   0  0  0  0  0  0  0  0  0  0  0  0
   -1.2067   -7.3287   17.7772 C   0  0  0  0  0  0  0  0  0  0  0  0
   -0.0206  -10.5585   16.6210 C   0  0  0  0  0  0  0  0  0  0  0  0
    0.3696  -12.7626   16.2169 O   0  0  0  0  0  0  0  0  0  0  0  0
   -0.6895   -9.5676   17.3297 C   0  0  0  0  0  0  0  0  0  0  0  0
    0.8388   -5.8417   27.5264 C   0  0  0  0  0  0  0  0  0  0  0  0
   -2.0709   -7.6637   18.7817 C   0  0  0  0  0  0  0  0  0  0  0  0
   -0.5279   -8.2168   17.0717 C   0  0  0  0  0  0  0  0  0  0  0  0
    6.9694   -4.0191   27.8190 C   0  0  0  0  0  0  0  0  0  0  0  0
    5.1733   -4.5469   29.8123 C   0  0  0  0  0  0  0  0  0  0  0  0
   -1.7508  -11.3016   18.6072 C   0  0  0  0  0  0  0  0  0  0  0  0
    1.7497   -5.6771   26.4971 C   0  0  0  0  0  0  0  0  0  0  0  0
   -1.5799   -9.9322   18.3468 C   0  0  0  0  0  0  0  0  0  0  0  0
   -1.0871  -12.2214   17.8851 C   0  0  0  0  0  0  0  0  0  0  0  0
   -2.2706   -8.9669   19.0691 C   0  0  0  0  0  0  0  0  0  0  0  0
    3.0279   -5.3073   26.8197 C   0  0  0  0  0  0  0  0  0  0  0  0
    7.3282   -3.8948   29.1186 C   0  0  0  0  0  0  0  0  0  0  0  0
  1  3  4  0
  1  7  4  0
  2  3  1  0
  2  6  4  0
  2 16  4  0
  3 22  4  0
  4  9  4  0
  4 10  1  0
  4 20  4  0
  5 16  4  0
  5 23  4  0
  6 15  4  0
  7 12  4  0
  8 13  4  0
  8 14  4  0
  9 11  4  0
 11 14  4  0
 11 19  4  0
 12 18  4  0
 13 21  4  0
 15 23  4  0
 17 19  4  0
 17 20  4  0
 18 22  4  0
 19 21  4  0
M  END
$$$$

 Created by Python create_sdf_string function

 23 25  0  0  0  0  0  0  0  0999 V2000
    2.4610   -5.3070   29.1240 C   0  0  0  0  0  0  0  0  0  0  0  0
    4.7710   -4.6952   28.4803 C   0  0  0  0  0  0  0  0  0  0  0  0
    3.4047   -5.1087   28.1314 C   0  0  0  0  0  0  0  0  0  0  0  0
   -0.2234  -11.8615   16.8874 C   0  0  0  0  0  0  0  0  0  0  0  0
    6.4491   -4.1532   30.1213 C   0  0  0  0  0  0  0  0  0  0  0  0
    5.7060   -4.4340   27.4975 C   0  0  0  0  0  0  0  0  0  0  0  0
    1.1818   -5.6612   28.8399 C   0  0  0  0  0  0  0  0  0  0  0  0
   -1.2067   -7.3287   17.7772 C   0  0  0  0  0  0  0  0  0  0  0  0
   -0.0206  -10.5585   16.6210 C   0  0  0  0  0  0  0  0  0  0  0  0
    0.3696  -12.7626   16.2169 O   0  0  0  0  0  0  0  0  0  0  0  0
   -0.6895   -9.5676   17.3297 C   0  0  0  0  0  0  0  0  0  0  0  0
    0.8388   -5.8417   27.5264 C   0  0  0  0  0  0  0  0  0  0  0  0
   -2.0709   -7.6637   18.7817 C   0  0  0  0  0  0  0  0  0  0  0  0
   -0.5279   -8.2168   17.0717 C   0  0  0  0  0  0  0  0  0  0  0  0
    6.9694   -4.0191   27.8190 C   0  0  0  0  0  0  0  0  0  0  0  0
    5.1733   -4.5469   29.8123 C   0  0  0  0  0  0  0  0  0  0  0  0
   -1.7508  -11.3016   18.6072 C   0  0  0  0  0  0  0  0  0  0  0  0
    1.7497   -5.6771   26.4971 C   0  0  0  0  0  0  0  0  0  0  0  0
   -1.5799   -9.9322   18.3468 C   0  0  0  0  0  0  0  0  0  0  0  0
   -1.0871  -12.2214   17.8851 C   0  0  0  0  0  0  0  0  0  0  0  0
   -2.2706   -8.9669   19.0691 C   0  0  0  0  0  0  0  0  0  0  0  0
    3.0279   -5.3073   26.8197 C   0  0  0  0  0  0  0  0  0  0  0  0
    7.3282   -3.8948   29.1186 C   0  0  0  0  0  0  0  0  0  0  0  0
  1  3  4  0
  1  7  4  0
  2  3  1  0
  2  6  4  0
  2 16  4  0
  3 22  4  0
  4  9  4  0
  4 10  1  0
  4 20  4  0
  5 16  4  0
  5 23  4  0
  6 15  4  0
  7 12  4  0
  8 13  4  0
  8 14  4  0
  9 11  4  0
 11 14  4  0
 11 19  4  0
 12 18  4  0
 13 21  4  0
 15 23  4  0
 17 19  4  0
 17 20  4  0
 18 22  4  0
 19 21  4  0
M  END
$$$$

 Created by Python create_sdf_string function

 23 25  0  0  0  0  0  0  0  0999 V2000
    2.4610   -5.3070   29.1240 C   0  0  0  0  0  0  0  0  0  0  0  0
    4.7710   -4.6952   28.4803 C   0  0  0  0  0  0  0  0  0  0  0  0
    3.4047   -5.1087   28.1314 C   0  0  0  0  0  0  0  0  0  0  0  0
   -0.2234  -11.8615   16.8874 C   0  0  0  0  0  0  0  0  0  0  0  0
    6.4491   -4.1532   30.1213 C   0  0  0  0  0  0  0  0  0  0  0  0
    5.7060   -4.4340   27.4975 C   0  0  0  0  0  0  0  0  0  0  0  0
    1.1818   -5.6612   28.8399 C   0  0  0  0  0  0  0  0  0  0  0  0
   -1.2067   -7.3287   17.7772 C   0  0  0  0  0  0  0  0  0  0  0  0
   -0.0206  -10.5585   16.6210 C   0  0  0  0  0  0  0  0  0  0  0  0
    0.3696  -12.7626   16.2169 O   0  0  0  0  0  0  0  0  0  0  0  0
   -0.6895   -9.5676   17.3297 C   0  0  0  0  0  0  0  0  0  0  0  0
    0.8388   -5.8417   27.5264 C   0  0  0  0  0  0  0  0  0  0  0  0
   -2.0709   -7.6637   18.7817 C   0  0  0  0  0  0  0  0  0  0  0  0
   -0.5279   -8.2168   17.0717 C   0  0  0  0  0  0  0  0  0  0  0  0
    6.9694   -4.0191   27.8190 C   0  0  0  0  0  0  0  0  0  0  0  0
    5.1733   -4.5469   29.8123 C   0  0  0  0  0  0  0  0  0  0  0  0
   -1.7508  -11.3016   18.6072 C   0  0  0  0  0  0  0  0  0  0  0  0
    1.7497   -5.6771   26.4971 C   0  0  0  0  0  0  0  0  0  0  0  0
   -1.5799   -9.9322   18.3468 C   0  0  0  0  0  0  0  0  0  0  0  0
   -1.0871  -12.2214   17.8851 C   0  0  0  0  0  0  0  0  0  0  0  0
   -2.2706   -8.9669   19.0691 C   0  0  0  0  0  0  0  0  0  0  0  0
    3.0279   -5.3073   26.8197 C   0  0  0  0  0  0  0  0  0  0  0  0
    7.3282   -3.8948   29.1186 C   0  0  0  0  0  0  0  0  0  0  0  0
  1  3  4  0
  1  7  4  0
  2  3  1  0
  2  6  4  0
  2 16  4  0
  3 22  4  0
  4  9  4  0
  4 10  1  0
  4 20  4  0
  5 16  4  0
  5 23  4  0
  6 15  4  0
  7 12  4  0
  8 13  4  0
  8 14  4  0
  9 11  4  0
 11 14  4  0
 11 19  4  0
 12 18  4  0
 13 21  4  0
 15 23  4  0
 17 19  4  0
 17 20  4  0
 18 22  4  0
 19 21  4  0
M  END
$$$$

 Created by Python create_sdf_string function

 23 25  0  0  0  0  0  0  0  0999 V2000
    2.4610   -5.3070   29.1240 C   0  0  0  0  0  0  0  0  0  0  0  0
    4.7710   -4.6952   28.4803 C   0  0  0  0  0  0  0  0  0  0  0  0
    3.4047   -5.1087   28.1314 C   0  0  0  0  0  0  0  0  0  0  0  0
   -0.2234  -11.8615   16.8874 C   0  0  0  0  0  0  0  0  0  0  0  0
    6.4491   -4.1532   30.1213 C   0  0  0  0  0  0  0  0  0  0  0  0
    5.7060   -4.4340   27.4975 C   0  0  0  0  0  0  0  0  0  0  0  0
    1.1818   -5.6612   28.8399 C   0  0  0  0  0  0  0  0  0  0  0  0
   -1.2067   -7.3287   17.7772 C   0  0  0  0  0  0  0  0  0  0  0  0
   -0.0206  -10.5585   16.6210 C   0  0  0  0  0  0  0  0  0  0  0  0
    0.3696  -12.7626   16.2169 O   0  0  0  0  0  0  0  0  0  0  0  0
   -0.6895   -9.5676   17.3297 C   0  0  0  0  0  0  0  0  0  0  0  0
    0.8388   -5.8417   27.5264 C   0  0  0  0  0  0  0  0  0  0  0  0
   -2.0709   -7.6637   18.7817 C   0  0  0  0  0  0  0  0  0  0  0  0
   -0.5279   -8.2168   17.0717 C   0  0  0  0  0  0  0  0  0  0  0  0
    6.9694   -4.0191   27.8190 C   0  0  0  0  0  0  0  0  0  0  0  0
    5.1733   -4.5469   29.8123 C   0  0  0  0  0  0  0  0  0  0  0  0
   -1.7508  -11.3016   18.6072 C   0  0  0  0  0  0  0  0  0  0  0  0
    1.7497   -5.6771   26.4971 C   0  0  0  0  0  0  0  0  0  0  0  0
   -1.5799   -9.9322   18.3468 C   0  0  0  0  0  0  0  0  0  0  0  0
   -1.0871  -12.2214   17.8851 C   0  0  0  0  0  0  0  0  0  0  0  0
   -2.2706   -8.9669   19.0691 C   0  0  0  0  0  0  0  0  0  0  0  0
    3.0279   -5.3073   26.8197 C   0  0  0  0  0  0  0  0  0  0  0  0
    7.3282   -3.8948   29.1186 C   0  0  0  0  0  0  0  0  0  0  0  0
  1  3  4  0
  1  7  4  0
  2  3  1  0
  2  6  4  0
  2 16  4  0
  3 22  4  0
  4  9  4  0
  4 10  1  0
  4 20  4  0
  5 16  4  0
  5 23  4  0
  6 15  4  0
  7 12  4  0
  8 13  4  0
  8 14  4  0
  9 11  4  0
 11 14  4  0
 11 19  4  0
 12 18  4  0
 13 21  4  0
 15 23  4  0
 17 19  4  0
 17 20  4  0
 18 22  4  0
 19 21  4  0
M  END
$$$$

 Created by Python create_sdf_string function

 23 25  0  0  0  0  0  0  0  0999 V2000
    2.4610   -5.3070   29.1240 C   0  0  0  0  0  0  0  0  0  0  0  0
    4.7710   -4.6952   28.4803 C   0  0  0  0  0  0  0  0  0  0  0  0
    3.4047   -5.1087   28.1314 C   0  0  0  0  0  0  0  0  0  0  0  0
   -0.2234  -11.8615   16.8874 C   0  0  0  0  0  0  0  0  0  0  0  0
    6.4491   -4.1532   30.1213 C   0  0  0  0  0  0  0  0  0  0  0  0
    5.7060   -4.4340   27.4975 C   0  0  0  0  0  0  0  0  0  0  0  0
    1.1818   -5.6612   28.8399 C   0  0  0  0  0  0  0  0  0  0  0  0
   -1.2067   -7.3287   17.7772 C   0  0  0  0  0  0  0  0  0  0  0  0
   -0.0206  -10.5585   16.6210 C   0  0  0  0  0  0  0  0  0  0  0  0
    0.3696  -12.7626   16.2169 O   0  0  0  0  0  0  0  0  0  0  0  0
   -0.6895   -9.5676   17.3297 C   0  0  0  0  0  0  0  0  0  0  0  0
    0.8388   -5.8417   27.5264 C   0  0  0  0  0  0  0  0  0  0  0  0
   -2.0709   -7.6637   18.7817 C   0  0  0  0  0  0  0  0  0  0  0  0
   -0.5279   -8.2168   17.0717 C   0  0  0  0  0  0  0  0  0  0  0  0
    6.9694   -4.0191   27.8190 C   0  0  0  0  0  0  0  0  0  0  0  0
    5.1733   -4.5469   29.8123 C   0  0  0  0  0  0  0  0  0  0  0  0
   -1.7508  -11.3016   18.6072 C   0  0  0  0  0  0  0  0  0  0  0  0
    1.7497   -5.6771   26.4971 C   0  0  0  0  0  0  0  0  0  0  0  0
   -1.5799   -9.9322   18.3468 C   0  0  0  0  0  0  0  0  0  0  0  0
   -1.0871  -12.2214   17.8851 C   0  0  0  0  0  0  0  0  0  0  0  0
   -2.2706   -8.9669   19.0691 C   0  0  0  0  0  0  0  0  0  0  0  0
    3.0279   -5.3073   26.8197 C   0  0  0  0  0  0  0  0  0  0  0  0
    7.3282   -3.8948   29.1186 C   0  0  0  0  0  0  0  0  0  0  0  0
  1  3  4  0
  1  7  4  0
  2  3  1  0
  2  6  4  0
  2 16  4  0
  3 22  4  0
  4  9  4  0
  4 10  1  0
  4 20  4  0
  5 16  4  0
  5 23  4  0
  6 15  4  0
  7 12  4  0
  8 13  4  0
  8 14  4  0
  9 11  4  0
 11 14  4  0
 11 19  4  0
 12 18  4  0
 13 21  4  0
 15 23  4  0
 17 19  4  0
 17 20  4  0
 18 22  4  0
 19 21  4  0
M  END
$$$$

 Created by Python create_sdf_string function

 23 25  0  0  0  0  0  0  0  0999 V2000
    2.4610   -5.3070   29.1240 C   0  0  0  0  0  0  0  0  0  0  0  0
    4.7710   -4.6952   28.4803 C   0  0  0  0  0  0  0  0  0  0  0  0
    3.4047   -5.1087   28.1314 C   0  0  0  0  0  0  0  0  0  0  0  0
   -0.2234  -11.8615   16.8874 C   0  0  0  0  0  0  0  0  0  0  0  0
    6.4491   -4.1532   30.1213 C   0  0  0  0  0  0  0  0  0  0  0  0
    5.7060   -4.4340   27.4975 C   0  0  0  0  0  0  0  0  0  0  0  0
    1.1818   -5.6612   28.8399 C   0  0  0  0  0  0  0  0  0  0  0  0
   -1.2067   -7.3287   17.7772 C   0  0  0  0  0  0  0  0  0  0  0  0
   -0.0206  -10.5585   16.6210 C   0  0  0  0  0  0  0  0  0  0  0  0
    0.3696  -12.7626   16.2169 O   0  0  0  0  0  0  0  0  0  0  0  0
   -0.6895   -9.5676   17.3297 C   0  0  0  0  0  0  0  0  0  0  0  0
    0.8388   -5.8417   27.5264 C   0  0  0  0  0  0  0  0  0  0  0  0
   -2.0709   -7.6637   18.7817 C   0  0  0  0  0  0  0  0  0  0  0  0
   -0.5279   -8.2168   17.0717 C   0  0  0  0  0  0  0  0  0  0  0  0
    6.9694   -4.0191   27.8190 C   0  0  0  0  0  0  0  0  0  0  0  0
    5.1733   -4.5469   29.8123 C   0  0  0  0  0  0  0  0  0  0  0  0
   -1.7508  -11.3016   18.6072 C   0  0  0  0  0  0  0  0  0  0  0  0
    1.7497   -5.6771   26.4971 C   0  0  0  0  0  0  0  0  0  0  0  0
   -1.5799   -9.9322   18.3468 C   0  0  0  0  0  0  0  0  0  0  0  0
   -1.0871  -12.2214   17.8851 C   0  0  0  0  0  0  0  0  0  0  0  0
   -2.2706   -8.9669   19.0691 C   0  0  0  0  0  0  0  0  0  0  0  0
    3.0279   -5.3073   26.8197 C   0  0  0  0  0  0  0  0  0  0  0  0
    7.3282   -3.8948   29.1186 C   0  0  0  0  0  0  0  0  0  0  0  0
  1  3  4  0
  1  7  4  0
  2  3  1  0
  2  6  4  0
  2 16  4  0
  3 22  4  0
  4  9  4  0
  4 10  1  0
  4 20  4  0
  5 16  4  0
  5 23  4  0
  6 15  4  0
  7 12  4  0
  8 13  4  0
  8 14  4  0
  9 11  4  0
 11 14  4  0
 11 19  4  0
 12 18  4  0
 13 21  4  0
 15 23  4  0
 17 19  4  0
 17 20  4  0
 18 22  4  0
 19 21  4  0
M  END
$$$$

 Created by Python create_sdf_string function

 23 25  0  0  0  0  0  0  0  0999 V2000
    2.4610   -5.3070   29.1240 C   0  0  0  0  0  0  0  0  0  0  0  0
    4.7710   -4.6952   28.4803 C   0  0  0  0  0  0  0  0  0  0  0  0
    3.4047   -5.1087   28.1314 C   0  0  0  0  0  0  0  0  0  0  0  0
   -0.2234  -11.8615   16.8874 C   0  0  0  0  0  0  0  0  0  0  0  0
    6.4491   -4.1532   30.1213 C   0  0  0  0  0  0  0  0  0  0  0  0
    5.7060   -4.4340   27.4975 C   0  0  0  0  0  0  0  0  0  0  0  0
    1.1818   -5.6612   28.8399 C   0  0  0  0  0  0  0  0  0  0  0  0
   -1.2067   -7.3287   17.7772 C   0  0  0  0  0  0  0  0  0  0  0  0
   -0.0206  -10.5585   16.6210 C   0  0  0  0  0  0  0  0  0  0  0  0
    0.3696  -12.7626   16.2169 O   0  0  0  0  0  0  0  0  0  0  0  0
   -0.6895   -9.5676   17.3297 C   0  0  0  0  0  0  0  0  0  0  0  0
    0.8388   -5.8417   27.5264 C   0  0  0  0  0  0  0  0  0  0  0  0
   -2.0709   -7.6637   18.7817 C   0  0  0  0  0  0  0  0  0  0  0  0
   -0.5279   -8.2168   17.0717 C   0  0  0  0  0  0  0  0  0  0  0  0
    6.9694   -4.0191   27.8190 C   0  0  0  0  0  0  0  0  0  0  0  0
    5.1733   -4.5469   29.8123 C   0  0  0  0  0  0  0  0  0  0  0  0
   -1.7508  -11.3016   18.6072 C   0  0  0  0  0  0  0  0  0  0  0  0
    1.7497   -5.6771   26.4971 C   0  0  0  0  0  0  0  0  0  0  0  0
   -1.5799   -9.9322   18.3468 C   0  0  0  0  0  0  0  0  0  0  0  0
   -1.0871  -12.2214   17.8851 C   0  0  0  0  0  0  0  0  0  0  0  0
   -2.2706   -8.9669   19.0691 C   0  0  0  0  0  0  0  0  0  0  0  0
    3.0279   -5.3073   26.8197 C   0  0  0  0  0  0  0  0  0  0  0  0
    7.3282   -3.8948   29.1186 C   0  0  0  0  0  0  0  0  0  0  0  0
  1  3  4  0
  1  7  4  0
  2  3  1  0
  2  6  4  0
  2 16  4  0
  3 22  4  0
  4  9  4  0
  4 10  1  0
  4 20  4  0
  5 16  4  0
  5 23  4  0
  6 15  4  0
  7 12  4  0
  8 13  4  0
  8 14  4  0
  9 11  4  0
 11 14  4  0
 11 19  4  0
 12 18  4  0
 13 21  4  0
 15 23  4  0
 17 19  4  0
 17 20  4  0
 18 22  4  0
 19 21  4  0
M  END
$$$$

 Created by Python create_sdf_string function

 23 25  0  0  0  0  0  0  0  0999 V2000
    2.4610   -5.3070   29.1240 C   0  0  0  0  0  0  0  0  0  0  0  0
    4.7710   -4.6952   28.4803 C   0  0  0  0  0  0  0  0  0  0  0  0
    3.4047   -5.1087   28.1314 C   0  0  0  0  0  0  0  0  0  0  0  0
   -0.2234  -11.8615   16.8874 C   0  0  0  0  0  0  0  0  0  0  0  0
    6.4491   -4.1532   30.1213 C   0  0  0  0  0  0  0  0  0  0  0  0
    5.7060   -4.4340   27.4975 C   0  0  0  0  0  0  0  0  0  0  0  0
    1.1818   -5.6612   28.8399 C   0  0  0  0  0  0  0  0  0  0  0  0
   -1.2067   -7.3287   17.7772 C   0  0  0  0  0  0  0  0  0  0  0  0
   -0.0206  -10.5585   16.6210 C   0  0  0  0  0  0  0  0  0  0  0  0
    0.3696  -12.7626   16.2169 O   0  0  0  0  0  0  0  0  0  0  0  0
   -0.6895   -9.5676   17.3297 C   0  0  0  0  0  0  0  0  0  0  0  0
    0.8388   -5.8417   27.5264 C   0  0  0  0  0  0  0  0  0  0  0  0
   -2.0709   -7.6637   18.7817 C   0  0  0  0  0  0  0  0  0  0  0  0
   -0.5279   -8.2168   17.0717 C   0  0  0  0  0  0  0  0  0  0  0  0
    6.9694   -4.0191   27.8190 C   0  0  0  0  0  0  0  0  0  0  0  0
    5.1733   -4.5469   29.8123 C   0  0  0  0  0  0  0  0  0  0  0  0
   -1.7508  -11.3016   18.6072 C   0  0  0  0  0  0  0  0  0  0  0  0
    1.7497   -5.6771   26.4971 C   0  0  0  0  0  0  0  0  0  0  0  0
   -1.5799   -9.9322   18.3468 C   0  0  0  0  0  0  0  0  0  0  0  0
   -1.0871  -12.2214   17.8851 C   0  0  0  0  0  0  0  0  0  0  0  0
   -2.2706   -8.9669   19.0691 C   0  0  0  0  0  0  0  0  0  0  0  0
    3.0279   -5.3073   26.8197 C   0  0  0  0  0  0  0  0  0  0  0  0
    7.3282   -3.8948   29.1186 C   0  0  0  0  0  0  0  0  0  0  0  0
  1  3  4  0
  1  7  4  0
  2  3  1  0
  2  6  4  0
  2 16  4  0
  3 22  4  0
  4  9  4  0
  4 10  1  0
  4 20  4  0
  5 16  4  0
  5 23  4  0
  6 15  4  0
  7 12  4  0
  8 13  4  0
  8 14  4  0
  9 11  4  0
 11 14  4  0
 11 19  4  0
 12 18  4  0
 13 21  4  0
 15 23  4  0
 17 19  4  0
 17 20  4  0
 18 22  4  0
 19 21  4  0
M  END
$$$$

 Created by Python create_sdf_string function

 23 25  0  0  0  0  0  0  0  0999 V2000
    2.4610   -5.3070   29.1240 C   0  0  0  0  0  0  0  0  0  0  0  0
    4.7710   -4.6952   28.4803 C   0  0  0  0  0  0  0  0  0  0  0  0
    3.4047   -5.1087   28.1314 C   0  0  0  0  0  0  0  0  0  0  0  0
   -0.2234  -11.8615   16.8874 C   0  0  0  0  0  0  0  0  0  0  0  0
    6.4491   -4.1532   30.1213 C   0  0  0  0  0  0  0  0  0  0  0  0
    5.7060   -4.4340   27.4975 C   0  0  0  0  0  0  0  0  0  0  0  0
    1.1818   -5.6612   28.8399 C   0  0  0  0  0  0  0  0  0  0  0  0
   -1.2067   -7.3287   17.7772 C   0  0  0  0  0  0  0  0  0  0  0  0
   -0.0206  -10.5585   16.6210 C   0  0  0  0  0  0  0  0  0  0  0  0
    0.3696  -12.7626   16.2169 O   0  0  0  0  0  0  0  0  0  0  0  0
   -0.6895   -9.5676   17.3297 C   0  0  0  0  0  0  0  0  0  0  0  0
    0.8388   -5.8417   27.5264 C   0  0  0  0  0  0  0  0  0  0  0  0
   -2.0709   -7.6637   18.7817 C   0  0  0  0  0  0  0  0  0  0  0  0
   -0.5279   -8.2168   17.0717 C   0  0  0  0  0  0  0  0  0  0  0  0
    6.9694   -4.0191   27.8190 C   0  0  0  0  0  0  0  0  0  0  0  0
    5.1733   -4.5469   29.8123 C   0  0  0  0  0  0  0  0  0  0  0  0
   -1.7508  -11.3016   18.6072 C   0  0  0  0  0  0  0  0  0  0  0  0
    1.7497   -5.6771   26.4971 C   0  0  0  0  0  0  0  0  0  0  0  0
   -1.5799   -9.9322   18.3468 C   0  0  0  0  0  0  0  0  0  0  0  0
   -1.0871  -12.2214   17.8851 C   0  0  0  0  0  0  0  0  0  0  0  0
   -2.2706   -8.9669   19.0691 C   0  0  0  0  0  0  0  0  0  0  0  0
    3.0279   -5.3073   26.8197 C   0  0  0  0  0  0  0  0  0  0  0  0
    7.3282   -3.8948   29.1186 C   0  0  0  0  0  0  0  0  0  0  0  0
  1  3  4  0
  1  7  4  0
  2  3  1  0
  2  6  4  0
  2 16  4  0
  3 22  4  0
  4  9  4  0
  4 10  1  0
  4 20  4  0
  5 16  4  0
  5 23  4  0
  6 15  4  0
  7 12  4  0
  8 13  4  0
  8 14  4  0
  9 11  4  0
 11 14  4  0
 11 19  4  0
 12 18  4  0
 13 21  4  0
 15 23  4  0
 17 19  4  0
 17 20  4  0
 18 22  4  0
 19 21  4  0
M  END
$$$$

 Created by Python create_sdf_string function

 23 25  0  0  0  0  0  0  0  0999 V2000
    2.4610   -5.3070   29.1240 C   0  0  0  0  0  0  0  0  0  0  0  0
    4.7710   -4.6952   28.4803 C   0  0  0  0  0  0  0  0  0  0  0  0
    3.4047   -5.1087   28.1314 C   0  0  0  0  0  0  0  0  0  0  0  0
   -0.2234  -11.8615   16.8874 C   0  0  0  0  0  0  0  0  0  0  0  0
    6.4491   -4.1532   30.1213 C   0  0  0  0  0  0  0  0  0  0  0  0
    5.7060   -4.4340   27.4975 C   0  0  0  0  0  0  0  0  0  0  0  0
    1.1818   -5.6612   28.8399 C   0  0  0  0  0  0  0  0  0  0  0  0
   -1.2067   -7.3287   17.7772 C   0  0  0  0  0  0  0  0  0  0  0  0
   -0.0206  -10.5585   16.6210 C   0  0  0  0  0  0  0  0  0  0  0  0
    0.3696  -12.7626   16.2169 O   0  0  0  0  0  0  0  0  0  0  0  0
   -0.6895   -9.5676   17.3297 C   0  0  0  0  0  0  0  0  0  0  0  0
    0.8388   -5.8417   27.5264 C   0  0  0  0  0  0  0  0  0  0  0  0
   -2.0709   -7.6637   18.7817 C   0  0  0  0  0  0  0  0  0  0  0  0
   -0.5279   -8.2168   17.0717 C   0  0  0  0  0  0  0  0  0  0  0  0
    6.9694   -4.0191   27.8190 C   0  0  0  0  0  0  0  0  0  0  0  0
    5.1733   -4.5469   29.8123 C   0  0  0  0  0  0  0  0  0  0  0  0
   -1.7508  -11.3016   18.6072 C   0  0  0  0  0  0  0  0  0  0  0  0
    1.7497   -5.6771   26.4971 C   0  0  0  0  0  0  0  0  0  0  0  0
   -1.5799   -9.9322   18.3468 C   0  0  0  0  0  0  0  0  0  0  0  0
   -1.0871  -12.2214   17.8851 C   0  0  0  0  0  0  0  0  0  0  0  0
   -2.2706   -8.9669   19.0691 C   0  0  0  0  0  0  0  0  0  0  0  0
    3.0279   -5.3073   26.8197 C   0  0  0  0  0  0  0  0  0  0  0  0
    7.3282   -3.8948   29.1186 C   0  0  0  0  0  0  0  0  0  0  0  0
  1  3  4  0
  1  7  4  0
  2  3  1  0
  2  6  4  0
  2 16  4  0
  3 22  4  0
  4  9  4  0
  4 10  1  0
  4 20  4  0
  5 16  4  0
  5 23  4  0
  6 15  4  0
  7 12  4  0
  8 13  4  0
  8 14  4  0
  9 11  4  0
 11 14  4  0
 11 19  4  0
 12 18  4  0
 13 21  4  0
 15 23  4  0
 17 19  4  0
 17 20  4  0
 18 22  4  0
 19 21  4  0
M  END
$$$$

 Created by Python create_sdf_string function

 23 25  0  0  0  0  0  0  0  0999 V2000
    2.4610   -5.3070   29.1240 C   0  0  0  0  0  0  0  0  0  0  0  0
    4.7710   -4.6952   28.4803 C   0  0  0  0  0  0  0  0  0  0  0  0
    3.4047   -5.1087   28.1314 C   0  0  0  0  0  0  0  0  0  0  0  0
   -0.2234  -11.8615   16.8874 C   0  0  0  0  0  0  0  0  0  0  0  0
    6.4491   -4.1532   30.1213 C   0  0  0  0  0  0  0  0  0  0  0  0
    5.7060   -4.4340   27.4975 C   0  0  0  0  0  0  0  0  0  0  0  0
    1.1818   -5.6612   28.8399 C   0  0  0  0  0  0  0  0  0  0  0  0
   -1.2067   -7.3287   17.7772 C   0  0  0  0  0  0  0  0  0  0  0  0
   -0.0206  -10.5585   16.6210 C   0  0  0  0  0  0  0  0  0  0  0  0
    0.3696  -12.7626   16.2169 O   0  0  0  0  0  0  0  0  0  0  0  0
   -0.6895   -9.5676   17.3297 C   0  0  0  0  0  0  0  0  0  0  0  0
    0.8388   -5.8417   27.5264 C   0  0  0  0  0  0  0  0  0  0  0  0
   -2.0709   -7.6637   18.7817 C   0  0  0  0  0  0  0  0  0  0  0  0
   -0.5279   -8.2168   17.0717 C   0  0  0  0  0  0  0  0  0  0  0  0
    6.9694   -4.0191   27.8190 C   0  0  0  0  0  0  0  0  0  0  0  0
    5.1733   -4.5469   29.8123 C   0  0  0  0  0  0  0  0  0  0  0  0
   -1.7508  -11.3016   18.6072 C   0  0  0  0  0  0  0  0  0  0  0  0
    1.7497   -5.6771   26.4971 C   0  0  0  0  0  0  0  0  0  0  0  0
   -1.5799   -9.9322   18.3468 C   0  0  0  0  0  0  0  0  0  0  0  0
   -1.0871  -12.2214   17.8851 C   0  0  0  0  0  0  0  0  0  0  0  0
   -2.2706   -8.9669   19.0691 C   0  0  0  0  0  0  0  0  0  0  0  0
    3.0279   -5.3073   26.8197 C   0  0  0  0  0  0  0  0  0  0  0  0
    7.3282   -3.8948   29.1186 C   0  0  0  0  0  0  0  0  0  0  0  0
  1  3  4  0
  1  7  4  0
  2  3  1  0
  2  6  4  0
  2 16  4  0
  3 22  4  0
  4  9  4  0
  4 10  1  0
  4 20  4  0
  5 16  4  0
  5 23  4  0
  6 15  4  0
  7 12  4  0
  8 13  4  0
  8 14  4  0
  9 11  4  0
 11 14  4  0
 11 19  4  0
 12 18  4  0
 13 21  4  0
 15 23  4  0
 17 19  4  0
 17 20  4  0
 18 22  4  0
 19 21  4  0
M  END
$$$$

 Created by Python create_sdf_string function

 23 25  0  0  0  0  0  0  0  0999 V2000
    2.4610   -5.3070   29.1240 C   0  0  0  0  0  0  0  0  0  0  0  0
    4.7710   -4.6952   28.4803 C   0  0  0  0  0  0  0  0  0  0  0  0
    3.4047   -5.1087   28.1314 C   0  0  0  0  0  0  0  0  0  0  0  0
   -0.2234  -11.8615   16.8874 C   0  0  0  0  0  0  0  0  0  0  0  0
    6.4491   -4.1532   30.1213 C   0  0  0  0  0  0  0  0  0  0  0  0
    5.7060   -4.4340   27.4975 C   0  0  0  0  0  0  0  0  0  0  0  0
    1.1818   -5.6612   28.8399 C   0  0  0  0  0  0  0  0  0  0  0  0
   -1.2067   -7.3287   17.7772 C   0  0  0  0  0  0  0  0  0  0  0  0
   -0.0206  -10.5585   16.6210 C   0  0  0  0  0  0  0  0  0  0  0  0
    0.3696  -12.7626   16.2169 O   0  0  0  0  0  0  0  0  0  0  0  0
   -0.6895   -9.5676   17.3297 C   0  0  0  0  0  0  0  0  0  0  0  0
    0.8388   -5.8417   27.5264 C   0  0  0  0  0  0  0  0  0  0  0  0
   -2.0709   -7.6637   18.7817 C   0  0  0  0  0  0  0  0  0  0  0  0
   -0.5279   -8.2168   17.0717 C   0  0  0  0  0  0  0  0  0  0  0  0
    6.9694   -4.0191   27.8190 C   0  0  0  0  0  0  0  0  0  0  0  0
    5.1733   -4.5469   29.8123 C   0  0  0  0  0  0  0  0  0  0  0  0
   -1.7508  -11.3016   18.6072 C   0  0  0  0  0  0  0  0  0  0  0  0
    1.7497   -5.6771   26.4971 C   0  0  0  0  0  0  0  0  0  0  0  0
   -1.5799   -9.9322   18.3468 C   0  0  0  0  0  0  0  0  0  0  0  0
   -1.0871  -12.2214   17.8851 C   0  0  0  0  0  0  0  0  0  0  0  0
   -2.2706   -8.9669   19.0691 C   0  0  0  0  0  0  0  0  0  0  0  0
    3.0279   -5.3073   26.8197 C   0  0  0  0  0  0  0  0  0  0  0  0
    7.3282   -3.8948   29.1186 C   0  0  0  0  0  0  0  0  0  0  0  0
  1  3  4  0
  1  7  4  0
  2  3  1  0
  2  6  4  0
  2 16  4  0
  3 22  4  0
  4  9  4  0
  4 10  1  0
  4 20  4  0
  5 16  4  0
  5 23  4  0
  6 15  4  0
  7 12  4  0
  8 13  4  0
  8 14  4  0
  9 11  4  0
 11 14  4  0
 11 19  4  0
 12 18  4  0
 13 21  4  0
 15 23  4  0
 17 19  4  0
 17 20  4  0
 18 22  4  0
 19 21  4  0
M  END
$$$$

 Created by Python create_sdf_string function

 23 25  0  0  0  0  0  0  0  0999 V2000
    2.4610   -5.3070   29.1240 C   0  0  0  0  0  0  0  0  0  0  0  0
    4.7710   -4.6952   28.4803 C   0  0  0  0  0  0  0  0  0  0  0  0
    3.4047   -5.1087   28.1314 C   0  0  0  0  0  0  0  0  0  0  0  0
   -0.2234  -11.8615   16.8874 C   0  0  0  0  0  0  0  0  0  0  0  0
    6.4491   -4.1532   30.1213 C   0  0  0  0  0  0  0  0  0  0  0  0
    5.7060   -4.4340   27.4975 C   0  0  0  0  0  0  0  0  0  0  0  0
    1.1818   -5.6612   28.8399 C   0  0  0  0  0  0  0  0  0  0  0  0
   -1.2067   -7.3287   17.7772 C   0  0  0  0  0  0  0  0  0  0  0  0
   -0.0206  -10.5585   16.6210 C   0  0  0  0  0  0  0  0  0  0  0  0
    0.3696  -12.7626   16.2169 O   0  0  0  0  0  0  0  0  0  0  0  0
   -0.6895   -9.5676   17.3297 C   0  0  0  0  0  0  0  0  0  0  0  0
    0.8388   -5.8417   27.5264 C   0  0  0  0  0  0  0  0  0  0  0  0
   -2.0709   -7.6637   18.7817 C   0  0  0  0  0  0  0  0  0  0  0  0
   -0.5279   -8.2168   17.0717 C   0  0  0  0  0  0  0  0  0  0  0  0
    6.9694   -4.0191   27.8190 C   0  0  0  0  0  0  0  0  0  0  0  0
    5.1733   -4.5469   29.8123 C   0  0  0  0  0  0  0  0  0  0  0  0
   -1.7508  -11.3016   18.6072 C   0  0  0  0  0  0  0  0  0  0  0  0
    1.7497   -5.6771   26.4971 C   0  0  0  0  0  0  0  0  0  0  0  0
   -1.5799   -9.9322   18.3468 C   0  0  0  0  0  0  0  0  0  0  0  0
   -1.0871  -12.2214   17.8851 C   0  0  0  0  0  0  0  0  0  0  0  0
   -2.2706   -8.9669   19.0691 C   0  0  0  0  0  0  0  0  0  0  0  0
    3.0279   -5.3073   26.8197 C   0  0  0  0  0  0  0  0  0  0  0  0
    7.3282   -3.8948   29.1186 C   0  0  0  0  0  0  0  0  0  0  0  0
  1  3  4  0
  1  7  4  0
  2  3  1  0
  2  6  4  0
  2 16  4  0
  3 22  4  0
  4  9  4  0
  4 10  1  0
  4 20  4  0
  5 16  4  0
  5 23  4  0
  6 15  4  0
  7 12  4  0
  8 13  4  0
  8 14  4  0
  9 11  4  0
 11 14  4  0
 11 19  4  0
 12 18  4  0
 13 21  4  0
 15 23  4  0
 17 19  4  0
 17 20  4  0
 18 22  4  0
 19 21  4  0
M  END
$$$$

 Created by Python create_sdf_string function

 23 25  0  0  0  0  0  0  0  0999 V2000
    2.4610   -5.3070   29.1240 C   0  0  0  0  0  0  0  0  0  0  0  0
    4.7710   -4.6952   28.4803 C   0  0  0  0  0  0  0  0  0  0  0  0
    3.4047   -5.1087   28.1314 C   0  0  0  0  0  0  0  0  0  0  0  0
   -0.2234  -11.8615   16.8874 C   0  0  0  0  0  0  0  0  0  0  0  0
    6.4491   -4.1532   30.1213 C   0  0  0  0  0  0  0  0  0  0  0  0
    5.7060   -4.4340   27.4975 C   0  0  0  0  0  0  0  0  0  0  0  0
    1.1818   -5.6612   28.8399 C   0  0  0  0  0  0  0  0  0  0  0  0
   -1.2067   -7.3287   17.7772 C   0  0  0  0  0  0  0  0  0  0  0  0
   -0.0206  -10.5585   16.6210 C   0  0  0  0  0  0  0  0  0  0  0  0
    0.3696  -12.7626   16.2169 O   0  0  0  0  0  0  0  0  0  0  0  0
   -0.6895   -9.5676   17.3297 C   0  0  0  0  0  0  0  0  0  0  0  0
    0.8388   -5.8417   27.5264 C   0  0  0  0  0  0  0  0  0  0  0  0
   -2.0709   -7.6637   18.7817 C   0  0  0  0  0  0  0  0  0  0  0  0
   -0.5279   -8.2168   17.0717 C   0  0  0  0  0  0  0  0  0  0  0  0
    6.9694   -4.0191   27.8190 C   0  0  0  0  0  0  0  0  0  0  0  0
    5.1733   -4.5469   29.8123 C   0  0  0  0  0  0  0  0  0  0  0  0
   -1.7508  -11.3016   18.6072 C   0  0  0  0  0  0  0  0  0  0  0  0
    1.7497   -5.6771   26.4971 C   0  0  0  0  0  0  0  0  0  0  0  0
   -1.5799   -9.9322   18.3468 C   0  0  0  0  0  0  0  0  0  0  0  0
   -1.0871  -12.2214   17.8851 C   0  0  0  0  0  0  0  0  0  0  0  0
   -2.2706   -8.9669   19.0691 C   0  0  0  0  0  0  0  0  0  0  0  0
    3.0279   -5.3073   26.8197 C   0  0  0  0  0  0  0  0  0  0  0  0
    7.3282   -3.8948   29.1186 C   0  0  0  0  0  0  0  0  0  0  0  0
  1  3  4  0
  1  7  4  0
  2  3  1  0
  2  6  4  0
  2 16  4  0
  3 22  4  0
  4  9  4  0
  4 10  1  0
  4 20  4  0
  5 16  4  0
  5 23  4  0
  6 15  4  0
  7 12  4  0
  8 13  4  0
  8 14  4  0
  9 11  4  0
 11 14  4  0
 11 19  4  0
 12 18  4  0
 13 21  4  0
 15 23  4  0
 17 19  4  0
 17 20  4  0
 18 22  4  0
 19 21  4  0
M  END
$$$$

 Created by Python create_sdf_string function

 23 25  0  0  0  0  0  0  0  0999 V2000
    2.4610   -5.3070   29.1240 C   0  0  0  0  0  0  0  0  0  0  0  0
    4.7710   -4.6952   28.4803 C   0  0  0  0  0  0  0  0  0  0  0  0
    3.4047   -5.1087   28.1314 C   0  0  0  0  0  0  0  0  0  0  0  0
   -0.2234  -11.8615   16.8874 C   0  0  0  0  0  0  0  0  0  0  0  0
    6.4491   -4.1532   30.1213 C   0  0  0  0  0  0  0  0  0  0  0  0
    5.7060   -4.4340   27.4975 C   0  0  0  0  0  0  0  0  0  0  0  0
    1.1818   -5.6612   28.8399 C   0  0  0  0  0  0  0  0  0  0  0  0
   -1.2067   -7.3287   17.7772 C   0  0  0  0  0  0  0  0  0  0  0  0
   -0.0206  -10.5585   16.6210 C   0  0  0  0  0  0  0  0  0  0  0  0
    0.3696  -12.7626   16.2169 O   0  0  0  0  0  0  0  0  0  0  0  0
   -0.6895   -9.5676   17.3297 C   0  0  0  0  0  0  0  0  0  0  0  0
    0.8388   -5.8417   27.5264 C   0  0  0  0  0  0  0  0  0  0  0  0
   -2.0709   -7.6637   18.7817 C   0  0  0  0  0  0  0  0  0  0  0  0
   -0.5279   -8.2168   17.0717 C   0  0  0  0  0  0  0  0  0  0  0  0
    6.9694   -4.0191   27.8190 C   0  0  0  0  0  0  0  0  0  0  0  0
    5.1733   -4.5469   29.8123 C   0  0  0  0  0  0  0  0  0  0  0  0
   -1.7508  -11.3016   18.6072 C   0  0  0  0  0  0  0  0  0  0  0  0
    1.7497   -5.6771   26.4971 C   0  0  0  0  0  0  0  0  0  0  0  0
   -1.5799   -9.9322   18.3468 C   0  0  0  0  0  0  0  0  0  0  0  0
   -1.0871  -12.2214   17.8851 C   0  0  0  0  0  0  0  0  0  0  0  0
   -2.2706   -8.9669   19.0691 C   0  0  0  0  0  0  0  0  0  0  0  0
    3.0279   -5.3073   26.8197 C   0  0  0  0  0  0  0  0  0  0  0  0
    7.3282   -3.8948   29.1186 C   0  0  0  0  0  0  0  0  0  0  0  0
  1  3  4  0
  1  7  4  0
  2  3  1  0
  2  6  4  0
  2 16  4  0
  3 22  4  0
  4  9  4  0
  4 10  1  0
  4 20  4  0
  5 16  4  0
  5 23  4  0
  6 15  4  0
  7 12  4  0
  8 13  4  0
  8 14  4  0
  9 11  4  0
 11 14  4  0
 11 19  4  0
 12 18  4  0
 13 21  4  0
 15 23  4  0
 17 19  4  0
 17 20  4  0
 18 22  4  0
 19 21  4  0
M  END
$$$$

 Created by Python create_sdf_string function

 23 25  0  0  0  0  0  0  0  0999 V2000
    2.4610   -5.3070   29.1240 C   0  0  0  0  0  0  0  0  0  0  0  0
    4.7710   -4.6952   28.4803 C   0  0  0  0  0  0  0  0  0  0  0  0
    3.4047   -5.1087   28.1314 C   0  0  0  0  0  0  0  0  0  0  0  0
   -0.2234  -11.8615   16.8874 C   0  0  0  0  0  0  0  0  0  0  0  0
    6.4491   -4.1532   30.1213 C   0  0  0  0  0  0  0  0  0  0  0  0
    5.7060   -4.4340   27.4975 C   0  0  0  0  0  0  0  0  0  0  0  0
    1.1818   -5.6612   28.8399 C   0  0  0  0  0  0  0  0  0  0  0  0
   -1.2067   -7.3287   17.7772 C   0  0  0  0  0  0  0  0  0  0  0  0
   -0.0206  -10.5585   16.6210 C   0  0  0  0  0  0  0  0  0  0  0  0
    0.3696  -12.7626   16.2169 O   0  0  0  0  0  0  0  0  0  0  0  0
   -0.6895   -9.5676   17.3297 C   0  0  0  0  0  0  0  0  0  0  0  0
    0.8388   -5.8417   27.5264 C   0  0  0  0  0  0  0  0  0  0  0  0
   -2.0709   -7.6637   18.7817 C   0  0  0  0  0  0  0  0  0  0  0  0
   -0.5279   -8.2168   17.0717 C   0  0  0  0  0  0  0  0  0  0  0  0
    6.9694   -4.0191   27.8190 C   0  0  0  0  0  0  0  0  0  0  0  0
    5.1733   -4.5469   29.8123 C   0  0  0  0  0  0  0  0  0  0  0  0
   -1.7508  -11.3016   18.6072 C   0  0  0  0  0  0  0  0  0  0  0  0
    1.7497   -5.6771   26.4971 C   0  0  0  0  0  0  0  0  0  0  0  0
   -1.5799   -9.9322   18.3468 C   0  0  0  0  0  0  0  0  0  0  0  0
   -1.0871  -12.2214   17.8851 C   0  0  0  0  0  0  0  0  0  0  0  0
   -2.2706   -8.9669   19.0691 C   0  0  0  0  0  0  0  0  0  0  0  0
    3.0279   -5.3073   26.8197 C   0  0  0  0  0  0  0  0  0  0  0  0
    7.3282   -3.8948   29.1186 C   0  0  0  0  0  0  0  0  0  0  0  0
  1  3  4  0
  1  7  4  0
  2  3  1  0
  2  6  4  0
  2 16  4  0
  3 22  4  0
  4  9  4  0
  4 10  1  0
  4 20  4  0
  5 16  4  0
  5 23  4  0
  6 15  4  0
  7 12  4  0
  8 13  4  0
  8 14  4  0
  9 11  4  0
 11 14  4  0
 11 19  4  0
 12 18  4  0
 13 21  4  0
 15 23  4  0
 17 19  4  0
 17 20  4  0
 18 22  4  0
 19 21  4  0
M  END
$$$$

 Created by Python create_sdf_string function

 23 25  0  0  0  0  0  0  0  0999 V2000
    2.4610   -5.3070   29.1240 C   0  0  0  0  0  0  0  0  0  0  0  0
    4.7710   -4.6952   28.4803 C   0  0  0  0  0  0  0  0  0  0  0  0
    3.4047   -5.1087   28.1314 C   0  0  0  0  0  0  0  0  0  0  0  0
   -0.2234  -11.8615   16.8874 C   0  0  0  0  0  0  0  0  0  0  0  0
    6.4491   -4.1532   30.1213 C   0  0  0  0  0  0  0  0  0  0  0  0
    5.7060   -4.4340   27.4975 C   0  0  0  0  0  0  0  0  0  0  0  0
    1.1818   -5.6612   28.8399 C   0  0  0  0  0  0  0  0  0  0  0  0
   -1.2067   -7.3287   17.7772 C   0  0  0  0  0  0  0  0  0  0  0  0
   -0.0206  -10.5585   16.6210 C   0  0  0  0  0  0  0  0  0  0  0  0
    0.3696  -12.7626   16.2169 O   0  0  0  0  0  0  0  0  0  0  0  0
   -0.6895   -9.5676   17.3297 C   0  0  0  0  0  0  0  0  0  0  0  0
    0.8388   -5.8417   27.5264 C   0  0  0  0  0  0  0  0  0  0  0  0
   -2.0709   -7.6637   18.7817 C   0  0  0  0  0  0  0  0  0  0  0  0
   -0.5279   -8.2168   17.0717 C   0  0  0  0  0  0  0  0  0  0  0  0
    6.9694   -4.0191   27.8190 C   0  0  0  0  0  0  0  0  0  0  0  0
    5.1733   -4.5469   29.8123 C   0  0  0  0  0  0  0  0  0  0  0  0
   -1.7508  -11.3016   18.6072 C   0  0  0  0  0  0  0  0  0  0  0  0
    1.7497   -5.6771   26.4971 C   0  0  0  0  0  0  0  0  0  0  0  0
   -1.5799   -9.9322   18.3468 C   0  0  0  0  0  0  0  0  0  0  0  0
   -1.0871  -12.2214   17.8851 C   0  0  0  0  0  0  0  0  0  0  0  0
   -2.2706   -8.9669   19.0691 C   0  0  0  0  0  0  0  0  0  0  0  0
    3.0279   -5.3073   26.8197 C   0  0  0  0  0  0  0  0  0  0  0  0
    7.3282   -3.8948   29.1186 C   0  0  0  0  0  0  0  0  0  0  0  0
  1  3  4  0
  1  7  4  0
  2  3  1  0
  2  6  4  0
  2 16  4  0
  3 22  4  0
  4  9  4  0
  4 10  1  0
  4 20  4  0
  5 16  4  0
  5 23  4  0
  6 15  4  0
  7 12  4  0
  8 13  4  0
  8 14  4  0
  9 11  4  0
 11 14  4  0
 11 19  4  0
 12 18  4  0
 13 21  4  0
 15 23  4  0
 17 19  4  0
 17 20  4  0
 18 22  4  0
 19 21  4  0
M  END
$$$$

 Created by Python create_sdf_string function

 23 25  0  0  0  0  0  0  0  0999 V2000
    2.4610   -5.3070   29.1240 C   0  0  0  0  0  0  0  0  0  0  0  0
    4.7710   -4.6952   28.4803 C   0  0  0  0  0  0  0  0  0  0  0  0
    3.4047   -5.1087   28.1314 C   0  0  0  0  0  0  0  0  0  0  0  0
   -0.2234  -11.8615   16.8874 C   0  0  0  0  0  0  0  0  0  0  0  0
    6.4491   -4.1532   30.1213 C   0  0  0  0  0  0  0  0  0  0  0  0
    5.7060   -4.4340   27.4975 C   0  0  0  0  0  0  0  0  0  0  0  0
    1.1818   -5.6612   28.8399 C   0  0  0  0  0  0  0  0  0  0  0  0
   -1.2067   -7.3287   17.7772 C   0  0  0  0  0  0  0  0  0  0  0  0
   -0.0206  -10.5585   16.6210 C   0  0  0  0  0  0  0  0  0  0  0  0
    0.3696  -12.7626   16.2169 O   0  0  0  0  0  0  0  0  0  0  0  0
   -0.6895   -9.5676   17.3297 C   0  0  0  0  0  0  0  0  0  0  0  0
    0.8388   -5.8417   27.5264 C   0  0  0  0  0  0  0  0  0  0  0  0
   -2.0709   -7.6637   18.7817 C   0  0  0  0  0  0  0  0  0  0  0  0
   -0.5279   -8.2168   17.0717 C   0  0  0  0  0  0  0  0  0  0  0  0
    6.9694   -4.0191   27.8190 C   0  0  0  0  0  0  0  0  0  0  0  0
    5.1733   -4.5469   29.8123 C   0  0  0  0  0  0  0  0  0  0  0  0
   -1.7508  -11.3016   18.6072 C   0  0  0  0  0  0  0  0  0  0  0  0
    1.7497   -5.6771   26.4971 C   0  0  0  0  0  0  0  0  0  0  0  0
   -1.5799   -9.9322   18.3468 C   0  0  0  0  0  0  0  0  0  0  0  0
   -1.0871  -12.2214   17.8851 C   0  0  0  0  0  0  0  0  0  0  0  0
   -2.2706   -8.9669   19.0691 C   0  0  0  0  0  0  0  0  0  0  0  0
    3.0279   -5.3073   26.8197 C   0  0  0  0  0  0  0  0  0  0  0  0
    7.3282   -3.8948   29.1186 C   0  0  0  0  0  0  0  0  0  0  0  0
  1  3  4  0
  1  7  4  0
  2  3  1  0
  2  6  4  0
  2 16  4  0
  3 22  4  0
  4  9  4  0
  4 10  1  0
  4 20  4  0
  5 16  4  0
  5 23  4  0
  6 15  4  0
  7 12  4  0
  8 13  4  0
  8 14  4  0
  9 11  4  0
 11 14  4  0
 11 19  4  0
 12 18  4  0
 13 21  4  0
 15 23  4  0
 17 19  4  0
 17 20  4  0
 18 22  4  0
 19 21  4  0
M  END
$$$$

 Created by Python create_sdf_string function

 23 25  0  0  0  0  0  0  0  0999 V2000
    2.4610   -5.3070   29.1240 C   0  0  0  0  0  0  0  0  0  0  0  0
    4.7710   -4.6952   28.4803 C   0  0  0  0  0  0  0  0  0  0  0  0
    3.4047   -5.1087   28.1314 C   0  0  0  0  0  0  0  0  0  0  0  0
   -0.2234  -11.8615   16.8874 C   0  0  0  0  0  0  0  0  0  0  0  0
    6.4491   -4.1532   30.1213 C   0  0  0  0  0  0  0  0  0  0  0  0
    5.7060   -4.4340   27.4975 C   0  0  0  0  0  0  0  0  0  0  0  0
    1.1818   -5.6612   28.8399 C   0  0  0  0  0  0  0  0  0  0  0  0
   -1.2067   -7.3287   17.7772 C   0  0  0  0  0  0  0  0  0  0  0  0
   -0.0206  -10.5585   16.6210 C   0  0  0  0  0  0  0  0  0  0  0  0
    0.3696  -12.7626   16.2169 O   0  0  0  0  0  0  0  0  0  0  0  0
   -0.6895   -9.5676   17.3297 C   0  0  0  0  0  0  0  0  0  0  0  0
    0.8388   -5.8417   27.5264 C   0  0  0  0  0  0  0  0  0  0  0  0
   -2.0709   -7.6637   18.7817 C   0  0  0  0  0  0  0  0  0  0  0  0
   -0.5279   -8.2168   17.0717 C   0  0  0  0  0  0  0  0  0  0  0  0
    6.9694   -4.0191   27.8190 C   0  0  0  0  0  0  0  0  0  0  0  0
    5.1733   -4.5469   29.8123 C   0  0  0  0  0  0  0  0  0  0  0  0
   -1.7508  -11.3016   18.6072 C   0  0  0  0  0  0  0  0  0  0  0  0
    1.7497   -5.6771   26.4971 C   0  0  0  0  0  0  0  0  0  0  0  0
   -1.5799   -9.9322   18.3468 C   0  0  0  0  0  0  0  0  0  0  0  0
   -1.0871  -12.2214   17.8851 C   0  0  0  0  0  0  0  0  0  0  0  0
   -2.2706   -8.9669   19.0691 C   0  0  0  0  0  0  0  0  0  0  0  0
    3.0279   -5.3073   26.8197 C   0  0  0  0  0  0  0  0  0  0  0  0
    7.3282   -3.8948   29.1186 C   0  0  0  0  0  0  0  0  0  0  0  0
  1  3  4  0
  1  7  4  0
  2  3  1  0
  2  6  4  0
  2 16  4  0
  3 22  4  0
  4  9  4  0
  4 10  1  0
  4 20  4  0
  5 16  4  0
  5 23  4  0
  6 15  4  0
  7 12  4  0
  8 13  4  0
  8 14  4  0
  9 11  4  0
 11 14  4  0
 11 19  4  0
 12 18  4  0
 13 21  4  0
 15 23  4  0
 17 19  4  0
 17 20  4  0
 18 22  4  0
 19 21  4  0
M  END
$$$$

 Created by Python create_sdf_string function

 23 25  0  0  0  0  0  0  0  0999 V2000
    2.4610   -5.3070   29.1240 C   0  0  0  0  0  0  0  0  0  0  0  0
    4.7710   -4.6952   28.4803 C   0  0  0  0  0  0  0  0  0  0  0  0
    3.4047   -5.1087   28.1314 C   0  0  0  0  0  0  0  0  0  0  0  0
   -0.2234  -11.8615   16.8874 C   0  0  0  0  0  0  0  0  0  0  0  0
    6.4491   -4.1532   30.1213 C   0  0  0  0  0  0  0  0  0  0  0  0
    5.7060   -4.4340   27.4975 C   0  0  0  0  0  0  0  0  0  0  0  0
    1.1818   -5.6612   28.8399 C   0  0  0  0  0  0  0  0  0  0  0  0
   -1.2067   -7.3287   17.7772 C   0  0  0  0  0  0  0  0  0  0  0  0
   -0.0206  -10.5585   16.6210 C   0  0  0  0  0  0  0  0  0  0  0  0
    0.3696  -12.7626   16.2169 O   0  0  0  0  0  0  0  0  0  0  0  0
   -0.6895   -9.5676   17.3297 C   0  0  0  0  0  0  0  0  0  0  0  0
    0.8388   -5.8417   27.5264 C   0  0  0  0  0  0  0  0  0  0  0  0
   -2.0709   -7.6637   18.7817 C   0  0  0  0  0  0  0  0  0  0  0  0
   -0.5279   -8.2168   17.0717 C   0  0  0  0  0  0  0  0  0  0  0  0
    6.9694   -4.0191   27.8190 C   0  0  0  0  0  0  0  0  0  0  0  0
    5.1733   -4.5469   29.8123 C   0  0  0  0  0  0  0  0  0  0  0  0
   -1.7508  -11.3016   18.6072 C   0  0  0  0  0  0  0  0  0  0  0  0
    1.7497   -5.6771   26.4971 C   0  0  0  0  0  0  0  0  0  0  0  0
   -1.5799   -9.9322   18.3468 C   0  0  0  0  0  0  0  0  0  0  0  0
   -1.0871  -12.2214   17.8851 C   0  0  0  0  0  0  0  0  0  0  0  0
   -2.2706   -8.9669   19.0691 C   0  0  0  0  0  0  0  0  0  0  0  0
    3.0279   -5.3073   26.8197 C   0  0  0  0  0  0  0  0  0  0  0  0
    7.3282   -3.8948   29.1186 C   0  0  0  0  0  0  0  0  0  0  0  0
  1  3  4  0
  1  7  4  0
  2  3  1  0
  2  6  4  0
  2 16  4  0
  3 22  4  0
  4  9  4  0
  4 10  1  0
  4 20  4  0
  5 16  4  0
  5 23  4  0
  6 15  4  0
  7 12  4  0
  8 13  4  0
  8 14  4  0
  9 11  4  0
 11 14  4  0
 11 19  4  0
 12 18  4  0
 13 21  4  0
 15 23  4  0
 17 19  4  0
 17 20  4  0
 18 22  4  0
 19 21  4  0
M  END
$$$$

 Created by Python create_sdf_string function

 23 25  0  0  0  0  0  0  0  0999 V2000
    2.4610   -5.3070   29.1240 C   0  0  0  0  0  0  0  0  0  0  0  0
    4.7710   -4.6952   28.4803 C   0  0  0  0  0  0  0  0  0  0  0  0
    3.4047   -5.1087   28.1314 C   0  0  0  0  0  0  0  0  0  0  0  0
   -0.2234  -11.8615   16.8874 C   0  0  0  0  0  0  0  0  0  0  0  0
    6.4491   -4.1532   30.1213 C   0  0  0  0  0  0  0  0  0  0  0  0
    5.7060   -4.4340   27.4975 C   0  0  0  0  0  0  0  0  0  0  0  0
    1.1818   -5.6612   28.8399 C   0  0  0  0  0  0  0  0  0  0  0  0
   -1.2067   -7.3287   17.7772 C   0  0  0  0  0  0  0  0  0  0  0  0
   -0.0206  -10.5585   16.6210 C   0  0  0  0  0  0  0  0  0  0  0  0
    0.3696  -12.7626   16.2169 O   0  0  0  0  0  0  0  0  0  0  0  0
   -0.6895   -9.5676   17.3297 C   0  0  0  0  0  0  0  0  0  0  0  0
    0.8388   -5.8417   27.5264 C   0  0  0  0  0  0  0  0  0  0  0  0
   -2.0709   -7.6637   18.7817 C   0  0  0  0  0  0  0  0  0  0  0  0
   -0.5279   -8.2168   17.0717 C   0  0  0  0  0  0  0  0  0  0  0  0
    6.9694   -4.0191   27.8190 C   0  0  0  0  0  0  0  0  0  0  0  0
    5.1733   -4.5469   29.8123 C   0  0  0  0  0  0  0  0  0  0  0  0
   -1.7508  -11.3016   18.6072 C   0  0  0  0  0  0  0  0  0  0  0  0
    1.7497   -5.6771   26.4971 C   0  0  0  0  0  0  0  0  0  0  0  0
   -1.5799   -9.9322   18.3468 C   0  0  0  0  0  0  0  0  0  0  0  0
   -1.0871  -12.2214   17.8851 C   0  0  0  0  0  0  0  0  0  0  0  0
   -2.2706   -8.9669   19.0691 C   0  0  0  0  0  0  0  0  0  0  0  0
    3.0279   -5.3073   26.8197 C   0  0  0  0  0  0  0  0  0  0  0  0
    7.3282   -3.8948   29.1186 C   0  0  0  0  0  0  0  0  0  0  0  0
  1  3  4  0
  1  7  4  0
  2  3  1  0
  2  6  4  0
  2 16  4  0
  3 22  4  0
  4  9  4  0
  4 10  1  0
  4 20  4  0
  5 16  4  0
  5 23  4  0
  6 15  4  0
  7 12  4  0
  8 13  4  0
  8 14  4  0
  9 11  4  0
 11 14  4  0
 11 19  4  0
 12 18  4  0
 13 21  4  0
 15 23  4  0
 17 19  4  0
 17 20  4  0
 18 22  4  0
 19 21  4  0
M  END
$$$$

 Created by Python create_sdf_string function

 23 25  0  0  0  0  0  0  0  0999 V2000
    2.4610   -5.3070   29.1240 C   0  0  0  0  0  0  0  0  0  0  0  0
    4.7710   -4.6952   28.4803 C   0  0  0  0  0  0  0  0  0  0  0  0
    3.4047   -5.1087   28.1314 C   0  0  0  0  0  0  0  0  0  0  0  0
   -0.2234  -11.8615   16.8874 C   0  0  0  0  0  0  0  0  0  0  0  0
    6.4491   -4.1532   30.1213 C   0  0  0  0  0  0  0  0  0  0  0  0
    5.7060   -4.4340   27.4975 C   0  0  0  0  0  0  0  0  0  0  0  0
    1.1818   -5.6612   28.8399 C   0  0  0  0  0  0  0  0  0  0  0  0
   -1.2067   -7.3287   17.7772 C   0  0  0  0  0  0  0  0  0  0  0  0
   -0.0206  -10.5585   16.6210 C   0  0  0  0  0  0  0  0  0  0  0  0
    0.3696  -12.7626   16.2169 O   0  0  0  0  0  0  0  0  0  0  0  0
   -0.6895   -9.5676   17.3297 C   0  0  0  0  0  0  0  0  0  0  0  0
    0.8388   -5.8417   27.5264 C   0  0  0  0  0  0  0  0  0  0  0  0
   -2.0709   -7.6637   18.7817 C   0  0  0  0  0  0  0  0  0  0  0  0
   -0.5279   -8.2168   17.0717 C   0  0  0  0  0  0  0  0  0  0  0  0
    6.9694   -4.0191   27.8190 C   0  0  0  0  0  0  0  0  0  0  0  0
    5.1733   -4.5469   29.8123 C   0  0  0  0  0  0  0  0  0  0  0  0
   -1.7508  -11.3016   18.6072 C   0  0  0  0  0  0  0  0  0  0  0  0
    1.7497   -5.6771   26.4971 C   0  0  0  0  0  0  0  0  0  0  0  0
   -1.5799   -9.9322   18.3468 C   0  0  0  0  0  0  0  0  0  0  0  0
   -1.0871  -12.2214   17.8851 C   0  0  0  0  0  0  0  0  0  0  0  0
   -2.2706   -8.9669   19.0691 C   0  0  0  0  0  0  0  0  0  0  0  0
    3.0279   -5.3073   26.8197 C   0  0  0  0  0  0  0  0  0  0  0  0
    7.3282   -3.8948   29.1186 C   0  0  0  0  0  0  0  0  0  0  0  0
  1  3  4  0
  1  7  4  0
  2  3  1  0
  2  6  4  0
  2 16  4  0
  3 22  4  0
  4  9  4  0
  4 10  1  0
  4 20  4  0
  5 16  4  0
  5 23  4  0
  6 15  4  0
  7 12  4  0
  8 13  4  0
  8 14  4  0
  9 11  4  0
 11 14  4  0
 11 19  4  0
 12 18  4  0
 13 21  4  0
 15 23  4  0
 17 19  4  0
 17 20  4  0
 18 22  4  0
 19 21  4  0
M  END
$$$$

 Created by Python create_sdf_string function

 23 25  0  0  0  0  0  0  0  0999 V2000
    2.4610   -5.3070   29.1240 C   0  0  0  0  0  0  0  0  0  0  0  0
    4.7710   -4.6952   28.4803 C   0  0  0  0  0  0  0  0  0  0  0  0
    3.4047   -5.1087   28.1314 C   0  0  0  0  0  0  0  0  0  0  0  0
   -0.2234  -11.8615   16.8874 C   0  0  0  0  0  0  0  0  0  0  0  0
    6.4491   -4.1532   30.1213 C   0  0  0  0  0  0  0  0  0  0  0  0
    5.7060   -4.4340   27.4975 C   0  0  0  0  0  0  0  0  0  0  0  0
    1.1818   -5.6612   28.8399 C   0  0  0  0  0  0  0  0  0  0  0  0
   -1.2067   -7.3287   17.7772 C   0  0  0  0  0  0  0  0  0  0  0  0
   -0.0206  -10.5585   16.6210 C   0  0  0  0  0  0  0  0  0  0  0  0
    0.3696  -12.7626   16.2169 O   0  0  0  0  0  0  0  0  0  0  0  0
   -0.6895   -9.5676   17.3297 C   0  0  0  0  0  0  0  0  0  0  0  0
    0.8388   -5.8417   27.5264 C   0  0  0  0  0  0  0  0  0  0  0  0
   -2.0709   -7.6637   18.7817 C   0  0  0  0  0  0  0  0  0  0  0  0
   -0.5279   -8.2168   17.0717 C   0  0  0  0  0  0  0  0  0  0  0  0
    6.9694   -4.0191   27.8190 C   0  0  0  0  0  0  0  0  0  0  0  0
    5.1733   -4.5469   29.8123 C   0  0  0  0  0  0  0  0  0  0  0  0
   -1.7508  -11.3016   18.6072 C   0  0  0  0  0  0  0  0  0  0  0  0
    1.7497   -5.6771   26.4971 C   0  0  0  0  0  0  0  0  0  0  0  0
   -1.5799   -9.9322   18.3468 C   0  0  0  0  0  0  0  0  0  0  0  0
   -1.0871  -12.2214   17.8851 C   0  0  0  0  0  0  0  0  0  0  0  0
   -2.2706   -8.9669   19.0691 C   0  0  0  0  0  0  0  0  0  0  0  0
    3.0279   -5.3073   26.8197 C   0  0  0  0  0  0  0  0  0  0  0  0
    7.3282   -3.8948   29.1186 C   0  0  0  0  0  0  0  0  0  0  0  0
  1  3  4  0
  1  7  4  0
  2  3  1  0
  2  6  4  0
  2 16  4  0
  3 22  4  0
  4  9  4  0
  4 10  1  0
  4 20  4  0
  5 16  4  0
  5 23  4  0
  6 15  4  0
  7 12  4  0
  8 13  4  0
  8 14  4  0
  9 11  4  0
 11 14  4  0
 11 19  4  0
 12 18  4  0
 13 21  4  0
 15 23  4  0
 17 19  4  0
 17 20  4  0
 18 22  4  0
 19 21  4  0
M  END
$$$$

 Created by Python create_sdf_string function

 23 25  0  0  0  0  0  0  0  0999 V2000
    2.4610   -5.3070   29.1240 C   0  0  0  0  0  0  0  0  0  0  0  0
    4.7710   -4.6952   28.4803 C   0  0  0  0  0  0  0  0  0  0  0  0
    3.4047   -5.1087   28.1314 C   0  0  0  0  0  0  0  0  0  0  0  0
   -0.2234  -11.8615   16.8874 C   0  0  0  0  0  0  0  0  0  0  0  0
    6.4491   -4.1532   30.1213 C   0  0  0  0  0  0  0  0  0  0  0  0
    5.7060   -4.4340   27.4975 C   0  0  0  0  0  0  0  0  0  0  0  0
    1.1818   -5.6612   28.8399 C   0  0  0  0  0  0  0  0  0  0  0  0
   -1.2067   -7.3287   17.7772 C   0  0  0  0  0  0  0  0  0  0  0  0
   -0.0206  -10.5585   16.6210 C   0  0  0  0  0  0  0  0  0  0  0  0
    0.3696  -12.7626   16.2169 O   0  0  0  0  0  0  0  0  0  0  0  0
   -0.6895   -9.5676   17.3297 C   0  0  0  0  0  0  0  0  0  0  0  0
    0.8388   -5.8417   27.5264 C   0  0  0  0  0  0  0  0  0  0  0  0
   -2.0709   -7.6637   18.7817 C   0  0  0  0  0  0  0  0  0  0  0  0
   -0.5279   -8.2168   17.0717 C   0  0  0  0  0  0  0  0  0  0  0  0
    6.9694   -4.0191   27.8190 C   0  0  0  0  0  0  0  0  0  0  0  0
    5.1733   -4.5469   29.8123 C   0  0  0  0  0  0  0  0  0  0  0  0
   -1.7508  -11.3016   18.6072 C   0  0  0  0  0  0  0  0  0  0  0  0
    1.7497   -5.6771   26.4971 C   0  0  0  0  0  0  0  0  0  0  0  0
   -1.5799   -9.9322   18.3468 C   0  0  0  0  0  0  0  0  0  0  0  0
   -1.0871  -12.2214   17.8851 C   0  0  0  0  0  0  0  0  0  0  0  0
   -2.2706   -8.9669   19.0691 C   0  0  0  0  0  0  0  0  0  0  0  0
    3.0279   -5.3073   26.8197 C   0  0  0  0  0  0  0  0  0  0  0  0
    7.3282   -3.8948   29.1186 C   0  0  0  0  0  0  0  0  0  0  0  0
  1  3  4  0
  1  7  4  0
  2  3  1  0
  2  6  4  0
  2 16  4  0
  3 22  4  0
  4  9  4  0
  4 10  1  0
  4 20  4  0
  5 16  4  0
  5 23  4  0
  6 15  4  0
  7 12  4  0
  8 13  4  0
  8 14  4  0
  9 11  4  0
 11 14  4  0
 11 19  4  0
 12 18  4  0
 13 21  4  0
 15 23  4  0
 17 19  4  0
 17 20  4  0
 18 22  4  0
 19 21  4  0
M  END
$$$$

 Created by Python create_sdf_string function

 23 25  0  0  0  0  0  0  0  0999 V2000
    2.4610   -5.3070   29.1240 C   0  0  0  0  0  0  0  0  0  0  0  0
    4.7710   -4.6952   28.4803 C   0  0  0  0  0  0  0  0  0  0  0  0
    3.4047   -5.1087   28.1314 C   0  0  0  0  0  0  0  0  0  0  0  0
   -0.2234  -11.8615   16.8874 C   0  0  0  0  0  0  0  0  0  0  0  0
    6.4491   -4.1532   30.1213 C   0  0  0  0  0  0  0  0  0  0  0  0
    5.7060   -4.4340   27.4975 C   0  0  0  0  0  0  0  0  0  0  0  0
    1.1818   -5.6612   28.8399 C   0  0  0  0  0  0  0  0  0  0  0  0
   -1.2067   -7.3287   17.7772 C   0  0  0  0  0  0  0  0  0  0  0  0
   -0.0206  -10.5585   16.6210 C   0  0  0  0  0  0  0  0  0  0  0  0
    0.3696  -12.7626   16.2169 O   0  0  0  0  0  0  0  0  0  0  0  0
   -0.6895   -9.5676   17.3297 C   0  0  0  0  0  0  0  0  0  0  0  0
    0.8388   -5.8417   27.5264 C   0  0  0  0  0  0  0  0  0  0  0  0
   -2.0709   -7.6637   18.7817 C   0  0  0  0  0  0  0  0  0  0  0  0
   -0.5279   -8.2168   17.0717 C   0  0  0  0  0  0  0  0  0  0  0  0
    6.9694   -4.0191   27.8190 C   0  0  0  0  0  0  0  0  0  0  0  0
    5.1733   -4.5469   29.8123 C   0  0  0  0  0  0  0  0  0  0  0  0
   -1.7508  -11.3016   18.6072 C   0  0  0  0  0  0  0  0  0  0  0  0
    1.7497   -5.6771   26.4971 C   0  0  0  0  0  0  0  0  0  0  0  0
   -1.5799   -9.9322   18.3468 C   0  0  0  0  0  0  0  0  0  0  0  0
   -1.0871  -12.2214   17.8851 C   0  0  0  0  0  0  0  0  0  0  0  0
   -2.2706   -8.9669   19.0691 C   0  0  0  0  0  0  0  0  0  0  0  0
    3.0279   -5.3073   26.8197 C   0  0  0  0  0  0  0  0  0  0  0  0
    7.3282   -3.8948   29.1186 C   0  0  0  0  0  0  0  0  0  0  0  0
  1  3  4  0
  1  7  4  0
  2  3  1  0
  2  6  4  0
  2 16  4  0
  3 22  4  0
  4  9  4  0
  4 10  1  0
  4 20  4  0
  5 16  4  0
  5 23  4  0
  6 15  4  0
  7 12  4  0
  8 13  4  0
  8 14  4  0
  9 11  4  0
 11 14  4  0
 11 19  4  0
 12 18  4  0
 13 21  4  0
 15 23  4  0
 17 19  4  0
 17 20  4  0
 18 22  4  0
 19 21  4  0
M  END
$$$$

 Created by Python create_sdf_string function

 23 25  0  0  0  0  0  0  0  0999 V2000
    2.4610   -5.3070   29.1240 C   0  0  0  0  0  0  0  0  0  0  0  0
    4.7710   -4.6952   28.4803 C   0  0  0  0  0  0  0  0  0  0  0  0
    3.4047   -5.1087   28.1314 C   0  0  0  0  0  0  0  0  0  0  0  0
   -0.2234  -11.8615   16.8874 C   0  0  0  0  0  0  0  0  0  0  0  0
    6.4491   -4.1532   30.1213 C   0  0  0  0  0  0  0  0  0  0  0  0
    5.7060   -4.4340   27.4975 C   0  0  0  0  0  0  0  0  0  0  0  0
    1.1818   -5.6612   28.8399 C   0  0  0  0  0  0  0  0  0  0  0  0
   -1.2067   -7.3287   17.7772 C   0  0  0  0  0  0  0  0  0  0  0  0
   -0.0206  -10.5585   16.6210 C   0  0  0  0  0  0  0  0  0  0  0  0
    0.3696  -12.7626   16.2169 O   0  0  0  0  0  0  0  0  0  0  0  0
   -0.6895   -9.5676   17.3297 C   0  0  0  0  0  0  0  0  0  0  0  0
    0.8388   -5.8417   27.5264 C   0  0  0  0  0  0  0  0  0  0  0  0
   -2.0709   -7.6637   18.7817 C   0  0  0  0  0  0  0  0  0  0  0  0
   -0.5279   -8.2168   17.0717 C   0  0  0  0  0  0  0  0  0  0  0  0
    6.9694   -4.0191   27.8190 C   0  0  0  0  0  0  0  0  0  0  0  0
    5.1733   -4.5469   29.8123 C   0  0  0  0  0  0  0  0  0  0  0  0
   -1.7508  -11.3016   18.6072 C   0  0  0  0  0  0  0  0  0  0  0  0
    1.7497   -5.6771   26.4971 C   0  0  0  0  0  0  0  0  0  0  0  0
   -1.5799   -9.9322   18.3468 C   0  0  0  0  0  0  0  0  0  0  0  0
   -1.0871  -12.2214   17.8851 C   0  0  0  0  0  0  0  0  0  0  0  0
   -2.2706   -8.9669   19.0691 C   0  0  0  0  0  0  0  0  0  0  0  0
    3.0279   -5.3073   26.8197 C   0  0  0  0  0  0  0  0  0  0  0  0
    7.3282   -3.8948   29.1186 C   0  0  0  0  0  0  0  0  0  0  0  0
  1  3  4  0
  1  7  4  0
  2  3  1  0
  2  6  4  0
  2 16  4  0
  3 22  4  0
  4  9  4  0
  4 10  1  0
  4 20  4  0
  5 16  4  0
  5 23  4  0
  6 15  4  0
  7 12  4  0
  8 13  4  0
  8 14  4  0
  9 11  4  0
 11 14  4  0
 11 19  4  0
 12 18  4  0
 13 21  4  0
 15 23  4  0
 17 19  4  0
 17 20  4  0
 18 22  4  0
 19 21  4  0
M  END
$$$$

 Created by Python create_sdf_string function

 23 25  0  0  0  0  0  0  0  0999 V2000
    2.4610   -5.3070   29.1240 C   0  0  0  0  0  0  0  0  0  0  0  0
    4.7710   -4.6952   28.4803 C   0  0  0  0  0  0  0  0  0  0  0  0
    3.4047   -5.1087   28.1314 C   0  0  0  0  0  0  0  0  0  0  0  0
   -0.2234  -11.8615   16.8874 C   0  0  0  0  0  0  0  0  0  0  0  0
    6.4491   -4.1532   30.1213 C   0  0  0  0  0  0  0  0  0  0  0  0
    5.7060   -4.4340   27.4975 C   0  0  0  0  0  0  0  0  0  0  0  0
    1.1818   -5.6612   28.8399 C   0  0  0  0  0  0  0  0  0  0  0  0
   -1.2067   -7.3287   17.7772 C   0  0  0  0  0  0  0  0  0  0  0  0
   -0.0206  -10.5585   16.6210 C   0  0  0  0  0  0  0  0  0  0  0  0
    0.3696  -12.7626   16.2169 O   0  0  0  0  0  0  0  0  0  0  0  0
   -0.6895   -9.5676   17.3297 C   0  0  0  0  0  0  0  0  0  0  0  0
    0.8388   -5.8417   27.5264 C   0  0  0  0  0  0  0  0  0  0  0  0
   -2.0709   -7.6637   18.7817 C   0  0  0  0  0  0  0  0  0  0  0  0
   -0.5279   -8.2168   17.0717 C   0  0  0  0  0  0  0  0  0  0  0  0
    6.9694   -4.0191   27.8190 C   0  0  0  0  0  0  0  0  0  0  0  0
    5.1733   -4.5469   29.8123 C   0  0  0  0  0  0  0  0  0  0  0  0
   -1.7508  -11.3016   18.6072 C   0  0  0  0  0  0  0  0  0  0  0  0
    1.7497   -5.6771   26.4971 C   0  0  0  0  0  0  0  0  0  0  0  0
   -1.5799   -9.9322   18.3468 C   0  0  0  0  0  0  0  0  0  0  0  0
   -1.0871  -12.2214   17.8851 C   0  0  0  0  0  0  0  0  0  0  0  0
   -2.2706   -8.9669   19.0691 C   0  0  0  0  0  0  0  0  0  0  0  0
    3.0279   -5.3073   26.8197 C   0  0  0  0  0  0  0  0  0  0  0  0
    7.3282   -3.8948   29.1186 C   0  0  0  0  0  0  0  0  0  0  0  0
  1  3  4  0
  1  7  4  0
  2  3  1  0
  2  6  4  0
  2 16  4  0
  3 22  4  0
  4  9  4  0
  4 10  1  0
  4 20  4  0
  5 16  4  0
  5 23  4  0
  6 15  4  0
  7 12  4  0
  8 13  4  0
  8 14  4  0
  9 11  4  0
 11 14  4  0
 11 19  4  0
 12 18  4  0
 13 21  4  0
 15 23  4  0
 17 19  4  0
 17 20  4  0
 18 22  4  0
 19 21  4  0
M  END
$$$$

 Created by Python create_sdf_string function

 23 25  0  0  0  0  0  0  0  0999 V2000
    2.4610   -5.3070   29.1240 C   0  0  0  0  0  0  0  0  0  0  0  0
    4.7710   -4.6952   28.4803 C   0  0  0  0  0  0  0  0  0  0  0  0
    3.4047   -5.1087   28.1314 C   0  0  0  0  0  0  0  0  0  0  0  0
   -0.2234  -11.8615   16.8874 C   0  0  0  0  0  0  0  0  0  0  0  0
    6.4491   -4.1532   30.1213 C   0  0  0  0  0  0  0  0  0  0  0  0
    5.7060   -4.4340   27.4975 C   0  0  0  0  0  0  0  0  0  0  0  0
    1.1818   -5.6612   28.8399 C   0  0  0  0  0  0  0  0  0  0  0  0
   -1.2067   -7.3287   17.7772 C   0  0  0  0  0  0  0  0  0  0  0  0
   -0.0206  -10.5585   16.6210 C   0  0  0  0  0  0  0  0  0  0  0  0
    0.3696  -12.7626   16.2169 O   0  0  0  0  0  0  0  0  0  0  0  0
   -0.6895   -9.5676   17.3297 C   0  0  0  0  0  0  0  0  0  0  0  0
    0.8388   -5.8417   27.5264 C   0  0  0  0  0  0  0  0  0  0  0  0
   -2.0709   -7.6637   18.7817 C   0  0  0  0  0  0  0  0  0  0  0  0
   -0.5279   -8.2168   17.0717 C   0  0  0  0  0  0  0  0  0  0  0  0
    6.9694   -4.0191   27.8190 C   0  0  0  0  0  0  0  0  0  0  0  0
    5.1733   -4.5469   29.8123 C   0  0  0  0  0  0  0  0  0  0  0  0
   -1.7508  -11.3016   18.6072 C   0  0  0  0  0  0  0  0  0  0  0  0
    1.7497   -5.6771   26.4971 C   0  0  0  0  0  0  0  0  0  0  0  0
   -1.5799   -9.9322   18.3468 C   0  0  0  0  0  0  0  0  0  0  0  0
   -1.0871  -12.2214   17.8851 C   0  0  0  0  0  0  0  0  0  0  0  0
   -2.2706   -8.9669   19.0691 C   0  0  0  0  0  0  0  0  0  0  0  0
    3.0279   -5.3073   26.8197 C   0  0  0  0  0  0  0  0  0  0  0  0
    7.3282   -3.8948   29.1186 C   0  0  0  0  0  0  0  0  0  0  0  0
  1  3  4  0
  1  7  4  0
  2  3  1  0
  2  6  4  0
  2 16  4  0
  3 22  4  0
  4  9  4  0
  4 10  1  0
  4 20  4  0
  5 16  4  0
  5 23  4  0
  6 15  4  0
  7 12  4  0
  8 13  4  0
  8 14  4  0
  9 11  4  0
 11 14  4  0
 11 19  4  0
 12 18  4  0
 13 21  4  0
 15 23  4  0
 17 19  4  0
 17 20  4  0
 18 22  4  0
 19 21  4  0
M  END
$$$$

 Created by Python create_sdf_string function

 23 25  0  0  0  0  0  0  0  0999 V2000
    2.4610   -5.3070   29.1240 C   0  0  0  0  0  0  0  0  0  0  0  0
    4.7710   -4.6952   28.4803 C   0  0  0  0  0  0  0  0  0  0  0  0
    3.4047   -5.1087   28.1314 C   0  0  0  0  0  0  0  0  0  0  0  0
   -0.2234  -11.8615   16.8874 C   0  0  0  0  0  0  0  0  0  0  0  0
    6.4491   -4.1532   30.1213 C   0  0  0  0  0  0  0  0  0  0  0  0
    5.7060   -4.4340   27.4975 C   0  0  0  0  0  0  0  0  0  0  0  0
    1.1818   -5.6612   28.8399 C   0  0  0  0  0  0  0  0  0  0  0  0
   -1.2067   -7.3287   17.7772 C   0  0  0  0  0  0  0  0  0  0  0  0
   -0.0206  -10.5585   16.6210 C   0  0  0  0  0  0  0  0  0  0  0  0
    0.3696  -12.7626   16.2169 O   0  0  0  0  0  0  0  0  0  0  0  0
   -0.6895   -9.5676   17.3297 C   0  0  0  0  0  0  0  0  0  0  0  0
    0.8388   -5.8417   27.5264 C   0  0  0  0  0  0  0  0  0  0  0  0
   -2.0709   -7.6637   18.7817 C   0  0  0  0  0  0  0  0  0  0  0  0
   -0.5279   -8.2168   17.0717 C   0  0  0  0  0  0  0  0  0  0  0  0
    6.9694   -4.0191   27.8190 C   0  0  0  0  0  0  0  0  0  0  0  0
    5.1733   -4.5469   29.8123 C   0  0  0  0  0  0  0  0  0  0  0  0
   -1.7508  -11.3016   18.6072 C   0  0  0  0  0  0  0  0  0  0  0  0
    1.7497   -5.6771   26.4971 C   0  0  0  0  0  0  0  0  0  0  0  0
   -1.5799   -9.9322   18.3468 C   0  0  0  0  0  0  0  0  0  0  0  0
   -1.0871  -12.2214   17.8851 C   0  0  0  0  0  0  0  0  0  0  0  0
   -2.2706   -8.9669   19.0691 C   0  0  0  0  0  0  0  0  0  0  0  0
    3.0279   -5.3073   26.8197 C   0  0  0  0  0  0  0  0  0  0  0  0
    7.3282   -3.8948   29.1186 C   0  0  0  0  0  0  0  0  0  0  0  0
  1  3  4  0
  1  7  4  0
  2  3  1  0
  2  6  4  0
  2 16  4  0
  3 22  4  0
  4  9  4  0
  4 10  1  0
  4 20  4  0
  5 16  4  0
  5 23  4  0
  6 15  4  0
  7 12  4  0
  8 13  4  0
  8 14  4  0
  9 11  4  0
 11 14  4  0
 11 19  4  0
 12 18  4  0
 13 21  4  0
 15 23  4  0
 17 19  4  0
 17 20  4  0
 18 22  4  0
 19 21  4  0
M  END
$$$$

 Created by Python create_sdf_string function

 23 25  0  0  0  0  0  0  0  0999 V2000
    2.4610   -5.3070   29.1240 C   0  0  0  0  0  0  0  0  0  0  0  0
    4.7710   -4.6952   28.4803 C   0  0  0  0  0  0  0  0  0  0  0  0
    3.4047   -5.1087   28.1314 C   0  0  0  0  0  0  0  0  0  0  0  0
   -0.2234  -11.8615   16.8874 C   0  0  0  0  0  0  0  0  0  0  0  0
    6.4491   -4.1532   30.1213 C   0  0  0  0  0  0  0  0  0  0  0  0
    5.7060   -4.4340   27.4975 C   0  0  0  0  0  0  0  0  0  0  0  0
    1.1818   -5.6612   28.8399 C   0  0  0  0  0  0  0  0  0  0  0  0
   -1.2067   -7.3287   17.7772 C   0  0  0  0  0  0  0  0  0  0  0  0
   -0.0206  -10.5585   16.6210 C   0  0  0  0  0  0  0  0  0  0  0  0
    0.3696  -12.7626   16.2169 O   0  0  0  0  0  0  0  0  0  0  0  0
   -0.6895   -9.5676   17.3297 C   0  0  0  0  0  0  0  0  0  0  0  0
    0.8388   -5.8417   27.5264 C   0  0  0  0  0  0  0  0  0  0  0  0
   -2.0709   -7.6637   18.7817 C   0  0  0  0  0  0  0  0  0  0  0  0
   -0.5279   -8.2168   17.0717 C   0  0  0  0  0  0  0  0  0  0  0  0
    6.9694   -4.0191   27.8190 C   0  0  0  0  0  0  0  0  0  0  0  0
    5.1733   -4.5469   29.8123 C   0  0  0  0  0  0  0  0  0  0  0  0
   -1.7508  -11.3016   18.6072 C   0  0  0  0  0  0  0  0  0  0  0  0
    1.7497   -5.6771   26.4971 C   0  0  0  0  0  0  0  0  0  0  0  0
   -1.5799   -9.9322   18.3468 C   0  0  0  0  0  0  0  0  0  0  0  0
   -1.0871  -12.2214   17.8851 C   0  0  0  0  0  0  0  0  0  0  0  0
   -2.2706   -8.9669   19.0691 C   0  0  0  0  0  0  0  0  0  0  0  0
    3.0279   -5.3073   26.8197 C   0  0  0  0  0  0  0  0  0  0  0  0
    7.3282   -3.8948   29.1186 C   0  0  0  0  0  0  0  0  0  0  0  0
  1  3  4  0
  1  7  4  0
  2  3  1  0
  2  6  4  0
  2 16  4  0
  3 22  4  0
  4  9  4  0
  4 10  1  0
  4 20  4  0
  5 16  4  0
  5 23  4  0
  6 15  4  0
  7 12  4  0
  8 13  4  0
  8 14  4  0
  9 11  4  0
 11 14  4  0
 11 19  4  0
 12 18  4  0
 13 21  4  0
 15 23  4  0
 17 19  4  0
 17 20  4  0
 18 22  4  0
 19 21  4  0
M  END
$$$$

 Created by Python create_sdf_string function

 23 25  0  0  0  0  0  0  0  0999 V2000
    2.4610   -5.3070   29.1240 C   0  0  0  0  0  0  0  0  0  0  0  0
    4.7710   -4.6952   28.4803 C   0  0  0  0  0  0  0  0  0  0  0  0
    3.4047   -5.1087   28.1314 C   0  0  0  0  0  0  0  0  0  0  0  0
   -0.2234  -11.8615   16.8874 C   0  0  0  0  0  0  0  0  0  0  0  0
    6.4491   -4.1532   30.1213 C   0  0  0  0  0  0  0  0  0  0  0  0
    5.7060   -4.4340   27.4975 C   0  0  0  0  0  0  0  0  0  0  0  0
    1.1818   -5.6612   28.8399 C   0  0  0  0  0  0  0  0  0  0  0  0
   -1.2067   -7.3287   17.7772 C   0  0  0  0  0  0  0  0  0  0  0  0
   -0.0206  -10.5585   16.6210 C   0  0  0  0  0  0  0  0  0  0  0  0
    0.3696  -12.7626   16.2169 O   0  0  0  0  0  0  0  0  0  0  0  0
   -0.6895   -9.5676   17.3297 C   0  0  0  0  0  0  0  0  0  0  0  0
    0.8388   -5.8417   27.5264 C   0  0  0  0  0  0  0  0  0  0  0  0
   -2.0709   -7.6637   18.7817 C   0  0  0  0  0  0  0  0  0  0  0  0
   -0.5279   -8.2168   17.0717 C   0  0  0  0  0  0  0  0  0  0  0  0
    6.9694   -4.0191   27.8190 C   0  0  0  0  0  0  0  0  0  0  0  0
    5.1733   -4.5469   29.8123 C   0  0  0  0  0  0  0  0  0  0  0  0
   -1.7508  -11.3016   18.6072 C   0  0  0  0  0  0  0  0  0  0  0  0
    1.7497   -5.6771   26.4971 C   0  0  0  0  0  0  0  0  0  0  0  0
   -1.5799   -9.9322   18.3468 C   0  0  0  0  0  0  0  0  0  0  0  0
   -1.0871  -12.2214   17.8851 C   0  0  0  0  0  0  0  0  0  0  0  0
   -2.2706   -8.9669   19.0691 C   0  0  0  0  0  0  0  0  0  0  0  0
    3.0279   -5.3073   26.8197 C   0  0  0  0  0  0  0  0  0  0  0  0
    7.3282   -3.8948   29.1186 C   0  0  0  0  0  0  0  0  0  0  0  0
  1  3  4  0
  1  7  4  0
  2  3  1  0
  2  6  4  0
  2 16  4  0
  3 22  4  0
  4  9  4  0
  4 10  1  0
  4 20  4  0
  5 16  4  0
  5 23  4  0
  6 15  4  0
  7 12  4  0
  8 13  4  0
  8 14  4  0
  9 11  4  0
 11 14  4  0
 11 19  4  0
 12 18  4  0
 13 21  4  0
 15 23  4  0
 17 19  4  0
 17 20  4  0
 18 22  4  0
 19 21  4  0
M  END
$$$$

 Created by Python create_sdf_string function

 23 25  0  0  0  0  0  0  0  0999 V2000
    2.4610   -5.3070   29.1240 C   0  0  0  0  0  0  0  0  0  0  0  0
    4.7710   -4.6952   28.4803 C   0  0  0  0  0  0  0  0  0  0  0  0
    3.4047   -5.1087   28.1314 C   0  0  0  0  0  0  0  0  0  0  0  0
   -0.2234  -11.8615   16.8874 C   0  0  0  0  0  0  0  0  0  0  0  0
    6.4491   -4.1532   30.1213 C   0  0  0  0  0  0  0  0  0  0  0  0
    5.7060   -4.4340   27.4975 C   0  0  0  0  0  0  0  0  0  0  0  0
    1.1818   -5.6612   28.8399 C   0  0  0  0  0  0  0  0  0  0  0  0
   -1.2067   -7.3287   17.7772 C   0  0  0  0  0  0  0  0  0  0  0  0
   -0.0206  -10.5585   16.6210 C   0  0  0  0  0  0  0  0  0  0  0  0
    0.3696  -12.7626   16.2169 O   0  0  0  0  0  0  0  0  0  0  0  0
   -0.6895   -9.5676   17.3297 C   0  0  0  0  0  0  0  0  0  0  0  0
    0.8388   -5.8417   27.5264 C   0  0  0  0  0  0  0  0  0  0  0  0
   -2.0709   -7.6637   18.7817 C   0  0  0  0  0  0  0  0  0  0  0  0
   -0.5279   -8.2168   17.0717 C   0  0  0  0  0  0  0  0  0  0  0  0
    6.9694   -4.0191   27.8190 C   0  0  0  0  0  0  0  0  0  0  0  0
    5.1733   -4.5469   29.8123 C   0  0  0  0  0  0  0  0  0  0  0  0
   -1.7508  -11.3016   18.6072 C   0  0  0  0  0  0  0  0  0  0  0  0
    1.7497   -5.6771   26.4971 C   0  0  0  0  0  0  0  0  0  0  0  0
   -1.5799   -9.9322   18.3468 C   0  0  0  0  0  0  0  0  0  0  0  0
   -1.0871  -12.2214   17.8851 C   0  0  0  0  0  0  0  0  0  0  0  0
   -2.2706   -8.9669   19.0691 C   0  0  0  0  0  0  0  0  0  0  0  0
    3.0279   -5.3073   26.8197 C   0  0  0  0  0  0  0  0  0  0  0  0
    7.3282   -3.8948   29.1186 C   0  0  0  0  0  0  0  0  0  0  0  0
  1  3  4  0
  1  7  4  0
  2  3  1  0
  2  6  4  0
  2 16  4  0
  3 22  4  0
  4  9  4  0
  4 10  1  0
  4 20  4  0
  5 16  4  0
  5 23  4  0
  6 15  4  0
  7 12  4  0
  8 13  4  0
  8 14  4  0
  9 11  4  0
 11 14  4  0
 11 19  4  0
 12 18  4  0
 13 21  4  0
 15 23  4  0
 17 19  4  0
 17 20  4  0
 18 22  4  0
 19 21  4  0
M  END
$$$$

 Created by Python create_sdf_string function

 23 25  0  0  0  0  0  0  0  0999 V2000
    2.4610   -5.3070   29.1240 C   0  0  0  0  0  0  0  0  0  0  0  0
    4.7710   -4.6952   28.4803 C   0  0  0  0  0  0  0  0  0  0  0  0
    3.4047   -5.1087   28.1314 C   0  0  0  0  0  0  0  0  0  0  0  0
   -0.2234  -11.8615   16.8874 C   0  0  0  0  0  0  0  0  0  0  0  0
    6.4491   -4.1532   30.1213 C   0  0  0  0  0  0  0  0  0  0  0  0
    5.7060   -4.4340   27.4975 C   0  0  0  0  0  0  0  0  0  0  0  0
    1.1818   -5.6612   28.8399 C   0  0  0  0  0  0  0  0  0  0  0  0
   -1.2067   -7.3287   17.7772 C   0  0  0  0  0  0  0  0  0  0  0  0
   -0.0206  -10.5585   16.6210 C   0  0  0  0  0  0  0  0  0  0  0  0
    0.3696  -12.7626   16.2169 O   0  0  0  0  0  0  0  0  0  0  0  0
   -0.6895   -9.5676   17.3297 C   0  0  0  0  0  0  0  0  0  0  0  0
    0.8388   -5.8417   27.5264 C   0  0  0  0  0  0  0  0  0  0  0  0
   -2.0709   -7.6637   18.7817 C   0  0  0  0  0  0  0  0  0  0  0  0
   -0.5279   -8.2168   17.0717 C   0  0  0  0  0  0  0  0  0  0  0  0
    6.9694   -4.0191   27.8190 C   0  0  0  0  0  0  0  0  0  0  0  0
    5.1733   -4.5469   29.8123 C   0  0  0  0  0  0  0  0  0  0  0  0
   -1.7508  -11.3016   18.6072 C   0  0  0  0  0  0  0  0  0  0  0  0
    1.7497   -5.6771   26.4971 C   0  0  0  0  0  0  0  0  0  0  0  0
   -1.5799   -9.9322   18.3468 C   0  0  0  0  0  0  0  0  0  0  0  0
   -1.0871  -12.2214   17.8851 C   0  0  0  0  0  0  0  0  0  0  0  0
   -2.2706   -8.9669   19.0691 C   0  0  0  0  0  0  0  0  0  0  0  0
    3.0279   -5.3073   26.8197 C   0  0  0  0  0  0  0  0  0  0  0  0
    7.3282   -3.8948   29.1186 C   0  0  0  0  0  0  0  0  0  0  0  0
  1  3  4  0
  1  7  4  0
  2  3  1  0
  2  6  4  0
  2 16  4  0
  3 22  4  0
  4  9  4  0
  4 10  1  0
  4 20  4  0
  5 16  4  0
  5 23  4  0
  6 15  4  0
  7 12  4  0
  8 13  4  0
  8 14  4  0
  9 11  4  0
 11 14  4  0
 11 19  4  0
 12 18  4  0
 13 21  4  0
 15 23  4  0
 17 19  4  0
 17 20  4  0
 18 22  4  0
 19 21  4  0
M  END
$$$$

 Created by Python create_sdf_string function

 23 25  0  0  0  0  0  0  0  0999 V2000
    2.4610   -5.3070   29.1240 C   0  0  0  0  0  0  0  0  0  0  0  0
    4.7710   -4.6952   28.4803 C   0  0  0  0  0  0  0  0  0  0  0  0
    3.4047   -5.1087   28.1314 C   0  0  0  0  0  0  0  0  0  0  0  0
   -0.2234  -11.8615   16.8874 C   0  0  0  0  0  0  0  0  0  0  0  0
    6.4491   -4.1532   30.1213 C   0  0  0  0  0  0  0  0  0  0  0  0
    5.7060   -4.4340   27.4975 C   0  0  0  0  0  0  0  0  0  0  0  0
    1.1818   -5.6612   28.8399 C   0  0  0  0  0  0  0  0  0  0  0  0
   -1.2067   -7.3287   17.7772 C   0  0  0  0  0  0  0  0  0  0  0  0
   -0.0206  -10.5585   16.6210 C   0  0  0  0  0  0  0  0  0  0  0  0
    0.3696  -12.7626   16.2169 O   0  0  0  0  0  0  0  0  0  0  0  0
   -0.6895   -9.5676   17.3297 C   0  0  0  0  0  0  0  0  0  0  0  0
    0.8388   -5.8417   27.5264 C   0  0  0  0  0  0  0  0  0  0  0  0
   -2.0709   -7.6637   18.7817 C   0  0  0  0  0  0  0  0  0  0  0  0
   -0.5279   -8.2168   17.0717 C   0  0  0  0  0  0  0  0  0  0  0  0
    6.9694   -4.0191   27.8190 C   0  0  0  0  0  0  0  0  0  0  0  0
    5.1733   -4.5469   29.8123 C   0  0  0  0  0  0  0  0  0  0  0  0
   -1.7508  -11.3016   18.6072 C   0  0  0  0  0  0  0  0  0  0  0  0
    1.7497   -5.6771   26.4971 C   0  0  0  0  0  0  0  0  0  0  0  0
   -1.5799   -9.9322   18.3468 C   0  0  0  0  0  0  0  0  0  0  0  0
   -1.0871  -12.2214   17.8851 C   0  0  0  0  0  0  0  0  0  0  0  0
   -2.2706   -8.9669   19.0691 C   0  0  0  0  0  0  0  0  0  0  0  0
    3.0279   -5.3073   26.8197 C   0  0  0  0  0  0  0  0  0  0  0  0
    7.3282   -3.8948   29.1186 C   0  0  0  0  0  0  0  0  0  0  0  0
  1  3  4  0
  1  7  4  0
  2  3  1  0
  2  6  4  0
  2 16  4  0
  3 22  4  0
  4  9  4  0
  4 10  1  0
  4 20  4  0
  5 16  4  0
  5 23  4  0
  6 15  4  0
  7 12  4  0
  8 13  4  0
  8 14  4  0
  9 11  4  0
 11 14  4  0
 11 19  4  0
 12 18  4  0
 13 21  4  0
 15 23  4  0
 17 19  4  0
 17 20  4  0
 18 22  4  0
 19 21  4  0
M  END
$$$$

 Created by Python create_sdf_string function

 23 25  0  0  0  0  0  0  0  0999 V2000
    2.4610   -5.3070   29.1240 C   0  0  0  0  0  0  0  0  0  0  0  0
    4.7710   -4.6952   28.4803 C   0  0  0  0  0  0  0  0  0  0  0  0
    3.4047   -5.1087   28.1314 C   0  0  0  0  0  0  0  0  0  0  0  0
   -0.2234  -11.8615   16.8874 C   0  0  0  0  0  0  0  0  0  0  0  0
    6.4491   -4.1532   30.1213 C   0  0  0  0  0  0  0  0  0  0  0  0
    5.7060   -4.4340   27.4975 C   0  0  0  0  0  0  0  0  0  0  0  0
    1.1818   -5.6612   28.8399 C   0  0  0  0  0  0  0  0  0  0  0  0
   -1.2067   -7.3287   17.7772 C   0  0  0  0  0  0  0  0  0  0  0  0
   -0.0206  -10.5585   16.6210 C   0  0  0  0  0  0  0  0  0  0  0  0
    0.3696  -12.7626   16.2169 O   0  0  0  0  0  0  0  0  0  0  0  0
   -0.6895   -9.5676   17.3297 C   0  0  0  0  0  0  0  0  0  0  0  0
    0.8388   -5.8417   27.5264 C   0  0  0  0  0  0  0  0  0  0  0  0
   -2.0709   -7.6637   18.7817 C   0  0  0  0  0  0  0  0  0  0  0  0
   -0.5279   -8.2168   17.0717 C   0  0  0  0  0  0  0  0  0  0  0  0
    6.9694   -4.0191   27.8190 C   0  0  0  0  0  0  0  0  0  0  0  0
    5.1733   -4.5469   29.8123 C   0  0  0  0  0  0  0  0  0  0  0  0
   -1.7508  -11.3016   18.6072 C   0  0  0  0  0  0  0  0  0  0  0  0
    1.7497   -5.6771   26.4971 C   0  0  0  0  0  0  0  0  0  0  0  0
   -1.5799   -9.9322   18.3468 C   0  0  0  0  0  0  0  0  0  0  0  0
   -1.0871  -12.2214   17.8851 C   0  0  0  0  0  0  0  0  0  0  0  0
   -2.2706   -8.9669   19.0691 C   0  0  0  0  0  0  0  0  0  0  0  0
    3.0279   -5.3073   26.8197 C   0  0  0  0  0  0  0  0  0  0  0  0
    7.3282   -3.8948   29.1186 C   0  0  0  0  0  0  0  0  0  0  0  0
  1  3  4  0
  1  7  4  0
  2  3  1  0
  2  6  4  0
  2 16  4  0
  3 22  4  0
  4  9  4  0
  4 10  1  0
  4 20  4  0
  5 16  4  0
  5 23  4  0
  6 15  4  0
  7 12  4  0
  8 13  4  0
  8 14  4  0
  9 11  4  0
 11 14  4  0
 11 19  4  0
 12 18  4  0
 13 21  4  0
 15 23  4  0
 17 19  4  0
 17 20  4  0
 18 22  4  0
 19 21  4  0
M  END
$$$$

 Created by Python create_sdf_string function

 23 25  0  0  0  0  0  0  0  0999 V2000
    2.4610   -5.3070   29.1240 C   0  0  0  0  0  0  0  0  0  0  0  0
    4.7710   -4.6952   28.4803 C   0  0  0  0  0  0  0  0  0  0  0  0
    3.4047   -5.1087   28.1314 C   0  0  0  0  0  0  0  0  0  0  0  0
   -0.2234  -11.8615   16.8874 C   0  0  0  0  0  0  0  0  0  0  0  0
    6.4491   -4.1532   30.1213 C   0  0  0  0  0  0  0  0  0  0  0  0
    5.7060   -4.4340   27.4975 C   0  0  0  0  0  0  0  0  0  0  0  0
    1.1818   -5.6612   28.8399 C   0  0  0  0  0  0  0  0  0  0  0  0
   -1.2067   -7.3287   17.7772 C   0  0  0  0  0  0  0  0  0  0  0  0
   -0.0206  -10.5585   16.6210 C   0  0  0  0  0  0  0  0  0  0  0  0
    0.3696  -12.7626   16.2169 O   0  0  0  0  0  0  0  0  0  0  0  0
   -0.6895   -9.5676   17.3297 C   0  0  0  0  0  0  0  0  0  0  0  0
    0.8388   -5.8417   27.5264 C   0  0  0  0  0  0  0  0  0  0  0  0
   -2.0709   -7.6637   18.7817 C   0  0  0  0  0  0  0  0  0  0  0  0
   -0.5279   -8.2168   17.0717 C   0  0  0  0  0  0  0  0  0  0  0  0
    6.9694   -4.0191   27.8190 C   0  0  0  0  0  0  0  0  0  0  0  0
    5.1733   -4.5469   29.8123 C   0  0  0  0  0  0  0  0  0  0  0  0
   -1.7508  -11.3016   18.6072 C   0  0  0  0  0  0  0  0  0  0  0  0
    1.7497   -5.6771   26.4971 C   0  0  0  0  0  0  0  0  0  0  0  0
   -1.5799   -9.9322   18.3468 C   0  0  0  0  0  0  0  0  0  0  0  0
   -1.0871  -12.2214   17.8851 C   0  0  0  0  0  0  0  0  0  0  0  0
   -2.2706   -8.9669   19.0691 C   0  0  0  0  0  0  0  0  0  0  0  0
    3.0279   -5.3073   26.8197 C   0  0  0  0  0  0  0  0  0  0  0  0
    7.3282   -3.8948   29.1186 C   0  0  0  0  0  0  0  0  0  0  0  0
  1  3  4  0
  1  7  4  0
  2  3  1  0
  2  6  4  0
  2 16  4  0
  3 22  4  0
  4  9  4  0
  4 10  1  0
  4 20  4  0
  5 16  4  0
  5 23  4  0
  6 15  4  0
  7 12  4  0
  8 13  4  0
  8 14  4  0
  9 11  4  0
 11 14  4  0
 11 19  4  0
 12 18  4  0
 13 21  4  0
 15 23  4  0
 17 19  4  0
 17 20  4  0
 18 22  4  0
 19 21  4  0
M  END
$$$$

 Created by Python create_sdf_string function

 23 25  0  0  0  0  0  0  0  0999 V2000
    2.4610   -5.3070   29.1240 C   0  0  0  0  0  0  0  0  0  0  0  0
    4.7710   -4.6952   28.4803 C   0  0  0  0  0  0  0  0  0  0  0  0
    3.4047   -5.1087   28.1314 C   0  0  0  0  0  0  0  0  0  0  0  0
   -0.2234  -11.8615   16.8874 C   0  0  0  0  0  0  0  0  0  0  0  0
    6.4491   -4.1532   30.1213 C   0  0  0  0  0  0  0  0  0  0  0  0
    5.7060   -4.4340   27.4975 C   0  0  0  0  0  0  0  0  0  0  0  0
    1.1818   -5.6612   28.8399 C   0  0  0  0  0  0  0  0  0  0  0  0
   -1.2067   -7.3287   17.7772 C   0  0  0  0  0  0  0  0  0  0  0  0
   -0.0206  -10.5585   16.6210 C   0  0  0  0  0  0  0  0  0  0  0  0
    0.3696  -12.7626   16.2169 O   0  0  0  0  0  0  0  0  0  0  0  0
   -0.6895   -9.5676   17.3297 C   0  0  0  0  0  0  0  0  0  0  0  0
    0.8388   -5.8417   27.5264 C   0  0  0  0  0  0  0  0  0  0  0  0
   -2.0709   -7.6637   18.7817 C   0  0  0  0  0  0  0  0  0  0  0  0
   -0.5279   -8.2168   17.0717 C   0  0  0  0  0  0  0  0  0  0  0  0
    6.9694   -4.0191   27.8190 C   0  0  0  0  0  0  0  0  0  0  0  0
    5.1733   -4.5469   29.8123 C   0  0  0  0  0  0  0  0  0  0  0  0
   -1.7508  -11.3016   18.6072 C   0  0  0  0  0  0  0  0  0  0  0  0
    1.7497   -5.6771   26.4971 C   0  0  0  0  0  0  0  0  0  0  0  0
   -1.5799   -9.9322   18.3468 C   0  0  0  0  0  0  0  0  0  0  0  0
   -1.0871  -12.2214   17.8851 C   0  0  0  0  0  0  0  0  0  0  0  0
   -2.2706   -8.9669   19.0691 C   0  0  0  0  0  0  0  0  0  0  0  0
    3.0279   -5.3073   26.8197 C   0  0  0  0  0  0  0  0  0  0  0  0
    7.3282   -3.8948   29.1186 C   0  0  0  0  0  0  0  0  0  0  0  0
  1  3  4  0
  1  7  4  0
  2  3  1  0
  2  6  4  0
  2 16  4  0
  3 22  4  0
  4  9  4  0
  4 10  1  0
  4 20  4  0
  5 16  4  0
  5 23  4  0
  6 15  4  0
  7 12  4  0
  8 13  4  0
  8 14  4  0
  9 11  4  0
 11 14  4  0
 11 19  4  0
 12 18  4  0
 13 21  4  0
 15 23  4  0
 17 19  4  0
 17 20  4  0
 18 22  4  0
 19 21  4  0
M  END
$$$$

 Created by Python create_sdf_string function

 23 25  0  0  0  0  0  0  0  0999 V2000
    2.4610   -5.3070   29.1240 C   0  0  0  0  0  0  0  0  0  0  0  0
    4.7710   -4.6952   28.4803 C   0  0  0  0  0  0  0  0  0  0  0  0
    3.4047   -5.1087   28.1314 C   0  0  0  0  0  0  0  0  0  0  0  0
   -0.2234  -11.8615   16.8874 C   0  0  0  0  0  0  0  0  0  0  0  0
    6.4491   -4.1532   30.1213 C   0  0  0  0  0  0  0  0  0  0  0  0
    5.7060   -4.4340   27.4975 C   0  0  0  0  0  0  0  0  0  0  0  0
    1.1818   -5.6612   28.8399 C   0  0  0  0  0  0  0  0  0  0  0  0
   -1.2067   -7.3287   17.7772 C   0  0  0  0  0  0  0  0  0  0  0  0
   -0.0206  -10.5585   16.6210 C   0  0  0  0  0  0  0  0  0  0  0  0
    0.3696  -12.7626   16.2169 O   0  0  0  0  0  0  0  0  0  0  0  0
   -0.6895   -9.5676   17.3297 C   0  0  0  0  0  0  0  0  0  0  0  0
    0.8388   -5.8417   27.5264 C   0  0  0  0  0  0  0  0  0  0  0  0
   -2.0709   -7.6637   18.7817 C   0  0  0  0  0  0  0  0  0  0  0  0
   -0.5279   -8.2168   17.0717 C   0  0  0  0  0  0  0  0  0  0  0  0
    6.9694   -4.0191   27.8190 C   0  0  0  0  0  0  0  0  0  0  0  0
    5.1733   -4.5469   29.8123 C   0  0  0  0  0  0  0  0  0  0  0  0
   -1.7508  -11.3016   18.6072 C   0  0  0  0  0  0  0  0  0  0  0  0
    1.7497   -5.6771   26.4971 C   0  0  0  0  0  0  0  0  0  0  0  0
   -1.5799   -9.9322   18.3468 C   0  0  0  0  0  0  0  0  0  0  0  0
   -1.0871  -12.2214   17.8851 C   0  0  0  0  0  0  0  0  0  0  0  0
   -2.2706   -8.9669   19.0691 C   0  0  0  0  0  0  0  0  0  0  0  0
    3.0279   -5.3073   26.8197 C   0  0  0  0  0  0  0  0  0  0  0  0
    7.3282   -3.8948   29.1186 C   0  0  0  0  0  0  0  0  0  0  0  0
  1  3  4  0
  1  7  4  0
  2  3  1  0
  2  6  4  0
  2 16  4  0
  3 22  4  0
  4  9  4  0
  4 10  1  0
  4 20  4  0
  5 16  4  0
  5 23  4  0
  6 15  4  0
  7 12  4  0
  8 13  4  0
  8 14  4  0
  9 11  4  0
 11 14  4  0
 11 19  4  0
 12 18  4  0
 13 21  4  0
 15 23  4  0
 17 19  4  0
 17 20  4  0
 18 22  4  0
 19 21  4  0
M  END
$$$$

 Created by Python create_sdf_string function

 23 25  0  0  0  0  0  0  0  0999 V2000
    2.4610   -5.3070   29.1240 C   0  0  0  0  0  0  0  0  0  0  0  0
    4.7710   -4.6952   28.4803 C   0  0  0  0  0  0  0  0  0  0  0  0
    3.4047   -5.1087   28.1314 C   0  0  0  0  0  0  0  0  0  0  0  0
   -0.2234  -11.8615   16.8874 C   0  0  0  0  0  0  0  0  0  0  0  0
    6.4491   -4.1532   30.1213 C   0  0  0  0  0  0  0  0  0  0  0  0
    5.7060   -4.4340   27.4975 C   0  0  0  0  0  0  0  0  0  0  0  0
    1.1818   -5.6612   28.8399 C   0  0  0  0  0  0  0  0  0  0  0  0
   -1.2067   -7.3287   17.7772 C   0  0  0  0  0  0  0  0  0  0  0  0
   -0.0206  -10.5585   16.6210 C   0  0  0  0  0  0  0  0  0  0  0  0
    0.3696  -12.7626   16.2169 O   0  0  0  0  0  0  0  0  0  0  0  0
   -0.6895   -9.5676   17.3297 C   0  0  0  0  0  0  0  0  0  0  0  0
    0.8388   -5.8417   27.5264 C   0  0  0  0  0  0  0  0  0  0  0  0
   -2.0709   -7.6637   18.7817 C   0  0  0  0  0  0  0  0  0  0  0  0
   -0.5279   -8.2168   17.0717 C   0  0  0  0  0  0  0  0  0  0  0  0
    6.9694   -4.0191   27.8190 C   0  0  0  0  0  0  0  0  0  0  0  0
    5.1733   -4.5469   29.8123 C   0  0  0  0  0  0  0  0  0  0  0  0
   -1.7508  -11.3016   18.6072 C   0  0  0  0  0  0  0  0  0  0  0  0
    1.7497   -5.6771   26.4971 C   0  0  0  0  0  0  0  0  0  0  0  0
   -1.5799   -9.9322   18.3468 C   0  0  0  0  0  0  0  0  0  0  0  0
   -1.0871  -12.2214   17.8851 C   0  0  0  0  0  0  0  0  0  0  0  0
   -2.2706   -8.9669   19.0691 C   0  0  0  0  0  0  0  0  0  0  0  0
    3.0279   -5.3073   26.8197 C   0  0  0  0  0  0  0  0  0  0  0  0
    7.3282   -3.8948   29.1186 C   0  0  0  0  0  0  0  0  0  0  0  0
  1  3  4  0
  1  7  4  0
  2  3  1  0
  2  6  4  0
  2 16  4  0
  3 22  4  0
  4  9  4  0
  4 10  1  0
  4 20  4  0
  5 16  4  0
  5 23  4  0
  6 15  4  0
  7 12  4  0
  8 13  4  0
  8 14  4  0
  9 11  4  0
 11 14  4  0
 11 19  4  0
 12 18  4  0
 13 21  4  0
 15 23  4  0
 17 19  4  0
 17 20  4  0
 18 22  4  0
 19 21  4  0
M  END
$$$$

 Created by Python create_sdf_string function

 23 25  0  0  0  0  0  0  0  0999 V2000
    2.4610   -5.3070   29.1240 C   0  0  0  0  0  0  0  0  0  0  0  0
    4.7710   -4.6952   28.4803 C   0  0  0  0  0  0  0  0  0  0  0  0
    3.4047   -5.1087   28.1314 C   0  0  0  0  0  0  0  0  0  0  0  0
   -0.2234  -11.8615   16.8874 C   0  0  0  0  0  0  0  0  0  0  0  0
    6.4491   -4.1532   30.1213 C   0  0  0  0  0  0  0  0  0  0  0  0
    5.7060   -4.4340   27.4975 C   0  0  0  0  0  0  0  0  0  0  0  0
    1.1818   -5.6612   28.8399 C   0  0  0  0  0  0  0  0  0  0  0  0
   -1.2067   -7.3287   17.7772 C   0  0  0  0  0  0  0  0  0  0  0  0
   -0.0206  -10.5585   16.6210 C   0  0  0  0  0  0  0  0  0  0  0  0
    0.3696  -12.7626   16.2169 O   0  0  0  0  0  0  0  0  0  0  0  0
   -0.6895   -9.5676   17.3297 C   0  0  0  0  0  0  0  0  0  0  0  0
    0.8388   -5.8417   27.5264 C   0  0  0  0  0  0  0  0  0  0  0  0
   -2.0709   -7.6637   18.7817 C   0  0  0  0  0  0  0  0  0  0  0  0
   -0.5279   -8.2168   17.0717 C   0  0  0  0  0  0  0  0  0  0  0  0
    6.9694   -4.0191   27.8190 C   0  0  0  0  0  0  0  0  0  0  0  0
    5.1733   -4.5469   29.8123 C   0  0  0  0  0  0  0  0  0  0  0  0
   -1.7508  -11.3016   18.6072 C   0  0  0  0  0  0  0  0  0  0  0  0
    1.7497   -5.6771   26.4971 C   0  0  0  0  0  0  0  0  0  0  0  0
   -1.5799   -9.9322   18.3468 C   0  0  0  0  0  0  0  0  0  0  0  0
   -1.0871  -12.2214   17.8851 C   0  0  0  0  0  0  0  0  0  0  0  0
   -2.2706   -8.9669   19.0691 C   0  0  0  0  0  0  0  0  0  0  0  0
    3.0279   -5.3073   26.8197 C   0  0  0  0  0  0  0  0  0  0  0  0
    7.3282   -3.8948   29.1186 C   0  0  0  0  0  0  0  0  0  0  0  0
  1  3  4  0
  1  7  4  0
  2  3  1  0
  2  6  4  0
  2 16  4  0
  3 22  4  0
  4  9  4  0
  4 10  1  0
  4 20  4  0
  5 16  4  0
  5 23  4  0
  6 15  4  0
  7 12  4  0
  8 13  4  0
  8 14  4  0
  9 11  4  0
 11 14  4  0
 11 19  4  0
 12 18  4  0
 13 21  4  0
 15 23  4  0
 17 19  4  0
 17 20  4  0
 18 22  4  0
 19 21  4  0
M  END
$$$$

 Created by Python create_sdf_string function

 23 25  0  0  0  0  0  0  0  0999 V2000
    2.4610   -5.3070   29.1240 C   0  0  0  0  0  0  0  0  0  0  0  0
    4.7710   -4.6952   28.4803 C   0  0  0  0  0  0  0  0  0  0  0  0
    3.4047   -5.1087   28.1314 C   0  0  0  0  0  0  0  0  0  0  0  0
   -0.2234  -11.8615   16.8874 C   0  0  0  0  0  0  0  0  0  0  0  0
    6.4491   -4.1532   30.1213 C   0  0  0  0  0  0  0  0  0  0  0  0
    5.7060   -4.4340   27.4975 C   0  0  0  0  0  0  0  0  0  0  0  0
    1.1818   -5.6612   28.8399 C   0  0  0  0  0  0  0  0  0  0  0  0
   -1.2067   -7.3287   17.7772 C   0  0  0  0  0  0  0  0  0  0  0  0
   -0.0206  -10.5585   16.6210 C   0  0  0  0  0  0  0  0  0  0  0  0
    0.3696  -12.7626   16.2169 O   0  0  0  0  0  0  0  0  0  0  0  0
   -0.6895   -9.5676   17.3297 C   0  0  0  0  0  0  0  0  0  0  0  0
    0.8388   -5.8417   27.5264 C   0  0  0  0  0  0  0  0  0  0  0  0
   -2.0709   -7.6637   18.7817 C   0  0  0  0  0  0  0  0  0  0  0  0
   -0.5279   -8.2168   17.0717 C   0  0  0  0  0  0  0  0  0  0  0  0
    6.9694   -4.0191   27.8190 C   0  0  0  0  0  0  0  0  0  0  0  0
    5.1733   -4.5469   29.8123 C   0  0  0  0  0  0  0  0  0  0  0  0
   -1.7508  -11.3016   18.6072 C   0  0  0  0  0  0  0  0  0  0  0  0
    1.7497   -5.6771   26.4971 C   0  0  0  0  0  0  0  0  0  0  0  0
   -1.5799   -9.9322   18.3468 C   0  0  0  0  0  0  0  0  0  0  0  0
   -1.0871  -12.2214   17.8851 C   0  0  0  0  0  0  0  0  0  0  0  0
   -2.2706   -8.9669   19.0691 C   0  0  0  0  0  0  0  0  0  0  0  0
    3.0279   -5.3073   26.8197 C   0  0  0  0  0  0  0  0  0  0  0  0
    7.3282   -3.8948   29.1186 C   0  0  0  0  0  0  0  0  0  0  0  0
  1  3  4  0
  1  7  4  0
  2  3  1  0
  2  6  4  0
  2 16  4  0
  3 22  4  0
  4  9  4  0
  4 10  1  0
  4 20  4  0
  5 16  4  0
  5 23  4  0
  6 15  4  0
  7 12  4  0
  8 13  4  0
  8 14  4  0
  9 11  4  0
 11 14  4  0
 11 19  4  0
 12 18  4  0
 13 21  4  0
 15 23  4  0
 17 19  4  0
 17 20  4  0
 18 22  4  0
 19 21  4  0
M  END
$$$$

 Created by Python create_sdf_string function

 23 25  0  0  0  0  0  0  0  0999 V2000
    2.4610   -5.3070   29.1240 C   0  0  0  0  0  0  0  0  0  0  0  0
    4.7710   -4.6952   28.4803 C   0  0  0  0  0  0  0  0  0  0  0  0
    3.4047   -5.1087   28.1314 C   0  0  0  0  0  0  0  0  0  0  0  0
   -0.2234  -11.8615   16.8874 C   0  0  0  0  0  0  0  0  0  0  0  0
    6.4491   -4.1532   30.1213 C   0  0  0  0  0  0  0  0  0  0  0  0
    5.7060   -4.4340   27.4975 C   0  0  0  0  0  0  0  0  0  0  0  0
    1.1818   -5.6612   28.8399 C   0  0  0  0  0  0  0  0  0  0  0  0
   -1.2067   -7.3287   17.7772 C   0  0  0  0  0  0  0  0  0  0  0  0
   -0.0206  -10.5585   16.6210 C   0  0  0  0  0  0  0  0  0  0  0  0
    0.3696  -12.7626   16.2169 O   0  0  0  0  0  0  0  0  0  0  0  0
   -0.6895   -9.5676   17.3297 C   0  0  0  0  0  0  0  0  0  0  0  0
    0.8388   -5.8417   27.5264 C   0  0  0  0  0  0  0  0  0  0  0  0
   -2.0709   -7.6637   18.7817 C   0  0  0  0  0  0  0  0  0  0  0  0
   -0.5279   -8.2168   17.0717 C   0  0  0  0  0  0  0  0  0  0  0  0
    6.9694   -4.0191   27.8190 C   0  0  0  0  0  0  0  0  0  0  0  0
    5.1733   -4.5469   29.8123 C   0  0  0  0  0  0  0  0  0  0  0  0
   -1.7508  -11.3016   18.6072 C   0  0  0  0  0  0  0  0  0  0  0  0
    1.7497   -5.6771   26.4971 C   0  0  0  0  0  0  0  0  0  0  0  0
   -1.5799   -9.9322   18.3468 C   0  0  0  0  0  0  0  0  0  0  0  0
   -1.0871  -12.2214   17.8851 C   0  0  0  0  0  0  0  0  0  0  0  0
   -2.2706   -8.9669   19.0691 C   0  0  0  0  0  0  0  0  0  0  0  0
    3.0279   -5.3073   26.8197 C   0  0  0  0  0  0  0  0  0  0  0  0
    7.3282   -3.8948   29.1186 C   0  0  0  0  0  0  0  0  0  0  0  0
  1  3  4  0
  1  7  4  0
  2  3  1  0
  2  6  4  0
  2 16  4  0
  3 22  4  0
  4  9  4  0
  4 10  1  0
  4 20  4  0
  5 16  4  0
  5 23  4  0
  6 15  4  0
  7 12  4  0
  8 13  4  0
  8 14  4  0
  9 11  4  0
 11 14  4  0
 11 19  4  0
 12 18  4  0
 13 21  4  0
 15 23  4  0
 17 19  4  0
 17 20  4  0
 18 22  4  0
 19 21  4  0
M  END
$$$$

 Created by Python create_sdf_string function

 23 25  0  0  0  0  0  0  0  0999 V2000
    2.4610   -5.3070   29.1240 C   0  0  0  0  0  0  0  0  0  0  0  0
    4.7710   -4.6952   28.4803 C   0  0  0  0  0  0  0  0  0  0  0  0
    3.4047   -5.1087   28.1314 C   0  0  0  0  0  0  0  0  0  0  0  0
   -0.2234  -11.8615   16.8874 C   0  0  0  0  0  0  0  0  0  0  0  0
    6.4491   -4.1532   30.1213 C   0  0  0  0  0  0  0  0  0  0  0  0
    5.7060   -4.4340   27.4975 C   0  0  0  0  0  0  0  0  0  0  0  0
    1.1818   -5.6612   28.8399 C   0  0  0  0  0  0  0  0  0  0  0  0
   -1.2067   -7.3287   17.7772 C   0  0  0  0  0  0  0  0  0  0  0  0
   -0.0206  -10.5585   16.6210 C   0  0  0  0  0  0  0  0  0  0  0  0
    0.3696  -12.7626   16.2169 O   0  0  0  0  0  0  0  0  0  0  0  0
   -0.6895   -9.5676   17.3297 C   0  0  0  0  0  0  0  0  0  0  0  0
    0.8388   -5.8417   27.5264 C   0  0  0  0  0  0  0  0  0  0  0  0
   -2.0709   -7.6637   18.7817 C   0  0  0  0  0  0  0  0  0  0  0  0
   -0.5279   -8.2168   17.0717 C   0  0  0  0  0  0  0  0  0  0  0  0
    6.9694   -4.0191   27.8190 C   0  0  0  0  0  0  0  0  0  0  0  0
    5.1733   -4.5469   29.8123 C   0  0  0  0  0  0  0  0  0  0  0  0
   -1.7508  -11.3016   18.6072 C   0  0  0  0  0  0  0  0  0  0  0  0
    1.7497   -5.6771   26.4971 C   0  0  0  0  0  0  0  0  0  0  0  0
   -1.5799   -9.9322   18.3468 C   0  0  0  0  0  0  0  0  0  0  0  0
   -1.0871  -12.2214   17.8851 C   0  0  0  0  0  0  0  0  0  0  0  0
   -2.2706   -8.9669   19.0691 C   0  0  0  0  0  0  0  0  0  0  0  0
    3.0279   -5.3073   26.8197 C   0  0  0  0  0  0  0  0  0  0  0  0
    7.3282   -3.8948   29.1186 C   0  0  0  0  0  0  0  0  0  0  0  0
  1  3  4  0
  1  7  4  0
  2  3  1  0
  2  6  4  0
  2 16  4  0
  3 22  4  0
  4  9  4  0
  4 10  1  0
  4 20  4  0
  5 16  4  0
  5 23  4  0
  6 15  4  0
  7 12  4  0
  8 13  4  0
  8 14  4  0
  9 11  4  0
 11 14  4  0
 11 19  4  0
 12 18  4  0
 13 21  4  0
 15 23  4  0
 17 19  4  0
 17 20  4  0
 18 22  4  0
 19 21  4  0
M  END
$$$$

 Created by Python create_sdf_string function

 23 25  0  0  0  0  0  0  0  0999 V2000
    2.4610   -5.3070   29.1240 C   0  0  0  0  0  0  0  0  0  0  0  0
    4.7710   -4.6952   28.4803 C   0  0  0  0  0  0  0  0  0  0  0  0
    3.4047   -5.1087   28.1314 C   0  0  0  0  0  0  0  0  0  0  0  0
   -0.2234  -11.8615   16.8874 C   0  0  0  0  0  0  0  0  0  0  0  0
    6.4491   -4.1532   30.1213 C   0  0  0  0  0  0  0  0  0  0  0  0
    5.7060   -4.4340   27.4975 C   0  0  0  0  0  0  0  0  0  0  0  0
    1.1818   -5.6612   28.8399 C   0  0  0  0  0  0  0  0  0  0  0  0
   -1.2067   -7.3287   17.7772 C   0  0  0  0  0  0  0  0  0  0  0  0
   -0.0206  -10.5585   16.6210 C   0  0  0  0  0  0  0  0  0  0  0  0
    0.3696  -12.7626   16.2169 O   0  0  0  0  0  0  0  0  0  0  0  0
   -0.6895   -9.5676   17.3297 C   0  0  0  0  0  0  0  0  0  0  0  0
    0.8388   -5.8417   27.5264 C   0  0  0  0  0  0  0  0  0  0  0  0
   -2.0709   -7.6637   18.7817 C   0  0  0  0  0  0  0  0  0  0  0  0
   -0.5279   -8.2168   17.0717 C   0  0  0  0  0  0  0  0  0  0  0  0
    6.9694   -4.0191   27.8190 C   0  0  0  0  0  0  0  0  0  0  0  0
    5.1733   -4.5469   29.8123 C   0  0  0  0  0  0  0  0  0  0  0  0
   -1.7508  -11.3016   18.6072 C   0  0  0  0  0  0  0  0  0  0  0  0
    1.7497   -5.6771   26.4971 C   0  0  0  0  0  0  0  0  0  0  0  0
   -1.5799   -9.9322   18.3468 C   0  0  0  0  0  0  0  0  0  0  0  0
   -1.0871  -12.2214   17.8851 C   0  0  0  0  0  0  0  0  0  0  0  0
   -2.2706   -8.9669   19.0691 C   0  0  0  0  0  0  0  0  0  0  0  0
    3.0279   -5.3073   26.8197 C   0  0  0  0  0  0  0  0  0  0  0  0
    7.3282   -3.8948   29.1186 C   0  0  0  0  0  0  0  0  0  0  0  0
  1  3  4  0
  1  7  4  0
  2  3  1  0
  2  6  4  0
  2 16  4  0
  3 22  4  0
  4  9  4  0
  4 10  1  0
  4 20  4  0
  5 16  4  0
  5 23  4  0
  6 15  4  0
  7 12  4  0
  8 13  4  0
  8 14  4  0
  9 11  4  0
 11 14  4  0
 11 19  4  0
 12 18  4  0
 13 21  4  0
 15 23  4  0
 17 19  4  0
 17 20  4  0
 18 22  4  0
 19 21  4  0
M  END
$$$$

 Created by Python create_sdf_string function

 23 25  0  0  0  0  0  0  0  0999 V2000
    2.4610   -5.3070   29.1240 C   0  0  0  0  0  0  0  0  0  0  0  0
    4.7710   -4.6952   28.4803 C   0  0  0  0  0  0  0  0  0  0  0  0
    3.4047   -5.1087   28.1314 C   0  0  0  0  0  0  0  0  0  0  0  0
   -0.2234  -11.8615   16.8874 C   0  0  0  0  0  0  0  0  0  0  0  0
    6.4491   -4.1532   30.1213 C   0  0  0  0  0  0  0  0  0  0  0  0
    5.7060   -4.4340   27.4975 C   0  0  0  0  0  0  0  0  0  0  0  0
    1.1818   -5.6612   28.8399 C   0  0  0  0  0  0  0  0  0  0  0  0
   -1.2067   -7.3287   17.7772 C   0  0  0  0  0  0  0  0  0  0  0  0
   -0.0206  -10.5585   16.6210 C   0  0  0  0  0  0  0  0  0  0  0  0
    0.3696  -12.7626   16.2169 O   0  0  0  0  0  0  0  0  0  0  0  0
   -0.6895   -9.5676   17.3297 C   0  0  0  0  0  0  0  0  0  0  0  0
    0.8388   -5.8417   27.5264 C   0  0  0  0  0  0  0  0  0  0  0  0
   -2.0709   -7.6637   18.7817 C   0  0  0  0  0  0  0  0  0  0  0  0
   -0.5279   -8.2168   17.0717 C   0  0  0  0  0  0  0  0  0  0  0  0
    6.9694   -4.0191   27.8190 C   0  0  0  0  0  0  0  0  0  0  0  0
    5.1733   -4.5469   29.8123 C   0  0  0  0  0  0  0  0  0  0  0  0
   -1.7508  -11.3016   18.6072 C   0  0  0  0  0  0  0  0  0  0  0  0
    1.7497   -5.6771   26.4971 C   0  0  0  0  0  0  0  0  0  0  0  0
   -1.5799   -9.9322   18.3468 C   0  0  0  0  0  0  0  0  0  0  0  0
   -1.0871  -12.2214   17.8851 C   0  0  0  0  0  0  0  0  0  0  0  0
   -2.2706   -8.9669   19.0691 C   0  0  0  0  0  0  0  0  0  0  0  0
    3.0279   -5.3073   26.8197 C   0  0  0  0  0  0  0  0  0  0  0  0
    7.3282   -3.8948   29.1186 C   0  0  0  0  0  0  0  0  0  0  0  0
  1  3  4  0
  1  7  4  0
  2  3  1  0
  2  6  4  0
  2 16  4  0
  3 22  4  0
  4  9  4  0
  4 10  1  0
  4 20  4  0
  5 16  4  0
  5 23  4  0
  6 15  4  0
  7 12  4  0
  8 13  4  0
  8 14  4  0
  9 11  4  0
 11 14  4  0
 11 19  4  0
 12 18  4  0
 13 21  4  0
 15 23  4  0
 17 19  4  0
 17 20  4  0
 18 22  4  0
 19 21  4  0
M  END
$$$$

 Created by Python create_sdf_string function

 23 25  0  0  0  0  0  0  0  0999 V2000
    2.4610   -5.3070   29.1240 C   0  0  0  0  0  0  0  0  0  0  0  0
    4.7710   -4.6952   28.4803 C   0  0  0  0  0  0  0  0  0  0  0  0
    3.4047   -5.1087   28.1314 C   0  0  0  0  0  0  0  0  0  0  0  0
   -0.2234  -11.8615   16.8874 C   0  0  0  0  0  0  0  0  0  0  0  0
    6.4491   -4.1532   30.1213 C   0  0  0  0  0  0  0  0  0  0  0  0
    5.7060   -4.4340   27.4975 C   0  0  0  0  0  0  0  0  0  0  0  0
    1.1818   -5.6612   28.8399 C   0  0  0  0  0  0  0  0  0  0  0  0
   -1.2067   -7.3287   17.7772 C   0  0  0  0  0  0  0  0  0  0  0  0
   -0.0206  -10.5585   16.6210 C   0  0  0  0  0  0  0  0  0  0  0  0
    0.3696  -12.7626   16.2169 O   0  0  0  0  0  0  0  0  0  0  0  0
   -0.6895   -9.5676   17.3297 C   0  0  0  0  0  0  0  0  0  0  0  0
    0.8388   -5.8417   27.5264 C   0  0  0  0  0  0  0  0  0  0  0  0
   -2.0709   -7.6637   18.7817 C   0  0  0  0  0  0  0  0  0  0  0  0
   -0.5279   -8.2168   17.0717 C   0  0  0  0  0  0  0  0  0  0  0  0
    6.9694   -4.0191   27.8190 C   0  0  0  0  0  0  0  0  0  0  0  0
    5.1733   -4.5469   29.8123 C   0  0  0  0  0  0  0  0  0  0  0  0
   -1.7508  -11.3016   18.6072 C   0  0  0  0  0  0  0  0  0  0  0  0
    1.7497   -5.6771   26.4971 C   0  0  0  0  0  0  0  0  0  0  0  0
   -1.5799   -9.9322   18.3468 C   0  0  0  0  0  0  0  0  0  0  0  0
   -1.0871  -12.2214   17.8851 C   0  0  0  0  0  0  0  0  0  0  0  0
   -2.2706   -8.9669   19.0691 C   0  0  0  0  0  0  0  0  0  0  0  0
    3.0279   -5.3073   26.8197 C   0  0  0  0  0  0  0  0  0  0  0  0
    7.3282   -3.8948   29.1186 C   0  0  0  0  0  0  0  0  0  0  0  0
  1  3  4  0
  1  7  4  0
  2  3  1  0
  2  6  4  0
  2 16  4  0
  3 22  4  0
  4  9  4  0
  4 10  1  0
  4 20  4  0
  5 16  4  0
  5 23  4  0
  6 15  4  0
  7 12  4  0
  8 13  4  0
  8 14  4  0
  9 11  4  0
 11 14  4  0
 11 19  4  0
 12 18  4  0
 13 21  4  0
 15 23  4  0
 17 19  4  0
 17 20  4  0
 18 22  4  0
 19 21  4  0
M  END
$$$$

 Created by Python create_sdf_string function

 23 25  0  0  0  0  0  0  0  0999 V2000
    2.4610   -5.3070   29.1240 C   0  0  0  0  0  0  0  0  0  0  0  0
    4.7710   -4.6952   28.4803 C   0  0  0  0  0  0  0  0  0  0  0  0
    3.4047   -5.1087   28.1314 C   0  0  0  0  0  0  0  0  0  0  0  0
   -0.2234  -11.8615   16.8874 C   0  0  0  0  0  0  0  0  0  0  0  0
    6.4491   -4.1532   30.1213 C   0  0  0  0  0  0  0  0  0  0  0  0
    5.7060   -4.4340   27.4975 C   0  0  0  0  0  0  0  0  0  0  0  0
    1.1818   -5.6612   28.8399 C   0  0  0  0  0  0  0  0  0  0  0  0
   -1.2067   -7.3287   17.7772 C   0  0  0  0  0  0  0  0  0  0  0  0
   -0.0206  -10.5585   16.6210 C   0  0  0  0  0  0  0  0  0  0  0  0
    0.3696  -12.7626   16.2169 O   0  0  0  0  0  0  0  0  0  0  0  0
   -0.6895   -9.5676   17.3297 C   0  0  0  0  0  0  0  0  0  0  0  0
    0.8388   -5.8417   27.5264 C   0  0  0  0  0  0  0  0  0  0  0  0
   -2.0709   -7.6637   18.7817 C   0  0  0  0  0  0  0  0  0  0  0  0
   -0.5279   -8.2168   17.0717 C   0  0  0  0  0  0  0  0  0  0  0  0
    6.9694   -4.0191   27.8190 C   0  0  0  0  0  0  0  0  0  0  0  0
    5.1733   -4.5469   29.8123 C   0  0  0  0  0  0  0  0  0  0  0  0
   -1.7508  -11.3016   18.6072 C   0  0  0  0  0  0  0  0  0  0  0  0
    1.7497   -5.6771   26.4971 C   0  0  0  0  0  0  0  0  0  0  0  0
   -1.5799   -9.9322   18.3468 C   0  0  0  0  0  0  0  0  0  0  0  0
   -1.0871  -12.2214   17.8851 C   0  0  0  0  0  0  0  0  0  0  0  0
   -2.2706   -8.9669   19.0691 C   0  0  0  0  0  0  0  0  0  0  0  0
    3.0279   -5.3073   26.8197 C   0  0  0  0  0  0  0  0  0  0  0  0
    7.3282   -3.8948   29.1186 C   0  0  0  0  0  0  0  0  0  0  0  0
  1  3  4  0
  1  7  4  0
  2  3  1  0
  2  6  4  0
  2 16  4  0
  3 22  4  0
  4  9  4  0
  4 10  1  0
  4 20  4  0
  5 16  4  0
  5 23  4  0
  6 15  4  0
  7 12  4  0
  8 13  4  0
  8 14  4  0
  9 11  4  0
 11 14  4  0
 11 19  4  0
 12 18  4  0
 13 21  4  0
 15 23  4  0
 17 19  4  0
 17 20  4  0
 18 22  4  0
 19 21  4  0
M  END
$$$$

 Created by Python create_sdf_string function

 23 25  0  0  0  0  0  0  0  0999 V2000
    2.4610   -5.3070   29.1240 C   0  0  0  0  0  0  0  0  0  0  0  0
    4.7710   -4.6952   28.4803 C   0  0  0  0  0  0  0  0  0  0  0  0
    3.4047   -5.1087   28.1314 C   0  0  0  0  0  0  0  0  0  0  0  0
   -0.2234  -11.8615   16.8874 C   0  0  0  0  0  0  0  0  0  0  0  0
    6.4491   -4.1532   30.1213 C   0  0  0  0  0  0  0  0  0  0  0  0
    5.7060   -4.4340   27.4975 C   0  0  0  0  0  0  0  0  0  0  0  0
    1.1818   -5.6612   28.8399 C   0  0  0  0  0  0  0  0  0  0  0  0
   -1.2067   -7.3287   17.7772 C   0  0  0  0  0  0  0  0  0  0  0  0
   -0.0206  -10.5585   16.6210 C   0  0  0  0  0  0  0  0  0  0  0  0
    0.3696  -12.7626   16.2169 O   0  0  0  0  0  0  0  0  0  0  0  0
   -0.6895   -9.5676   17.3297 C   0  0  0  0  0  0  0  0  0  0  0  0
    0.8388   -5.8417   27.5264 C   0  0  0  0  0  0  0  0  0  0  0  0
   -2.0709   -7.6637   18.7817 C   0  0  0  0  0  0  0  0  0  0  0  0
   -0.5279   -8.2168   17.0717 C   0  0  0  0  0  0  0  0  0  0  0  0
    6.9694   -4.0191   27.8190 C   0  0  0  0  0  0  0  0  0  0  0  0
    5.1733   -4.5469   29.8123 C   0  0  0  0  0  0  0  0  0  0  0  0
   -1.7508  -11.3016   18.6072 C   0  0  0  0  0  0  0  0  0  0  0  0
    1.7497   -5.6771   26.4971 C   0  0  0  0  0  0  0  0  0  0  0  0
   -1.5799   -9.9322   18.3468 C   0  0  0  0  0  0  0  0  0  0  0  0
   -1.0871  -12.2214   17.8851 C   0  0  0  0  0  0  0  0  0  0  0  0
   -2.2706   -8.9669   19.0691 C   0  0  0  0  0  0  0  0  0  0  0  0
    3.0279   -5.3073   26.8197 C   0  0  0  0  0  0  0  0  0  0  0  0
    7.3282   -3.8948   29.1186 C   0  0  0  0  0  0  0  0  0  0  0  0
  1  3  4  0
  1  7  4  0
  2  3  1  0
  2  6  4  0
  2 16  4  0
  3 22  4  0
  4  9  4  0
  4 10  1  0
  4 20  4  0
  5 16  4  0
  5 23  4  0
  6 15  4  0
  7 12  4  0
  8 13  4  0
  8 14  4  0
  9 11  4  0
 11 14  4  0
 11 19  4  0
 12 18  4  0
 13 21  4  0
 15 23  4  0
 17 19  4  0
 17 20  4  0
 18 22  4  0
 19 21  4  0
M  END
$$$$

 Created by Python create_sdf_string function

 23 25  0  0  0  0  0  0  0  0999 V2000
    2.4610   -5.3070   29.1240 C   0  0  0  0  0  0  0  0  0  0  0  0
    4.7710   -4.6952   28.4803 C   0  0  0  0  0  0  0  0  0  0  0  0
    3.4047   -5.1087   28.1314 C   0  0  0  0  0  0  0  0  0  0  0  0
   -0.2234  -11.8615   16.8874 C   0  0  0  0  0  0  0  0  0  0  0  0
    6.4491   -4.1532   30.1213 C   0  0  0  0  0  0  0  0  0  0  0  0
    5.7060   -4.4340   27.4975 C   0  0  0  0  0  0  0  0  0  0  0  0
    1.1818   -5.6612   28.8399 C   0  0  0  0  0  0  0  0  0  0  0  0
   -1.2067   -7.3287   17.7772 C   0  0  0  0  0  0  0  0  0  0  0  0
   -0.0206  -10.5585   16.6210 C   0  0  0  0  0  0  0  0  0  0  0  0
    0.3696  -12.7626   16.2169 O   0  0  0  0  0  0  0  0  0  0  0  0
   -0.6895   -9.5676   17.3297 C   0  0  0  0  0  0  0  0  0  0  0  0
    0.8388   -5.8417   27.5264 C   0  0  0  0  0  0  0  0  0  0  0  0
   -2.0709   -7.6637   18.7817 C   0  0  0  0  0  0  0  0  0  0  0  0
   -0.5279   -8.2168   17.0717 C   0  0  0  0  0  0  0  0  0  0  0  0
    6.9694   -4.0191   27.8190 C   0  0  0  0  0  0  0  0  0  0  0  0
    5.1733   -4.5469   29.8123 C   0  0  0  0  0  0  0  0  0  0  0  0
   -1.7508  -11.3016   18.6072 C   0  0  0  0  0  0  0  0  0  0  0  0
    1.7497   -5.6771   26.4971 C   0  0  0  0  0  0  0  0  0  0  0  0
   -1.5799   -9.9322   18.3468 C   0  0  0  0  0  0  0  0  0  0  0  0
   -1.0871  -12.2214   17.8851 C   0  0  0  0  0  0  0  0  0  0  0  0
   -2.2706   -8.9669   19.0691 C   0  0  0  0  0  0  0  0  0  0  0  0
    3.0279   -5.3073   26.8197 C   0  0  0  0  0  0  0  0  0  0  0  0
    7.3282   -3.8948   29.1186 C   0  0  0  0  0  0  0  0  0  0  0  0
  1  3  4  0
  1  7  4  0
  2  3  1  0
  2  6  4  0
  2 16  4  0
  3 22  4  0
  4  9  4  0
  4 10  1  0
  4 20  4  0
  5 16  4  0
  5 23  4  0
  6 15  4  0
  7 12  4  0
  8 13  4  0
  8 14  4  0
  9 11  4  0
 11 14  4  0
 11 19  4  0
 12 18  4  0
 13 21  4  0
 15 23  4  0
 17 19  4  0
 17 20  4  0
 18 22  4  0
 19 21  4  0
M  END
$$$$

 Created by Python create_sdf_string function

 23 25  0  0  0  0  0  0  0  0999 V2000
    2.4610   -5.3070   29.1240 C   0  0  0  0  0  0  0  0  0  0  0  0
    4.7710   -4.6952   28.4803 C   0  0  0  0  0  0  0  0  0  0  0  0
    3.4047   -5.1087   28.1314 C   0  0  0  0  0  0  0  0  0  0  0  0
   -0.2234  -11.8615   16.8874 C   0  0  0  0  0  0  0  0  0  0  0  0
    6.4491   -4.1532   30.1213 C   0  0  0  0  0  0  0  0  0  0  0  0
    5.7060   -4.4340   27.4975 C   0  0  0  0  0  0  0  0  0  0  0  0
    1.1818   -5.6612   28.8399 C   0  0  0  0  0  0  0  0  0  0  0  0
   -1.2067   -7.3287   17.7772 C   0  0  0  0  0  0  0  0  0  0  0  0
   -0.0206  -10.5585   16.6210 C   0  0  0  0  0  0  0  0  0  0  0  0
    0.3696  -12.7626   16.2169 O   0  0  0  0  0  0  0  0  0  0  0  0
   -0.6895   -9.5676   17.3297 C   0  0  0  0  0  0  0  0  0  0  0  0
    0.8388   -5.8417   27.5264 C   0  0  0  0  0  0  0  0  0  0  0  0
   -2.0709   -7.6637   18.7817 C   0  0  0  0  0  0  0  0  0  0  0  0
   -0.5279   -8.2168   17.0717 C   0  0  0  0  0  0  0  0  0  0  0  0
    6.9694   -4.0191   27.8190 C   0  0  0  0  0  0  0  0  0  0  0  0
    5.1733   -4.5469   29.8123 C   0  0  0  0  0  0  0  0  0  0  0  0
   -1.7508  -11.3016   18.6072 C   0  0  0  0  0  0  0  0  0  0  0  0
    1.7497   -5.6771   26.4971 C   0  0  0  0  0  0  0  0  0  0  0  0
   -1.5799   -9.9322   18.3468 C   0  0  0  0  0  0  0  0  0  0  0  0
   -1.0871  -12.2214   17.8851 C   0  0  0  0  0  0  0  0  0  0  0  0
   -2.2706   -8.9669   19.0691 C   0  0  0  0  0  0  0  0  0  0  0  0
    3.0279   -5.3073   26.8197 C   0  0  0  0  0  0  0  0  0  0  0  0
    7.3282   -3.8948   29.1186 C   0  0  0  0  0  0  0  0  0  0  0  0
  1  3  4  0
  1  7  4  0
  2  3  1  0
  2  6  4  0
  2 16  4  0
  3 22  4  0
  4  9  4  0
  4 10  1  0
  4 20  4  0
  5 16  4  0
  5 23  4  0
  6 15  4  0
  7 12  4  0
  8 13  4  0
  8 14  4  0
  9 11  4  0
 11 14  4  0
 11 19  4  0
 12 18  4  0
 13 21  4  0
 15 23  4  0
 17 19  4  0
 17 20  4  0
 18 22  4  0
 19 21  4  0
M  END
$$$$

 Created by Python create_sdf_string function

 23 25  0  0  0  0  0  0  0  0999 V2000
    2.4610   -5.3070   29.1240 C   0  0  0  0  0  0  0  0  0  0  0  0
    4.7710   -4.6952   28.4803 C   0  0  0  0  0  0  0  0  0  0  0  0
    3.4047   -5.1087   28.1314 C   0  0  0  0  0  0  0  0  0  0  0  0
   -0.2234  -11.8615   16.8874 C   0  0  0  0  0  0  0  0  0  0  0  0
    6.4491   -4.1532   30.1213 C   0  0  0  0  0  0  0  0  0  0  0  0
    5.7060   -4.4340   27.4975 C   0  0  0  0  0  0  0  0  0  0  0  0
    1.1818   -5.6612   28.8399 C   0  0  0  0  0  0  0  0  0  0  0  0
   -1.2067   -7.3287   17.7772 C   0  0  0  0  0  0  0  0  0  0  0  0
   -0.0206  -10.5585   16.6210 C   0  0  0  0  0  0  0  0  0  0  0  0
    0.3696  -12.7626   16.2169 O   0  0  0  0  0  0  0  0  0  0  0  0
   -0.6895   -9.5676   17.3297 C   0  0  0  0  0  0  0  0  0  0  0  0
    0.8388   -5.8417   27.5264 C   0  0  0  0  0  0  0  0  0  0  0  0
   -2.0709   -7.6637   18.7817 C   0  0  0  0  0  0  0  0  0  0  0  0
   -0.5279   -8.2168   17.0717 C   0  0  0  0  0  0  0  0  0  0  0  0
    6.9694   -4.0191   27.8190 C   0  0  0  0  0  0  0  0  0  0  0  0
    5.1733   -4.5469   29.8123 C   0  0  0  0  0  0  0  0  0  0  0  0
   -1.7508  -11.3016   18.6072 C   0  0  0  0  0  0  0  0  0  0  0  0
    1.7497   -5.6771   26.4971 C   0  0  0  0  0  0  0  0  0  0  0  0
   -1.5799   -9.9322   18.3468 C   0  0  0  0  0  0  0  0  0  0  0  0
   -1.0871  -12.2214   17.8851 C   0  0  0  0  0  0  0  0  0  0  0  0
   -2.2706   -8.9669   19.0691 C   0  0  0  0  0  0  0  0  0  0  0  0
    3.0279   -5.3073   26.8197 C   0  0  0  0  0  0  0  0  0  0  0  0
    7.3282   -3.8948   29.1186 C   0  0  0  0  0  0  0  0  0  0  0  0
  1  3  4  0
  1  7  4  0
  2  3  1  0
  2  6  4  0
  2 16  4  0
  3 22  4  0
  4  9  4  0
  4 10  1  0
  4 20  4  0
  5 16  4  0
  5 23  4  0
  6 15  4  0
  7 12  4  0
  8 13  4  0
  8 14  4  0
  9 11  4  0
 11 14  4  0
 11 19  4  0
 12 18  4  0
 13 21  4  0
 15 23  4  0
 17 19  4  0
 17 20  4  0
 18 22  4  0
 19 21  4  0
M  END
$$$$

 Created by Python create_sdf_string function

 23 25  0  0  0  0  0  0  0  0999 V2000
    2.4610   -5.3070   29.1240 C   0  0  0  0  0  0  0  0  0  0  0  0
    4.7710   -4.6952   28.4803 C   0  0  0  0  0  0  0  0  0  0  0  0
    3.4047   -5.1087   28.1314 C   0  0  0  0  0  0  0  0  0  0  0  0
   -0.2234  -11.8615   16.8874 C   0  0  0  0  0  0  0  0  0  0  0  0
    6.4491   -4.1532   30.1213 C   0  0  0  0  0  0  0  0  0  0  0  0
    5.7060   -4.4340   27.4975 C   0  0  0  0  0  0  0  0  0  0  0  0
    1.1818   -5.6612   28.8399 C   0  0  0  0  0  0  0  0  0  0  0  0
   -1.2067   -7.3287   17.7772 C   0  0  0  0  0  0  0  0  0  0  0  0
   -0.0206  -10.5585   16.6210 C   0  0  0  0  0  0  0  0  0  0  0  0
    0.3696  -12.7626   16.2169 O   0  0  0  0  0  0  0  0  0  0  0  0
   -0.6895   -9.5676   17.3297 C   0  0  0  0  0  0  0  0  0  0  0  0
    0.8388   -5.8417   27.5264 C   0  0  0  0  0  0  0  0  0  0  0  0
   -2.0709   -7.6637   18.7817 C   0  0  0  0  0  0  0  0  0  0  0  0
   -0.5279   -8.2168   17.0717 C   0  0  0  0  0  0  0  0  0  0  0  0
    6.9694   -4.0191   27.8190 C   0  0  0  0  0  0  0  0  0  0  0  0
    5.1733   -4.5469   29.8123 C   0  0  0  0  0  0  0  0  0  0  0  0
   -1.7508  -11.3016   18.6072 C   0  0  0  0  0  0  0  0  0  0  0  0
    1.7497   -5.6771   26.4971 C   0  0  0  0  0  0  0  0  0  0  0  0
   -1.5799   -9.9322   18.3468 C   0  0  0  0  0  0  0  0  0  0  0  0
   -1.0871  -12.2214   17.8851 C   0  0  0  0  0  0  0  0  0  0  0  0
   -2.2706   -8.9669   19.0691 C   0  0  0  0  0  0  0  0  0  0  0  0
    3.0279   -5.3073   26.8197 C   0  0  0  0  0  0  0  0  0  0  0  0
    7.3282   -3.8948   29.1186 C   0  0  0  0  0  0  0  0  0  0  0  0
  1  3  4  0
  1  7  4  0
  2  3  1  0
  2  6  4  0
  2 16  4  0
  3 22  4  0
  4  9  4  0
  4 10  1  0
  4 20  4  0
  5 16  4  0
  5 23  4  0
  6 15  4  0
  7 12  4  0
  8 13  4  0
  8 14  4  0
  9 11  4  0
 11 14  4  0
 11 19  4  0
 12 18  4  0
 13 21  4  0
 15 23  4  0
 17 19  4  0
 17 20  4  0
 18 22  4  0
 19 21  4  0
M  END
$$$$

 Created by Python create_sdf_string function

 23 25  0  0  0  0  0  0  0  0999 V2000
    2.4610   -5.3070   29.1240 C   0  0  0  0  0  0  0  0  0  0  0  0
    4.7710   -4.6952   28.4803 C   0  0  0  0  0  0  0  0  0  0  0  0
    3.4047   -5.1087   28.1314 C   0  0  0  0  0  0  0  0  0  0  0  0
   -0.2234  -11.8615   16.8874 C   0  0  0  0  0  0  0  0  0  0  0  0
    6.4491   -4.1532   30.1213 C   0  0  0  0  0  0  0  0  0  0  0  0
    5.7060   -4.4340   27.4975 C   0  0  0  0  0  0  0  0  0  0  0  0
    1.1818   -5.6612   28.8399 C   0  0  0  0  0  0  0  0  0  0  0  0
   -1.2067   -7.3287   17.7772 C   0  0  0  0  0  0  0  0  0  0  0  0
   -0.0206  -10.5585   16.6210 C   0  0  0  0  0  0  0  0  0  0  0  0
    0.3696  -12.7626   16.2169 O   0  0  0  0  0  0  0  0  0  0  0  0
   -0.6895   -9.5676   17.3297 C   0  0  0  0  0  0  0  0  0  0  0  0
    0.8388   -5.8417   27.5264 C   0  0  0  0  0  0  0  0  0  0  0  0
   -2.0709   -7.6637   18.7817 C   0  0  0  0  0  0  0  0  0  0  0  0
   -0.5279   -8.2168   17.0717 C   0  0  0  0  0  0  0  0  0  0  0  0
    6.9694   -4.0191   27.8190 C   0  0  0  0  0  0  0  0  0  0  0  0
    5.1733   -4.5469   29.8123 C   0  0  0  0  0  0  0  0  0  0  0  0
   -1.7508  -11.3016   18.6072 C   0  0  0  0  0  0  0  0  0  0  0  0
    1.7497   -5.6771   26.4971 C   0  0  0  0  0  0  0  0  0  0  0  0
   -1.5799   -9.9322   18.3468 C   0  0  0  0  0  0  0  0  0  0  0  0
   -1.0871  -12.2214   17.8851 C   0  0  0  0  0  0  0  0  0  0  0  0
   -2.2706   -8.9669   19.0691 C   0  0  0  0  0  0  0  0  0  0  0  0
    3.0279   -5.3073   26.8197 C   0  0  0  0  0  0  0  0  0  0  0  0
    7.3282   -3.8948   29.1186 C   0  0  0  0  0  0  0  0  0  0  0  0
  1  3  4  0
  1  7  4  0
  2  3  1  0
  2  6  4  0
  2 16  4  0
  3 22  4  0
  4  9  4  0
  4 10  1  0
  4 20  4  0
  5 16  4  0
  5 23  4  0
  6 15  4  0
  7 12  4  0
  8 13  4  0
  8 14  4  0
  9 11  4  0
 11 14  4  0
 11 19  4  0
 12 18  4  0
 13 21  4  0
 15 23  4  0
 17 19  4  0
 17 20  4  0
 18 22  4  0
 19 21  4  0
M  END
$$$$

 Created by Python create_sdf_string function

 23 25  0  0  0  0  0  0  0  0999 V2000
    2.4610   -5.3070   29.1240 C   0  0  0  0  0  0  0  0  0  0  0  0
    4.7710   -4.6952   28.4803 C   0  0  0  0  0  0  0  0  0  0  0  0
    3.4047   -5.1087   28.1314 C   0  0  0  0  0  0  0  0  0  0  0  0
   -0.2234  -11.8615   16.8874 C   0  0  0  0  0  0  0  0  0  0  0  0
    6.4491   -4.1532   30.1213 C   0  0  0  0  0  0  0  0  0  0  0  0
    5.7060   -4.4340   27.4975 C   0  0  0  0  0  0  0  0  0  0  0  0
    1.1818   -5.6612   28.8399 C   0  0  0  0  0  0  0  0  0  0  0  0
   -1.2067   -7.3287   17.7772 C   0  0  0  0  0  0  0  0  0  0  0  0
   -0.0206  -10.5585   16.6210 C   0  0  0  0  0  0  0  0  0  0  0  0
    0.3696  -12.7626   16.2169 O   0  0  0  0  0  0  0  0  0  0  0  0
   -0.6895   -9.5676   17.3297 C   0  0  0  0  0  0  0  0  0  0  0  0
    0.8388   -5.8417   27.5264 C   0  0  0  0  0  0  0  0  0  0  0  0
   -2.0709   -7.6637   18.7817 C   0  0  0  0  0  0  0  0  0  0  0  0
   -0.5279   -8.2168   17.0717 C   0  0  0  0  0  0  0  0  0  0  0  0
    6.9694   -4.0191   27.8190 C   0  0  0  0  0  0  0  0  0  0  0  0
    5.1733   -4.5469   29.8123 C   0  0  0  0  0  0  0  0  0  0  0  0
   -1.7508  -11.3016   18.6072 C   0  0  0  0  0  0  0  0  0  0  0  0
    1.7497   -5.6771   26.4971 C   0  0  0  0  0  0  0  0  0  0  0  0
   -1.5799   -9.9322   18.3468 C   0  0  0  0  0  0  0  0  0  0  0  0
   -1.0871  -12.2214   17.8851 C   0  0  0  0  0  0  0  0  0  0  0  0
   -2.2706   -8.9669   19.0691 C   0  0  0  0  0  0  0  0  0  0  0  0
    3.0279   -5.3073   26.8197 C   0  0  0  0  0  0  0  0  0  0  0  0
    7.3282   -3.8948   29.1186 C   0  0  0  0  0  0  0  0  0  0  0  0
  1  3  4  0
  1  7  4  0
  2  3  1  0
  2  6  4  0
  2 16  4  0
  3 22  4  0
  4  9  4  0
  4 10  1  0
  4 20  4  0
  5 16  4  0
  5 23  4  0
  6 15  4  0
  7 12  4  0
  8 13  4  0
  8 14  4  0
  9 11  4  0
 11 14  4  0
 11 19  4  0
 12 18  4  0
 13 21  4  0
 15 23  4  0
 17 19  4  0
 17 20  4  0
 18 22  4  0
 19 21  4  0
M  END
$$$$

 Created by Python create_sdf_string function

 23 25  0  0  0  0  0  0  0  0999 V2000
    2.4610   -5.3070   29.1240 C   0  0  0  0  0  0  0  0  0  0  0  0
    4.7710   -4.6952   28.4803 C   0  0  0  0  0  0  0  0  0  0  0  0
    3.4047   -5.1087   28.1314 C   0  0  0  0  0  0  0  0  0  0  0  0
   -0.2234  -11.8615   16.8874 C   0  0  0  0  0  0  0  0  0  0  0  0
    6.4491   -4.1532   30.1213 C   0  0  0  0  0  0  0  0  0  0  0  0
    5.7060   -4.4340   27.4975 C   0  0  0  0  0  0  0  0  0  0  0  0
    1.1818   -5.6612   28.8399 C   0  0  0  0  0  0  0  0  0  0  0  0
   -1.2067   -7.3287   17.7772 C   0  0  0  0  0  0  0  0  0  0  0  0
   -0.0206  -10.5585   16.6210 C   0  0  0  0  0  0  0  0  0  0  0  0
    0.3696  -12.7626   16.2169 O   0  0  0  0  0  0  0  0  0  0  0  0
   -0.6895   -9.5676   17.3297 C   0  0  0  0  0  0  0  0  0  0  0  0
    0.8388   -5.8417   27.5264 C   0  0  0  0  0  0  0  0  0  0  0  0
   -2.0709   -7.6637   18.7817 C   0  0  0  0  0  0  0  0  0  0  0  0
   -0.5279   -8.2168   17.0717 C   0  0  0  0  0  0  0  0  0  0  0  0
    6.9694   -4.0191   27.8190 C   0  0  0  0  0  0  0  0  0  0  0  0
    5.1733   -4.5469   29.8123 C   0  0  0  0  0  0  0  0  0  0  0  0
   -1.7508  -11.3016   18.6072 C   0  0  0  0  0  0  0  0  0  0  0  0
    1.7497   -5.6771   26.4971 C   0  0  0  0  0  0  0  0  0  0  0  0
   -1.5799   -9.9322   18.3468 C   0  0  0  0  0  0  0  0  0  0  0  0
   -1.0871  -12.2214   17.8851 C   0  0  0  0  0  0  0  0  0  0  0  0
   -2.2706   -8.9669   19.0691 C   0  0  0  0  0  0  0  0  0  0  0  0
    3.0279   -5.3073   26.8197 C   0  0  0  0  0  0  0  0  0  0  0  0
    7.3282   -3.8948   29.1186 C   0  0  0  0  0  0  0  0  0  0  0  0
  1  3  4  0
  1  7  4  0
  2  3  1  0
  2  6  4  0
  2 16  4  0
  3 22  4  0
  4  9  4  0
  4 10  1  0
  4 20  4  0
  5 16  4  0
  5 23  4  0
  6 15  4  0
  7 12  4  0
  8 13  4  0
  8 14  4  0
  9 11  4  0
 11 14  4  0
 11 19  4  0
 12 18  4  0
 13 21  4  0
 15 23  4  0
 17 19  4  0
 17 20  4  0
 18 22  4  0
 19 21  4  0
M  END
$$$$

 Created by Python create_sdf_string function

 23 25  0  0  0  0  0  0  0  0999 V2000
    2.4610   -5.3070   29.1240 C   0  0  0  0  0  0  0  0  0  0  0  0
    4.7710   -4.6952   28.4803 C   0  0  0  0  0  0  0  0  0  0  0  0
    3.4047   -5.1087   28.1314 C   0  0  0  0  0  0  0  0  0  0  0  0
   -0.2234  -11.8615   16.8874 C   0  0  0  0  0  0  0  0  0  0  0  0
    6.4491   -4.1532   30.1213 C   0  0  0  0  0  0  0  0  0  0  0  0
    5.7060   -4.4340   27.4975 C   0  0  0  0  0  0  0  0  0  0  0  0
    1.1818   -5.6612   28.8399 C   0  0  0  0  0  0  0  0  0  0  0  0
   -1.2067   -7.3287   17.7772 C   0  0  0  0  0  0  0  0  0  0  0  0
   -0.0206  -10.5585   16.6210 C   0  0  0  0  0  0  0  0  0  0  0  0
    0.3696  -12.7626   16.2169 O   0  0  0  0  0  0  0  0  0  0  0  0
   -0.6895   -9.5676   17.3297 C   0  0  0  0  0  0  0  0  0  0  0  0
    0.8388   -5.8417   27.5264 C   0  0  0  0  0  0  0  0  0  0  0  0
   -2.0709   -7.6637   18.7817 C   0  0  0  0  0  0  0  0  0  0  0  0
   -0.5279   -8.2168   17.0717 C   0  0  0  0  0  0  0  0  0  0  0  0
    6.9694   -4.0191   27.8190 C   0  0  0  0  0  0  0  0  0  0  0  0
    5.1733   -4.5469   29.8123 C   0  0  0  0  0  0  0  0  0  0  0  0
   -1.7508  -11.3016   18.6072 C   0  0  0  0  0  0  0  0  0  0  0  0
    1.7497   -5.6771   26.4971 C   0  0  0  0  0  0  0  0  0  0  0  0
   -1.5799   -9.9322   18.3468 C   0  0  0  0  0  0  0  0  0  0  0  0
   -1.0871  -12.2214   17.8851 C   0  0  0  0  0  0  0  0  0  0  0  0
   -2.2706   -8.9669   19.0691 C   0  0  0  0  0  0  0  0  0  0  0  0
    3.0279   -5.3073   26.8197 C   0  0  0  0  0  0  0  0  0  0  0  0
    7.3282   -3.8948   29.1186 C   0  0  0  0  0  0  0  0  0  0  0  0
  1  3  4  0
  1  7  4  0
  2  3  1  0
  2  6  4  0
  2 16  4  0
  3 22  4  0
  4  9  4  0
  4 10  1  0
  4 20  4  0
  5 16  4  0
  5 23  4  0
  6 15  4  0
  7 12  4  0
  8 13  4  0
  8 14  4  0
  9 11  4  0
 11 14  4  0
 11 19  4  0
 12 18  4  0
 13 21  4  0
 15 23  4  0
 17 19  4  0
 17 20  4  0
 18 22  4  0
 19 21  4  0
M  END
$$$$

 Created by Python create_sdf_string function

 23 25  0  0  0  0  0  0  0  0999 V2000
    2.4610   -5.3070   29.1240 C   0  0  0  0  0  0  0  0  0  0  0  0
    4.7710   -4.6952   28.4803 C   0  0  0  0  0  0  0  0  0  0  0  0
    3.4047   -5.1087   28.1314 C   0  0  0  0  0  0  0  0  0  0  0  0
   -0.2234  -11.8615   16.8874 C   0  0  0  0  0  0  0  0  0  0  0  0
    6.4491   -4.1532   30.1213 C   0  0  0  0  0  0  0  0  0  0  0  0
    5.7060   -4.4340   27.4975 C   0  0  0  0  0  0  0  0  0  0  0  0
    1.1818   -5.6612   28.8399 C   0  0  0  0  0  0  0  0  0  0  0  0
   -1.2067   -7.3287   17.7772 C   0  0  0  0  0  0  0  0  0  0  0  0
   -0.0206  -10.5585   16.6210 C   0  0  0  0  0  0  0  0  0  0  0  0
    0.3696  -12.7626   16.2169 O   0  0  0  0  0  0  0  0  0  0  0  0
   -0.6895   -9.5676   17.3297 C   0  0  0  0  0  0  0  0  0  0  0  0
    0.8388   -5.8417   27.5264 C   0  0  0  0  0  0  0  0  0  0  0  0
   -2.0709   -7.6637   18.7817 C   0  0  0  0  0  0  0  0  0  0  0  0
   -0.5279   -8.2168   17.0717 C   0  0  0  0  0  0  0  0  0  0  0  0
    6.9694   -4.0191   27.8190 C   0  0  0  0  0  0  0  0  0  0  0  0
    5.1733   -4.5469   29.8123 C   0  0  0  0  0  0  0  0  0  0  0  0
   -1.7508  -11.3016   18.6072 C   0  0  0  0  0  0  0  0  0  0  0  0
    1.7497   -5.6771   26.4971 C   0  0  0  0  0  0  0  0  0  0  0  0
   -1.5799   -9.9322   18.3468 C   0  0  0  0  0  0  0  0  0  0  0  0
   -1.0871  -12.2214   17.8851 C   0  0  0  0  0  0  0  0  0  0  0  0
   -2.2706   -8.9669   19.0691 C   0  0  0  0  0  0  0  0  0  0  0  0
    3.0279   -5.3073   26.8197 C   0  0  0  0  0  0  0  0  0  0  0  0
    7.3282   -3.8948   29.1186 C   0  0  0  0  0  0  0  0  0  0  0  0
  1  3  4  0
  1  7  4  0
  2  3  1  0
  2  6  4  0
  2 16  4  0
  3 22  4  0
  4  9  4  0
  4 10  1  0
  4 20  4  0
  5 16  4  0
  5 23  4  0
  6 15  4  0
  7 12  4  0
  8 13  4  0
  8 14  4  0
  9 11  4  0
 11 14  4  0
 11 19  4  0
 12 18  4  0
 13 21  4  0
 15 23  4  0
 17 19  4  0
 17 20  4  0
 18 22  4  0
 19 21  4  0
M  END
$$$$

 Created by Python create_sdf_string function

 23 25  0  0  0  0  0  0  0  0999 V2000
    2.4610   -5.3070   29.1240 C   0  0  0  0  0  0  0  0  0  0  0  0
    4.7710   -4.6952   28.4803 C   0  0  0  0  0  0  0  0  0  0  0  0
    3.4047   -5.1087   28.1314 C   0  0  0  0  0  0  0  0  0  0  0  0
   -0.2234  -11.8615   16.8874 C   0  0  0  0  0  0  0  0  0  0  0  0
    6.4491   -4.1532   30.1213 C   0  0  0  0  0  0  0  0  0  0  0  0
    5.7060   -4.4340   27.4975 C   0  0  0  0  0  0  0  0  0  0  0  0
    1.1818   -5.6612   28.8399 C   0  0  0  0  0  0  0  0  0  0  0  0
   -1.2067   -7.3287   17.7772 C   0  0  0  0  0  0  0  0  0  0  0  0
   -0.0206  -10.5585   16.6210 C   0  0  0  0  0  0  0  0  0  0  0  0
    0.3696  -12.7626   16.2169 O   0  0  0  0  0  0  0  0  0  0  0  0
   -0.6895   -9.5676   17.3297 C   0  0  0  0  0  0  0  0  0  0  0  0
    0.8388   -5.8417   27.5264 C   0  0  0  0  0  0  0  0  0  0  0  0
   -2.0709   -7.6637   18.7817 C   0  0  0  0  0  0  0  0  0  0  0  0
   -0.5279   -8.2168   17.0717 C   0  0  0  0  0  0  0  0  0  0  0  0
    6.9694   -4.0191   27.8190 C   0  0  0  0  0  0  0  0  0  0  0  0
    5.1733   -4.5469   29.8123 C   0  0  0  0  0  0  0  0  0  0  0  0
   -1.7508  -11.3016   18.6072 C   0  0  0  0  0  0  0  0  0  0  0  0
    1.7497   -5.6771   26.4971 C   0  0  0  0  0  0  0  0  0  0  0  0
   -1.5799   -9.9322   18.3468 C   0  0  0  0  0  0  0  0  0  0  0  0
   -1.0871  -12.2214   17.8851 C   0  0  0  0  0  0  0  0  0  0  0  0
   -2.2706   -8.9669   19.0691 C   0  0  0  0  0  0  0  0  0  0  0  0
    3.0279   -5.3073   26.8197 C   0  0  0  0  0  0  0  0  0  0  0  0
    7.3282   -3.8948   29.1186 C   0  0  0  0  0  0  0  0  0  0  0  0
  1  3  4  0
  1  7  4  0
  2  3  1  0
  2  6  4  0
  2 16  4  0
  3 22  4  0
  4  9  4  0
  4 10  1  0
  4 20  4  0
  5 16  4  0
  5 23  4  0
  6 15  4  0
  7 12  4  0
  8 13  4  0
  8 14  4  0
  9 11  4  0
 11 14  4  0
 11 19  4  0
 12 18  4  0
 13 21  4  0
 15 23  4  0
 17 19  4  0
 17 20  4  0
 18 22  4  0
 19 21  4  0
M  END
$$$$

 Created by Python create_sdf_string function

 23 25  0  0  0  0  0  0  0  0999 V2000
    2.4610   -5.3070   29.1240 C   0  0  0  0  0  0  0  0  0  0  0  0
    4.7710   -4.6952   28.4803 C   0  0  0  0  0  0  0  0  0  0  0  0
    3.4047   -5.1087   28.1314 C   0  0  0  0  0  0  0  0  0  0  0  0
   -0.2234  -11.8615   16.8874 C   0  0  0  0  0  0  0  0  0  0  0  0
    6.4491   -4.1532   30.1213 C   0  0  0  0  0  0  0  0  0  0  0  0
    5.7060   -4.4340   27.4975 C   0  0  0  0  0  0  0  0  0  0  0  0
    1.1818   -5.6612   28.8399 C   0  0  0  0  0  0  0  0  0  0  0  0
   -1.2067   -7.3287   17.7772 C   0  0  0  0  0  0  0  0  0  0  0  0
   -0.0206  -10.5585   16.6210 C   0  0  0  0  0  0  0  0  0  0  0  0
    0.3696  -12.7626   16.2169 O   0  0  0  0  0  0  0  0  0  0  0  0
   -0.6895   -9.5676   17.3297 C   0  0  0  0  0  0  0  0  0  0  0  0
    0.8388   -5.8417   27.5264 C   0  0  0  0  0  0  0  0  0  0  0  0
   -2.0709   -7.6637   18.7817 C   0  0  0  0  0  0  0  0  0  0  0  0
   -0.5279   -8.2168   17.0717 C   0  0  0  0  0  0  0  0  0  0  0  0
    6.9694   -4.0191   27.8190 C   0  0  0  0  0  0  0  0  0  0  0  0
    5.1733   -4.5469   29.8123 C   0  0  0  0  0  0  0  0  0  0  0  0
   -1.7508  -11.3016   18.6072 C   0  0  0  0  0  0  0  0  0  0  0  0
    1.7497   -5.6771   26.4971 C   0  0  0  0  0  0  0  0  0  0  0  0
   -1.5799   -9.9322   18.3468 C   0  0  0  0  0  0  0  0  0  0  0  0
   -1.0871  -12.2214   17.8851 C   0  0  0  0  0  0  0  0  0  0  0  0
   -2.2706   -8.9669   19.0691 C   0  0  0  0  0  0  0  0  0  0  0  0
    3.0279   -5.3073   26.8197 C   0  0  0  0  0  0  0  0  0  0  0  0
    7.3282   -3.8948   29.1186 C   0  0  0  0  0  0  0  0  0  0  0  0
  1  3  4  0
  1  7  4  0
  2  3  1  0
  2  6  4  0
  2 16  4  0
  3 22  4  0
  4  9  4  0
  4 10  1  0
  4 20  4  0
  5 16  4  0
  5 23  4  0
  6 15  4  0
  7 12  4  0
  8 13  4  0
  8 14  4  0
  9 11  4  0
 11 14  4  0
 11 19  4  0
 12 18  4  0
 13 21  4  0
 15 23  4  0
 17 19  4  0
 17 20  4  0
 18 22  4  0
 19 21  4  0
M  END
$$$$

 Created by Python create_sdf_string function

 23 25  0  0  0  0  0  0  0  0999 V2000
    2.4610   -5.3070   29.1240 C   0  0  0  0  0  0  0  0  0  0  0  0
    4.7710   -4.6952   28.4803 C   0  0  0  0  0  0  0  0  0  0  0  0
    3.4047   -5.1087   28.1314 C   0  0  0  0  0  0  0  0  0  0  0  0
   -0.2234  -11.8615   16.8874 C   0  0  0  0  0  0  0  0  0  0  0  0
    6.4491   -4.1532   30.1213 C   0  0  0  0  0  0  0  0  0  0  0  0
    5.7060   -4.4340   27.4975 C   0  0  0  0  0  0  0  0  0  0  0  0
    1.1818   -5.6612   28.8399 C   0  0  0  0  0  0  0  0  0  0  0  0
   -1.2067   -7.3287   17.7772 C   0  0  0  0  0  0  0  0  0  0  0  0
   -0.0206  -10.5585   16.6210 C   0  0  0  0  0  0  0  0  0  0  0  0
    0.3696  -12.7626   16.2169 O   0  0  0  0  0  0  0  0  0  0  0  0
   -0.6895   -9.5676   17.3297 C   0  0  0  0  0  0  0  0  0  0  0  0
    0.8388   -5.8417   27.5264 C   0  0  0  0  0  0  0  0  0  0  0  0
   -2.0709   -7.6637   18.7817 C   0  0  0  0  0  0  0  0  0  0  0  0
   -0.5279   -8.2168   17.0717 C   0  0  0  0  0  0  0  0  0  0  0  0
    6.9694   -4.0191   27.8190 C   0  0  0  0  0  0  0  0  0  0  0  0
    5.1733   -4.5469   29.8123 C   0  0  0  0  0  0  0  0  0  0  0  0
   -1.7508  -11.3016   18.6072 C   0  0  0  0  0  0  0  0  0  0  0  0
    1.7497   -5.6771   26.4971 C   0  0  0  0  0  0  0  0  0  0  0  0
   -1.5799   -9.9322   18.3468 C   0  0  0  0  0  0  0  0  0  0  0  0
   -1.0871  -12.2214   17.8851 C   0  0  0  0  0  0  0  0  0  0  0  0
   -2.2706   -8.9669   19.0691 C   0  0  0  0  0  0  0  0  0  0  0  0
    3.0279   -5.3073   26.8197 C   0  0  0  0  0  0  0  0  0  0  0  0
    7.3282   -3.8948   29.1186 C   0  0  0  0  0  0  0  0  0  0  0  0
  1  3  4  0
  1  7  4  0
  2  3  1  0
  2  6  4  0
  2 16  4  0
  3 22  4  0
  4  9  4  0
  4 10  1  0
  4 20  4  0
  5 16  4  0
  5 23  4  0
  6 15  4  0
  7 12  4  0
  8 13  4  0
  8 14  4  0
  9 11  4  0
 11 14  4  0
 11 19  4  0
 12 18  4  0
 13 21  4  0
 15 23  4  0
 17 19  4  0
 17 20  4  0
 18 22  4  0
 19 21  4  0
M  END
$$$$

 Created by Python create_sdf_string function

 23 25  0  0  0  0  0  0  0  0999 V2000
    2.4610   -5.3070   29.1240 C   0  0  0  0  0  0  0  0  0  0  0  0
    4.7710   -4.6952   28.4803 C   0  0  0  0  0  0  0  0  0  0  0  0
    3.4047   -5.1087   28.1314 C   0  0  0  0  0  0  0  0  0  0  0  0
   -0.2234  -11.8615   16.8874 C   0  0  0  0  0  0  0  0  0  0  0  0
    6.4491   -4.1532   30.1213 C   0  0  0  0  0  0  0  0  0  0  0  0
    5.7060   -4.4340   27.4975 C   0  0  0  0  0  0  0  0  0  0  0  0
    1.1818   -5.6612   28.8399 C   0  0  0  0  0  0  0  0  0  0  0  0
   -1.2067   -7.3287   17.7772 C   0  0  0  0  0  0  0  0  0  0  0  0
   -0.0206  -10.5585   16.6210 C   0  0  0  0  0  0  0  0  0  0  0  0
    0.3696  -12.7626   16.2169 O   0  0  0  0  0  0  0  0  0  0  0  0
   -0.6895   -9.5676   17.3297 C   0  0  0  0  0  0  0  0  0  0  0  0
    0.8388   -5.8417   27.5264 C   0  0  0  0  0  0  0  0  0  0  0  0
   -2.0709   -7.6637   18.7817 C   0  0  0  0  0  0  0  0  0  0  0  0
   -0.5279   -8.2168   17.0717 C   0  0  0  0  0  0  0  0  0  0  0  0
    6.9694   -4.0191   27.8190 C   0  0  0  0  0  0  0  0  0  0  0  0
    5.1733   -4.5469   29.8123 C   0  0  0  0  0  0  0  0  0  0  0  0
   -1.7508  -11.3016   18.6072 C   0  0  0  0  0  0  0  0  0  0  0  0
    1.7497   -5.6771   26.4971 C   0  0  0  0  0  0  0  0  0  0  0  0
   -1.5799   -9.9322   18.3468 C   0  0  0  0  0  0  0  0  0  0  0  0
   -1.0871  -12.2214   17.8851 C   0  0  0  0  0  0  0  0  0  0  0  0
   -2.2706   -8.9669   19.0691 C   0  0  0  0  0  0  0  0  0  0  0  0
    3.0279   -5.3073   26.8197 C   0  0  0  0  0  0  0  0  0  0  0  0
    7.3282   -3.8948   29.1186 C   0  0  0  0  0  0  0  0  0  0  0  0
  1  3  4  0
  1  7  4  0
  2  3  1  0
  2  6  4  0
  2 16  4  0
  3 22  4  0
  4  9  4  0
  4 10  1  0
  4 20  4  0
  5 16  4  0
  5 23  4  0
  6 15  4  0
  7 12  4  0
  8 13  4  0
  8 14  4  0
  9 11  4  0
 11 14  4  0
 11 19  4  0
 12 18  4  0
 13 21  4  0
 15 23  4  0
 17 19  4  0
 17 20  4  0
 18 22  4  0
 19 21  4  0
M  END
$$$$

 Created by Python create_sdf_string function

 23 25  0  0  0  0  0  0  0  0999 V2000
    2.4610   -5.3070   29.1240 C   0  0  0  0  0  0  0  0  0  0  0  0
    4.7710   -4.6952   28.4803 C   0  0  0  0  0  0  0  0  0  0  0  0
    3.4047   -5.1087   28.1314 C   0  0  0  0  0  0  0  0  0  0  0  0
   -0.2234  -11.8615   16.8874 C   0  0  0  0  0  0  0  0  0  0  0  0
    6.4491   -4.1532   30.1213 C   0  0  0  0  0  0  0  0  0  0  0  0
    5.7060   -4.4340   27.4975 C   0  0  0  0  0  0  0  0  0  0  0  0
    1.1818   -5.6612   28.8399 C   0  0  0  0  0  0  0  0  0  0  0  0
   -1.2067   -7.3287   17.7772 C   0  0  0  0  0  0  0  0  0  0  0  0
   -0.0206  -10.5585   16.6210 C   0  0  0  0  0  0  0  0  0  0  0  0
    0.3696  -12.7626   16.2169 O   0  0  0  0  0  0  0  0  0  0  0  0
   -0.6895   -9.5676   17.3297 C   0  0  0  0  0  0  0  0  0  0  0  0
    0.8388   -5.8417   27.5264 C   0  0  0  0  0  0  0  0  0  0  0  0
   -2.0709   -7.6637   18.7817 C   0  0  0  0  0  0  0  0  0  0  0  0
   -0.5279   -8.2168   17.0717 C   0  0  0  0  0  0  0  0  0  0  0  0
    6.9694   -4.0191   27.8190 C   0  0  0  0  0  0  0  0  0  0  0  0
    5.1733   -4.5469   29.8123 C   0  0  0  0  0  0  0  0  0  0  0  0
   -1.7508  -11.3016   18.6072 C   0  0  0  0  0  0  0  0  0  0  0  0
    1.7497   -5.6771   26.4971 C   0  0  0  0  0  0  0  0  0  0  0  0
   -1.5799   -9.9322   18.3468 C   0  0  0  0  0  0  0  0  0  0  0  0
   -1.0871  -12.2214   17.8851 C   0  0  0  0  0  0  0  0  0  0  0  0
   -2.2706   -8.9669   19.0691 C   0  0  0  0  0  0  0  0  0  0  0  0
    3.0279   -5.3073   26.8197 C   0  0  0  0  0  0  0  0  0  0  0  0
    7.3282   -3.8948   29.1186 C   0  0  0  0  0  0  0  0  0  0  0  0
  1  3  4  0
  1  7  4  0
  2  3  1  0
  2  6  4  0
  2 16  4  0
  3 22  4  0
  4  9  4  0
  4 10  1  0
  4 20  4  0
  5 16  4  0
  5 23  4  0
  6 15  4  0
  7 12  4  0
  8 13  4  0
  8 14  4  0
  9 11  4  0
 11 14  4  0
 11 19  4  0
 12 18  4  0
 13 21  4  0
 15 23  4  0
 17 19  4  0
 17 20  4  0
 18 22  4  0
 19 21  4  0
M  END
$$$$

 Created by Python create_sdf_string function

 23 25  0  0  0  0  0  0  0  0999 V2000
    2.4610   -5.3070   29.1240 C   0  0  0  0  0  0  0  0  0  0  0  0
    4.7710   -4.6952   28.4803 C   0  0  0  0  0  0  0  0  0  0  0  0
    3.4047   -5.1087   28.1314 C   0  0  0  0  0  0  0  0  0  0  0  0
   -0.2234  -11.8615   16.8874 C   0  0  0  0  0  0  0  0  0  0  0  0
    6.4491   -4.1532   30.1213 C   0  0  0  0  0  0  0  0  0  0  0  0
    5.7060   -4.4340   27.4975 C   0  0  0  0  0  0  0  0  0  0  0  0
    1.1818   -5.6612   28.8399 C   0  0  0  0  0  0  0  0  0  0  0  0
   -1.2067   -7.3287   17.7772 C   0  0  0  0  0  0  0  0  0  0  0  0
   -0.0206  -10.5585   16.6210 C   0  0  0  0  0  0  0  0  0  0  0  0
    0.3696  -12.7626   16.2169 O   0  0  0  0  0  0  0  0  0  0  0  0
   -0.6895   -9.5676   17.3297 C   0  0  0  0  0  0  0  0  0  0  0  0
    0.8388   -5.8417   27.5264 C   0  0  0  0  0  0  0  0  0  0  0  0
   -2.0709   -7.6637   18.7817 C   0  0  0  0  0  0  0  0  0  0  0  0
   -0.5279   -8.2168   17.0717 C   0  0  0  0  0  0  0  0  0  0  0  0
    6.9694   -4.0191   27.8190 C   0  0  0  0  0  0  0  0  0  0  0  0
    5.1733   -4.5469   29.8123 C   0  0  0  0  0  0  0  0  0  0  0  0
   -1.7508  -11.3016   18.6072 C   0  0  0  0  0  0  0  0  0  0  0  0
    1.7497   -5.6771   26.4971 C   0  0  0  0  0  0  0  0  0  0  0  0
   -1.5799   -9.9322   18.3468 C   0  0  0  0  0  0  0  0  0  0  0  0
   -1.0871  -12.2214   17.8851 C   0  0  0  0  0  0  0  0  0  0  0  0
   -2.2706   -8.9669   19.0691 C   0  0  0  0  0  0  0  0  0  0  0  0
    3.0279   -5.3073   26.8197 C   0  0  0  0  0  0  0  0  0  0  0  0
    7.3282   -3.8948   29.1186 C   0  0  0  0  0  0  0  0  0  0  0  0
  1  3  4  0
  1  7  4  0
  2  3  1  0
  2  6  4  0
  2 16  4  0
  3 22  4  0
  4  9  4  0
  4 10  1  0
  4 20  4  0
  5 16  4  0
  5 23  4  0
  6 15  4  0
  7 12  4  0
  8 13  4  0
  8 14  4  0
  9 11  4  0
 11 14  4  0
 11 19  4  0
 12 18  4  0
 13 21  4  0
 15 23  4  0
 17 19  4  0
 17 20  4  0
 18 22  4  0
 19 21  4  0
M  END
$$$$

 Created by Python create_sdf_string function

 23 25  0  0  0  0  0  0  0  0999 V2000
    2.4610   -5.3070   29.1240 C   0  0  0  0  0  0  0  0  0  0  0  0
    4.7710   -4.6952   28.4803 C   0  0  0  0  0  0  0  0  0  0  0  0
    3.4047   -5.1087   28.1314 C   0  0  0  0  0  0  0  0  0  0  0  0
   -0.2234  -11.8615   16.8874 C   0  0  0  0  0  0  0  0  0  0  0  0
    6.4491   -4.1532   30.1213 C   0  0  0  0  0  0  0  0  0  0  0  0
    5.7060   -4.4340   27.4975 C   0  0  0  0  0  0  0  0  0  0  0  0
    1.1818   -5.6612   28.8399 C   0  0  0  0  0  0  0  0  0  0  0  0
   -1.2067   -7.3287   17.7772 C   0  0  0  0  0  0  0  0  0  0  0  0
   -0.0206  -10.5585   16.6210 C   0  0  0  0  0  0  0  0  0  0  0  0
    0.3696  -12.7626   16.2169 O   0  0  0  0  0  0  0  0  0  0  0  0
   -0.6895   -9.5676   17.3297 C   0  0  0  0  0  0  0  0  0  0  0  0
    0.8388   -5.8417   27.5264 C   0  0  0  0  0  0  0  0  0  0  0  0
   -2.0709   -7.6637   18.7817 C   0  0  0  0  0  0  0  0  0  0  0  0
   -0.5279   -8.2168   17.0717 C   0  0  0  0  0  0  0  0  0  0  0  0
    6.9694   -4.0191   27.8190 C   0  0  0  0  0  0  0  0  0  0  0  0
    5.1733   -4.5469   29.8123 C   0  0  0  0  0  0  0  0  0  0  0  0
   -1.7508  -11.3016   18.6072 C   0  0  0  0  0  0  0  0  0  0  0  0
    1.7497   -5.6771   26.4971 C   0  0  0  0  0  0  0  0  0  0  0  0
   -1.5799   -9.9322   18.3468 C   0  0  0  0  0  0  0  0  0  0  0  0
   -1.0871  -12.2214   17.8851 C   0  0  0  0  0  0  0  0  0  0  0  0
   -2.2706   -8.9669   19.0691 C   0  0  0  0  0  0  0  0  0  0  0  0
    3.0279   -5.3073   26.8197 C   0  0  0  0  0  0  0  0  0  0  0  0
    7.3282   -3.8948   29.1186 C   0  0  0  0  0  0  0  0  0  0  0  0
  1  3  4  0
  1  7  4  0
  2  3  1  0
  2  6  4  0
  2 16  4  0
  3 22  4  0
  4  9  4  0
  4 10  1  0
  4 20  4  0
  5 16  4  0
  5 23  4  0
  6 15  4  0
  7 12  4  0
  8 13  4  0
  8 14  4  0
  9 11  4  0
 11 14  4  0
 11 19  4  0
 12 18  4  0
 13 21  4  0
 15 23  4  0
 17 19  4  0
 17 20  4  0
 18 22  4  0
 19 21  4  0
M  END
$$$$

 Created by Python create_sdf_string function

 23 25  0  0  0  0  0  0  0  0999 V2000
    2.4610   -5.3070   29.1240 C   0  0  0  0  0  0  0  0  0  0  0  0
    4.7710   -4.6952   28.4803 C   0  0  0  0  0  0  0  0  0  0  0  0
    3.4047   -5.1087   28.1314 C   0  0  0  0  0  0  0  0  0  0  0  0
   -0.2234  -11.8615   16.8874 C   0  0  0  0  0  0  0  0  0  0  0  0
    6.4491   -4.1532   30.1213 C   0  0  0  0  0  0  0  0  0  0  0  0
    5.7060   -4.4340   27.4975 C   0  0  0  0  0  0  0  0  0  0  0  0
    1.1818   -5.6612   28.8399 C   0  0  0  0  0  0  0  0  0  0  0  0
   -1.2067   -7.3287   17.7772 C   0  0  0  0  0  0  0  0  0  0  0  0
   -0.0206  -10.5585   16.6210 C   0  0  0  0  0  0  0  0  0  0  0  0
    0.3696  -12.7626   16.2169 O   0  0  0  0  0  0  0  0  0  0  0  0
   -0.6895   -9.5676   17.3297 C   0  0  0  0  0  0  0  0  0  0  0  0
    0.8388   -5.8417   27.5264 C   0  0  0  0  0  0  0  0  0  0  0  0
   -2.0709   -7.6637   18.7817 C   0  0  0  0  0  0  0  0  0  0  0  0
   -0.5279   -8.2168   17.0717 C   0  0  0  0  0  0  0  0  0  0  0  0
    6.9694   -4.0191   27.8190 C   0  0  0  0  0  0  0  0  0  0  0  0
    5.1733   -4.5469   29.8123 C   0  0  0  0  0  0  0  0  0  0  0  0
   -1.7508  -11.3016   18.6072 C   0  0  0  0  0  0  0  0  0  0  0  0
    1.7497   -5.6771   26.4971 C   0  0  0  0  0  0  0  0  0  0  0  0
   -1.5799   -9.9322   18.3468 C   0  0  0  0  0  0  0  0  0  0  0  0
   -1.0871  -12.2214   17.8851 C   0  0  0  0  0  0  0  0  0  0  0  0
   -2.2706   -8.9669   19.0691 C   0  0  0  0  0  0  0  0  0  0  0  0
    3.0279   -5.3073   26.8197 C   0  0  0  0  0  0  0  0  0  0  0  0
    7.3282   -3.8948   29.1186 C   0  0  0  0  0  0  0  0  0  0  0  0
  1  3  4  0
  1  7  4  0
  2  3  1  0
  2  6  4  0
  2 16  4  0
  3 22  4  0
  4  9  4  0
  4 10  1  0
  4 20  4  0
  5 16  4  0
  5 23  4  0
  6 15  4  0
  7 12  4  0
  8 13  4  0
  8 14  4  0
  9 11  4  0
 11 14  4  0
 11 19  4  0
 12 18  4  0
 13 21  4  0
 15 23  4  0
 17 19  4  0
 17 20  4  0
 18 22  4  0
 19 21  4  0
M  END
$$$$

 Created by Python create_sdf_string function

 23 25  0  0  0  0  0  0  0  0999 V2000
    2.4610   -5.3070   29.1240 C   0  0  0  0  0  0  0  0  0  0  0  0
    4.7710   -4.6952   28.4803 C   0  0  0  0  0  0  0  0  0  0  0  0
    3.4047   -5.1087   28.1314 C   0  0  0  0  0  0  0  0  0  0  0  0
   -0.2234  -11.8615   16.8874 C   0  0  0  0  0  0  0  0  0  0  0  0
    6.4491   -4.1532   30.1213 C   0  0  0  0  0  0  0  0  0  0  0  0
    5.7060   -4.4340   27.4975 C   0  0  0  0  0  0  0  0  0  0  0  0
    1.1818   -5.6612   28.8399 C   0  0  0  0  0  0  0  0  0  0  0  0
   -1.2067   -7.3287   17.7772 C   0  0  0  0  0  0  0  0  0  0  0  0
   -0.0206  -10.5585   16.6210 C   0  0  0  0  0  0  0  0  0  0  0  0
    0.3696  -12.7626   16.2169 O   0  0  0  0  0  0  0  0  0  0  0  0
   -0.6895   -9.5676   17.3297 C   0  0  0  0  0  0  0  0  0  0  0  0
    0.8388   -5.8417   27.5264 C   0  0  0  0  0  0  0  0  0  0  0  0
   -2.0709   -7.6637   18.7817 C   0  0  0  0  0  0  0  0  0  0  0  0
   -0.5279   -8.2168   17.0717 C   0  0  0  0  0  0  0  0  0  0  0  0
    6.9694   -4.0191   27.8190 C   0  0  0  0  0  0  0  0  0  0  0  0
    5.1733   -4.5469   29.8123 C   0  0  0  0  0  0  0  0  0  0  0  0
   -1.7508  -11.3016   18.6072 C   0  0  0  0  0  0  0  0  0  0  0  0
    1.7497   -5.6771   26.4971 C   0  0  0  0  0  0  0  0  0  0  0  0
   -1.5799   -9.9322   18.3468 C   0  0  0  0  0  0  0  0  0  0  0  0
   -1.0871  -12.2214   17.8851 C   0  0  0  0  0  0  0  0  0  0  0  0
   -2.2706   -8.9669   19.0691 C   0  0  0  0  0  0  0  0  0  0  0  0
    3.0279   -5.3073   26.8197 C   0  0  0  0  0  0  0  0  0  0  0  0
    7.3282   -3.8948   29.1186 C   0  0  0  0  0  0  0  0  0  0  0  0
  1  3  4  0
  1  7  4  0
  2  3  1  0
  2  6  4  0
  2 16  4  0
  3 22  4  0
  4  9  4  0
  4 10  1  0
  4 20  4  0
  5 16  4  0
  5 23  4  0
  6 15  4  0
  7 12  4  0
  8 13  4  0
  8 14  4  0
  9 11  4  0
 11 14  4  0
 11 19  4  0
 12 18  4  0
 13 21  4  0
 15 23  4  0
 17 19  4  0
 17 20  4  0
 18 22  4  0
 19 21  4  0
M  END
$$$$

 Created by Python create_sdf_string function

 23 25  0  0  0  0  0  0  0  0999 V2000
    2.4610   -5.3070   29.1240 C   0  0  0  0  0  0  0  0  0  0  0  0
    4.7710   -4.6952   28.4803 C   0  0  0  0  0  0  0  0  0  0  0  0
    3.4047   -5.1087   28.1314 C   0  0  0  0  0  0  0  0  0  0  0  0
   -0.2234  -11.8615   16.8874 C   0  0  0  0  0  0  0  0  0  0  0  0
    6.4491   -4.1532   30.1213 C   0  0  0  0  0  0  0  0  0  0  0  0
    5.7060   -4.4340   27.4975 C   0  0  0  0  0  0  0  0  0  0  0  0
    1.1818   -5.6612   28.8399 C   0  0  0  0  0  0  0  0  0  0  0  0
   -1.2067   -7.3287   17.7772 C   0  0  0  0  0  0  0  0  0  0  0  0
   -0.0206  -10.5585   16.6210 C   0  0  0  0  0  0  0  0  0  0  0  0
    0.3696  -12.7626   16.2169 O   0  0  0  0  0  0  0  0  0  0  0  0
   -0.6895   -9.5676   17.3297 C   0  0  0  0  0  0  0  0  0  0  0  0
    0.8388   -5.8417   27.5264 C   0  0  0  0  0  0  0  0  0  0  0  0
   -2.0709   -7.6637   18.7817 C   0  0  0  0  0  0  0  0  0  0  0  0
   -0.5279   -8.2168   17.0717 C   0  0  0  0  0  0  0  0  0  0  0  0
    6.9694   -4.0191   27.8190 C   0  0  0  0  0  0  0  0  0  0  0  0
    5.1733   -4.5469   29.8123 C   0  0  0  0  0  0  0  0  0  0  0  0
   -1.7508  -11.3016   18.6072 C   0  0  0  0  0  0  0  0  0  0  0  0
    1.7497   -5.6771   26.4971 C   0  0  0  0  0  0  0  0  0  0  0  0
   -1.5799   -9.9322   18.3468 C   0  0  0  0  0  0  0  0  0  0  0  0
   -1.0871  -12.2214   17.8851 C   0  0  0  0  0  0  0  0  0  0  0  0
   -2.2706   -8.9669   19.0691 C   0  0  0  0  0  0  0  0  0  0  0  0
    3.0279   -5.3073   26.8197 C   0  0  0  0  0  0  0  0  0  0  0  0
    7.3282   -3.8948   29.1186 C   0  0  0  0  0  0  0  0  0  0  0  0
  1  3  4  0
  1  7  4  0
  2  3  1  0
  2  6  4  0
  2 16  4  0
  3 22  4  0
  4  9  4  0
  4 10  1  0
  4 20  4  0
  5 16  4  0
  5 23  4  0
  6 15  4  0
  7 12  4  0
  8 13  4  0
  8 14  4  0
  9 11  4  0
 11 14  4  0
 11 19  4  0
 12 18  4  0
 13 21  4  0
 15 23  4  0
 17 19  4  0
 17 20  4  0
 18 22  4  0
 19 21  4  0
M  END
$$$$

 Created by Python create_sdf_string function

 23 25  0  0  0  0  0  0  0  0999 V2000
    2.4610   -5.3070   29.1240 C   0  0  0  0  0  0  0  0  0  0  0  0
    4.7710   -4.6952   28.4803 C   0  0  0  0  0  0  0  0  0  0  0  0
    3.4047   -5.1087   28.1314 C   0  0  0  0  0  0  0  0  0  0  0  0
   -0.2234  -11.8615   16.8874 C   0  0  0  0  0  0  0  0  0  0  0  0
    6.4491   -4.1532   30.1213 C   0  0  0  0  0  0  0  0  0  0  0  0
    5.7060   -4.4340   27.4975 C   0  0  0  0  0  0  0  0  0  0  0  0
    1.1818   -5.6612   28.8399 C   0  0  0  0  0  0  0  0  0  0  0  0
   -1.2067   -7.3287   17.7772 C   0  0  0  0  0  0  0  0  0  0  0  0
   -0.0206  -10.5585   16.6210 C   0  0  0  0  0  0  0  0  0  0  0  0
    0.3696  -12.7626   16.2169 O   0  0  0  0  0  0  0  0  0  0  0  0
   -0.6895   -9.5676   17.3297 C   0  0  0  0  0  0  0  0  0  0  0  0
    0.8388   -5.8417   27.5264 C   0  0  0  0  0  0  0  0  0  0  0  0
   -2.0709   -7.6637   18.7817 C   0  0  0  0  0  0  0  0  0  0  0  0
   -0.5279   -8.2168   17.0717 C   0  0  0  0  0  0  0  0  0  0  0  0
    6.9694   -4.0191   27.8190 C   0  0  0  0  0  0  0  0  0  0  0  0
    5.1733   -4.5469   29.8123 C   0  0  0  0  0  0  0  0  0  0  0  0
   -1.7508  -11.3016   18.6072 C   0  0  0  0  0  0  0  0  0  0  0  0
    1.7497   -5.6771   26.4971 C   0  0  0  0  0  0  0  0  0  0  0  0
   -1.5799   -9.9322   18.3468 C   0  0  0  0  0  0  0  0  0  0  0  0
   -1.0871  -12.2214   17.8851 C   0  0  0  0  0  0  0  0  0  0  0  0
   -2.2706   -8.9669   19.0691 C   0  0  0  0  0  0  0  0  0  0  0  0
    3.0279   -5.3073   26.8197 C   0  0  0  0  0  0  0  0  0  0  0  0
    7.3282   -3.8948   29.1186 C   0  0  0  0  0  0  0  0  0  0  0  0
  1  3  4  0
  1  7  4  0
  2  3  1  0
  2  6  4  0
  2 16  4  0
  3 22  4  0
  4  9  4  0
  4 10  1  0
  4 20  4  0
  5 16  4  0
  5 23  4  0
  6 15  4  0
  7 12  4  0
  8 13  4  0
  8 14  4  0
  9 11  4  0
 11 14  4  0
 11 19  4  0
 12 18  4  0
 13 21  4  0
 15 23  4  0
 17 19  4  0
 17 20  4  0
 18 22  4  0
 19 21  4  0
M  END
$$$$

 Created by Python create_sdf_string function

 23 25  0  0  0  0  0  0  0  0999 V2000
    2.4610   -5.3070   29.1240 C   0  0  0  0  0  0  0  0  0  0  0  0
    4.7710   -4.6952   28.4803 C   0  0  0  0  0  0  0  0  0  0  0  0
    3.4047   -5.1087   28.1314 C   0  0  0  0  0  0  0  0  0  0  0  0
   -0.2234  -11.8615   16.8874 C   0  0  0  0  0  0  0  0  0  0  0  0
    6.4491   -4.1532   30.1213 C   0  0  0  0  0  0  0  0  0  0  0  0
    5.7060   -4.4340   27.4975 C   0  0  0  0  0  0  0  0  0  0  0  0
    1.1818   -5.6612   28.8399 C   0  0  0  0  0  0  0  0  0  0  0  0
   -1.2067   -7.3287   17.7772 C   0  0  0  0  0  0  0  0  0  0  0  0
   -0.0206  -10.5585   16.6210 C   0  0  0  0  0  0  0  0  0  0  0  0
    0.3696  -12.7626   16.2169 O   0  0  0  0  0  0  0  0  0  0  0  0
   -0.6895   -9.5676   17.3297 C   0  0  0  0  0  0  0  0  0  0  0  0
    0.8388   -5.8417   27.5264 C   0  0  0  0  0  0  0  0  0  0  0  0
   -2.0709   -7.6637   18.7817 C   0  0  0  0  0  0  0  0  0  0  0  0
   -0.5279   -8.2168   17.0717 C   0  0  0  0  0  0  0  0  0  0  0  0
    6.9694   -4.0191   27.8190 C   0  0  0  0  0  0  0  0  0  0  0  0
    5.1733   -4.5469   29.8123 C   0  0  0  0  0  0  0  0  0  0  0  0
   -1.7508  -11.3016   18.6072 C   0  0  0  0  0  0  0  0  0  0  0  0
    1.7497   -5.6771   26.4971 C   0  0  0  0  0  0  0  0  0  0  0  0
   -1.5799   -9.9322   18.3468 C   0  0  0  0  0  0  0  0  0  0  0  0
   -1.0871  -12.2214   17.8851 C   0  0  0  0  0  0  0  0  0  0  0  0
   -2.2706   -8.9669   19.0691 C   0  0  0  0  0  0  0  0  0  0  0  0
    3.0279   -5.3073   26.8197 C   0  0  0  0  0  0  0  0  0  0  0  0
    7.3282   -3.8948   29.1186 C   0  0  0  0  0  0  0  0  0  0  0  0
  1  3  4  0
  1  7  4  0
  2  3  1  0
  2  6  4  0
  2 16  4  0
  3 22  4  0
  4  9  4  0
  4 10  1  0
  4 20  4  0
  5 16  4  0
  5 23  4  0
  6 15  4  0
  7 12  4  0
  8 13  4  0
  8 14  4  0
  9 11  4  0
 11 14  4  0
 11 19  4  0
 12 18  4  0
 13 21  4  0
 15 23  4  0
 17 19  4  0
 17 20  4  0
 18 22  4  0
 19 21  4  0
M  END
$$$$

 Created by Python create_sdf_string function

 23 25  0  0  0  0  0  0  0  0999 V2000
    2.4610   -5.3070   29.1240 C   0  0  0  0  0  0  0  0  0  0  0  0
    4.7710   -4.6952   28.4803 C   0  0  0  0  0  0  0  0  0  0  0  0
    3.4047   -5.1087   28.1314 C   0  0  0  0  0  0  0  0  0  0  0  0
   -0.2234  -11.8615   16.8874 C   0  0  0  0  0  0  0  0  0  0  0  0
    6.4491   -4.1532   30.1213 C   0  0  0  0  0  0  0  0  0  0  0  0
    5.7060   -4.4340   27.4975 C   0  0  0  0  0  0  0  0  0  0  0  0
    1.1818   -5.6612   28.8399 C   0  0  0  0  0  0  0  0  0  0  0  0
   -1.2067   -7.3287   17.7772 C   0  0  0  0  0  0  0  0  0  0  0  0
   -0.0206  -10.5585   16.6210 C   0  0  0  0  0  0  0  0  0  0  0  0
    0.3696  -12.7626   16.2169 O   0  0  0  0  0  0  0  0  0  0  0  0
   -0.6895   -9.5676   17.3297 C   0  0  0  0  0  0  0  0  0  0  0  0
    0.8388   -5.8417   27.5264 C   0  0  0  0  0  0  0  0  0  0  0  0
   -2.0709   -7.6637   18.7817 C   0  0  0  0  0  0  0  0  0  0  0  0
   -0.5279   -8.2168   17.0717 C   0  0  0  0  0  0  0  0  0  0  0  0
    6.9694   -4.0191   27.8190 C   0  0  0  0  0  0  0  0  0  0  0  0
    5.1733   -4.5469   29.8123 C   0  0  0  0  0  0  0  0  0  0  0  0
   -1.7508  -11.3016   18.6072 C   0  0  0  0  0  0  0  0  0  0  0  0
    1.7497   -5.6771   26.4971 C   0  0  0  0  0  0  0  0  0  0  0  0
   -1.5799   -9.9322   18.3468 C   0  0  0  0  0  0  0  0  0  0  0  0
   -1.0871  -12.2214   17.8851 C   0  0  0  0  0  0  0  0  0  0  0  0
   -2.2706   -8.9669   19.0691 C   0  0  0  0  0  0  0  0  0  0  0  0
    3.0279   -5.3073   26.8197 C   0  0  0  0  0  0  0  0  0  0  0  0
    7.3282   -3.8948   29.1186 C   0  0  0  0  0  0  0  0  0  0  0  0
  1  3  4  0
  1  7  4  0
  2  3  1  0
  2  6  4  0
  2 16  4  0
  3 22  4  0
  4  9  4  0
  4 10  1  0
  4 20  4  0
  5 16  4  0
  5 23  4  0
  6 15  4  0
  7 12  4  0
  8 13  4  0
  8 14  4  0
  9 11  4  0
 11 14  4  0
 11 19  4  0
 12 18  4  0
 13 21  4  0
 15 23  4  0
 17 19  4  0
 17 20  4  0
 18 22  4  0
 19 21  4  0
M  END
$$$$

 Created by Python create_sdf_string function

 23 25  0  0  0  0  0  0  0  0999 V2000
    2.4610   -5.3070   29.1240 C   0  0  0  0  0  0  0  0  0  0  0  0
    4.7710   -4.6952   28.4803 C   0  0  0  0  0  0  0  0  0  0  0  0
    3.4047   -5.1087   28.1314 C   0  0  0  0  0  0  0  0  0  0  0  0
   -0.2234  -11.8615   16.8874 C   0  0  0  0  0  0  0  0  0  0  0  0
    6.4491   -4.1532   30.1213 C   0  0  0  0  0  0  0  0  0  0  0  0
    5.7060   -4.4340   27.4975 C   0  0  0  0  0  0  0  0  0  0  0  0
    1.1818   -5.6612   28.8399 C   0  0  0  0  0  0  0  0  0  0  0  0
   -1.2067   -7.3287   17.7772 C   0  0  0  0  0  0  0  0  0  0  0  0
   -0.0206  -10.5585   16.6210 C   0  0  0  0  0  0  0  0  0  0  0  0
    0.3696  -12.7626   16.2169 O   0  0  0  0  0  0  0  0  0  0  0  0
   -0.6895   -9.5676   17.3297 C   0  0  0  0  0  0  0  0  0  0  0  0
    0.8388   -5.8417   27.5264 C   0  0  0  0  0  0  0  0  0  0  0  0
   -2.0709   -7.6637   18.7817 C   0  0  0  0  0  0  0  0  0  0  0  0
   -0.5279   -8.2168   17.0717 C   0  0  0  0  0  0  0  0  0  0  0  0
    6.9694   -4.0191   27.8190 C   0  0  0  0  0  0  0  0  0  0  0  0
    5.1733   -4.5469   29.8123 C   0  0  0  0  0  0  0  0  0  0  0  0
   -1.7508  -11.3016   18.6072 C   0  0  0  0  0  0  0  0  0  0  0  0
    1.7497   -5.6771   26.4971 C   0  0  0  0  0  0  0  0  0  0  0  0
   -1.5799   -9.9322   18.3468 C   0  0  0  0  0  0  0  0  0  0  0  0
   -1.0871  -12.2214   17.8851 C   0  0  0  0  0  0  0  0  0  0  0  0
   -2.2706   -8.9669   19.0691 C   0  0  0  0  0  0  0  0  0  0  0  0
    3.0279   -5.3073   26.8197 C   0  0  0  0  0  0  0  0  0  0  0  0
    7.3282   -3.8948   29.1186 C   0  0  0  0  0  0  0  0  0  0  0  0
  1  3  4  0
  1  7  4  0
  2  3  1  0
  2  6  4  0
  2 16  4  0
  3 22  4  0
  4  9  4  0
  4 10  1  0
  4 20  4  0
  5 16  4  0
  5 23  4  0
  6 15  4  0
  7 12  4  0
  8 13  4  0
  8 14  4  0
  9 11  4  0
 11 14  4  0
 11 19  4  0
 12 18  4  0
 13 21  4  0
 15 23  4  0
 17 19  4  0
 17 20  4  0
 18 22  4  0
 19 21  4  0
M  END
$$$$

 Created by Python create_sdf_string function

 23 25  0  0  0  0  0  0  0  0999 V2000
    2.4610   -5.3070   29.1240 C   0  0  0  0  0  0  0  0  0  0  0  0
    4.7710   -4.6952   28.4803 C   0  0  0  0  0  0  0  0  0  0  0  0
    3.4047   -5.1087   28.1314 C   0  0  0  0  0  0  0  0  0  0  0  0
   -0.2234  -11.8615   16.8874 C   0  0  0  0  0  0  0  0  0  0  0  0
    6.4491   -4.1532   30.1213 C   0  0  0  0  0  0  0  0  0  0  0  0
    5.7060   -4.4340   27.4975 C   0  0  0  0  0  0  0  0  0  0  0  0
    1.1818   -5.6612   28.8399 C   0  0  0  0  0  0  0  0  0  0  0  0
   -1.2067   -7.3287   17.7772 C   0  0  0  0  0  0  0  0  0  0  0  0
   -0.0206  -10.5585   16.6210 C   0  0  0  0  0  0  0  0  0  0  0  0
    0.3696  -12.7626   16.2169 O   0  0  0  0  0  0  0  0  0  0  0  0
   -0.6895   -9.5676   17.3297 C   0  0  0  0  0  0  0  0  0  0  0  0
    0.8388   -5.8417   27.5264 C   0  0  0  0  0  0  0  0  0  0  0  0
   -2.0709   -7.6637   18.7817 C   0  0  0  0  0  0  0  0  0  0  0  0
   -0.5279   -8.2168   17.0717 C   0  0  0  0  0  0  0  0  0  0  0  0
    6.9694   -4.0191   27.8190 C   0  0  0  0  0  0  0  0  0  0  0  0
    5.1733   -4.5469   29.8123 C   0  0  0  0  0  0  0  0  0  0  0  0
   -1.7508  -11.3016   18.6072 C   0  0  0  0  0  0  0  0  0  0  0  0
    1.7497   -5.6771   26.4971 C   0  0  0  0  0  0  0  0  0  0  0  0
   -1.5799   -9.9322   18.3468 C   0  0  0  0  0  0  0  0  0  0  0  0
   -1.0871  -12.2214   17.8851 C   0  0  0  0  0  0  0  0  0  0  0  0
   -2.2706   -8.9669   19.0691 C   0  0  0  0  0  0  0  0  0  0  0  0
    3.0279   -5.3073   26.8197 C   0  0  0  0  0  0  0  0  0  0  0  0
    7.3282   -3.8948   29.1186 C   0  0  0  0  0  0  0  0  0  0  0  0
  1  3  4  0
  1  7  4  0
  2  3  1  0
  2  6  4  0
  2 16  4  0
  3 22  4  0
  4  9  4  0
  4 10  1  0
  4 20  4  0
  5 16  4  0
  5 23  4  0
  6 15  4  0
  7 12  4  0
  8 13  4  0
  8 14  4  0
  9 11  4  0
 11 14  4  0
 11 19  4  0
 12 18  4  0
 13 21  4  0
 15 23  4  0
 17 19  4  0
 17 20  4  0
 18 22  4  0
 19 21  4  0
M  END
$$$$

 Created by Python create_sdf_string function

 23 25  0  0  0  0  0  0  0  0999 V2000
    2.4610   -5.3070   29.1240 C   0  0  0  0  0  0  0  0  0  0  0  0
    4.7710   -4.6952   28.4803 C   0  0  0  0  0  0  0  0  0  0  0  0
    3.4047   -5.1087   28.1314 C   0  0  0  0  0  0  0  0  0  0  0  0
   -0.2234  -11.8615   16.8874 C   0  0  0  0  0  0  0  0  0  0  0  0
    6.4491   -4.1532   30.1213 C   0  0  0  0  0  0  0  0  0  0  0  0
    5.7060   -4.4340   27.4975 C   0  0  0  0  0  0  0  0  0  0  0  0
    1.1818   -5.6612   28.8399 C   0  0  0  0  0  0  0  0  0  0  0  0
   -1.2067   -7.3287   17.7772 C   0  0  0  0  0  0  0  0  0  0  0  0
   -0.0206  -10.5585   16.6210 C   0  0  0  0  0  0  0  0  0  0  0  0
    0.3696  -12.7626   16.2169 O   0  0  0  0  0  0  0  0  0  0  0  0
   -0.6895   -9.5676   17.3297 C   0  0  0  0  0  0  0  0  0  0  0  0
    0.8388   -5.8417   27.5264 C   0  0  0  0  0  0  0  0  0  0  0  0
   -2.0709   -7.6637   18.7817 C   0  0  0  0  0  0  0  0  0  0  0  0
   -0.5279   -8.2168   17.0717 C   0  0  0  0  0  0  0  0  0  0  0  0
    6.9694   -4.0191   27.8190 C   0  0  0  0  0  0  0  0  0  0  0  0
    5.1733   -4.5469   29.8123 C   0  0  0  0  0  0  0  0  0  0  0  0
   -1.7508  -11.3016   18.6072 C   0  0  0  0  0  0  0  0  0  0  0  0
    1.7497   -5.6771   26.4971 C   0  0  0  0  0  0  0  0  0  0  0  0
   -1.5799   -9.9322   18.3468 C   0  0  0  0  0  0  0  0  0  0  0  0
   -1.0871  -12.2214   17.8851 C   0  0  0  0  0  0  0  0  0  0  0  0
   -2.2706   -8.9669   19.0691 C   0  0  0  0  0  0  0  0  0  0  0  0
    3.0279   -5.3073   26.8197 C   0  0  0  0  0  0  0  0  0  0  0  0
    7.3282   -3.8948   29.1186 C   0  0  0  0  0  0  0  0  0  0  0  0
  1  3  4  0
  1  7  4  0
  2  3  1  0
  2  6  4  0
  2 16  4  0
  3 22  4  0
  4  9  4  0
  4 10  1  0
  4 20  4  0
  5 16  4  0
  5 23  4  0
  6 15  4  0
  7 12  4  0
  8 13  4  0
  8 14  4  0
  9 11  4  0
 11 14  4  0
 11 19  4  0
 12 18  4  0
 13 21  4  0
 15 23  4  0
 17 19  4  0
 17 20  4  0
 18 22  4  0
 19 21  4  0
M  END
$$$$

 Created by Python create_sdf_string function

 23 25  0  0  0  0  0  0  0  0999 V2000
    2.4610   -5.3070   29.1240 C   0  0  0  0  0  0  0  0  0  0  0  0
    4.7710   -4.6952   28.4803 C   0  0  0  0  0  0  0  0  0  0  0  0
    3.4047   -5.1087   28.1314 C   0  0  0  0  0  0  0  0  0  0  0  0
   -0.2234  -11.8615   16.8874 C   0  0  0  0  0  0  0  0  0  0  0  0
    6.4491   -4.1532   30.1213 C   0  0  0  0  0  0  0  0  0  0  0  0
    5.7060   -4.4340   27.4975 C   0  0  0  0  0  0  0  0  0  0  0  0
    1.1818   -5.6612   28.8399 C   0  0  0  0  0  0  0  0  0  0  0  0
   -1.2067   -7.3287   17.7772 C   0  0  0  0  0  0  0  0  0  0  0  0
   -0.0206  -10.5585   16.6210 C   0  0  0  0  0  0  0  0  0  0  0  0
    0.3696  -12.7626   16.2169 O   0  0  0  0  0  0  0  0  0  0  0  0
   -0.6895   -9.5676   17.3297 C   0  0  0  0  0  0  0  0  0  0  0  0
    0.8388   -5.8417   27.5264 C   0  0  0  0  0  0  0  0  0  0  0  0
   -2.0709   -7.6637   18.7817 C   0  0  0  0  0  0  0  0  0  0  0  0
   -0.5279   -8.2168   17.0717 C   0  0  0  0  0  0  0  0  0  0  0  0
    6.9694   -4.0191   27.8190 C   0  0  0  0  0  0  0  0  0  0  0  0
    5.1733   -4.5469   29.8123 C   0  0  0  0  0  0  0  0  0  0  0  0
   -1.7508  -11.3016   18.6072 C   0  0  0  0  0  0  0  0  0  0  0  0
    1.7497   -5.6771   26.4971 C   0  0  0  0  0  0  0  0  0  0  0  0
   -1.5799   -9.9322   18.3468 C   0  0  0  0  0  0  0  0  0  0  0  0
   -1.0871  -12.2214   17.8851 C   0  0  0  0  0  0  0  0  0  0  0  0
   -2.2706   -8.9669   19.0691 C   0  0  0  0  0  0  0  0  0  0  0  0
    3.0279   -5.3073   26.8197 C   0  0  0  0  0  0  0  0  0  0  0  0
    7.3282   -3.8948   29.1186 C   0  0  0  0  0  0  0  0  0  0  0  0
  1  3  4  0
  1  7  4  0
  2  3  1  0
  2  6  4  0
  2 16  4  0
  3 22  4  0
  4  9  4  0
  4 10  1  0
  4 20  4  0
  5 16  4  0
  5 23  4  0
  6 15  4  0
  7 12  4  0
  8 13  4  0
  8 14  4  0
  9 11  4  0
 11 14  4  0
 11 19  4  0
 12 18  4  0
 13 21  4  0
 15 23  4  0
 17 19  4  0
 17 20  4  0
 18 22  4  0
 19 21  4  0
M  END
$$$$

 Created by Python create_sdf_string function

 23 25  0  0  0  0  0  0  0  0999 V2000
    2.4610   -5.3070   29.1240 C   0  0  0  0  0  0  0  0  0  0  0  0
    4.7710   -4.6952   28.4803 C   0  0  0  0  0  0  0  0  0  0  0  0
    3.4047   -5.1087   28.1314 C   0  0  0  0  0  0  0  0  0  0  0  0
   -0.2234  -11.8615   16.8874 C   0  0  0  0  0  0  0  0  0  0  0  0
    6.4491   -4.1532   30.1213 C   0  0  0  0  0  0  0  0  0  0  0  0
    5.7060   -4.4340   27.4975 C   0  0  0  0  0  0  0  0  0  0  0  0
    1.1818   -5.6612   28.8399 C   0  0  0  0  0  0  0  0  0  0  0  0
   -1.2067   -7.3287   17.7772 C   0  0  0  0  0  0  0  0  0  0  0  0
   -0.0206  -10.5585   16.6210 C   0  0  0  0  0  0  0  0  0  0  0  0
    0.3696  -12.7626   16.2169 O   0  0  0  0  0  0  0  0  0  0  0  0
   -0.6895   -9.5676   17.3297 C   0  0  0  0  0  0  0  0  0  0  0  0
    0.8388   -5.8417   27.5264 C   0  0  0  0  0  0  0  0  0  0  0  0
   -2.0709   -7.6637   18.7817 C   0  0  0  0  0  0  0  0  0  0  0  0
   -0.5279   -8.2168   17.0717 C   0  0  0  0  0  0  0  0  0  0  0  0
    6.9694   -4.0191   27.8190 C   0  0  0  0  0  0  0  0  0  0  0  0
    5.1733   -4.5469   29.8123 C   0  0  0  0  0  0  0  0  0  0  0  0
   -1.7508  -11.3016   18.6072 C   0  0  0  0  0  0  0  0  0  0  0  0
    1.7497   -5.6771   26.4971 C   0  0  0  0  0  0  0  0  0  0  0  0
   -1.5799   -9.9322   18.3468 C   0  0  0  0  0  0  0  0  0  0  0  0
   -1.0871  -12.2214   17.8851 C   0  0  0  0  0  0  0  0  0  0  0  0
   -2.2706   -8.9669   19.0691 C   0  0  0  0  0  0  0  0  0  0  0  0
    3.0279   -5.3073   26.8197 C   0  0  0  0  0  0  0  0  0  0  0  0
    7.3282   -3.8948   29.1186 C   0  0  0  0  0  0  0  0  0  0  0  0
  1  3  4  0
  1  7  4  0
  2  3  1  0
  2  6  4  0
  2 16  4  0
  3 22  4  0
  4  9  4  0
  4 10  1  0
  4 20  4  0
  5 16  4  0
  5 23  4  0
  6 15  4  0
  7 12  4  0
  8 13  4  0
  8 14  4  0
  9 11  4  0
 11 14  4  0
 11 19  4  0
 12 18  4  0
 13 21  4  0
 15 23  4  0
 17 19  4  0
 17 20  4  0
 18 22  4  0
 19 21  4  0
M  END
$$$$

 Created by Python create_sdf_string function

 23 25  0  0  0  0  0  0  0  0999 V2000
    2.4610   -5.3070   29.1240 C   0  0  0  0  0  0  0  0  0  0  0  0
    4.7710   -4.6952   28.4803 C   0  0  0  0  0  0  0  0  0  0  0  0
    3.4047   -5.1087   28.1314 C   0  0  0  0  0  0  0  0  0  0  0  0
   -0.2234  -11.8615   16.8874 C   0  0  0  0  0  0  0  0  0  0  0  0
    6.4491   -4.1532   30.1213 C   0  0  0  0  0  0  0  0  0  0  0  0
    5.7060   -4.4340   27.4975 C   0  0  0  0  0  0  0  0  0  0  0  0
    1.1818   -5.6612   28.8399 C   0  0  0  0  0  0  0  0  0  0  0  0
   -1.2067   -7.3287   17.7772 C   0  0  0  0  0  0  0  0  0  0  0  0
   -0.0206  -10.5585   16.6210 C   0  0  0  0  0  0  0  0  0  0  0  0
    0.3696  -12.7626   16.2169 O   0  0  0  0  0  0  0  0  0  0  0  0
   -0.6895   -9.5676   17.3297 C   0  0  0  0  0  0  0  0  0  0  0  0
    0.8388   -5.8417   27.5264 C   0  0  0  0  0  0  0  0  0  0  0  0
   -2.0709   -7.6637   18.7817 C   0  0  0  0  0  0  0  0  0  0  0  0
   -0.5279   -8.2168   17.0717 C   0  0  0  0  0  0  0  0  0  0  0  0
    6.9694   -4.0191   27.8190 C   0  0  0  0  0  0  0  0  0  0  0  0
    5.1733   -4.5469   29.8123 C   0  0  0  0  0  0  0  0  0  0  0  0
   -1.7508  -11.3016   18.6072 C   0  0  0  0  0  0  0  0  0  0  0  0
    1.7497   -5.6771   26.4971 C   0  0  0  0  0  0  0  0  0  0  0  0
   -1.5799   -9.9322   18.3468 C   0  0  0  0  0  0  0  0  0  0  0  0
   -1.0871  -12.2214   17.8851 C   0  0  0  0  0  0  0  0  0  0  0  0
   -2.2706   -8.9669   19.0691 C   0  0  0  0  0  0  0  0  0  0  0  0
    3.0279   -5.3073   26.8197 C   0  0  0  0  0  0  0  0  0  0  0  0
    7.3282   -3.8948   29.1186 C   0  0  0  0  0  0  0  0  0  0  0  0
  1  3  4  0
  1  7  4  0
  2  3  1  0
  2  6  4  0
  2 16  4  0
  3 22  4  0
  4  9  4  0
  4 10  1  0
  4 20  4  0
  5 16  4  0
  5 23  4  0
  6 15  4  0
  7 12  4  0
  8 13  4  0
  8 14  4  0
  9 11  4  0
 11 14  4  0
 11 19  4  0
 12 18  4  0
 13 21  4  0
 15 23  4  0
 17 19  4  0
 17 20  4  0
 18 22  4  0
 19 21  4  0
M  END
$$$$

 Created by Python create_sdf_string function

 23 25  0  0  0  0  0  0  0  0999 V2000
    2.4610   -5.3070   29.1240 C   0  0  0  0  0  0  0  0  0  0  0  0
    4.7710   -4.6952   28.4803 C   0  0  0  0  0  0  0  0  0  0  0  0
    3.4047   -5.1087   28.1314 C   0  0  0  0  0  0  0  0  0  0  0  0
   -0.2234  -11.8615   16.8874 C   0  0  0  0  0  0  0  0  0  0  0  0
    6.4491   -4.1532   30.1213 C   0  0  0  0  0  0  0  0  0  0  0  0
    5.7060   -4.4340   27.4975 C   0  0  0  0  0  0  0  0  0  0  0  0
    1.1818   -5.6612   28.8399 C   0  0  0  0  0  0  0  0  0  0  0  0
   -1.2067   -7.3287   17.7772 C   0  0  0  0  0  0  0  0  0  0  0  0
   -0.0206  -10.5585   16.6210 C   0  0  0  0  0  0  0  0  0  0  0  0
    0.3696  -12.7626   16.2169 O   0  0  0  0  0  0  0  0  0  0  0  0
   -0.6895   -9.5676   17.3297 C   0  0  0  0  0  0  0  0  0  0  0  0
    0.8388   -5.8417   27.5264 C   0  0  0  0  0  0  0  0  0  0  0  0
   -2.0709   -7.6637   18.7817 C   0  0  0  0  0  0  0  0  0  0  0  0
   -0.5279   -8.2168   17.0717 C   0  0  0  0  0  0  0  0  0  0  0  0
    6.9694   -4.0191   27.8190 C   0  0  0  0  0  0  0  0  0  0  0  0
    5.1733   -4.5469   29.8123 C   0  0  0  0  0  0  0  0  0  0  0  0
   -1.7508  -11.3016   18.6072 C   0  0  0  0  0  0  0  0  0  0  0  0
    1.7497   -5.6771   26.4971 C   0  0  0  0  0  0  0  0  0  0  0  0
   -1.5799   -9.9322   18.3468 C   0  0  0  0  0  0  0  0  0  0  0  0
   -1.0871  -12.2214   17.8851 C   0  0  0  0  0  0  0  0  0  0  0  0
   -2.2706   -8.9669   19.0691 C   0  0  0  0  0  0  0  0  0  0  0  0
    3.0279   -5.3073   26.8197 C   0  0  0  0  0  0  0  0  0  0  0  0
    7.3282   -3.8948   29.1186 C   0  0  0  0  0  0  0  0  0  0  0  0
  1  3  4  0
  1  7  4  0
  2  3  1  0
  2  6  4  0
  2 16  4  0
  3 22  4  0
  4  9  4  0
  4 10  1  0
  4 20  4  0
  5 16  4  0
  5 23  4  0
  6 15  4  0
  7 12  4  0
  8 13  4  0
  8 14  4  0
  9 11  4  0
 11 14  4  0
 11 19  4  0
 12 18  4  0
 13 21  4  0
 15 23  4  0
 17 19  4  0
 17 20  4  0
 18 22  4  0
 19 21  4  0
M  END
$$$$

 Created by Python create_sdf_string function

 23 25  0  0  0  0  0  0  0  0999 V2000
    2.4610   -5.3070   29.1240 C   0  0  0  0  0  0  0  0  0  0  0  0
    4.7710   -4.6952   28.4803 C   0  0  0  0  0  0  0  0  0  0  0  0
    3.4047   -5.1087   28.1314 C   0  0  0  0  0  0  0  0  0  0  0  0
   -0.2234  -11.8615   16.8874 C   0  0  0  0  0  0  0  0  0  0  0  0
    6.4491   -4.1532   30.1213 C   0  0  0  0  0  0  0  0  0  0  0  0
    5.7060   -4.4340   27.4975 C   0  0  0  0  0  0  0  0  0  0  0  0
    1.1818   -5.6612   28.8399 C   0  0  0  0  0  0  0  0  0  0  0  0
   -1.2067   -7.3287   17.7772 C   0  0  0  0  0  0  0  0  0  0  0  0
   -0.0206  -10.5585   16.6210 C   0  0  0  0  0  0  0  0  0  0  0  0
    0.3696  -12.7626   16.2169 O   0  0  0  0  0  0  0  0  0  0  0  0
   -0.6895   -9.5676   17.3297 C   0  0  0  0  0  0  0  0  0  0  0  0
    0.8388   -5.8417   27.5264 C   0  0  0  0  0  0  0  0  0  0  0  0
   -2.0709   -7.6637   18.7817 C   0  0  0  0  0  0  0  0  0  0  0  0
   -0.5279   -8.2168   17.0717 C   0  0  0  0  0  0  0  0  0  0  0  0
    6.9694   -4.0191   27.8190 C   0  0  0  0  0  0  0  0  0  0  0  0
    5.1733   -4.5469   29.8123 C   0  0  0  0  0  0  0  0  0  0  0  0
   -1.7508  -11.3016   18.6072 C   0  0  0  0  0  0  0  0  0  0  0  0
    1.7497   -5.6771   26.4971 C   0  0  0  0  0  0  0  0  0  0  0  0
   -1.5799   -9.9322   18.3468 C   0  0  0  0  0  0  0  0  0  0  0  0
   -1.0871  -12.2214   17.8851 C   0  0  0  0  0  0  0  0  0  0  0  0
   -2.2706   -8.9669   19.0691 C   0  0  0  0  0  0  0  0  0  0  0  0
    3.0279   -5.3073   26.8197 C   0  0  0  0  0  0  0  0  0  0  0  0
    7.3282   -3.8948   29.1186 C   0  0  0  0  0  0  0  0  0  0  0  0
  1  3  4  0
  1  7  4  0
  2  3  1  0
  2  6  4  0
  2 16  4  0
  3 22  4  0
  4  9  4  0
  4 10  1  0
  4 20  4  0
  5 16  4  0
  5 23  4  0
  6 15  4  0
  7 12  4  0
  8 13  4  0
  8 14  4  0
  9 11  4  0
 11 14  4  0
 11 19  4  0
 12 18  4  0
 13 21  4  0
 15 23  4  0
 17 19  4  0
 17 20  4  0
 18 22  4  0
 19 21  4  0
M  END
$$$$

 Created by Python create_sdf_string function

 23 25  0  0  0  0  0  0  0  0999 V2000
    2.4610   -5.3070   29.1240 C   0  0  0  0  0  0  0  0  0  0  0  0
    4.7710   -4.6952   28.4803 C   0  0  0  0  0  0  0  0  0  0  0  0
    3.4047   -5.1087   28.1314 C   0  0  0  0  0  0  0  0  0  0  0  0
   -0.2234  -11.8615   16.8874 C   0  0  0  0  0  0  0  0  0  0  0  0
    6.4491   -4.1532   30.1213 C   0  0  0  0  0  0  0  0  0  0  0  0
    5.7060   -4.4340   27.4975 C   0  0  0  0  0  0  0  0  0  0  0  0
    1.1818   -5.6612   28.8399 C   0  0  0  0  0  0  0  0  0  0  0  0
   -1.2067   -7.3287   17.7772 C   0  0  0  0  0  0  0  0  0  0  0  0
   -0.0206  -10.5585   16.6210 C   0  0  0  0  0  0  0  0  0  0  0  0
    0.3696  -12.7626   16.2169 O   0  0  0  0  0  0  0  0  0  0  0  0
   -0.6895   -9.5676   17.3297 C   0  0  0  0  0  0  0  0  0  0  0  0
    0.8388   -5.8417   27.5264 C   0  0  0  0  0  0  0  0  0  0  0  0
   -2.0709   -7.6637   18.7817 C   0  0  0  0  0  0  0  0  0  0  0  0
   -0.5279   -8.2168   17.0717 C   0  0  0  0  0  0  0  0  0  0  0  0
    6.9694   -4.0191   27.8190 C   0  0  0  0  0  0  0  0  0  0  0  0
    5.1733   -4.5469   29.8123 C   0  0  0  0  0  0  0  0  0  0  0  0
   -1.7508  -11.3016   18.6072 C   0  0  0  0  0  0  0  0  0  0  0  0
    1.7497   -5.6771   26.4971 C   0  0  0  0  0  0  0  0  0  0  0  0
   -1.5799   -9.9322   18.3468 C   0  0  0  0  0  0  0  0  0  0  0  0
   -1.0871  -12.2214   17.8851 C   0  0  0  0  0  0  0  0  0  0  0  0
   -2.2706   -8.9669   19.0691 C   0  0  0  0  0  0  0  0  0  0  0  0
    3.0279   -5.3073   26.8197 C   0  0  0  0  0  0  0  0  0  0  0  0
    7.3282   -3.8948   29.1186 C   0  0  0  0  0  0  0  0  0  0  0  0
  1  3  4  0
  1  7  4  0
  2  3  1  0
  2  6  4  0
  2 16  4  0
  3 22  4  0
  4  9  4  0
  4 10  1  0
  4 20  4  0
  5 16  4  0
  5 23  4  0
  6 15  4  0
  7 12  4  0
  8 13  4  0
  8 14  4  0
  9 11  4  0
 11 14  4  0
 11 19  4  0
 12 18  4  0
 13 21  4  0
 15 23  4  0
 17 19  4  0
 17 20  4  0
 18 22  4  0
 19 21  4  0
M  END
$$$$

 Created by Python create_sdf_string function

 23 25  0  0  0  0  0  0  0  0999 V2000
    2.4610   -5.3070   29.1240 C   0  0  0  0  0  0  0  0  0  0  0  0
    4.7710   -4.6952   28.4803 C   0  0  0  0  0  0  0  0  0  0  0  0
    3.4047   -5.1087   28.1314 C   0  0  0  0  0  0  0  0  0  0  0  0
   -0.2234  -11.8615   16.8874 C   0  0  0  0  0  0  0  0  0  0  0  0
    6.4491   -4.1532   30.1213 C   0  0  0  0  0  0  0  0  0  0  0  0
    5.7060   -4.4340   27.4975 C   0  0  0  0  0  0  0  0  0  0  0  0
    1.1818   -5.6612   28.8399 C   0  0  0  0  0  0  0  0  0  0  0  0
   -1.2067   -7.3287   17.7772 C   0  0  0  0  0  0  0  0  0  0  0  0
   -0.0206  -10.5585   16.6210 C   0  0  0  0  0  0  0  0  0  0  0  0
    0.3696  -12.7626   16.2169 O   0  0  0  0  0  0  0  0  0  0  0  0
   -0.6895   -9.5676   17.3297 C   0  0  0  0  0  0  0  0  0  0  0  0
    0.8388   -5.8417   27.5264 C   0  0  0  0  0  0  0  0  0  0  0  0
   -2.0709   -7.6637   18.7817 C   0  0  0  0  0  0  0  0  0  0  0  0
   -0.5279   -8.2168   17.0717 C   0  0  0  0  0  0  0  0  0  0  0  0
    6.9694   -4.0191   27.8190 C   0  0  0  0  0  0  0  0  0  0  0  0
    5.1733   -4.5469   29.8123 C   0  0  0  0  0  0  0  0  0  0  0  0
   -1.7508  -11.3016   18.6072 C   0  0  0  0  0  0  0  0  0  0  0  0
    1.7497   -5.6771   26.4971 C   0  0  0  0  0  0  0  0  0  0  0  0
   -1.5799   -9.9322   18.3468 C   0  0  0  0  0  0  0  0  0  0  0  0
   -1.0871  -12.2214   17.8851 C   0  0  0  0  0  0  0  0  0  0  0  0
   -2.2706   -8.9669   19.0691 C   0  0  0  0  0  0  0  0  0  0  0  0
    3.0279   -5.3073   26.8197 C   0  0  0  0  0  0  0  0  0  0  0  0
    7.3282   -3.8948   29.1186 C   0  0  0  0  0  0  0  0  0  0  0  0
  1  3  4  0
  1  7  4  0
  2  3  1  0
  2  6  4  0
  2 16  4  0
  3 22  4  0
  4  9  4  0
  4 10  1  0
  4 20  4  0
  5 16  4  0
  5 23  4  0
  6 15  4  0
  7 12  4  0
  8 13  4  0
  8 14  4  0
  9 11  4  0
 11 14  4  0
 11 19  4  0
 12 18  4  0
 13 21  4  0
 15 23  4  0
 17 19  4  0
 17 20  4  0
 18 22  4  0
 19 21  4  0
M  END
$$$$

 Created by Python create_sdf_string function

 23 25  0  0  0  0  0  0  0  0999 V2000
    2.4610   -5.3070   29.1240 C   0  0  0  0  0  0  0  0  0  0  0  0
    4.7710   -4.6952   28.4803 C   0  0  0  0  0  0  0  0  0  0  0  0
    3.4047   -5.1087   28.1314 C   0  0  0  0  0  0  0  0  0  0  0  0
   -0.2234  -11.8615   16.8874 C   0  0  0  0  0  0  0  0  0  0  0  0
    6.4491   -4.1532   30.1213 C   0  0  0  0  0  0  0  0  0  0  0  0
    5.7060   -4.4340   27.4975 C   0  0  0  0  0  0  0  0  0  0  0  0
    1.1818   -5.6612   28.8399 C   0  0  0  0  0  0  0  0  0  0  0  0
   -1.2067   -7.3287   17.7772 C   0  0  0  0  0  0  0  0  0  0  0  0
   -0.0206  -10.5585   16.6210 C   0  0  0  0  0  0  0  0  0  0  0  0
    0.3696  -12.7626   16.2169 O   0  0  0  0  0  0  0  0  0  0  0  0
   -0.6895   -9.5676   17.3297 C   0  0  0  0  0  0  0  0  0  0  0  0
    0.8388   -5.8417   27.5264 C   0  0  0  0  0  0  0  0  0  0  0  0
   -2.0709   -7.6637   18.7817 C   0  0  0  0  0  0  0  0  0  0  0  0
   -0.5279   -8.2168   17.0717 C   0  0  0  0  0  0  0  0  0  0  0  0
    6.9694   -4.0191   27.8190 C   0  0  0  0  0  0  0  0  0  0  0  0
    5.1733   -4.5469   29.8123 C   0  0  0  0  0  0  0  0  0  0  0  0
   -1.7508  -11.3016   18.6072 C   0  0  0  0  0  0  0  0  0  0  0  0
    1.7497   -5.6771   26.4971 C   0  0  0  0  0  0  0  0  0  0  0  0
   -1.5799   -9.9322   18.3468 C   0  0  0  0  0  0  0  0  0  0  0  0
   -1.0871  -12.2214   17.8851 C   0  0  0  0  0  0  0  0  0  0  0  0
   -2.2706   -8.9669   19.0691 C   0  0  0  0  0  0  0  0  0  0  0  0
    3.0279   -5.3073   26.8197 C   0  0  0  0  0  0  0  0  0  0  0  0
    7.3282   -3.8948   29.1186 C   0  0  0  0  0  0  0  0  0  0  0  0
  1  3  4  0
  1  7  4  0
  2  3  1  0
  2  6  4  0
  2 16  4  0
  3 22  4  0
  4  9  4  0
  4 10  1  0
  4 20  4  0
  5 16  4  0
  5 23  4  0
  6 15  4  0
  7 12  4  0
  8 13  4  0
  8 14  4  0
  9 11  4  0
 11 14  4  0
 11 19  4  0
 12 18  4  0
 13 21  4  0
 15 23  4  0
 17 19  4  0
 17 20  4  0
 18 22  4  0
 19 21  4  0
M  END
$$$$

 Created by Python create_sdf_string function

 23 25  0  0  0  0  0  0  0  0999 V2000
    2.4610   -5.3070   29.1240 C   0  0  0  0  0  0  0  0  0  0  0  0
    4.7710   -4.6952   28.4803 C   0  0  0  0  0  0  0  0  0  0  0  0
    3.4047   -5.1087   28.1314 C   0  0  0  0  0  0  0  0  0  0  0  0
   -0.2234  -11.8615   16.8874 C   0  0  0  0  0  0  0  0  0  0  0  0
    6.4491   -4.1532   30.1213 C   0  0  0  0  0  0  0  0  0  0  0  0
    5.7060   -4.4340   27.4975 C   0  0  0  0  0  0  0  0  0  0  0  0
    1.1818   -5.6612   28.8399 C   0  0  0  0  0  0  0  0  0  0  0  0
   -1.2067   -7.3287   17.7772 C   0  0  0  0  0  0  0  0  0  0  0  0
   -0.0206  -10.5585   16.6210 C   0  0  0  0  0  0  0  0  0  0  0  0
    0.3696  -12.7626   16.2169 O   0  0  0  0  0  0  0  0  0  0  0  0
   -0.6895   -9.5676   17.3297 C   0  0  0  0  0  0  0  0  0  0  0  0
    0.8388   -5.8417   27.5264 C   0  0  0  0  0  0  0  0  0  0  0  0
   -2.0709   -7.6637   18.7817 C   0  0  0  0  0  0  0  0  0  0  0  0
   -0.5279   -8.2168   17.0717 C   0  0  0  0  0  0  0  0  0  0  0  0
    6.9694   -4.0191   27.8190 C   0  0  0  0  0  0  0  0  0  0  0  0
    5.1733   -4.5469   29.8123 C   0  0  0  0  0  0  0  0  0  0  0  0
   -1.7508  -11.3016   18.6072 C   0  0  0  0  0  0  0  0  0  0  0  0
    1.7497   -5.6771   26.4971 C   0  0  0  0  0  0  0  0  0  0  0  0
   -1.5799   -9.9322   18.3468 C   0  0  0  0  0  0  0  0  0  0  0  0
   -1.0871  -12.2214   17.8851 C   0  0  0  0  0  0  0  0  0  0  0  0
   -2.2706   -8.9669   19.0691 C   0  0  0  0  0  0  0  0  0  0  0  0
    3.0279   -5.3073   26.8197 C   0  0  0  0  0  0  0  0  0  0  0  0
    7.3282   -3.8948   29.1186 C   0  0  0  0  0  0  0  0  0  0  0  0
  1  3  4  0
  1  7  4  0
  2  3  1  0
  2  6  4  0
  2 16  4  0
  3 22  4  0
  4  9  4  0
  4 10  1  0
  4 20  4  0
  5 16  4  0
  5 23  4  0
  6 15  4  0
  7 12  4  0
  8 13  4  0
  8 14  4  0
  9 11  4  0
 11 14  4  0
 11 19  4  0
 12 18  4  0
 13 21  4  0
 15 23  4  0
 17 19  4  0
 17 20  4  0
 18 22  4  0
 19 21  4  0
M  END
$$$$

 Created by Python create_sdf_string function

 23 25  0  0  0  0  0  0  0  0999 V2000
    2.4610   -5.3070   29.1240 C   0  0  0  0  0  0  0  0  0  0  0  0
    4.7710   -4.6952   28.4803 C   0  0  0  0  0  0  0  0  0  0  0  0
    3.4047   -5.1087   28.1314 C   0  0  0  0  0  0  0  0  0  0  0  0
   -0.2234  -11.8615   16.8874 C   0  0  0  0  0  0  0  0  0  0  0  0
    6.4491   -4.1532   30.1213 C   0  0  0  0  0  0  0  0  0  0  0  0
    5.7060   -4.4340   27.4975 C   0  0  0  0  0  0  0  0  0  0  0  0
    1.1818   -5.6612   28.8399 C   0  0  0  0  0  0  0  0  0  0  0  0
   -1.2067   -7.3287   17.7772 C   0  0  0  0  0  0  0  0  0  0  0  0
   -0.0206  -10.5585   16.6210 C   0  0  0  0  0  0  0  0  0  0  0  0
    0.3696  -12.7626   16.2169 O   0  0  0  0  0  0  0  0  0  0  0  0
   -0.6895   -9.5676   17.3297 C   0  0  0  0  0  0  0  0  0  0  0  0
    0.8388   -5.8417   27.5264 C   0  0  0  0  0  0  0  0  0  0  0  0
   -2.0709   -7.6637   18.7817 C   0  0  0  0  0  0  0  0  0  0  0  0
   -0.5279   -8.2168   17.0717 C   0  0  0  0  0  0  0  0  0  0  0  0
    6.9694   -4.0191   27.8190 C   0  0  0  0  0  0  0  0  0  0  0  0
    5.1733   -4.5469   29.8123 C   0  0  0  0  0  0  0  0  0  0  0  0
   -1.7508  -11.3016   18.6072 C   0  0  0  0  0  0  0  0  0  0  0  0
    1.7497   -5.6771   26.4971 C   0  0  0  0  0  0  0  0  0  0  0  0
   -1.5799   -9.9322   18.3468 C   0  0  0  0  0  0  0  0  0  0  0  0
   -1.0871  -12.2214   17.8851 C   0  0  0  0  0  0  0  0  0  0  0  0
   -2.2706   -8.9669   19.0691 C   0  0  0  0  0  0  0  0  0  0  0  0
    3.0279   -5.3073   26.8197 C   0  0  0  0  0  0  0  0  0  0  0  0
    7.3282   -3.8948   29.1186 C   0  0  0  0  0  0  0  0  0  0  0  0
  1  3  4  0
  1  7  4  0
  2  3  1  0
  2  6  4  0
  2 16  4  0
  3 22  4  0
  4  9  4  0
  4 10  1  0
  4 20  4  0
  5 16  4  0
  5 23  4  0
  6 15  4  0
  7 12  4  0
  8 13  4  0
  8 14  4  0
  9 11  4  0
 11 14  4  0
 11 19  4  0
 12 18  4  0
 13 21  4  0
 15 23  4  0
 17 19  4  0
 17 20  4  0
 18 22  4  0
 19 21  4  0
M  END
$$$$

 Created by Python create_sdf_string function

 23 25  0  0  0  0  0  0  0  0999 V2000
    2.4610   -5.3070   29.1240 C   0  0  0  0  0  0  0  0  0  0  0  0
    4.7710   -4.6952   28.4803 C   0  0  0  0  0  0  0  0  0  0  0  0
    3.4047   -5.1087   28.1314 C   0  0  0  0  0  0  0  0  0  0  0  0
   -0.2234  -11.8615   16.8874 C   0  0  0  0  0  0  0  0  0  0  0  0
    6.4491   -4.1532   30.1213 C   0  0  0  0  0  0  0  0  0  0  0  0
    5.7060   -4.4340   27.4975 C   0  0  0  0  0  0  0  0  0  0  0  0
    1.1818   -5.6612   28.8399 C   0  0  0  0  0  0  0  0  0  0  0  0
   -1.2067   -7.3287   17.7772 C   0  0  0  0  0  0  0  0  0  0  0  0
   -0.0206  -10.5585   16.6210 C   0  0  0  0  0  0  0  0  0  0  0  0
    0.3696  -12.7626   16.2169 O   0  0  0  0  0  0  0  0  0  0  0  0
   -0.6895   -9.5676   17.3297 C   0  0  0  0  0  0  0  0  0  0  0  0
    0.8388   -5.8417   27.5264 C   0  0  0  0  0  0  0  0  0  0  0  0
   -2.0709   -7.6637   18.7817 C   0  0  0  0  0  0  0  0  0  0  0  0
   -0.5279   -8.2168   17.0717 C   0  0  0  0  0  0  0  0  0  0  0  0
    6.9694   -4.0191   27.8190 C   0  0  0  0  0  0  0  0  0  0  0  0
    5.1733   -4.5469   29.8123 C   0  0  0  0  0  0  0  0  0  0  0  0
   -1.7508  -11.3016   18.6072 C   0  0  0  0  0  0  0  0  0  0  0  0
    1.7497   -5.6771   26.4971 C   0  0  0  0  0  0  0  0  0  0  0  0
   -1.5799   -9.9322   18.3468 C   0  0  0  0  0  0  0  0  0  0  0  0
   -1.0871  -12.2214   17.8851 C   0  0  0  0  0  0  0  0  0  0  0  0
   -2.2706   -8.9669   19.0691 C   0  0  0  0  0  0  0  0  0  0  0  0
    3.0279   -5.3073   26.8197 C   0  0  0  0  0  0  0  0  0  0  0  0
    7.3282   -3.8948   29.1186 C   0  0  0  0  0  0  0  0  0  0  0  0
  1  3  4  0
  1  7  4  0
  2  3  1  0
  2  6  4  0
  2 16  4  0
  3 22  4  0
  4  9  4  0
  4 10  1  0
  4 20  4  0
  5 16  4  0
  5 23  4  0
  6 15  4  0
  7 12  4  0
  8 13  4  0
  8 14  4  0
  9 11  4  0
 11 14  4  0
 11 19  4  0
 12 18  4  0
 13 21  4  0
 15 23  4  0
 17 19  4  0
 17 20  4  0
 18 22  4  0
 19 21  4  0
M  END
$$$$

 Created by Python create_sdf_string function

 23 25  0  0  0  0  0  0  0  0999 V2000
    2.4610   -5.3070   29.1240 C   0  0  0  0  0  0  0  0  0  0  0  0
    4.7710   -4.6952   28.4803 C   0  0  0  0  0  0  0  0  0  0  0  0
    3.4047   -5.1087   28.1314 C   0  0  0  0  0  0  0  0  0  0  0  0
   -0.2234  -11.8615   16.8874 C   0  0  0  0  0  0  0  0  0  0  0  0
    6.4491   -4.1532   30.1213 C   0  0  0  0  0  0  0  0  0  0  0  0
    5.7060   -4.4340   27.4975 C   0  0  0  0  0  0  0  0  0  0  0  0
    1.1818   -5.6612   28.8399 C   0  0  0  0  0  0  0  0  0  0  0  0
   -1.2067   -7.3287   17.7772 C   0  0  0  0  0  0  0  0  0  0  0  0
   -0.0206  -10.5585   16.6210 C   0  0  0  0  0  0  0  0  0  0  0  0
    0.3696  -12.7626   16.2169 O   0  0  0  0  0  0  0  0  0  0  0  0
   -0.6895   -9.5676   17.3297 C   0  0  0  0  0  0  0  0  0  0  0  0
    0.8388   -5.8417   27.5264 C   0  0  0  0  0  0  0  0  0  0  0  0
   -2.0709   -7.6637   18.7817 C   0  0  0  0  0  0  0  0  0  0  0  0
   -0.5279   -8.2168   17.0717 C   0  0  0  0  0  0  0  0  0  0  0  0
    6.9694   -4.0191   27.8190 C   0  0  0  0  0  0  0  0  0  0  0  0
    5.1733   -4.5469   29.8123 C   0  0  0  0  0  0  0  0  0  0  0  0
   -1.7508  -11.3016   18.6072 C   0  0  0  0  0  0  0  0  0  0  0  0
    1.7497   -5.6771   26.4971 C   0  0  0  0  0  0  0  0  0  0  0  0
   -1.5799   -9.9322   18.3468 C   0  0  0  0  0  0  0  0  0  0  0  0
   -1.0871  -12.2214   17.8851 C   0  0  0  0  0  0  0  0  0  0  0  0
   -2.2706   -8.9669   19.0691 C   0  0  0  0  0  0  0  0  0  0  0  0
    3.0279   -5.3073   26.8197 C   0  0  0  0  0  0  0  0  0  0  0  0
    7.3282   -3.8948   29.1186 C   0  0  0  0  0  0  0  0  0  0  0  0
  1  3  4  0
  1  7  4  0
  2  3  1  0
  2  6  4  0
  2 16  4  0
  3 22  4  0
  4  9  4  0
  4 10  1  0
  4 20  4  0
  5 16  4  0
  5 23  4  0
  6 15  4  0
  7 12  4  0
  8 13  4  0
  8 14  4  0
  9 11  4  0
 11 14  4  0
 11 19  4  0
 12 18  4  0
 13 21  4  0
 15 23  4  0
 17 19  4  0
 17 20  4  0
 18 22  4  0
 19 21  4  0
M  END
$$$$

 Created by Python create_sdf_string function

 23 25  0  0  0  0  0  0  0  0999 V2000
    2.4610   -5.3070   29.1240 C   0  0  0  0  0  0  0  0  0  0  0  0
    4.7710   -4.6952   28.4803 C   0  0  0  0  0  0  0  0  0  0  0  0
    3.4047   -5.1087   28.1314 C   0  0  0  0  0  0  0  0  0  0  0  0
   -0.2234  -11.8615   16.8874 C   0  0  0  0  0  0  0  0  0  0  0  0
    6.4491   -4.1532   30.1213 C   0  0  0  0  0  0  0  0  0  0  0  0
    5.7060   -4.4340   27.4975 C   0  0  0  0  0  0  0  0  0  0  0  0
    1.1818   -5.6612   28.8399 C   0  0  0  0  0  0  0  0  0  0  0  0
   -1.2067   -7.3287   17.7772 C   0  0  0  0  0  0  0  0  0  0  0  0
   -0.0206  -10.5585   16.6210 C   0  0  0  0  0  0  0  0  0  0  0  0
    0.3696  -12.7626   16.2169 O   0  0  0  0  0  0  0  0  0  0  0  0
   -0.6895   -9.5676   17.3297 C   0  0  0  0  0  0  0  0  0  0  0  0
    0.8388   -5.8417   27.5264 C   0  0  0  0  0  0  0  0  0  0  0  0
   -2.0709   -7.6637   18.7817 C   0  0  0  0  0  0  0  0  0  0  0  0
   -0.5279   -8.2168   17.0717 C   0  0  0  0  0  0  0  0  0  0  0  0
    6.9694   -4.0191   27.8190 C   0  0  0  0  0  0  0  0  0  0  0  0
    5.1733   -4.5469   29.8123 C   0  0  0  0  0  0  0  0  0  0  0  0
   -1.7508  -11.3016   18.6072 C   0  0  0  0  0  0  0  0  0  0  0  0
    1.7497   -5.6771   26.4971 C   0  0  0  0  0  0  0  0  0  0  0  0
   -1.5799   -9.9322   18.3468 C   0  0  0  0  0  0  0  0  0  0  0  0
   -1.0871  -12.2214   17.8851 C   0  0  0  0  0  0  0  0  0  0  0  0
   -2.2706   -8.9669   19.0691 C   0  0  0  0  0  0  0  0  0  0  0  0
    3.0279   -5.3073   26.8197 C   0  0  0  0  0  0  0  0  0  0  0  0
    7.3282   -3.8948   29.1186 C   0  0  0  0  0  0  0  0  0  0  0  0
  1  3  4  0
  1  7  4  0
  2  3  1  0
  2  6  4  0
  2 16  4  0
  3 22  4  0
  4  9  4  0
  4 10  1  0
  4 20  4  0
  5 16  4  0
  5 23  4  0
  6 15  4  0
  7 12  4  0
  8 13  4  0
  8 14  4  0
  9 11  4  0
 11 14  4  0
 11 19  4  0
 12 18  4  0
 13 21  4  0
 15 23  4  0
 17 19  4  0
 17 20  4  0
 18 22  4  0
 19 21  4  0
M  END
$$$$

 Created by Python create_sdf_string function

 23 25  0  0  0  0  0  0  0  0999 V2000
    2.4610   -5.3070   29.1240 C   0  0  0  0  0  0  0  0  0  0  0  0
    4.7710   -4.6952   28.4803 C   0  0  0  0  0  0  0  0  0  0  0  0
    3.4047   -5.1087   28.1314 C   0  0  0  0  0  0  0  0  0  0  0  0
   -0.2234  -11.8615   16.8874 C   0  0  0  0  0  0  0  0  0  0  0  0
    6.4491   -4.1532   30.1213 C   0  0  0  0  0  0  0  0  0  0  0  0
    5.7060   -4.4340   27.4975 C   0  0  0  0  0  0  0  0  0  0  0  0
    1.1818   -5.6612   28.8399 C   0  0  0  0  0  0  0  0  0  0  0  0
   -1.2067   -7.3287   17.7772 C   0  0  0  0  0  0  0  0  0  0  0  0
   -0.0206  -10.5585   16.6210 C   0  0  0  0  0  0  0  0  0  0  0  0
    0.3696  -12.7626   16.2169 O   0  0  0  0  0  0  0  0  0  0  0  0
   -0.6895   -9.5676   17.3297 C   0  0  0  0  0  0  0  0  0  0  0  0
    0.8388   -5.8417   27.5264 C   0  0  0  0  0  0  0  0  0  0  0  0
   -2.0709   -7.6637   18.7817 C   0  0  0  0  0  0  0  0  0  0  0  0
   -0.5279   -8.2168   17.0717 C   0  0  0  0  0  0  0  0  0  0  0  0
    6.9694   -4.0191   27.8190 C   0  0  0  0  0  0  0  0  0  0  0  0
    5.1733   -4.5469   29.8123 C   0  0  0  0  0  0  0  0  0  0  0  0
   -1.7508  -11.3016   18.6072 C   0  0  0  0  0  0  0  0  0  0  0  0
    1.7497   -5.6771   26.4971 C   0  0  0  0  0  0  0  0  0  0  0  0
   -1.5799   -9.9322   18.3468 C   0  0  0  0  0  0  0  0  0  0  0  0
   -1.0871  -12.2214   17.8851 C   0  0  0  0  0  0  0  0  0  0  0  0
   -2.2706   -8.9669   19.0691 C   0  0  0  0  0  0  0  0  0  0  0  0
    3.0279   -5.3073   26.8197 C   0  0  0  0  0  0  0  0  0  0  0  0
    7.3282   -3.8948   29.1186 C   0  0  0  0  0  0  0  0  0  0  0  0
  1  3  4  0
  1  7  4  0
  2  3  1  0
  2  6  4  0
  2 16  4  0
  3 22  4  0
  4  9  4  0
  4 10  1  0
  4 20  4  0
  5 16  4  0
  5 23  4  0
  6 15  4  0
  7 12  4  0
  8 13  4  0
  8 14  4  0
  9 11  4  0
 11 14  4  0
 11 19  4  0
 12 18  4  0
 13 21  4  0
 15 23  4  0
 17 19  4  0
 17 20  4  0
 18 22  4  0
 19 21  4  0
M  END
$$$$

 Created by Python create_sdf_string function

 23 25  0  0  0  0  0  0  0  0999 V2000
    2.4610   -5.3070   29.1240 C   0  0  0  0  0  0  0  0  0  0  0  0
    4.7710   -4.6952   28.4803 C   0  0  0  0  0  0  0  0  0  0  0  0
    3.4047   -5.1087   28.1314 C   0  0  0  0  0  0  0  0  0  0  0  0
   -0.2234  -11.8615   16.8874 C   0  0  0  0  0  0  0  0  0  0  0  0
    6.4491   -4.1532   30.1213 C   0  0  0  0  0  0  0  0  0  0  0  0
    5.7060   -4.4340   27.4975 C   0  0  0  0  0  0  0  0  0  0  0  0
    1.1818   -5.6612   28.8399 C   0  0  0  0  0  0  0  0  0  0  0  0
   -1.2067   -7.3287   17.7772 C   0  0  0  0  0  0  0  0  0  0  0  0
   -0.0206  -10.5585   16.6210 C   0  0  0  0  0  0  0  0  0  0  0  0
    0.3696  -12.7626   16.2169 O   0  0  0  0  0  0  0  0  0  0  0  0
   -0.6895   -9.5676   17.3297 C   0  0  0  0  0  0  0  0  0  0  0  0
    0.8388   -5.8417   27.5264 C   0  0  0  0  0  0  0  0  0  0  0  0
   -2.0709   -7.6637   18.7817 C   0  0  0  0  0  0  0  0  0  0  0  0
   -0.5279   -8.2168   17.0717 C   0  0  0  0  0  0  0  0  0  0  0  0
    6.9694   -4.0191   27.8190 C   0  0  0  0  0  0  0  0  0  0  0  0
    5.1733   -4.5469   29.8123 C   0  0  0  0  0  0  0  0  0  0  0  0
   -1.7508  -11.3016   18.6072 C   0  0  0  0  0  0  0  0  0  0  0  0
    1.7497   -5.6771   26.4971 C   0  0  0  0  0  0  0  0  0  0  0  0
   -1.5799   -9.9322   18.3468 C   0  0  0  0  0  0  0  0  0  0  0  0
   -1.0871  -12.2214   17.8851 C   0  0  0  0  0  0  0  0  0  0  0  0
   -2.2706   -8.9669   19.0691 C   0  0  0  0  0  0  0  0  0  0  0  0
    3.0279   -5.3073   26.8197 C   0  0  0  0  0  0  0  0  0  0  0  0
    7.3282   -3.8948   29.1186 C   0  0  0  0  0  0  0  0  0  0  0  0
  1  3  4  0
  1  7  4  0
  2  3  1  0
  2  6  4  0
  2 16  4  0
  3 22  4  0
  4  9  4  0
  4 10  1  0
  4 20  4  0
  5 16  4  0
  5 23  4  0
  6 15  4  0
  7 12  4  0
  8 13  4  0
  8 14  4  0
  9 11  4  0
 11 14  4  0
 11 19  4  0
 12 18  4  0
 13 21  4  0
 15 23  4  0
 17 19  4  0
 17 20  4  0
 18 22  4  0
 19 21  4  0
M  END
$$$$

 Created by Python create_sdf_string function

 23 25  0  0  0  0  0  0  0  0999 V2000
    2.4610   -5.3070   29.1240 C   0  0  0  0  0  0  0  0  0  0  0  0
    4.7710   -4.6952   28.4803 C   0  0  0  0  0  0  0  0  0  0  0  0
    3.4047   -5.1087   28.1314 C   0  0  0  0  0  0  0  0  0  0  0  0
   -0.2234  -11.8615   16.8874 C   0  0  0  0  0  0  0  0  0  0  0  0
    6.4491   -4.1532   30.1213 C   0  0  0  0  0  0  0  0  0  0  0  0
    5.7060   -4.4340   27.4975 C   0  0  0  0  0  0  0  0  0  0  0  0
    1.1818   -5.6612   28.8399 C   0  0  0  0  0  0  0  0  0  0  0  0
   -1.2067   -7.3287   17.7772 C   0  0  0  0  0  0  0  0  0  0  0  0
   -0.0206  -10.5585   16.6210 C   0  0  0  0  0  0  0  0  0  0  0  0
    0.3696  -12.7626   16.2169 O   0  0  0  0  0  0  0  0  0  0  0  0
   -0.6895   -9.5676   17.3297 C   0  0  0  0  0  0  0  0  0  0  0  0
    0.8388   -5.8417   27.5264 C   0  0  0  0  0  0  0  0  0  0  0  0
   -2.0709   -7.6637   18.7817 C   0  0  0  0  0  0  0  0  0  0  0  0
   -0.5279   -8.2168   17.0717 C   0  0  0  0  0  0  0  0  0  0  0  0
    6.9694   -4.0191   27.8190 C   0  0  0  0  0  0  0  0  0  0  0  0
    5.1733   -4.5469   29.8123 C   0  0  0  0  0  0  0  0  0  0  0  0
   -1.7508  -11.3016   18.6072 C   0  0  0  0  0  0  0  0  0  0  0  0
    1.7497   -5.6771   26.4971 C   0  0  0  0  0  0  0  0  0  0  0  0
   -1.5799   -9.9322   18.3468 C   0  0  0  0  0  0  0  0  0  0  0  0
   -1.0871  -12.2214   17.8851 C   0  0  0  0  0  0  0  0  0  0  0  0
   -2.2706   -8.9669   19.0691 C   0  0  0  0  0  0  0  0  0  0  0  0
    3.0279   -5.3073   26.8197 C   0  0  0  0  0  0  0  0  0  0  0  0
    7.3282   -3.8948   29.1186 C   0  0  0  0  0  0  0  0  0  0  0  0
  1  3  4  0
  1  7  4  0
  2  3  1  0
  2  6  4  0
  2 16  4  0
  3 22  4  0
  4  9  4  0
  4 10  1  0
  4 20  4  0
  5 16  4  0
  5 23  4  0
  6 15  4  0
  7 12  4  0
  8 13  4  0
  8 14  4  0
  9 11  4  0
 11 14  4  0
 11 19  4  0
 12 18  4  0
 13 21  4  0
 15 23  4  0
 17 19  4  0
 17 20  4  0
 18 22  4  0
 19 21  4  0
M  END
$$$$

 Created by Python create_sdf_string function

 23 25  0  0  0  0  0  0  0  0999 V2000
    2.4610   -5.3070   29.1240 C   0  0  0  0  0  0  0  0  0  0  0  0
    4.7710   -4.6952   28.4803 C   0  0  0  0  0  0  0  0  0  0  0  0
    3.4047   -5.1087   28.1314 C   0  0  0  0  0  0  0  0  0  0  0  0
   -0.2234  -11.8615   16.8874 C   0  0  0  0  0  0  0  0  0  0  0  0
    6.4491   -4.1532   30.1213 C   0  0  0  0  0  0  0  0  0  0  0  0
    5.7060   -4.4340   27.4975 C   0  0  0  0  0  0  0  0  0  0  0  0
    1.1818   -5.6612   28.8399 C   0  0  0  0  0  0  0  0  0  0  0  0
   -1.2067   -7.3287   17.7772 C   0  0  0  0  0  0  0  0  0  0  0  0
   -0.0206  -10.5585   16.6210 C   0  0  0  0  0  0  0  0  0  0  0  0
    0.3696  -12.7626   16.2169 O   0  0  0  0  0  0  0  0  0  0  0  0
   -0.6895   -9.5676   17.3297 C   0  0  0  0  0  0  0  0  0  0  0  0
    0.8388   -5.8417   27.5264 C   0  0  0  0  0  0  0  0  0  0  0  0
   -2.0709   -7.6637   18.7817 C   0  0  0  0  0  0  0  0  0  0  0  0
   -0.5279   -8.2168   17.0717 C   0  0  0  0  0  0  0  0  0  0  0  0
    6.9694   -4.0191   27.8190 C   0  0  0  0  0  0  0  0  0  0  0  0
    5.1733   -4.5469   29.8123 C   0  0  0  0  0  0  0  0  0  0  0  0
   -1.7508  -11.3016   18.6072 C   0  0  0  0  0  0  0  0  0  0  0  0
    1.7497   -5.6771   26.4971 C   0  0  0  0  0  0  0  0  0  0  0  0
   -1.5799   -9.9322   18.3468 C   0  0  0  0  0  0  0  0  0  0  0  0
   -1.0871  -12.2214   17.8851 C   0  0  0  0  0  0  0  0  0  0  0  0
   -2.2706   -8.9669   19.0691 C   0  0  0  0  0  0  0  0  0  0  0  0
    3.0279   -5.3073   26.8197 C   0  0  0  0  0  0  0  0  0  0  0  0
    7.3282   -3.8948   29.1186 C   0  0  0  0  0  0  0  0  0  0  0  0
  1  3  4  0
  1  7  4  0
  2  3  1  0
  2  6  4  0
  2 16  4  0
  3 22  4  0
  4  9  4  0
  4 10  1  0
  4 20  4  0
  5 16  4  0
  5 23  4  0
  6 15  4  0
  7 12  4  0
  8 13  4  0
  8 14  4  0
  9 11  4  0
 11 14  4  0
 11 19  4  0
 12 18  4  0
 13 21  4  0
 15 23  4  0
 17 19  4  0
 17 20  4  0
 18 22  4  0
 19 21  4  0
M  END
$$$$

 Created by Python create_sdf_string function

 23 25  0  0  0  0  0  0  0  0999 V2000
    2.4610   -5.3070   29.1240 C   0  0  0  0  0  0  0  0  0  0  0  0
    4.7710   -4.6952   28.4803 C   0  0  0  0  0  0  0  0  0  0  0  0
    3.4047   -5.1087   28.1314 C   0  0  0  0  0  0  0  0  0  0  0  0
   -0.2234  -11.8615   16.8874 C   0  0  0  0  0  0  0  0  0  0  0  0
    6.4491   -4.1532   30.1213 C   0  0  0  0  0  0  0  0  0  0  0  0
    5.7060   -4.4340   27.4975 C   0  0  0  0  0  0  0  0  0  0  0  0
    1.1818   -5.6612   28.8399 C   0  0  0  0  0  0  0  0  0  0  0  0
   -1.2067   -7.3287   17.7772 C   0  0  0  0  0  0  0  0  0  0  0  0
   -0.0206  -10.5585   16.6210 C   0  0  0  0  0  0  0  0  0  0  0  0
    0.3696  -12.7626   16.2169 O   0  0  0  0  0  0  0  0  0  0  0  0
   -0.6895   -9.5676   17.3297 C   0  0  0  0  0  0  0  0  0  0  0  0
    0.8388   -5.8417   27.5264 C   0  0  0  0  0  0  0  0  0  0  0  0
   -2.0709   -7.6637   18.7817 C   0  0  0  0  0  0  0  0  0  0  0  0
   -0.5279   -8.2168   17.0717 C   0  0  0  0  0  0  0  0  0  0  0  0
    6.9694   -4.0191   27.8190 C   0  0  0  0  0  0  0  0  0  0  0  0
    5.1733   -4.5469   29.8123 C   0  0  0  0  0  0  0  0  0  0  0  0
   -1.7508  -11.3016   18.6072 C   0  0  0  0  0  0  0  0  0  0  0  0
    1.7497   -5.6771   26.4971 C   0  0  0  0  0  0  0  0  0  0  0  0
   -1.5799   -9.9322   18.3468 C   0  0  0  0  0  0  0  0  0  0  0  0
   -1.0871  -12.2214   17.8851 C   0  0  0  0  0  0  0  0  0  0  0  0
   -2.2706   -8.9669   19.0691 C   0  0  0  0  0  0  0  0  0  0  0  0
    3.0279   -5.3073   26.8197 C   0  0  0  0  0  0  0  0  0  0  0  0
    7.3282   -3.8948   29.1186 C   0  0  0  0  0  0  0  0  0  0  0  0
  1  3  4  0
  1  7  4  0
  2  3  1  0
  2  6  4  0
  2 16  4  0
  3 22  4  0
  4  9  4  0
  4 10  1  0
  4 20  4  0
  5 16  4  0
  5 23  4  0
  6 15  4  0
  7 12  4  0
  8 13  4  0
  8 14  4  0
  9 11  4  0
 11 14  4  0
 11 19  4  0
 12 18  4  0
 13 21  4  0
 15 23  4  0
 17 19  4  0
 17 20  4  0
 18 22  4  0
 19 21  4  0
M  END
$$$$

 Created by Python create_sdf_string function

 23 25  0  0  0  0  0  0  0  0999 V2000
    2.4610   -5.3070   29.1240 C   0  0  0  0  0  0  0  0  0  0  0  0
    4.7710   -4.6952   28.4803 C   0  0  0  0  0  0  0  0  0  0  0  0
    3.4047   -5.1087   28.1314 C   0  0  0  0  0  0  0  0  0  0  0  0
   -0.2234  -11.8615   16.8874 C   0  0  0  0  0  0  0  0  0  0  0  0
    6.4491   -4.1532   30.1213 C   0  0  0  0  0  0  0  0  0  0  0  0
    5.7060   -4.4340   27.4975 C   0  0  0  0  0  0  0  0  0  0  0  0
    1.1818   -5.6612   28.8399 C   0  0  0  0  0  0  0  0  0  0  0  0
   -1.2067   -7.3287   17.7772 C   0  0  0  0  0  0  0  0  0  0  0  0
   -0.0206  -10.5585   16.6210 C   0  0  0  0  0  0  0  0  0  0  0  0
    0.3696  -12.7626   16.2169 O   0  0  0  0  0  0  0  0  0  0  0  0
   -0.6895   -9.5676   17.3297 C   0  0  0  0  0  0  0  0  0  0  0  0
    0.8388   -5.8417   27.5264 C   0  0  0  0  0  0  0  0  0  0  0  0
   -2.0709   -7.6637   18.7817 C   0  0  0  0  0  0  0  0  0  0  0  0
   -0.5279   -8.2168   17.0717 C   0  0  0  0  0  0  0  0  0  0  0  0
    6.9694   -4.0191   27.8190 C   0  0  0  0  0  0  0  0  0  0  0  0
    5.1733   -4.5469   29.8123 C   0  0  0  0  0  0  0  0  0  0  0  0
   -1.7508  -11.3016   18.6072 C   0  0  0  0  0  0  0  0  0  0  0  0
    1.7497   -5.6771   26.4971 C   0  0  0  0  0  0  0  0  0  0  0  0
   -1.5799   -9.9322   18.3468 C   0  0  0  0  0  0  0  0  0  0  0  0
   -1.0871  -12.2214   17.8851 C   0  0  0  0  0  0  0  0  0  0  0  0
   -2.2706   -8.9669   19.0691 C   0  0  0  0  0  0  0  0  0  0  0  0
    3.0279   -5.3073   26.8197 C   0  0  0  0  0  0  0  0  0  0  0  0
    7.3282   -3.8948   29.1186 C   0  0  0  0  0  0  0  0  0  0  0  0
  1  3  4  0
  1  7  4  0
  2  3  1  0
  2  6  4  0
  2 16  4  0
  3 22  4  0
  4  9  4  0
  4 10  1  0
  4 20  4  0
  5 16  4  0
  5 23  4  0
  6 15  4  0
  7 12  4  0
  8 13  4  0
  8 14  4  0
  9 11  4  0
 11 14  4  0
 11 19  4  0
 12 18  4  0
 13 21  4  0
 15 23  4  0
 17 19  4  0
 17 20  4  0
 18 22  4  0
 19 21  4  0
M  END
$$$$

 Created by Python create_sdf_string function

 23 25  0  0  0  0  0  0  0  0999 V2000
    2.4610   -5.3070   29.1240 C   0  0  0  0  0  0  0  0  0  0  0  0
    4.7710   -4.6952   28.4803 C   0  0  0  0  0  0  0  0  0  0  0  0
    3.4047   -5.1087   28.1314 C   0  0  0  0  0  0  0  0  0  0  0  0
   -0.2234  -11.8615   16.8874 C   0  0  0  0  0  0  0  0  0  0  0  0
    6.4491   -4.1532   30.1213 C   0  0  0  0  0  0  0  0  0  0  0  0
    5.7060   -4.4340   27.4975 C   0  0  0  0  0  0  0  0  0  0  0  0
    1.1818   -5.6612   28.8399 C   0  0  0  0  0  0  0  0  0  0  0  0
   -1.2067   -7.3287   17.7772 C   0  0  0  0  0  0  0  0  0  0  0  0
   -0.0206  -10.5585   16.6210 C   0  0  0  0  0  0  0  0  0  0  0  0
    0.3696  -12.7626   16.2169 O   0  0  0  0  0  0  0  0  0  0  0  0
   -0.6895   -9.5676   17.3297 C   0  0  0  0  0  0  0  0  0  0  0  0
    0.8388   -5.8417   27.5264 C   0  0  0  0  0  0  0  0  0  0  0  0
   -2.0709   -7.6637   18.7817 C   0  0  0  0  0  0  0  0  0  0  0  0
   -0.5279   -8.2168   17.0717 C   0  0  0  0  0  0  0  0  0  0  0  0
    6.9694   -4.0191   27.8190 C   0  0  0  0  0  0  0  0  0  0  0  0
    5.1733   -4.5469   29.8123 C   0  0  0  0  0  0  0  0  0  0  0  0
   -1.7508  -11.3016   18.6072 C   0  0  0  0  0  0  0  0  0  0  0  0
    1.7497   -5.6771   26.4971 C   0  0  0  0  0  0  0  0  0  0  0  0
   -1.5799   -9.9322   18.3468 C   0  0  0  0  0  0  0  0  0  0  0  0
   -1.0871  -12.2214   17.8851 C   0  0  0  0  0  0  0  0  0  0  0  0
   -2.2706   -8.9669   19.0691 C   0  0  0  0  0  0  0  0  0  0  0  0
    3.0279   -5.3073   26.8197 C   0  0  0  0  0  0  0  0  0  0  0  0
    7.3282   -3.8948   29.1186 C   0  0  0  0  0  0  0  0  0  0  0  0
  1  3  4  0
  1  7  4  0
  2  3  1  0
  2  6  4  0
  2 16  4  0
  3 22  4  0
  4  9  4  0
  4 10  1  0
  4 20  4  0
  5 16  4  0
  5 23  4  0
  6 15  4  0
  7 12  4  0
  8 13  4  0
  8 14  4  0
  9 11  4  0
 11 14  4  0
 11 19  4  0
 12 18  4  0
 13 21  4  0
 15 23  4  0
 17 19  4  0
 17 20  4  0
 18 22  4  0
 19 21  4  0
M  END
$$$$

 Created by Python create_sdf_string function

 23 25  0  0  0  0  0  0  0  0999 V2000
    2.4610   -5.3070   29.1240 C   0  0  0  0  0  0  0  0  0  0  0  0
    4.7710   -4.6952   28.4803 C   0  0  0  0  0  0  0  0  0  0  0  0
    3.4047   -5.1087   28.1314 C   0  0  0  0  0  0  0  0  0  0  0  0
   -0.2234  -11.8615   16.8874 C   0  0  0  0  0  0  0  0  0  0  0  0
    6.4491   -4.1532   30.1213 C   0  0  0  0  0  0  0  0  0  0  0  0
    5.7060   -4.4340   27.4975 C   0  0  0  0  0  0  0  0  0  0  0  0
    1.1818   -5.6612   28.8399 C   0  0  0  0  0  0  0  0  0  0  0  0
   -1.2067   -7.3287   17.7772 C   0  0  0  0  0  0  0  0  0  0  0  0
   -0.0206  -10.5585   16.6210 C   0  0  0  0  0  0  0  0  0  0  0  0
    0.3696  -12.7626   16.2169 O   0  0  0  0  0  0  0  0  0  0  0  0
   -0.6895   -9.5676   17.3297 C   0  0  0  0  0  0  0  0  0  0  0  0
    0.8388   -5.8417   27.5264 C   0  0  0  0  0  0  0  0  0  0  0  0
   -2.0709   -7.6637   18.7817 C   0  0  0  0  0  0  0  0  0  0  0  0
   -0.5279   -8.2168   17.0717 C   0  0  0  0  0  0  0  0  0  0  0  0
    6.9694   -4.0191   27.8190 C   0  0  0  0  0  0  0  0  0  0  0  0
    5.1733   -4.5469   29.8123 C   0  0  0  0  0  0  0  0  0  0  0  0
   -1.7508  -11.3016   18.6072 C   0  0  0  0  0  0  0  0  0  0  0  0
    1.7497   -5.6771   26.4971 C   0  0  0  0  0  0  0  0  0  0  0  0
   -1.5799   -9.9322   18.3468 C   0  0  0  0  0  0  0  0  0  0  0  0
   -1.0871  -12.2214   17.8851 C   0  0  0  0  0  0  0  0  0  0  0  0
   -2.2706   -8.9669   19.0691 C   0  0  0  0  0  0  0  0  0  0  0  0
    3.0279   -5.3073   26.8197 C   0  0  0  0  0  0  0  0  0  0  0  0
    7.3282   -3.8948   29.1186 C   0  0  0  0  0  0  0  0  0  0  0  0
  1  3  4  0
  1  7  4  0
  2  3  1  0
  2  6  4  0
  2 16  4  0
  3 22  4  0
  4  9  4  0
  4 10  1  0
  4 20  4  0
  5 16  4  0
  5 23  4  0
  6 15  4  0
  7 12  4  0
  8 13  4  0
  8 14  4  0
  9 11  4  0
 11 14  4  0
 11 19  4  0
 12 18  4  0
 13 21  4  0
 15 23  4  0
 17 19  4  0
 17 20  4  0
 18 22  4  0
 19 21  4  0
M  END
$$$$

 Created by Python create_sdf_string function

 23 25  0  0  0  0  0  0  0  0999 V2000
    2.4610   -5.3070   29.1240 C   0  0  0  0  0  0  0  0  0  0  0  0
    4.7710   -4.6952   28.4803 C   0  0  0  0  0  0  0  0  0  0  0  0
    3.4047   -5.1087   28.1314 C   0  0  0  0  0  0  0  0  0  0  0  0
   -0.2234  -11.8615   16.8874 C   0  0  0  0  0  0  0  0  0  0  0  0
    6.4491   -4.1532   30.1213 C   0  0  0  0  0  0  0  0  0  0  0  0
    5.7060   -4.4340   27.4975 C   0  0  0  0  0  0  0  0  0  0  0  0
    1.1818   -5.6612   28.8399 C   0  0  0  0  0  0  0  0  0  0  0  0
   -1.2067   -7.3287   17.7772 C   0  0  0  0  0  0  0  0  0  0  0  0
   -0.0206  -10.5585   16.6210 C   0  0  0  0  0  0  0  0  0  0  0  0
    0.3696  -12.7626   16.2169 O   0  0  0  0  0  0  0  0  0  0  0  0
   -0.6895   -9.5676   17.3297 C   0  0  0  0  0  0  0  0  0  0  0  0
    0.8388   -5.8417   27.5264 C   0  0  0  0  0  0  0  0  0  0  0  0
   -2.0709   -7.6637   18.7817 C   0  0  0  0  0  0  0  0  0  0  0  0
   -0.5279   -8.2168   17.0717 C   0  0  0  0  0  0  0  0  0  0  0  0
    6.9694   -4.0191   27.8190 C   0  0  0  0  0  0  0  0  0  0  0  0
    5.1733   -4.5469   29.8123 C   0  0  0  0  0  0  0  0  0  0  0  0
   -1.7508  -11.3016   18.6072 C   0  0  0  0  0  0  0  0  0  0  0  0
    1.7497   -5.6771   26.4971 C   0  0  0  0  0  0  0  0  0  0  0  0
   -1.5799   -9.9322   18.3468 C   0  0  0  0  0  0  0  0  0  0  0  0
   -1.0871  -12.2214   17.8851 C   0  0  0  0  0  0  0  0  0  0  0  0
   -2.2706   -8.9669   19.0691 C   0  0  0  0  0  0  0  0  0  0  0  0
    3.0279   -5.3073   26.8197 C   0  0  0  0  0  0  0  0  0  0  0  0
    7.3282   -3.8948   29.1186 C   0  0  0  0  0  0  0  0  0  0  0  0
  1  3  4  0
  1  7  4  0
  2  3  1  0
  2  6  4  0
  2 16  4  0
  3 22  4  0
  4  9  4  0
  4 10  1  0
  4 20  4  0
  5 16  4  0
  5 23  4  0
  6 15  4  0
  7 12  4  0
  8 13  4  0
  8 14  4  0
  9 11  4  0
 11 14  4  0
 11 19  4  0
 12 18  4  0
 13 21  4  0
 15 23  4  0
 17 19  4  0
 17 20  4  0
 18 22  4  0
 19 21  4  0
M  END
$$$$

 Created by Python create_sdf_string function

 23 25  0  0  0  0  0  0  0  0999 V2000
    2.4610   -5.3070   29.1240 C   0  0  0  0  0  0  0  0  0  0  0  0
    4.7710   -4.6952   28.4803 C   0  0  0  0  0  0  0  0  0  0  0  0
    3.4047   -5.1087   28.1314 C   0  0  0  0  0  0  0  0  0  0  0  0
   -0.2234  -11.8615   16.8874 C   0  0  0  0  0  0  0  0  0  0  0  0
    6.4491   -4.1532   30.1213 C   0  0  0  0  0  0  0  0  0  0  0  0
    5.7060   -4.4340   27.4975 C   0  0  0  0  0  0  0  0  0  0  0  0
    1.1818   -5.6612   28.8399 C   0  0  0  0  0  0  0  0  0  0  0  0
   -1.2067   -7.3287   17.7772 C   0  0  0  0  0  0  0  0  0  0  0  0
   -0.0206  -10.5585   16.6210 C   0  0  0  0  0  0  0  0  0  0  0  0
    0.3696  -12.7626   16.2169 O   0  0  0  0  0  0  0  0  0  0  0  0
   -0.6895   -9.5676   17.3297 C   0  0  0  0  0  0  0  0  0  0  0  0
    0.8388   -5.8417   27.5264 C   0  0  0  0  0  0  0  0  0  0  0  0
   -2.0709   -7.6637   18.7817 C   0  0  0  0  0  0  0  0  0  0  0  0
   -0.5279   -8.2168   17.0717 C   0  0  0  0  0  0  0  0  0  0  0  0
    6.9694   -4.0191   27.8190 C   0  0  0  0  0  0  0  0  0  0  0  0
    5.1733   -4.5469   29.8123 C   0  0  0  0  0  0  0  0  0  0  0  0
   -1.7508  -11.3016   18.6072 C   0  0  0  0  0  0  0  0  0  0  0  0
    1.7497   -5.6771   26.4971 C   0  0  0  0  0  0  0  0  0  0  0  0
   -1.5799   -9.9322   18.3468 C   0  0  0  0  0  0  0  0  0  0  0  0
   -1.0871  -12.2214   17.8851 C   0  0  0  0  0  0  0  0  0  0  0  0
   -2.2706   -8.9669   19.0691 C   0  0  0  0  0  0  0  0  0  0  0  0
    3.0279   -5.3073   26.8197 C   0  0  0  0  0  0  0  0  0  0  0  0
    7.3282   -3.8948   29.1186 C   0  0  0  0  0  0  0  0  0  0  0  0
  1  3  4  0
  1  7  4  0
  2  3  1  0
  2  6  4  0
  2 16  4  0
  3 22  4  0
  4  9  4  0
  4 10  1  0
  4 20  4  0
  5 16  4  0
  5 23  4  0
  6 15  4  0
  7 12  4  0
  8 13  4  0
  8 14  4  0
  9 11  4  0
 11 14  4  0
 11 19  4  0
 12 18  4  0
 13 21  4  0
 15 23  4  0
 17 19  4  0
 17 20  4  0
 18 22  4  0
 19 21  4  0
M  END
$$$$

 Created by Python create_sdf_string function

 23 25  0  0  0  0  0  0  0  0999 V2000
    2.4610   -5.3070   29.1240 C   0  0  0  0  0  0  0  0  0  0  0  0
    4.7710   -4.6952   28.4803 C   0  0  0  0  0  0  0  0  0  0  0  0
    3.4047   -5.1087   28.1314 C   0  0  0  0  0  0  0  0  0  0  0  0
   -0.2234  -11.8615   16.8874 C   0  0  0  0  0  0  0  0  0  0  0  0
    6.4491   -4.1532   30.1213 C   0  0  0  0  0  0  0  0  0  0  0  0
    5.7060   -4.4340   27.4975 C   0  0  0  0  0  0  0  0  0  0  0  0
    1.1818   -5.6612   28.8399 C   0  0  0  0  0  0  0  0  0  0  0  0
   -1.2067   -7.3287   17.7772 C   0  0  0  0  0  0  0  0  0  0  0  0
   -0.0206  -10.5585   16.6210 C   0  0  0  0  0  0  0  0  0  0  0  0
    0.3696  -12.7626   16.2169 O   0  0  0  0  0  0  0  0  0  0  0  0
   -0.6895   -9.5676   17.3297 C   0  0  0  0  0  0  0  0  0  0  0  0
    0.8388   -5.8417   27.5264 C   0  0  0  0  0  0  0  0  0  0  0  0
   -2.0709   -7.6637   18.7817 C   0  0  0  0  0  0  0  0  0  0  0  0
   -0.5279   -8.2168   17.0717 C   0  0  0  0  0  0  0  0  0  0  0  0
    6.9694   -4.0191   27.8190 C   0  0  0  0  0  0  0  0  0  0  0  0
    5.1733   -4.5469   29.8123 C   0  0  0  0  0  0  0  0  0  0  0  0
   -1.7508  -11.3016   18.6072 C   0  0  0  0  0  0  0  0  0  0  0  0
    1.7497   -5.6771   26.4971 C   0  0  0  0  0  0  0  0  0  0  0  0
   -1.5799   -9.9322   18.3468 C   0  0  0  0  0  0  0  0  0  0  0  0
   -1.0871  -12.2214   17.8851 C   0  0  0  0  0  0  0  0  0  0  0  0
   -2.2706   -8.9669   19.0691 C   0  0  0  0  0  0  0  0  0  0  0  0
    3.0279   -5.3073   26.8197 C   0  0  0  0  0  0  0  0  0  0  0  0
    7.3282   -3.8948   29.1186 C   0  0  0  0  0  0  0  0  0  0  0  0
  1  3  4  0
  1  7  4  0
  2  3  1  0
  2  6  4  0
  2 16  4  0
  3 22  4  0
  4  9  4  0
  4 10  1  0
  4 20  4  0
  5 16  4  0
  5 23  4  0
  6 15  4  0
  7 12  4  0
  8 13  4  0
  8 14  4  0
  9 11  4  0
 11 14  4  0
 11 19  4  0
 12 18  4  0
 13 21  4  0
 15 23  4  0
 17 19  4  0
 17 20  4  0
 18 22  4  0
 19 21  4  0
M  END
$$$$

 Created by Python create_sdf_string function

 23 25  0  0  0  0  0  0  0  0999 V2000
    2.4610   -5.3070   29.1240 C   0  0  0  0  0  0  0  0  0  0  0  0
    4.7710   -4.6952   28.4803 C   0  0  0  0  0  0  0  0  0  0  0  0
    3.4047   -5.1087   28.1314 C   0  0  0  0  0  0  0  0  0  0  0  0
   -0.2234  -11.8615   16.8874 C   0  0  0  0  0  0  0  0  0  0  0  0
    6.4491   -4.1532   30.1213 C   0  0  0  0  0  0  0  0  0  0  0  0
    5.7060   -4.4340   27.4975 C   0  0  0  0  0  0  0  0  0  0  0  0
    1.1818   -5.6612   28.8399 C   0  0  0  0  0  0  0  0  0  0  0  0
   -1.2067   -7.3287   17.7772 C   0  0  0  0  0  0  0  0  0  0  0  0
   -0.0206  -10.5585   16.6210 C   0  0  0  0  0  0  0  0  0  0  0  0
    0.3696  -12.7626   16.2169 O   0  0  0  0  0  0  0  0  0  0  0  0
   -0.6895   -9.5676   17.3297 C   0  0  0  0  0  0  0  0  0  0  0  0
    0.8388   -5.8417   27.5264 C   0  0  0  0  0  0  0  0  0  0  0  0
   -2.0709   -7.6637   18.7817 C   0  0  0  0  0  0  0  0  0  0  0  0
   -0.5279   -8.2168   17.0717 C   0  0  0  0  0  0  0  0  0  0  0  0
    6.9694   -4.0191   27.8190 C   0  0  0  0  0  0  0  0  0  0  0  0
    5.1733   -4.5469   29.8123 C   0  0  0  0  0  0  0  0  0  0  0  0
   -1.7508  -11.3016   18.6072 C   0  0  0  0  0  0  0  0  0  0  0  0
    1.7497   -5.6771   26.4971 C   0  0  0  0  0  0  0  0  0  0  0  0
   -1.5799   -9.9322   18.3468 C   0  0  0  0  0  0  0  0  0  0  0  0
   -1.0871  -12.2214   17.8851 C   0  0  0  0  0  0  0  0  0  0  0  0
   -2.2706   -8.9669   19.0691 C   0  0  0  0  0  0  0  0  0  0  0  0
    3.0279   -5.3073   26.8197 C   0  0  0  0  0  0  0  0  0  0  0  0
    7.3282   -3.8948   29.1186 C   0  0  0  0  0  0  0  0  0  0  0  0
  1  3  4  0
  1  7  4  0
  2  3  1  0
  2  6  4  0
  2 16  4  0
  3 22  4  0
  4  9  4  0
  4 10  1  0
  4 20  4  0
  5 16  4  0
  5 23  4  0
  6 15  4  0
  7 12  4  0
  8 13  4  0
  8 14  4  0
  9 11  4  0
 11 14  4  0
 11 19  4  0
 12 18  4  0
 13 21  4  0
 15 23  4  0
 17 19  4  0
 17 20  4  0
 18 22  4  0
 19 21  4  0
M  END
$$$$

 Created by Python create_sdf_string function

 23 25  0  0  0  0  0  0  0  0999 V2000
    2.4610   -5.3070   29.1240 C   0  0  0  0  0  0  0  0  0  0  0  0
    4.7710   -4.6952   28.4803 C   0  0  0  0  0  0  0  0  0  0  0  0
    3.4047   -5.1087   28.1314 C   0  0  0  0  0  0  0  0  0  0  0  0
   -0.2234  -11.8615   16.8874 C   0  0  0  0  0  0  0  0  0  0  0  0
    6.4491   -4.1532   30.1213 C   0  0  0  0  0  0  0  0  0  0  0  0
    5.7060   -4.4340   27.4975 C   0  0  0  0  0  0  0  0  0  0  0  0
    1.1818   -5.6612   28.8399 C   0  0  0  0  0  0  0  0  0  0  0  0
   -1.2067   -7.3287   17.7772 C   0  0  0  0  0  0  0  0  0  0  0  0
   -0.0206  -10.5585   16.6210 C   0  0  0  0  0  0  0  0  0  0  0  0
    0.3696  -12.7626   16.2169 O   0  0  0  0  0  0  0  0  0  0  0  0
   -0.6895   -9.5676   17.3297 C   0  0  0  0  0  0  0  0  0  0  0  0
    0.8388   -5.8417   27.5264 C   0  0  0  0  0  0  0  0  0  0  0  0
   -2.0709   -7.6637   18.7817 C   0  0  0  0  0  0  0  0  0  0  0  0
   -0.5279   -8.2168   17.0717 C   0  0  0  0  0  0  0  0  0  0  0  0
    6.9694   -4.0191   27.8190 C   0  0  0  0  0  0  0  0  0  0  0  0
    5.1733   -4.5469   29.8123 C   0  0  0  0  0  0  0  0  0  0  0  0
   -1.7508  -11.3016   18.6072 C   0  0  0  0  0  0  0  0  0  0  0  0
    1.7497   -5.6771   26.4971 C   0  0  0  0  0  0  0  0  0  0  0  0
   -1.5799   -9.9322   18.3468 C   0  0  0  0  0  0  0  0  0  0  0  0
   -1.0871  -12.2214   17.8851 C   0  0  0  0  0  0  0  0  0  0  0  0
   -2.2706   -8.9669   19.0691 C   0  0  0  0  0  0  0  0  0  0  0  0
    3.0279   -5.3073   26.8197 C   0  0  0  0  0  0  0  0  0  0  0  0
    7.3282   -3.8948   29.1186 C   0  0  0  0  0  0  0  0  0  0  0  0
  1  3  4  0
  1  7  4  0
  2  3  1  0
  2  6  4  0
  2 16  4  0
  3 22  4  0
  4  9  4  0
  4 10  1  0
  4 20  4  0
  5 16  4  0
  5 23  4  0
  6 15  4  0
  7 12  4  0
  8 13  4  0
  8 14  4  0
  9 11  4  0
 11 14  4  0
 11 19  4  0
 12 18  4  0
 13 21  4  0
 15 23  4  0
 17 19  4  0
 17 20  4  0
 18 22  4  0
 19 21  4  0
M  END
$$$$

 Created by Python create_sdf_string function

 23 25  0  0  0  0  0  0  0  0999 V2000
    2.4610   -5.3070   29.1240 C   0  0  0  0  0  0  0  0  0  0  0  0
    4.7710   -4.6952   28.4803 C   0  0  0  0  0  0  0  0  0  0  0  0
    3.4047   -5.1087   28.1314 C   0  0  0  0  0  0  0  0  0  0  0  0
   -0.2234  -11.8615   16.8874 C   0  0  0  0  0  0  0  0  0  0  0  0
    6.4491   -4.1532   30.1213 C   0  0  0  0  0  0  0  0  0  0  0  0
    5.7060   -4.4340   27.4975 C   0  0  0  0  0  0  0  0  0  0  0  0
    1.1818   -5.6612   28.8399 C   0  0  0  0  0  0  0  0  0  0  0  0
   -1.2067   -7.3287   17.7772 C   0  0  0  0  0  0  0  0  0  0  0  0
   -0.0206  -10.5585   16.6210 C   0  0  0  0  0  0  0  0  0  0  0  0
    0.3696  -12.7626   16.2169 O   0  0  0  0  0  0  0  0  0  0  0  0
   -0.6895   -9.5676   17.3297 C   0  0  0  0  0  0  0  0  0  0  0  0
    0.8388   -5.8417   27.5264 C   0  0  0  0  0  0  0  0  0  0  0  0
   -2.0709   -7.6637   18.7817 C   0  0  0  0  0  0  0  0  0  0  0  0
   -0.5279   -8.2168   17.0717 C   0  0  0  0  0  0  0  0  0  0  0  0
    6.9694   -4.0191   27.8190 C   0  0  0  0  0  0  0  0  0  0  0  0
    5.1733   -4.5469   29.8123 C   0  0  0  0  0  0  0  0  0  0  0  0
   -1.7508  -11.3016   18.6072 C   0  0  0  0  0  0  0  0  0  0  0  0
    1.7497   -5.6771   26.4971 C   0  0  0  0  0  0  0  0  0  0  0  0
   -1.5799   -9.9322   18.3468 C   0  0  0  0  0  0  0  0  0  0  0  0
   -1.0871  -12.2214   17.8851 C   0  0  0  0  0  0  0  0  0  0  0  0
   -2.2706   -8.9669   19.0691 C   0  0  0  0  0  0  0  0  0  0  0  0
    3.0279   -5.3073   26.8197 C   0  0  0  0  0  0  0  0  0  0  0  0
    7.3282   -3.8948   29.1186 C   0  0  0  0  0  0  0  0  0  0  0  0
  1  3  4  0
  1  7  4  0
  2  3  1  0
  2  6  4  0
  2 16  4  0
  3 22  4  0
  4  9  4  0
  4 10  1  0
  4 20  4  0
  5 16  4  0
  5 23  4  0
  6 15  4  0
  7 12  4  0
  8 13  4  0
  8 14  4  0
  9 11  4  0
 11 14  4  0
 11 19  4  0
 12 18  4  0
 13 21  4  0
 15 23  4  0
 17 19  4  0
 17 20  4  0
 18 22  4  0
 19 21  4  0
M  END
$$$$

 Created by Python create_sdf_string function

 23 25  0  0  0  0  0  0  0  0999 V2000
    2.4610   -5.3070   29.1240 C   0  0  0  0  0  0  0  0  0  0  0  0
    4.7710   -4.6952   28.4803 C   0  0  0  0  0  0  0  0  0  0  0  0
    3.4047   -5.1087   28.1314 C   0  0  0  0  0  0  0  0  0  0  0  0
   -0.2234  -11.8615   16.8874 C   0  0  0  0  0  0  0  0  0  0  0  0
    6.4491   -4.1532   30.1213 C   0  0  0  0  0  0  0  0  0  0  0  0
    5.7060   -4.4340   27.4975 C   0  0  0  0  0  0  0  0  0  0  0  0
    1.1818   -5.6612   28.8399 C   0  0  0  0  0  0  0  0  0  0  0  0
   -1.2067   -7.3287   17.7772 C   0  0  0  0  0  0  0  0  0  0  0  0
   -0.0206  -10.5585   16.6210 C   0  0  0  0  0  0  0  0  0  0  0  0
    0.3696  -12.7626   16.2169 O   0  0  0  0  0  0  0  0  0  0  0  0
   -0.6895   -9.5676   17.3297 C   0  0  0  0  0  0  0  0  0  0  0  0
    0.8388   -5.8417   27.5264 C   0  0  0  0  0  0  0  0  0  0  0  0
   -2.0709   -7.6637   18.7817 C   0  0  0  0  0  0  0  0  0  0  0  0
   -0.5279   -8.2168   17.0717 C   0  0  0  0  0  0  0  0  0  0  0  0
    6.9694   -4.0191   27.8190 C   0  0  0  0  0  0  0  0  0  0  0  0
    5.1733   -4.5469   29.8123 C   0  0  0  0  0  0  0  0  0  0  0  0
   -1.7508  -11.3016   18.6072 C   0  0  0  0  0  0  0  0  0  0  0  0
    1.7497   -5.6771   26.4971 C   0  0  0  0  0  0  0  0  0  0  0  0
   -1.5799   -9.9322   18.3468 C   0  0  0  0  0  0  0  0  0  0  0  0
   -1.0871  -12.2214   17.8851 C   0  0  0  0  0  0  0  0  0  0  0  0
   -2.2706   -8.9669   19.0691 C   0  0  0  0  0  0  0  0  0  0  0  0
    3.0279   -5.3073   26.8197 C   0  0  0  0  0  0  0  0  0  0  0  0
    7.3282   -3.8948   29.1186 C   0  0  0  0  0  0  0  0  0  0  0  0
  1  3  4  0
  1  7  4  0
  2  3  1  0
  2  6  4  0
  2 16  4  0
  3 22  4  0
  4  9  4  0
  4 10  1  0
  4 20  4  0
  5 16  4  0
  5 23  4  0
  6 15  4  0
  7 12  4  0
  8 13  4  0
  8 14  4  0
  9 11  4  0
 11 14  4  0
 11 19  4  0
 12 18  4  0
 13 21  4  0
 15 23  4  0
 17 19  4  0
 17 20  4  0
 18 22  4  0
 19 21  4  0
M  END
$$$$

 Created by Python create_sdf_string function

 23 25  0  0  0  0  0  0  0  0999 V2000
    2.4610   -5.3070   29.1240 C   0  0  0  0  0  0  0  0  0  0  0  0
    4.7710   -4.6952   28.4803 C   0  0  0  0  0  0  0  0  0  0  0  0
    3.4047   -5.1087   28.1314 C   0  0  0  0  0  0  0  0  0  0  0  0
   -0.2234  -11.8615   16.8874 C   0  0  0  0  0  0  0  0  0  0  0  0
    6.4491   -4.1532   30.1213 C   0  0  0  0  0  0  0  0  0  0  0  0
    5.7060   -4.4340   27.4975 C   0  0  0  0  0  0  0  0  0  0  0  0
    1.1818   -5.6612   28.8399 C   0  0  0  0  0  0  0  0  0  0  0  0
   -1.2067   -7.3287   17.7772 C   0  0  0  0  0  0  0  0  0  0  0  0
   -0.0206  -10.5585   16.6210 C   0  0  0  0  0  0  0  0  0  0  0  0
    0.3696  -12.7626   16.2169 O   0  0  0  0  0  0  0  0  0  0  0  0
   -0.6895   -9.5676   17.3297 C   0  0  0  0  0  0  0  0  0  0  0  0
    0.8388   -5.8417   27.5264 C   0  0  0  0  0  0  0  0  0  0  0  0
   -2.0709   -7.6637   18.7817 C   0  0  0  0  0  0  0  0  0  0  0  0
   -0.5279   -8.2168   17.0717 C   0  0  0  0  0  0  0  0  0  0  0  0
    6.9694   -4.0191   27.8190 C   0  0  0  0  0  0  0  0  0  0  0  0
    5.1733   -4.5469   29.8123 C   0  0  0  0  0  0  0  0  0  0  0  0
   -1.7508  -11.3016   18.6072 C   0  0  0  0  0  0  0  0  0  0  0  0
    1.7497   -5.6771   26.4971 C   0  0  0  0  0  0  0  0  0  0  0  0
   -1.5799   -9.9322   18.3468 C   0  0  0  0  0  0  0  0  0  0  0  0
   -1.0871  -12.2214   17.8851 C   0  0  0  0  0  0  0  0  0  0  0  0
   -2.2706   -8.9669   19.0691 C   0  0  0  0  0  0  0  0  0  0  0  0
    3.0279   -5.3073   26.8197 C   0  0  0  0  0  0  0  0  0  0  0  0
    7.3282   -3.8948   29.1186 C   0  0  0  0  0  0  0  0  0  0  0  0
  1  3  4  0
  1  7  4  0
  2  3  1  0
  2  6  4  0
  2 16  4  0
  3 22  4  0
  4  9  4  0
  4 10  1  0
  4 20  4  0
  5 16  4  0
  5 23  4  0
  6 15  4  0
  7 12  4  0
  8 13  4  0
  8 14  4  0
  9 11  4  0
 11 14  4  0
 11 19  4  0
 12 18  4  0
 13 21  4  0
 15 23  4  0
 17 19  4  0
 17 20  4  0
 18 22  4  0
 19 21  4  0
M  END
$$$$

 Created by Python create_sdf_string function

 23 25  0  0  0  0  0  0  0  0999 V2000
    2.4610   -5.3070   29.1240 C   0  0  0  0  0  0  0  0  0  0  0  0
    4.7710   -4.6952   28.4803 C   0  0  0  0  0  0  0  0  0  0  0  0
    3.4047   -5.1087   28.1314 C   0  0  0  0  0  0  0  0  0  0  0  0
   -0.2234  -11.8615   16.8874 C   0  0  0  0  0  0  0  0  0  0  0  0
    6.4491   -4.1532   30.1213 C   0  0  0  0  0  0  0  0  0  0  0  0
    5.7060   -4.4340   27.4975 C   0  0  0  0  0  0  0  0  0  0  0  0
    1.1818   -5.6612   28.8399 C   0  0  0  0  0  0  0  0  0  0  0  0
   -1.2067   -7.3287   17.7772 C   0  0  0  0  0  0  0  0  0  0  0  0
   -0.0206  -10.5585   16.6210 C   0  0  0  0  0  0  0  0  0  0  0  0
    0.3696  -12.7626   16.2169 O   0  0  0  0  0  0  0  0  0  0  0  0
   -0.6895   -9.5676   17.3297 C   0  0  0  0  0  0  0  0  0  0  0  0
    0.8388   -5.8417   27.5264 C   0  0  0  0  0  0  0  0  0  0  0  0
   -2.0709   -7.6637   18.7817 C   0  0  0  0  0  0  0  0  0  0  0  0
   -0.5279   -8.2168   17.0717 C   0  0  0  0  0  0  0  0  0  0  0  0
    6.9694   -4.0191   27.8190 C   0  0  0  0  0  0  0  0  0  0  0  0
    5.1733   -4.5469   29.8123 C   0  0  0  0  0  0  0  0  0  0  0  0
   -1.7508  -11.3016   18.6072 C   0  0  0  0  0  0  0  0  0  0  0  0
    1.7497   -5.6771   26.4971 C   0  0  0  0  0  0  0  0  0  0  0  0
   -1.5799   -9.9322   18.3468 C   0  0  0  0  0  0  0  0  0  0  0  0
   -1.0871  -12.2214   17.8851 C   0  0  0  0  0  0  0  0  0  0  0  0
   -2.2706   -8.9669   19.0691 C   0  0  0  0  0  0  0  0  0  0  0  0
    3.0279   -5.3073   26.8197 C   0  0  0  0  0  0  0  0  0  0  0  0
    7.3282   -3.8948   29.1186 C   0  0  0  0  0  0  0  0  0  0  0  0
  1  3  4  0
  1  7  4  0
  2  3  1  0
  2  6  4  0
  2 16  4  0
  3 22  4  0
  4  9  4  0
  4 10  1  0
  4 20  4  0
  5 16  4  0
  5 23  4  0
  6 15  4  0
  7 12  4  0
  8 13  4  0
  8 14  4  0
  9 11  4  0
 11 14  4  0
 11 19  4  0
 12 18  4  0
 13 21  4  0
 15 23  4  0
 17 19  4  0
 17 20  4  0
 18 22  4  0
 19 21  4  0
M  END
$$$$

 Created by Python create_sdf_string function

 23 25  0  0  0  0  0  0  0  0999 V2000
    2.4610   -5.3070   29.1240 C   0  0  0  0  0  0  0  0  0  0  0  0
    4.7710   -4.6952   28.4803 C   0  0  0  0  0  0  0  0  0  0  0  0
    3.4047   -5.1087   28.1314 C   0  0  0  0  0  0  0  0  0  0  0  0
   -0.2234  -11.8615   16.8874 C   0  0  0  0  0  0  0  0  0  0  0  0
    6.4491   -4.1532   30.1213 C   0  0  0  0  0  0  0  0  0  0  0  0
    5.7060   -4.4340   27.4975 C   0  0  0  0  0  0  0  0  0  0  0  0
    1.1818   -5.6612   28.8399 C   0  0  0  0  0  0  0  0  0  0  0  0
   -1.2067   -7.3287   17.7772 C   0  0  0  0  0  0  0  0  0  0  0  0
   -0.0206  -10.5585   16.6210 C   0  0  0  0  0  0  0  0  0  0  0  0
    0.3696  -12.7626   16.2169 O   0  0  0  0  0  0  0  0  0  0  0  0
   -0.6895   -9.5676   17.3297 C   0  0  0  0  0  0  0  0  0  0  0  0
    0.8388   -5.8417   27.5264 C   0  0  0  0  0  0  0  0  0  0  0  0
   -2.0709   -7.6637   18.7817 C   0  0  0  0  0  0  0  0  0  0  0  0
   -0.5279   -8.2168   17.0717 C   0  0  0  0  0  0  0  0  0  0  0  0
    6.9694   -4.0191   27.8190 C   0  0  0  0  0  0  0  0  0  0  0  0
    5.1733   -4.5469   29.8123 C   0  0  0  0  0  0  0  0  0  0  0  0
   -1.7508  -11.3016   18.6072 C   0  0  0  0  0  0  0  0  0  0  0  0
    1.7497   -5.6771   26.4971 C   0  0  0  0  0  0  0  0  0  0  0  0
   -1.5799   -9.9322   18.3468 C   0  0  0  0  0  0  0  0  0  0  0  0
   -1.0871  -12.2214   17.8851 C   0  0  0  0  0  0  0  0  0  0  0  0
   -2.2706   -8.9669   19.0691 C   0  0  0  0  0  0  0  0  0  0  0  0
    3.0279   -5.3073   26.8197 C   0  0  0  0  0  0  0  0  0  0  0  0
    7.3282   -3.8948   29.1186 C   0  0  0  0  0  0  0  0  0  0  0  0
  1  3  4  0
  1  7  4  0
  2  3  1  0
  2  6  4  0
  2 16  4  0
  3 22  4  0
  4  9  4  0
  4 10  1  0
  4 20  4  0
  5 16  4  0
  5 23  4  0
  6 15  4  0
  7 12  4  0
  8 13  4  0
  8 14  4  0
  9 11  4  0
 11 14  4  0
 11 19  4  0
 12 18  4  0
 13 21  4  0
 15 23  4  0
 17 19  4  0
 17 20  4  0
 18 22  4  0
 19 21  4  0
M  END
$$$$

 Created by Python create_sdf_string function

 23 25  0  0  0  0  0  0  0  0999 V2000
    2.4610   -5.3070   29.1240 C   0  0  0  0  0  0  0  0  0  0  0  0
    4.7710   -4.6952   28.4803 C   0  0  0  0  0  0  0  0  0  0  0  0
    3.4047   -5.1087   28.1314 C   0  0  0  0  0  0  0  0  0  0  0  0
   -0.2234  -11.8615   16.8874 C   0  0  0  0  0  0  0  0  0  0  0  0
    6.4491   -4.1532   30.1213 C   0  0  0  0  0  0  0  0  0  0  0  0
    5.7060   -4.4340   27.4975 C   0  0  0  0  0  0  0  0  0  0  0  0
    1.1818   -5.6612   28.8399 C   0  0  0  0  0  0  0  0  0  0  0  0
   -1.2067   -7.3287   17.7772 C   0  0  0  0  0  0  0  0  0  0  0  0
   -0.0206  -10.5585   16.6210 C   0  0  0  0  0  0  0  0  0  0  0  0
    0.3696  -12.7626   16.2169 O   0  0  0  0  0  0  0  0  0  0  0  0
   -0.6895   -9.5676   17.3297 C   0  0  0  0  0  0  0  0  0  0  0  0
    0.8388   -5.8417   27.5264 C   0  0  0  0  0  0  0  0  0  0  0  0
   -2.0709   -7.6637   18.7817 C   0  0  0  0  0  0  0  0  0  0  0  0
   -0.5279   -8.2168   17.0717 C   0  0  0  0  0  0  0  0  0  0  0  0
    6.9694   -4.0191   27.8190 C   0  0  0  0  0  0  0  0  0  0  0  0
    5.1733   -4.5469   29.8123 C   0  0  0  0  0  0  0  0  0  0  0  0
   -1.7508  -11.3016   18.6072 C   0  0  0  0  0  0  0  0  0  0  0  0
    1.7497   -5.6771   26.4971 C   0  0  0  0  0  0  0  0  0  0  0  0
   -1.5799   -9.9322   18.3468 C   0  0  0  0  0  0  0  0  0  0  0  0
   -1.0871  -12.2214   17.8851 C   0  0  0  0  0  0  0  0  0  0  0  0
   -2.2706   -8.9669   19.0691 C   0  0  0  0  0  0  0  0  0  0  0  0
    3.0279   -5.3073   26.8197 C   0  0  0  0  0  0  0  0  0  0  0  0
    7.3282   -3.8948   29.1186 C   0  0  0  0  0  0  0  0  0  0  0  0
  1  3  4  0
  1  7  4  0
  2  3  1  0
  2  6  4  0
  2 16  4  0
  3 22  4  0
  4  9  4  0
  4 10  1  0
  4 20  4  0
  5 16  4  0
  5 23  4  0
  6 15  4  0
  7 12  4  0
  8 13  4  0
  8 14  4  0
  9 11  4  0
 11 14  4  0
 11 19  4  0
 12 18  4  0
 13 21  4  0
 15 23  4  0
 17 19  4  0
 17 20  4  0
 18 22  4  0
 19 21  4  0
M  END
$$$$

 Created by Python create_sdf_string function

 23 25  0  0  0  0  0  0  0  0999 V2000
    2.4610   -5.3070   29.1240 C   0  0  0  0  0  0  0  0  0  0  0  0
    4.7710   -4.6952   28.4803 C   0  0  0  0  0  0  0  0  0  0  0  0
    3.4047   -5.1087   28.1314 C   0  0  0  0  0  0  0  0  0  0  0  0
   -0.2234  -11.8615   16.8874 C   0  0  0  0  0  0  0  0  0  0  0  0
    6.4491   -4.1532   30.1213 C   0  0  0  0  0  0  0  0  0  0  0  0
    5.7060   -4.4340   27.4975 C   0  0  0  0  0  0  0  0  0  0  0  0
    1.1818   -5.6612   28.8399 C   0  0  0  0  0  0  0  0  0  0  0  0
   -1.2067   -7.3287   17.7772 C   0  0  0  0  0  0  0  0  0  0  0  0
   -0.0206  -10.5585   16.6210 C   0  0  0  0  0  0  0  0  0  0  0  0
    0.3696  -12.7626   16.2169 O   0  0  0  0  0  0  0  0  0  0  0  0
   -0.6895   -9.5676   17.3297 C   0  0  0  0  0  0  0  0  0  0  0  0
    0.8388   -5.8417   27.5264 C   0  0  0  0  0  0  0  0  0  0  0  0
   -2.0709   -7.6637   18.7817 C   0  0  0  0  0  0  0  0  0  0  0  0
   -0.5279   -8.2168   17.0717 C   0  0  0  0  0  0  0  0  0  0  0  0
    6.9694   -4.0191   27.8190 C   0  0  0  0  0  0  0  0  0  0  0  0
    5.1733   -4.5469   29.8123 C   0  0  0  0  0  0  0  0  0  0  0  0
   -1.7508  -11.3016   18.6072 C   0  0  0  0  0  0  0  0  0  0  0  0
    1.7497   -5.6771   26.4971 C   0  0  0  0  0  0  0  0  0  0  0  0
   -1.5799   -9.9322   18.3468 C   0  0  0  0  0  0  0  0  0  0  0  0
   -1.0871  -12.2214   17.8851 C   0  0  0  0  0  0  0  0  0  0  0  0
   -2.2706   -8.9669   19.0691 C   0  0  0  0  0  0  0  0  0  0  0  0
    3.0279   -5.3073   26.8197 C   0  0  0  0  0  0  0  0  0  0  0  0
    7.3282   -3.8948   29.1186 C   0  0  0  0  0  0  0  0  0  0  0  0
  1  3  4  0
  1  7  4  0
  2  3  1  0
  2  6  4  0
  2 16  4  0
  3 22  4  0
  4  9  4  0
  4 10  1  0
  4 20  4  0
  5 16  4  0
  5 23  4  0
  6 15  4  0
  7 12  4  0
  8 13  4  0
  8 14  4  0
  9 11  4  0
 11 14  4  0
 11 19  4  0
 12 18  4  0
 13 21  4  0
 15 23  4  0
 17 19  4  0
 17 20  4  0
 18 22  4  0
 19 21  4  0
M  END
$$$$

 Created by Python create_sdf_string function

 23 25  0  0  0  0  0  0  0  0999 V2000
    2.4610   -5.3070   29.1240 C   0  0  0  0  0  0  0  0  0  0  0  0
    4.7710   -4.6952   28.4803 C   0  0  0  0  0  0  0  0  0  0  0  0
    3.4047   -5.1087   28.1314 C   0  0  0  0  0  0  0  0  0  0  0  0
   -0.2234  -11.8615   16.8874 C   0  0  0  0  0  0  0  0  0  0  0  0
    6.4491   -4.1532   30.1213 C   0  0  0  0  0  0  0  0  0  0  0  0
    5.7060   -4.4340   27.4975 C   0  0  0  0  0  0  0  0  0  0  0  0
    1.1818   -5.6612   28.8399 C   0  0  0  0  0  0  0  0  0  0  0  0
   -1.2067   -7.3287   17.7772 C   0  0  0  0  0  0  0  0  0  0  0  0
   -0.0206  -10.5585   16.6210 C   0  0  0  0  0  0  0  0  0  0  0  0
    0.3696  -12.7626   16.2169 O   0  0  0  0  0  0  0  0  0  0  0  0
   -0.6895   -9.5676   17.3297 C   0  0  0  0  0  0  0  0  0  0  0  0
    0.8388   -5.8417   27.5264 C   0  0  0  0  0  0  0  0  0  0  0  0
   -2.0709   -7.6637   18.7817 C   0  0  0  0  0  0  0  0  0  0  0  0
   -0.5279   -8.2168   17.0717 C   0  0  0  0  0  0  0  0  0  0  0  0
    6.9694   -4.0191   27.8190 C   0  0  0  0  0  0  0  0  0  0  0  0
    5.1733   -4.5469   29.8123 C   0  0  0  0  0  0  0  0  0  0  0  0
   -1.7508  -11.3016   18.6072 C   0  0  0  0  0  0  0  0  0  0  0  0
    1.7497   -5.6771   26.4971 C   0  0  0  0  0  0  0  0  0  0  0  0
   -1.5799   -9.9322   18.3468 C   0  0  0  0  0  0  0  0  0  0  0  0
   -1.0871  -12.2214   17.8851 C   0  0  0  0  0  0  0  0  0  0  0  0
   -2.2706   -8.9669   19.0691 C   0  0  0  0  0  0  0  0  0  0  0  0
    3.0279   -5.3073   26.8197 C   0  0  0  0  0  0  0  0  0  0  0  0
    7.3282   -3.8948   29.1186 C   0  0  0  0  0  0  0  0  0  0  0  0
  1  3  4  0
  1  7  4  0
  2  3  1  0
  2  6  4  0
  2 16  4  0
  3 22  4  0
  4  9  4  0
  4 10  1  0
  4 20  4  0
  5 16  4  0
  5 23  4  0
  6 15  4  0
  7 12  4  0
  8 13  4  0
  8 14  4  0
  9 11  4  0
 11 14  4  0
 11 19  4  0
 12 18  4  0
 13 21  4  0
 15 23  4  0
 17 19  4  0
 17 20  4  0
 18 22  4  0
 19 21  4  0
M  END
$$$$

 Created by Python create_sdf_string function

 23 25  0  0  0  0  0  0  0  0999 V2000
    2.4610   -5.3070   29.1240 C   0  0  0  0  0  0  0  0  0  0  0  0
    4.7710   -4.6952   28.4803 C   0  0  0  0  0  0  0  0  0  0  0  0
    3.4047   -5.1087   28.1314 C   0  0  0  0  0  0  0  0  0  0  0  0
   -0.2234  -11.8615   16.8874 C   0  0  0  0  0  0  0  0  0  0  0  0
    6.4491   -4.1532   30.1213 C   0  0  0  0  0  0  0  0  0  0  0  0
    5.7060   -4.4340   27.4975 C   0  0  0  0  0  0  0  0  0  0  0  0
    1.1818   -5.6612   28.8399 C   0  0  0  0  0  0  0  0  0  0  0  0
   -1.2067   -7.3287   17.7772 C   0  0  0  0  0  0  0  0  0  0  0  0
   -0.0206  -10.5585   16.6210 C   0  0  0  0  0  0  0  0  0  0  0  0
    0.3696  -12.7626   16.2169 O   0  0  0  0  0  0  0  0  0  0  0  0
   -0.6895   -9.5676   17.3297 C   0  0  0  0  0  0  0  0  0  0  0  0
    0.8388   -5.8417   27.5264 C   0  0  0  0  0  0  0  0  0  0  0  0
   -2.0709   -7.6637   18.7817 C   0  0  0  0  0  0  0  0  0  0  0  0
   -0.5279   -8.2168   17.0717 C   0  0  0  0  0  0  0  0  0  0  0  0
    6.9694   -4.0191   27.8190 C   0  0  0  0  0  0  0  0  0  0  0  0
    5.1733   -4.5469   29.8123 C   0  0  0  0  0  0  0  0  0  0  0  0
   -1.7508  -11.3016   18.6072 C   0  0  0  0  0  0  0  0  0  0  0  0
    1.7497   -5.6771   26.4971 C   0  0  0  0  0  0  0  0  0  0  0  0
   -1.5799   -9.9322   18.3468 C   0  0  0  0  0  0  0  0  0  0  0  0
   -1.0871  -12.2214   17.8851 C   0  0  0  0  0  0  0  0  0  0  0  0
   -2.2706   -8.9669   19.0691 C   0  0  0  0  0  0  0  0  0  0  0  0
    3.0279   -5.3073   26.8197 C   0  0  0  0  0  0  0  0  0  0  0  0
    7.3282   -3.8948   29.1186 C   0  0  0  0  0  0  0  0  0  0  0  0
  1  3  4  0
  1  7  4  0
  2  3  1  0
  2  6  4  0
  2 16  4  0
  3 22  4  0
  4  9  4  0
  4 10  1  0
  4 20  4  0
  5 16  4  0
  5 23  4  0
  6 15  4  0
  7 12  4  0
  8 13  4  0
  8 14  4  0
  9 11  4  0
 11 14  4  0
 11 19  4  0
 12 18  4  0
 13 21  4  0
 15 23  4  0
 17 19  4  0
 17 20  4  0
 18 22  4  0
 19 21  4  0
M  END
$$$$

 Created by Python create_sdf_string function

 23 25  0  0  0  0  0  0  0  0999 V2000
    2.4610   -5.3070   29.1240 C   0  0  0  0  0  0  0  0  0  0  0  0
    4.7710   -4.6952   28.4803 C   0  0  0  0  0  0  0  0  0  0  0  0
    3.4047   -5.1087   28.1314 C   0  0  0  0  0  0  0  0  0  0  0  0
   -0.2234  -11.8615   16.8874 C   0  0  0  0  0  0  0  0  0  0  0  0
    6.4491   -4.1532   30.1213 C   0  0  0  0  0  0  0  0  0  0  0  0
    5.7060   -4.4340   27.4975 C   0  0  0  0  0  0  0  0  0  0  0  0
    1.1818   -5.6612   28.8399 C   0  0  0  0  0  0  0  0  0  0  0  0
   -1.2067   -7.3287   17.7772 C   0  0  0  0  0  0  0  0  0  0  0  0
   -0.0206  -10.5585   16.6210 C   0  0  0  0  0  0  0  0  0  0  0  0
    0.3696  -12.7626   16.2169 O   0  0  0  0  0  0  0  0  0  0  0  0
   -0.6895   -9.5676   17.3297 C   0  0  0  0  0  0  0  0  0  0  0  0
    0.8388   -5.8417   27.5264 C   0  0  0  0  0  0  0  0  0  0  0  0
   -2.0709   -7.6637   18.7817 C   0  0  0  0  0  0  0  0  0  0  0  0
   -0.5279   -8.2168   17.0717 C   0  0  0  0  0  0  0  0  0  0  0  0
    6.9694   -4.0191   27.8190 C   0  0  0  0  0  0  0  0  0  0  0  0
    5.1733   -4.5469   29.8123 C   0  0  0  0  0  0  0  0  0  0  0  0
   -1.7508  -11.3016   18.6072 C   0  0  0  0  0  0  0  0  0  0  0  0
    1.7497   -5.6771   26.4971 C   0  0  0  0  0  0  0  0  0  0  0  0
   -1.5799   -9.9322   18.3468 C   0  0  0  0  0  0  0  0  0  0  0  0
   -1.0871  -12.2214   17.8851 C   0  0  0  0  0  0  0  0  0  0  0  0
   -2.2706   -8.9669   19.0691 C   0  0  0  0  0  0  0  0  0  0  0  0
    3.0279   -5.3073   26.8197 C   0  0  0  0  0  0  0  0  0  0  0  0
    7.3282   -3.8948   29.1186 C   0  0  0  0  0  0  0  0  0  0  0  0
  1  3  4  0
  1  7  4  0
  2  3  1  0
  2  6  4  0
  2 16  4  0
  3 22  4  0
  4  9  4  0
  4 10  1  0
  4 20  4  0
  5 16  4  0
  5 23  4  0
  6 15  4  0
  7 12  4  0
  8 13  4  0
  8 14  4  0
  9 11  4  0
 11 14  4  0
 11 19  4  0
 12 18  4  0
 13 21  4  0
 15 23  4  0
 17 19  4  0
 17 20  4  0
 18 22  4  0
 19 21  4  0
M  END
$$$$

 Created by Python create_sdf_string function

 23 25  0  0  0  0  0  0  0  0999 V2000
    2.4610   -5.3070   29.1240 C   0  0  0  0  0  0  0  0  0  0  0  0
    4.7710   -4.6952   28.4803 C   0  0  0  0  0  0  0  0  0  0  0  0
    3.4047   -5.1087   28.1314 C   0  0  0  0  0  0  0  0  0  0  0  0
   -0.2234  -11.8615   16.8874 C   0  0  0  0  0  0  0  0  0  0  0  0
    6.4491   -4.1532   30.1213 C   0  0  0  0  0  0  0  0  0  0  0  0
    5.7060   -4.4340   27.4975 C   0  0  0  0  0  0  0  0  0  0  0  0
    1.1818   -5.6612   28.8399 C   0  0  0  0  0  0  0  0  0  0  0  0
   -1.2067   -7.3287   17.7772 C   0  0  0  0  0  0  0  0  0  0  0  0
   -0.0206  -10.5585   16.6210 C   0  0  0  0  0  0  0  0  0  0  0  0
    0.3696  -12.7626   16.2169 O   0  0  0  0  0  0  0  0  0  0  0  0
   -0.6895   -9.5676   17.3297 C   0  0  0  0  0  0  0  0  0  0  0  0
    0.8388   -5.8417   27.5264 C   0  0  0  0  0  0  0  0  0  0  0  0
   -2.0709   -7.6637   18.7817 C   0  0  0  0  0  0  0  0  0  0  0  0
   -0.5279   -8.2168   17.0717 C   0  0  0  0  0  0  0  0  0  0  0  0
    6.9694   -4.0191   27.8190 C   0  0  0  0  0  0  0  0  0  0  0  0
    5.1733   -4.5469   29.8123 C   0  0  0  0  0  0  0  0  0  0  0  0
   -1.7508  -11.3016   18.6072 C   0  0  0  0  0  0  0  0  0  0  0  0
    1.7497   -5.6771   26.4971 C   0  0  0  0  0  0  0  0  0  0  0  0
   -1.5799   -9.9322   18.3468 C   0  0  0  0  0  0  0  0  0  0  0  0
   -1.0871  -12.2214   17.8851 C   0  0  0  0  0  0  0  0  0  0  0  0
   -2.2706   -8.9669   19.0691 C   0  0  0  0  0  0  0  0  0  0  0  0
    3.0279   -5.3073   26.8197 C   0  0  0  0  0  0  0  0  0  0  0  0
    7.3282   -3.8948   29.1186 C   0  0  0  0  0  0  0  0  0  0  0  0
  1  3  4  0
  1  7  4  0
  2  3  1  0
  2  6  4  0
  2 16  4  0
  3 22  4  0
  4  9  4  0
  4 10  1  0
  4 20  4  0
  5 16  4  0
  5 23  4  0
  6 15  4  0
  7 12  4  0
  8 13  4  0
  8 14  4  0
  9 11  4  0
 11 14  4  0
 11 19  4  0
 12 18  4  0
 13 21  4  0
 15 23  4  0
 17 19  4  0
 17 20  4  0
 18 22  4  0
 19 21  4  0
M  END
$$$$

 Created by Python create_sdf_string function

 23 25  0  0  0  0  0  0  0  0999 V2000
    2.4610   -5.3070   29.1240 C   0  0  0  0  0  0  0  0  0  0  0  0
    4.7710   -4.6952   28.4803 C   0  0  0  0  0  0  0  0  0  0  0  0
    3.4047   -5.1087   28.1314 C   0  0  0  0  0  0  0  0  0  0  0  0
   -0.2234  -11.8615   16.8874 C   0  0  0  0  0  0  0  0  0  0  0  0
    6.4491   -4.1532   30.1213 C   0  0  0  0  0  0  0  0  0  0  0  0
    5.7060   -4.4340   27.4975 C   0  0  0  0  0  0  0  0  0  0  0  0
    1.1818   -5.6612   28.8399 C   0  0  0  0  0  0  0  0  0  0  0  0
   -1.2067   -7.3287   17.7772 C   0  0  0  0  0  0  0  0  0  0  0  0
   -0.0206  -10.5585   16.6210 C   0  0  0  0  0  0  0  0  0  0  0  0
    0.3696  -12.7626   16.2169 O   0  0  0  0  0  0  0  0  0  0  0  0
   -0.6895   -9.5676   17.3297 C   0  0  0  0  0  0  0  0  0  0  0  0
    0.8388   -5.8417   27.5264 C   0  0  0  0  0  0  0  0  0  0  0  0
   -2.0709   -7.6637   18.7817 C   0  0  0  0  0  0  0  0  0  0  0  0
   -0.5279   -8.2168   17.0717 C   0  0  0  0  0  0  0  0  0  0  0  0
    6.9694   -4.0191   27.8190 C   0  0  0  0  0  0  0  0  0  0  0  0
    5.1733   -4.5469   29.8123 C   0  0  0  0  0  0  0  0  0  0  0  0
   -1.7508  -11.3016   18.6072 C   0  0  0  0  0  0  0  0  0  0  0  0
    1.7497   -5.6771   26.4971 C   0  0  0  0  0  0  0  0  0  0  0  0
   -1.5799   -9.9322   18.3468 C   0  0  0  0  0  0  0  0  0  0  0  0
   -1.0871  -12.2214   17.8851 C   0  0  0  0  0  0  0  0  0  0  0  0
   -2.2706   -8.9669   19.0691 C   0  0  0  0  0  0  0  0  0  0  0  0
    3.0279   -5.3073   26.8197 C   0  0  0  0  0  0  0  0  0  0  0  0
    7.3282   -3.8948   29.1186 C   0  0  0  0  0  0  0  0  0  0  0  0
  1  3  4  0
  1  7  4  0
  2  3  1  0
  2  6  4  0
  2 16  4  0
  3 22  4  0
  4  9  4  0
  4 10  1  0
  4 20  4  0
  5 16  4  0
  5 23  4  0
  6 15  4  0
  7 12  4  0
  8 13  4  0
  8 14  4  0
  9 11  4  0
 11 14  4  0
 11 19  4  0
 12 18  4  0
 13 21  4  0
 15 23  4  0
 17 19  4  0
 17 20  4  0
 18 22  4  0
 19 21  4  0
M  END
$$$$

 Created by Python create_sdf_string function

 23 25  0  0  0  0  0  0  0  0999 V2000
    2.4610   -5.3070   29.1240 C   0  0  0  0  0  0  0  0  0  0  0  0
    4.7710   -4.6952   28.4803 C   0  0  0  0  0  0  0  0  0  0  0  0
    3.4047   -5.1087   28.1314 C   0  0  0  0  0  0  0  0  0  0  0  0
   -0.2234  -11.8615   16.8874 C   0  0  0  0  0  0  0  0  0  0  0  0
    6.4491   -4.1532   30.1213 C   0  0  0  0  0  0  0  0  0  0  0  0
    5.7060   -4.4340   27.4975 C   0  0  0  0  0  0  0  0  0  0  0  0
    1.1818   -5.6612   28.8399 C   0  0  0  0  0  0  0  0  0  0  0  0
   -1.2067   -7.3287   17.7772 C   0  0  0  0  0  0  0  0  0  0  0  0
   -0.0206  -10.5585   16.6210 C   0  0  0  0  0  0  0  0  0  0  0  0
    0.3696  -12.7626   16.2169 O   0  0  0  0  0  0  0  0  0  0  0  0
   -0.6895   -9.5676   17.3297 C   0  0  0  0  0  0  0  0  0  0  0  0
    0.8388   -5.8417   27.5264 C   0  0  0  0  0  0  0  0  0  0  0  0
   -2.0709   -7.6637   18.7817 C   0  0  0  0  0  0  0  0  0  0  0  0
   -0.5279   -8.2168   17.0717 C   0  0  0  0  0  0  0  0  0  0  0  0
    6.9694   -4.0191   27.8190 C   0  0  0  0  0  0  0  0  0  0  0  0
    5.1733   -4.5469   29.8123 C   0  0  0  0  0  0  0  0  0  0  0  0
   -1.7508  -11.3016   18.6072 C   0  0  0  0  0  0  0  0  0  0  0  0
    1.7497   -5.6771   26.4971 C   0  0  0  0  0  0  0  0  0  0  0  0
   -1.5799   -9.9322   18.3468 C   0  0  0  0  0  0  0  0  0  0  0  0
   -1.0871  -12.2214   17.8851 C   0  0  0  0  0  0  0  0  0  0  0  0
   -2.2706   -8.9669   19.0691 C   0  0  0  0  0  0  0  0  0  0  0  0
    3.0279   -5.3073   26.8197 C   0  0  0  0  0  0  0  0  0  0  0  0
    7.3282   -3.8948   29.1186 C   0  0  0  0  0  0  0  0  0  0  0  0
  1  3  4  0
  1  7  4  0
  2  3  1  0
  2  6  4  0
  2 16  4  0
  3 22  4  0
  4  9  4  0
  4 10  1  0
  4 20  4  0
  5 16  4  0
  5 23  4  0
  6 15  4  0
  7 12  4  0
  8 13  4  0
  8 14  4  0
  9 11  4  0
 11 14  4  0
 11 19  4  0
 12 18  4  0
 13 21  4  0
 15 23  4  0
 17 19  4  0
 17 20  4  0
 18 22  4  0
 19 21  4  0
M  END
$$$$

 Created by Python create_sdf_string function

 23 25  0  0  0  0  0  0  0  0999 V2000
    2.4610   -5.3070   29.1240 C   0  0  0  0  0  0  0  0  0  0  0  0
    4.7710   -4.6952   28.4803 C   0  0  0  0  0  0  0  0  0  0  0  0
    3.4047   -5.1087   28.1314 C   0  0  0  0  0  0  0  0  0  0  0  0
   -0.2234  -11.8615   16.8874 C   0  0  0  0  0  0  0  0  0  0  0  0
    6.4491   -4.1532   30.1213 C   0  0  0  0  0  0  0  0  0  0  0  0
    5.7060   -4.4340   27.4975 C   0  0  0  0  0  0  0  0  0  0  0  0
    1.1818   -5.6612   28.8399 C   0  0  0  0  0  0  0  0  0  0  0  0
   -1.2067   -7.3287   17.7772 C   0  0  0  0  0  0  0  0  0  0  0  0
   -0.0206  -10.5585   16.6210 C   0  0  0  0  0  0  0  0  0  0  0  0
    0.3696  -12.7626   16.2169 O   0  0  0  0  0  0  0  0  0  0  0  0
   -0.6895   -9.5676   17.3297 C   0  0  0  0  0  0  0  0  0  0  0  0
    0.8388   -5.8417   27.5264 C   0  0  0  0  0  0  0  0  0  0  0  0
   -2.0709   -7.6637   18.7817 C   0  0  0  0  0  0  0  0  0  0  0  0
   -0.5279   -8.2168   17.0717 C   0  0  0  0  0  0  0  0  0  0  0  0
    6.9694   -4.0191   27.8190 C   0  0  0  0  0  0  0  0  0  0  0  0
    5.1733   -4.5469   29.8123 C   0  0  0  0  0  0  0  0  0  0  0  0
   -1.7508  -11.3016   18.6072 C   0  0  0  0  0  0  0  0  0  0  0  0
    1.7497   -5.6771   26.4971 C   0  0  0  0  0  0  0  0  0  0  0  0
   -1.5799   -9.9322   18.3468 C   0  0  0  0  0  0  0  0  0  0  0  0
   -1.0871  -12.2214   17.8851 C   0  0  0  0  0  0  0  0  0  0  0  0
   -2.2706   -8.9669   19.0691 C   0  0  0  0  0  0  0  0  0  0  0  0
    3.0279   -5.3073   26.8197 C   0  0  0  0  0  0  0  0  0  0  0  0
    7.3282   -3.8948   29.1186 C   0  0  0  0  0  0  0  0  0  0  0  0
  1  3  4  0
  1  7  4  0
  2  3  1  0
  2  6  4  0
  2 16  4  0
  3 22  4  0
  4  9  4  0
  4 10  1  0
  4 20  4  0
  5 16  4  0
  5 23  4  0
  6 15  4  0
  7 12  4  0
  8 13  4  0
  8 14  4  0
  9 11  4  0
 11 14  4  0
 11 19  4  0
 12 18  4  0
 13 21  4  0
 15 23  4  0
 17 19  4  0
 17 20  4  0
 18 22  4  0
 19 21  4  0
M  END
$$$$

 Created by Python create_sdf_string function

 23 25  0  0  0  0  0  0  0  0999 V2000
    2.4610   -5.3070   29.1240 C   0  0  0  0  0  0  0  0  0  0  0  0
    4.7710   -4.6952   28.4803 C   0  0  0  0  0  0  0  0  0  0  0  0
    3.4047   -5.1087   28.1314 C   0  0  0  0  0  0  0  0  0  0  0  0
   -0.2234  -11.8615   16.8874 C   0  0  0  0  0  0  0  0  0  0  0  0
    6.4491   -4.1532   30.1213 C   0  0  0  0  0  0  0  0  0  0  0  0
    5.7060   -4.4340   27.4975 C   0  0  0  0  0  0  0  0  0  0  0  0
    1.1818   -5.6612   28.8399 C   0  0  0  0  0  0  0  0  0  0  0  0
   -1.2067   -7.3287   17.7772 C   0  0  0  0  0  0  0  0  0  0  0  0
   -0.0206  -10.5585   16.6210 C   0  0  0  0  0  0  0  0  0  0  0  0
    0.3696  -12.7626   16.2169 O   0  0  0  0  0  0  0  0  0  0  0  0
   -0.6895   -9.5676   17.3297 C   0  0  0  0  0  0  0  0  0  0  0  0
    0.8388   -5.8417   27.5264 C   0  0  0  0  0  0  0  0  0  0  0  0
   -2.0709   -7.6637   18.7817 C   0  0  0  0  0  0  0  0  0  0  0  0
   -0.5279   -8.2168   17.0717 C   0  0  0  0  0  0  0  0  0  0  0  0
    6.9694   -4.0191   27.8190 C   0  0  0  0  0  0  0  0  0  0  0  0
    5.1733   -4.5469   29.8123 C   0  0  0  0  0  0  0  0  0  0  0  0
   -1.7508  -11.3016   18.6072 C   0  0  0  0  0  0  0  0  0  0  0  0
    1.7497   -5.6771   26.4971 C   0  0  0  0  0  0  0  0  0  0  0  0
   -1.5799   -9.9322   18.3468 C   0  0  0  0  0  0  0  0  0  0  0  0
   -1.0871  -12.2214   17.8851 C   0  0  0  0  0  0  0  0  0  0  0  0
   -2.2706   -8.9669   19.0691 C   0  0  0  0  0  0  0  0  0  0  0  0
    3.0279   -5.3073   26.8197 C   0  0  0  0  0  0  0  0  0  0  0  0
    7.3282   -3.8948   29.1186 C   0  0  0  0  0  0  0  0  0  0  0  0
  1  3  4  0
  1  7  4  0
  2  3  1  0
  2  6  4  0
  2 16  4  0
  3 22  4  0
  4  9  4  0
  4 10  1  0
  4 20  4  0
  5 16  4  0
  5 23  4  0
  6 15  4  0
  7 12  4  0
  8 13  4  0
  8 14  4  0
  9 11  4  0
 11 14  4  0
 11 19  4  0
 12 18  4  0
 13 21  4  0
 15 23  4  0
 17 19  4  0
 17 20  4  0
 18 22  4  0
 19 21  4  0
M  END
$$$$

 Created by Python create_sdf_string function

 23 25  0  0  0  0  0  0  0  0999 V2000
    2.4610   -5.3070   29.1240 C   0  0  0  0  0  0  0  0  0  0  0  0
    4.7710   -4.6952   28.4803 C   0  0  0  0  0  0  0  0  0  0  0  0
    3.4047   -5.1087   28.1314 C   0  0  0  0  0  0  0  0  0  0  0  0
   -0.2234  -11.8615   16.8874 C   0  0  0  0  0  0  0  0  0  0  0  0
    6.4491   -4.1532   30.1213 C   0  0  0  0  0  0  0  0  0  0  0  0
    5.7060   -4.4340   27.4975 C   0  0  0  0  0  0  0  0  0  0  0  0
    1.1818   -5.6612   28.8399 C   0  0  0  0  0  0  0  0  0  0  0  0
   -1.2067   -7.3287   17.7772 C   0  0  0  0  0  0  0  0  0  0  0  0
   -0.0206  -10.5585   16.6210 C   0  0  0  0  0  0  0  0  0  0  0  0
    0.3696  -12.7626   16.2169 O   0  0  0  0  0  0  0  0  0  0  0  0
   -0.6895   -9.5676   17.3297 C   0  0  0  0  0  0  0  0  0  0  0  0
    0.8388   -5.8417   27.5264 C   0  0  0  0  0  0  0  0  0  0  0  0
   -2.0709   -7.6637   18.7817 C   0  0  0  0  0  0  0  0  0  0  0  0
   -0.5279   -8.2168   17.0717 C   0  0  0  0  0  0  0  0  0  0  0  0
    6.9694   -4.0191   27.8190 C   0  0  0  0  0  0  0  0  0  0  0  0
    5.1733   -4.5469   29.8123 C   0  0  0  0  0  0  0  0  0  0  0  0
   -1.7508  -11.3016   18.6072 C   0  0  0  0  0  0  0  0  0  0  0  0
    1.7497   -5.6771   26.4971 C   0  0  0  0  0  0  0  0  0  0  0  0
   -1.5799   -9.9322   18.3468 C   0  0  0  0  0  0  0  0  0  0  0  0
   -1.0871  -12.2214   17.8851 C   0  0  0  0  0  0  0  0  0  0  0  0
   -2.2706   -8.9669   19.0691 C   0  0  0  0  0  0  0  0  0  0  0  0
    3.0279   -5.3073   26.8197 C   0  0  0  0  0  0  0  0  0  0  0  0
    7.3282   -3.8948   29.1186 C   0  0  0  0  0  0  0  0  0  0  0  0
  1  3  4  0
  1  7  4  0
  2  3  1  0
  2  6  4  0
  2 16  4  0
  3 22  4  0
  4  9  4  0
  4 10  1  0
  4 20  4  0
  5 16  4  0
  5 23  4  0
  6 15  4  0
  7 12  4  0
  8 13  4  0
  8 14  4  0
  9 11  4  0
 11 14  4  0
 11 19  4  0
 12 18  4  0
 13 21  4  0
 15 23  4  0
 17 19  4  0
 17 20  4  0
 18 22  4  0
 19 21  4  0
M  END
$$$$

 Created by Python create_sdf_string function

 23 25  0  0  0  0  0  0  0  0999 V2000
    2.4610   -5.3070   29.1240 C   0  0  0  0  0  0  0  0  0  0  0  0
    4.7710   -4.6952   28.4803 C   0  0  0  0  0  0  0  0  0  0  0  0
    3.4047   -5.1087   28.1314 C   0  0  0  0  0  0  0  0  0  0  0  0
   -0.2234  -11.8615   16.8874 C   0  0  0  0  0  0  0  0  0  0  0  0
    6.4491   -4.1532   30.1213 C   0  0  0  0  0  0  0  0  0  0  0  0
    5.7060   -4.4340   27.4975 C   0  0  0  0  0  0  0  0  0  0  0  0
    1.1818   -5.6612   28.8399 C   0  0  0  0  0  0  0  0  0  0  0  0
   -1.2067   -7.3287   17.7772 C   0  0  0  0  0  0  0  0  0  0  0  0
   -0.0206  -10.5585   16.6210 C   0  0  0  0  0  0  0  0  0  0  0  0
    0.3696  -12.7626   16.2169 O   0  0  0  0  0  0  0  0  0  0  0  0
   -0.6895   -9.5676   17.3297 C   0  0  0  0  0  0  0  0  0  0  0  0
    0.8388   -5.8417   27.5264 C   0  0  0  0  0  0  0  0  0  0  0  0
   -2.0709   -7.6637   18.7817 C   0  0  0  0  0  0  0  0  0  0  0  0
   -0.5279   -8.2168   17.0717 C   0  0  0  0  0  0  0  0  0  0  0  0
    6.9694   -4.0191   27.8190 C   0  0  0  0  0  0  0  0  0  0  0  0
    5.1733   -4.5469   29.8123 C   0  0  0  0  0  0  0  0  0  0  0  0
   -1.7508  -11.3016   18.6072 C   0  0  0  0  0  0  0  0  0  0  0  0
    1.7497   -5.6771   26.4971 C   0  0  0  0  0  0  0  0  0  0  0  0
   -1.5799   -9.9322   18.3468 C   0  0  0  0  0  0  0  0  0  0  0  0
   -1.0871  -12.2214   17.8851 C   0  0  0  0  0  0  0  0  0  0  0  0
   -2.2706   -8.9669   19.0691 C   0  0  0  0  0  0  0  0  0  0  0  0
    3.0279   -5.3073   26.8197 C   0  0  0  0  0  0  0  0  0  0  0  0
    7.3282   -3.8948   29.1186 C   0  0  0  0  0  0  0  0  0  0  0  0
  1  3  4  0
  1  7  4  0
  2  3  1  0
  2  6  4  0
  2 16  4  0
  3 22  4  0
  4  9  4  0
  4 10  1  0
  4 20  4  0
  5 16  4  0
  5 23  4  0
  6 15  4  0
  7 12  4  0
  8 13  4  0
  8 14  4  0
  9 11  4  0
 11 14  4  0
 11 19  4  0
 12 18  4  0
 13 21  4  0
 15 23  4  0
 17 19  4  0
 17 20  4  0
 18 22  4  0
 19 21  4  0
M  END
$$$$

 Created by Python create_sdf_string function

 23 25  0  0  0  0  0  0  0  0999 V2000
    2.4610   -5.3070   29.1240 C   0  0  0  0  0  0  0  0  0  0  0  0
    4.7710   -4.6952   28.4803 C   0  0  0  0  0  0  0  0  0  0  0  0
    3.4047   -5.1087   28.1314 C   0  0  0  0  0  0  0  0  0  0  0  0
   -0.2234  -11.8615   16.8874 C   0  0  0  0  0  0  0  0  0  0  0  0
    6.4491   -4.1532   30.1213 C   0  0  0  0  0  0  0  0  0  0  0  0
    5.7060   -4.4340   27.4975 C   0  0  0  0  0  0  0  0  0  0  0  0
    1.1818   -5.6612   28.8399 C   0  0  0  0  0  0  0  0  0  0  0  0
   -1.2067   -7.3287   17.7772 C   0  0  0  0  0  0  0  0  0  0  0  0
   -0.0206  -10.5585   16.6210 C   0  0  0  0  0  0  0  0  0  0  0  0
    0.3696  -12.7626   16.2169 O   0  0  0  0  0  0  0  0  0  0  0  0
   -0.6895   -9.5676   17.3297 C   0  0  0  0  0  0  0  0  0  0  0  0
    0.8388   -5.8417   27.5264 C   0  0  0  0  0  0  0  0  0  0  0  0
   -2.0709   -7.6637   18.7817 C   0  0  0  0  0  0  0  0  0  0  0  0
   -0.5279   -8.2168   17.0717 C   0  0  0  0  0  0  0  0  0  0  0  0
    6.9694   -4.0191   27.8190 C   0  0  0  0  0  0  0  0  0  0  0  0
    5.1733   -4.5469   29.8123 C   0  0  0  0  0  0  0  0  0  0  0  0
   -1.7508  -11.3016   18.6072 C   0  0  0  0  0  0  0  0  0  0  0  0
    1.7497   -5.6771   26.4971 C   0  0  0  0  0  0  0  0  0  0  0  0
   -1.5799   -9.9322   18.3468 C   0  0  0  0  0  0  0  0  0  0  0  0
   -1.0871  -12.2214   17.8851 C   0  0  0  0  0  0  0  0  0  0  0  0
   -2.2706   -8.9669   19.0691 C   0  0  0  0  0  0  0  0  0  0  0  0
    3.0279   -5.3073   26.8197 C   0  0  0  0  0  0  0  0  0  0  0  0
    7.3282   -3.8948   29.1186 C   0  0  0  0  0  0  0  0  0  0  0  0
  1  3  4  0
  1  7  4  0
  2  3  1  0
  2  6  4  0
  2 16  4  0
  3 22  4  0
  4  9  4  0
  4 10  1  0
  4 20  4  0
  5 16  4  0
  5 23  4  0
  6 15  4  0
  7 12  4  0
  8 13  4  0
  8 14  4  0
  9 11  4  0
 11 14  4  0
 11 19  4  0
 12 18  4  0
 13 21  4  0
 15 23  4  0
 17 19  4  0
 17 20  4  0
 18 22  4  0
 19 21  4  0
M  END
$$$$

 Created by Python create_sdf_string function

 23 25  0  0  0  0  0  0  0  0999 V2000
    2.4610   -5.3070   29.1240 C   0  0  0  0  0  0  0  0  0  0  0  0
    4.7710   -4.6952   28.4803 C   0  0  0  0  0  0  0  0  0  0  0  0
    3.4047   -5.1087   28.1314 C   0  0  0  0  0  0  0  0  0  0  0  0
   -0.2234  -11.8615   16.8874 C   0  0  0  0  0  0  0  0  0  0  0  0
    6.4491   -4.1532   30.1213 C   0  0  0  0  0  0  0  0  0  0  0  0
    5.7060   -4.4340   27.4975 C   0  0  0  0  0  0  0  0  0  0  0  0
    1.1818   -5.6612   28.8399 C   0  0  0  0  0  0  0  0  0  0  0  0
   -1.2067   -7.3287   17.7772 C   0  0  0  0  0  0  0  0  0  0  0  0
   -0.0206  -10.5585   16.6210 C   0  0  0  0  0  0  0  0  0  0  0  0
    0.3696  -12.7626   16.2169 O   0  0  0  0  0  0  0  0  0  0  0  0
   -0.6895   -9.5676   17.3297 C   0  0  0  0  0  0  0  0  0  0  0  0
    0.8388   -5.8417   27.5264 C   0  0  0  0  0  0  0  0  0  0  0  0
   -2.0709   -7.6637   18.7817 C   0  0  0  0  0  0  0  0  0  0  0  0
   -0.5279   -8.2168   17.0717 C   0  0  0  0  0  0  0  0  0  0  0  0
    6.9694   -4.0191   27.8190 C   0  0  0  0  0  0  0  0  0  0  0  0
    5.1733   -4.5469   29.8123 C   0  0  0  0  0  0  0  0  0  0  0  0
   -1.7508  -11.3016   18.6072 C   0  0  0  0  0  0  0  0  0  0  0  0
    1.7497   -5.6771   26.4971 C   0  0  0  0  0  0  0  0  0  0  0  0
   -1.5799   -9.9322   18.3468 C   0  0  0  0  0  0  0  0  0  0  0  0
   -1.0871  -12.2214   17.8851 C   0  0  0  0  0  0  0  0  0  0  0  0
   -2.2706   -8.9669   19.0691 C   0  0  0  0  0  0  0  0  0  0  0  0
    3.0279   -5.3073   26.8197 C   0  0  0  0  0  0  0  0  0  0  0  0
    7.3282   -3.8948   29.1186 C   0  0  0  0  0  0  0  0  0  0  0  0
  1  3  4  0
  1  7  4  0
  2  3  1  0
  2  6  4  0
  2 16  4  0
  3 22  4  0
  4  9  4  0
  4 10  1  0
  4 20  4  0
  5 16  4  0
  5 23  4  0
  6 15  4  0
  7 12  4  0
  8 13  4  0
  8 14  4  0
  9 11  4  0
 11 14  4  0
 11 19  4  0
 12 18  4  0
 13 21  4  0
 15 23  4  0
 17 19  4  0
 17 20  4  0
 18 22  4  0
 19 21  4  0
M  END
$$$$

 Created by Python create_sdf_string function

 23 25  0  0  0  0  0  0  0  0999 V2000
    2.4610   -5.3070   29.1240 C   0  0  0  0  0  0  0  0  0  0  0  0
    4.7710   -4.6952   28.4803 C   0  0  0  0  0  0  0  0  0  0  0  0
    3.4047   -5.1087   28.1314 C   0  0  0  0  0  0  0  0  0  0  0  0
   -0.2234  -11.8615   16.8874 C   0  0  0  0  0  0  0  0  0  0  0  0
    6.4491   -4.1532   30.1213 C   0  0  0  0  0  0  0  0  0  0  0  0
    5.7060   -4.4340   27.4975 C   0  0  0  0  0  0  0  0  0  0  0  0
    1.1818   -5.6612   28.8399 C   0  0  0  0  0  0  0  0  0  0  0  0
   -1.2067   -7.3287   17.7772 C   0  0  0  0  0  0  0  0  0  0  0  0
   -0.0206  -10.5585   16.6210 C   0  0  0  0  0  0  0  0  0  0  0  0
    0.3696  -12.7626   16.2169 O   0  0  0  0  0  0  0  0  0  0  0  0
   -0.6895   -9.5676   17.3297 C   0  0  0  0  0  0  0  0  0  0  0  0
    0.8388   -5.8417   27.5264 C   0  0  0  0  0  0  0  0  0  0  0  0
   -2.0709   -7.6637   18.7817 C   0  0  0  0  0  0  0  0  0  0  0  0
   -0.5279   -8.2168   17.0717 C   0  0  0  0  0  0  0  0  0  0  0  0
    6.9694   -4.0191   27.8190 C   0  0  0  0  0  0  0  0  0  0  0  0
    5.1733   -4.5469   29.8123 C   0  0  0  0  0  0  0  0  0  0  0  0
   -1.7508  -11.3016   18.6072 C   0  0  0  0  0  0  0  0  0  0  0  0
    1.7497   -5.6771   26.4971 C   0  0  0  0  0  0  0  0  0  0  0  0
   -1.5799   -9.9322   18.3468 C   0  0  0  0  0  0  0  0  0  0  0  0
   -1.0871  -12.2214   17.8851 C   0  0  0  0  0  0  0  0  0  0  0  0
   -2.2706   -8.9669   19.0691 C   0  0  0  0  0  0  0  0  0  0  0  0
    3.0279   -5.3073   26.8197 C   0  0  0  0  0  0  0  0  0  0  0  0
    7.3282   -3.8948   29.1186 C   0  0  0  0  0  0  0  0  0  0  0  0
  1  3  4  0
  1  7  4  0
  2  3  1  0
  2  6  4  0
  2 16  4  0
  3 22  4  0
  4  9  4  0
  4 10  1  0
  4 20  4  0
  5 16  4  0
  5 23  4  0
  6 15  4  0
  7 12  4  0
  8 13  4  0
  8 14  4  0
  9 11  4  0
 11 14  4  0
 11 19  4  0
 12 18  4  0
 13 21  4  0
 15 23  4  0
 17 19  4  0
 17 20  4  0
 18 22  4  0
 19 21  4  0
M  END
$$$$

 Created by Python create_sdf_string function

 23 25  0  0  0  0  0  0  0  0999 V2000
    2.4610   -5.3070   29.1240 C   0  0  0  0  0  0  0  0  0  0  0  0
    4.7710   -4.6952   28.4803 C   0  0  0  0  0  0  0  0  0  0  0  0
    3.4047   -5.1087   28.1314 C   0  0  0  0  0  0  0  0  0  0  0  0
   -0.2234  -11.8615   16.8874 C   0  0  0  0  0  0  0  0  0  0  0  0
    6.4491   -4.1532   30.1213 C   0  0  0  0  0  0  0  0  0  0  0  0
    5.7060   -4.4340   27.4975 C   0  0  0  0  0  0  0  0  0  0  0  0
    1.1818   -5.6612   28.8399 C   0  0  0  0  0  0  0  0  0  0  0  0
   -1.2067   -7.3287   17.7772 C   0  0  0  0  0  0  0  0  0  0  0  0
   -0.0206  -10.5585   16.6210 C   0  0  0  0  0  0  0  0  0  0  0  0
    0.3696  -12.7626   16.2169 O   0  0  0  0  0  0  0  0  0  0  0  0
   -0.6895   -9.5676   17.3297 C   0  0  0  0  0  0  0  0  0  0  0  0
    0.8388   -5.8417   27.5264 C   0  0  0  0  0  0  0  0  0  0  0  0
   -2.0709   -7.6637   18.7817 C   0  0  0  0  0  0  0  0  0  0  0  0
   -0.5279   -8.2168   17.0717 C   0  0  0  0  0  0  0  0  0  0  0  0
    6.9694   -4.0191   27.8190 C   0  0  0  0  0  0  0  0  0  0  0  0
    5.1733   -4.5469   29.8123 C   0  0  0  0  0  0  0  0  0  0  0  0
   -1.7508  -11.3016   18.6072 C   0  0  0  0  0  0  0  0  0  0  0  0
    1.7497   -5.6771   26.4971 C   0  0  0  0  0  0  0  0  0  0  0  0
   -1.5799   -9.9322   18.3468 C   0  0  0  0  0  0  0  0  0  0  0  0
   -1.0871  -12.2214   17.8851 C   0  0  0  0  0  0  0  0  0  0  0  0
   -2.2706   -8.9669   19.0691 C   0  0  0  0  0  0  0  0  0  0  0  0
    3.0279   -5.3073   26.8197 C   0  0  0  0  0  0  0  0  0  0  0  0
    7.3282   -3.8948   29.1186 C   0  0  0  0  0  0  0  0  0  0  0  0
  1  3  4  0
  1  7  4  0
  2  3  1  0
  2  6  4  0
  2 16  4  0
  3 22  4  0
  4  9  4  0
  4 10  1  0
  4 20  4  0
  5 16  4  0
  5 23  4  0
  6 15  4  0
  7 12  4  0
  8 13  4  0
  8 14  4  0
  9 11  4  0
 11 14  4  0
 11 19  4  0
 12 18  4  0
 13 21  4  0
 15 23  4  0
 17 19  4  0
 17 20  4  0
 18 22  4  0
 19 21  4  0
M  END
$$$$

 Created by Python create_sdf_string function

 23 25  0  0  0  0  0  0  0  0999 V2000
    2.4610   -5.3070   29.1240 C   0  0  0  0  0  0  0  0  0  0  0  0
    4.7710   -4.6952   28.4803 C   0  0  0  0  0  0  0  0  0  0  0  0
    3.4047   -5.1087   28.1314 C   0  0  0  0  0  0  0  0  0  0  0  0
   -0.2234  -11.8615   16.8874 C   0  0  0  0  0  0  0  0  0  0  0  0
    6.4491   -4.1532   30.1213 C   0  0  0  0  0  0  0  0  0  0  0  0
    5.7060   -4.4340   27.4975 C   0  0  0  0  0  0  0  0  0  0  0  0
    1.1818   -5.6612   28.8399 C   0  0  0  0  0  0  0  0  0  0  0  0
   -1.2067   -7.3287   17.7772 C   0  0  0  0  0  0  0  0  0  0  0  0
   -0.0206  -10.5585   16.6210 C   0  0  0  0  0  0  0  0  0  0  0  0
    0.3696  -12.7626   16.2169 O   0  0  0  0  0  0  0  0  0  0  0  0
   -0.6895   -9.5676   17.3297 C   0  0  0  0  0  0  0  0  0  0  0  0
    0.8388   -5.8417   27.5264 C   0  0  0  0  0  0  0  0  0  0  0  0
   -2.0709   -7.6637   18.7817 C   0  0  0  0  0  0  0  0  0  0  0  0
   -0.5279   -8.2168   17.0717 C   0  0  0  0  0  0  0  0  0  0  0  0
    6.9694   -4.0191   27.8190 C   0  0  0  0  0  0  0  0  0  0  0  0
    5.1733   -4.5469   29.8123 C   0  0  0  0  0  0  0  0  0  0  0  0
   -1.7508  -11.3016   18.6072 C   0  0  0  0  0  0  0  0  0  0  0  0
    1.7497   -5.6771   26.4971 C   0  0  0  0  0  0  0  0  0  0  0  0
   -1.5799   -9.9322   18.3468 C   0  0  0  0  0  0  0  0  0  0  0  0
   -1.0871  -12.2214   17.8851 C   0  0  0  0  0  0  0  0  0  0  0  0
   -2.2706   -8.9669   19.0691 C   0  0  0  0  0  0  0  0  0  0  0  0
    3.0279   -5.3073   26.8197 C   0  0  0  0  0  0  0  0  0  0  0  0
    7.3282   -3.8948   29.1186 C   0  0  0  0  0  0  0  0  0  0  0  0
  1  3  4  0
  1  7  4  0
  2  3  1  0
  2  6  4  0
  2 16  4  0
  3 22  4  0
  4  9  4  0
  4 10  1  0
  4 20  4  0
  5 16  4  0
  5 23  4  0
  6 15  4  0
  7 12  4  0
  8 13  4  0
  8 14  4  0
  9 11  4  0
 11 14  4  0
 11 19  4  0
 12 18  4  0
 13 21  4  0
 15 23  4  0
 17 19  4  0
 17 20  4  0
 18 22  4  0
 19 21  4  0
M  END
$$$$

 Created by Python create_sdf_string function

 23 25  0  0  0  0  0  0  0  0999 V2000
    2.4610   -5.3070   29.1240 C   0  0  0  0  0  0  0  0  0  0  0  0
    4.7710   -4.6952   28.4803 C   0  0  0  0  0  0  0  0  0  0  0  0
    3.4047   -5.1087   28.1314 C   0  0  0  0  0  0  0  0  0  0  0  0
   -0.2234  -11.8615   16.8874 C   0  0  0  0  0  0  0  0  0  0  0  0
    6.4491   -4.1532   30.1213 C   0  0  0  0  0  0  0  0  0  0  0  0
    5.7060   -4.4340   27.4975 C   0  0  0  0  0  0  0  0  0  0  0  0
    1.1818   -5.6612   28.8399 C   0  0  0  0  0  0  0  0  0  0  0  0
   -1.2067   -7.3287   17.7772 C   0  0  0  0  0  0  0  0  0  0  0  0
   -0.0206  -10.5585   16.6210 C   0  0  0  0  0  0  0  0  0  0  0  0
    0.3696  -12.7626   16.2169 O   0  0  0  0  0  0  0  0  0  0  0  0
   -0.6895   -9.5676   17.3297 C   0  0  0  0  0  0  0  0  0  0  0  0
    0.8388   -5.8417   27.5264 C   0  0  0  0  0  0  0  0  0  0  0  0
   -2.0709   -7.6637   18.7817 C   0  0  0  0  0  0  0  0  0  0  0  0
   -0.5279   -8.2168   17.0717 C   0  0  0  0  0  0  0  0  0  0  0  0
    6.9694   -4.0191   27.8190 C   0  0  0  0  0  0  0  0  0  0  0  0
    5.1733   -4.5469   29.8123 C   0  0  0  0  0  0  0  0  0  0  0  0
   -1.7508  -11.3016   18.6072 C   0  0  0  0  0  0  0  0  0  0  0  0
    1.7497   -5.6771   26.4971 C   0  0  0  0  0  0  0  0  0  0  0  0
   -1.5799   -9.9322   18.3468 C   0  0  0  0  0  0  0  0  0  0  0  0
   -1.0871  -12.2214   17.8851 C   0  0  0  0  0  0  0  0  0  0  0  0
   -2.2706   -8.9669   19.0691 C   0  0  0  0  0  0  0  0  0  0  0  0
    3.0279   -5.3073   26.8197 C   0  0  0  0  0  0  0  0  0  0  0  0
    7.3282   -3.8948   29.1186 C   0  0  0  0  0  0  0  0  0  0  0  0
  1  3  4  0
  1  7  4  0
  2  3  1  0
  2  6  4  0
  2 16  4  0
  3 22  4  0
  4  9  4  0
  4 10  1  0
  4 20  4  0
  5 16  4  0
  5 23  4  0
  6 15  4  0
  7 12  4  0
  8 13  4  0
  8 14  4  0
  9 11  4  0
 11 14  4  0
 11 19  4  0
 12 18  4  0
 13 21  4  0
 15 23  4  0
 17 19  4  0
 17 20  4  0
 18 22  4  0
 19 21  4  0
M  END
$$$$

 Created by Python create_sdf_string function

 23 25  0  0  0  0  0  0  0  0999 V2000
    2.4610   -5.3070   29.1240 C   0  0  0  0  0  0  0  0  0  0  0  0
    4.7710   -4.6952   28.4803 C   0  0  0  0  0  0  0  0  0  0  0  0
    3.4047   -5.1087   28.1314 C   0  0  0  0  0  0  0  0  0  0  0  0
   -0.2234  -11.8615   16.8874 C   0  0  0  0  0  0  0  0  0  0  0  0
    6.4491   -4.1532   30.1213 C   0  0  0  0  0  0  0  0  0  0  0  0
    5.7060   -4.4340   27.4975 C   0  0  0  0  0  0  0  0  0  0  0  0
    1.1818   -5.6612   28.8399 C   0  0  0  0  0  0  0  0  0  0  0  0
   -1.2067   -7.3287   17.7772 C   0  0  0  0  0  0  0  0  0  0  0  0
   -0.0206  -10.5585   16.6210 C   0  0  0  0  0  0  0  0  0  0  0  0
    0.3696  -12.7626   16.2169 O   0  0  0  0  0  0  0  0  0  0  0  0
   -0.6895   -9.5676   17.3297 C   0  0  0  0  0  0  0  0  0  0  0  0
    0.8388   -5.8417   27.5264 C   0  0  0  0  0  0  0  0  0  0  0  0
   -2.0709   -7.6637   18.7817 C   0  0  0  0  0  0  0  0  0  0  0  0
   -0.5279   -8.2168   17.0717 C   0  0  0  0  0  0  0  0  0  0  0  0
    6.9694   -4.0191   27.8190 C   0  0  0  0  0  0  0  0  0  0  0  0
    5.1733   -4.5469   29.8123 C   0  0  0  0  0  0  0  0  0  0  0  0
   -1.7508  -11.3016   18.6072 C   0  0  0  0  0  0  0  0  0  0  0  0
    1.7497   -5.6771   26.4971 C   0  0  0  0  0  0  0  0  0  0  0  0
   -1.5799   -9.9322   18.3468 C   0  0  0  0  0  0  0  0  0  0  0  0
   -1.0871  -12.2214   17.8851 C   0  0  0  0  0  0  0  0  0  0  0  0
   -2.2706   -8.9669   19.0691 C   0  0  0  0  0  0  0  0  0  0  0  0
    3.0279   -5.3073   26.8197 C   0  0  0  0  0  0  0  0  0  0  0  0
    7.3282   -3.8948   29.1186 C   0  0  0  0  0  0  0  0  0  0  0  0
  1  3  4  0
  1  7  4  0
  2  3  1  0
  2  6  4  0
  2 16  4  0
  3 22  4  0
  4  9  4  0
  4 10  1  0
  4 20  4  0
  5 16  4  0
  5 23  4  0
  6 15  4  0
  7 12  4  0
  8 13  4  0
  8 14  4  0
  9 11  4  0
 11 14  4  0
 11 19  4  0
 12 18  4  0
 13 21  4  0
 15 23  4  0
 17 19  4  0
 17 20  4  0
 18 22  4  0
 19 21  4  0
M  END
$$$$

 Created by Python create_sdf_string function

 23 25  0  0  0  0  0  0  0  0999 V2000
    2.4610   -5.3070   29.1240 C   0  0  0  0  0  0  0  0  0  0  0  0
    4.7710   -4.6952   28.4803 C   0  0  0  0  0  0  0  0  0  0  0  0
    3.4047   -5.1087   28.1314 C   0  0  0  0  0  0  0  0  0  0  0  0
   -0.2234  -11.8615   16.8874 C   0  0  0  0  0  0  0  0  0  0  0  0
    6.4491   -4.1532   30.1213 C   0  0  0  0  0  0  0  0  0  0  0  0
    5.7060   -4.4340   27.4975 C   0  0  0  0  0  0  0  0  0  0  0  0
    1.1818   -5.6612   28.8399 C   0  0  0  0  0  0  0  0  0  0  0  0
   -1.2067   -7.3287   17.7772 C   0  0  0  0  0  0  0  0  0  0  0  0
   -0.0206  -10.5585   16.6210 C   0  0  0  0  0  0  0  0  0  0  0  0
    0.3696  -12.7626   16.2169 O   0  0  0  0  0  0  0  0  0  0  0  0
   -0.6895   -9.5676   17.3297 C   0  0  0  0  0  0  0  0  0  0  0  0
    0.8388   -5.8417   27.5264 C   0  0  0  0  0  0  0  0  0  0  0  0
   -2.0709   -7.6637   18.7817 C   0  0  0  0  0  0  0  0  0  0  0  0
   -0.5279   -8.2168   17.0717 C   0  0  0  0  0  0  0  0  0  0  0  0
    6.9694   -4.0191   27.8190 C   0  0  0  0  0  0  0  0  0  0  0  0
    5.1733   -4.5469   29.8123 C   0  0  0  0  0  0  0  0  0  0  0  0
   -1.7508  -11.3016   18.6072 C   0  0  0  0  0  0  0  0  0  0  0  0
    1.7497   -5.6771   26.4971 C   0  0  0  0  0  0  0  0  0  0  0  0
   -1.5799   -9.9322   18.3468 C   0  0  0  0  0  0  0  0  0  0  0  0
   -1.0871  -12.2214   17.8851 C   0  0  0  0  0  0  0  0  0  0  0  0
   -2.2706   -8.9669   19.0691 C   0  0  0  0  0  0  0  0  0  0  0  0
    3.0279   -5.3073   26.8197 C   0  0  0  0  0  0  0  0  0  0  0  0
    7.3282   -3.8948   29.1186 C   0  0  0  0  0  0  0  0  0  0  0  0
  1  3  4  0
  1  7  4  0
  2  3  1  0
  2  6  4  0
  2 16  4  0
  3 22  4  0
  4  9  4  0
  4 10  1  0
  4 20  4  0
  5 16  4  0
  5 23  4  0
  6 15  4  0
  7 12  4  0
  8 13  4  0
  8 14  4  0
  9 11  4  0
 11 14  4  0
 11 19  4  0
 12 18  4  0
 13 21  4  0
 15 23  4  0
 17 19  4  0
 17 20  4  0
 18 22  4  0
 19 21  4  0
M  END
$$$$

 Created by Python create_sdf_string function

 23 25  0  0  0  0  0  0  0  0999 V2000
    2.4610   -5.3070   29.1240 C   0  0  0  0  0  0  0  0  0  0  0  0
    4.7710   -4.6952   28.4803 C   0  0  0  0  0  0  0  0  0  0  0  0
    3.4047   -5.1087   28.1314 C   0  0  0  0  0  0  0  0  0  0  0  0
   -0.2234  -11.8615   16.8874 C   0  0  0  0  0  0  0  0  0  0  0  0
    6.4491   -4.1532   30.1213 C   0  0  0  0  0  0  0  0  0  0  0  0
    5.7060   -4.4340   27.4975 C   0  0  0  0  0  0  0  0  0  0  0  0
    1.1818   -5.6612   28.8399 C   0  0  0  0  0  0  0  0  0  0  0  0
   -1.2067   -7.3287   17.7772 C   0  0  0  0  0  0  0  0  0  0  0  0
   -0.0206  -10.5585   16.6210 C   0  0  0  0  0  0  0  0  0  0  0  0
    0.3696  -12.7626   16.2169 O   0  0  0  0  0  0  0  0  0  0  0  0
   -0.6895   -9.5676   17.3297 C   0  0  0  0  0  0  0  0  0  0  0  0
    0.8388   -5.8417   27.5264 C   0  0  0  0  0  0  0  0  0  0  0  0
   -2.0709   -7.6637   18.7817 C   0  0  0  0  0  0  0  0  0  0  0  0
   -0.5279   -8.2168   17.0717 C   0  0  0  0  0  0  0  0  0  0  0  0
    6.9694   -4.0191   27.8190 C   0  0  0  0  0  0  0  0  0  0  0  0
    5.1733   -4.5469   29.8123 C   0  0  0  0  0  0  0  0  0  0  0  0
   -1.7508  -11.3016   18.6072 C   0  0  0  0  0  0  0  0  0  0  0  0
    1.7497   -5.6771   26.4971 C   0  0  0  0  0  0  0  0  0  0  0  0
   -1.5799   -9.9322   18.3468 C   0  0  0  0  0  0  0  0  0  0  0  0
   -1.0871  -12.2214   17.8851 C   0  0  0  0  0  0  0  0  0  0  0  0
   -2.2706   -8.9669   19.0691 C   0  0  0  0  0  0  0  0  0  0  0  0
    3.0279   -5.3073   26.8197 C   0  0  0  0  0  0  0  0  0  0  0  0
    7.3282   -3.8948   29.1186 C   0  0  0  0  0  0  0  0  0  0  0  0
  1  3  4  0
  1  7  4  0
  2  3  1  0
  2  6  4  0
  2 16  4  0
  3 22  4  0
  4  9  4  0
  4 10  1  0
  4 20  4  0
  5 16  4  0
  5 23  4  0
  6 15  4  0
  7 12  4  0
  8 13  4  0
  8 14  4  0
  9 11  4  0
 11 14  4  0
 11 19  4  0
 12 18  4  0
 13 21  4  0
 15 23  4  0
 17 19  4  0
 17 20  4  0
 18 22  4  0
 19 21  4  0
M  END
$$$$

 Created by Python create_sdf_string function

 23 25  0  0  0  0  0  0  0  0999 V2000
    2.4610   -5.3070   29.1240 C   0  0  0  0  0  0  0  0  0  0  0  0
    4.7710   -4.6952   28.4803 C   0  0  0  0  0  0  0  0  0  0  0  0
    3.4047   -5.1087   28.1314 C   0  0  0  0  0  0  0  0  0  0  0  0
   -0.2234  -11.8615   16.8874 C   0  0  0  0  0  0  0  0  0  0  0  0
    6.4491   -4.1532   30.1213 C   0  0  0  0  0  0  0  0  0  0  0  0
    5.7060   -4.4340   27.4975 C   0  0  0  0  0  0  0  0  0  0  0  0
    1.1818   -5.6612   28.8399 C   0  0  0  0  0  0  0  0  0  0  0  0
   -1.2067   -7.3287   17.7772 C   0  0  0  0  0  0  0  0  0  0  0  0
   -0.0206  -10.5585   16.6210 C   0  0  0  0  0  0  0  0  0  0  0  0
    0.3696  -12.7626   16.2169 O   0  0  0  0  0  0  0  0  0  0  0  0
   -0.6895   -9.5676   17.3297 C   0  0  0  0  0  0  0  0  0  0  0  0
    0.8388   -5.8417   27.5264 C   0  0  0  0  0  0  0  0  0  0  0  0
   -2.0709   -7.6637   18.7817 C   0  0  0  0  0  0  0  0  0  0  0  0
   -0.5279   -8.2168   17.0717 C   0  0  0  0  0  0  0  0  0  0  0  0
    6.9694   -4.0191   27.8190 C   0  0  0  0  0  0  0  0  0  0  0  0
    5.1733   -4.5469   29.8123 C   0  0  0  0  0  0  0  0  0  0  0  0
   -1.7508  -11.3016   18.6072 C   0  0  0  0  0  0  0  0  0  0  0  0
    1.7497   -5.6771   26.4971 C   0  0  0  0  0  0  0  0  0  0  0  0
   -1.5799   -9.9322   18.3468 C   0  0  0  0  0  0  0  0  0  0  0  0
   -1.0871  -12.2214   17.8851 C   0  0  0  0  0  0  0  0  0  0  0  0
   -2.2706   -8.9669   19.0691 C   0  0  0  0  0  0  0  0  0  0  0  0
    3.0279   -5.3073   26.8197 C   0  0  0  0  0  0  0  0  0  0  0  0
    7.3282   -3.8948   29.1186 C   0  0  0  0  0  0  0  0  0  0  0  0
  1  3  4  0
  1  7  4  0
  2  3  1  0
  2  6  4  0
  2 16  4  0
  3 22  4  0
  4  9  4  0
  4 10  1  0
  4 20  4  0
  5 16  4  0
  5 23  4  0
  6 15  4  0
  7 12  4  0
  8 13  4  0
  8 14  4  0
  9 11  4  0
 11 14  4  0
 11 19  4  0
 12 18  4  0
 13 21  4  0
 15 23  4  0
 17 19  4  0
 17 20  4  0
 18 22  4  0
 19 21  4  0
M  END
$$$$

 Created by Python create_sdf_string function

 23 25  0  0  0  0  0  0  0  0999 V2000
    2.4610   -5.3070   29.1240 C   0  0  0  0  0  0  0  0  0  0  0  0
    4.7710   -4.6952   28.4803 C   0  0  0  0  0  0  0  0  0  0  0  0
    3.4047   -5.1087   28.1314 C   0  0  0  0  0  0  0  0  0  0  0  0
   -0.2234  -11.8615   16.8874 C   0  0  0  0  0  0  0  0  0  0  0  0
    6.4491   -4.1532   30.1213 C   0  0  0  0  0  0  0  0  0  0  0  0
    5.7060   -4.4340   27.4975 C   0  0  0  0  0  0  0  0  0  0  0  0
    1.1818   -5.6612   28.8399 C   0  0  0  0  0  0  0  0  0  0  0  0
   -1.2067   -7.3287   17.7772 C   0  0  0  0  0  0  0  0  0  0  0  0
   -0.0206  -10.5585   16.6210 C   0  0  0  0  0  0  0  0  0  0  0  0
    0.3696  -12.7626   16.2169 O   0  0  0  0  0  0  0  0  0  0  0  0
   -0.6895   -9.5676   17.3297 C   0  0  0  0  0  0  0  0  0  0  0  0
    0.8388   -5.8417   27.5264 C   0  0  0  0  0  0  0  0  0  0  0  0
   -2.0709   -7.6637   18.7817 C   0  0  0  0  0  0  0  0  0  0  0  0
   -0.5279   -8.2168   17.0717 C   0  0  0  0  0  0  0  0  0  0  0  0
    6.9694   -4.0191   27.8190 C   0  0  0  0  0  0  0  0  0  0  0  0
    5.1733   -4.5469   29.8123 C   0  0  0  0  0  0  0  0  0  0  0  0
   -1.7508  -11.3016   18.6072 C   0  0  0  0  0  0  0  0  0  0  0  0
    1.7497   -5.6771   26.4971 C   0  0  0  0  0  0  0  0  0  0  0  0
   -1.5799   -9.9322   18.3468 C   0  0  0  0  0  0  0  0  0  0  0  0
   -1.0871  -12.2214   17.8851 C   0  0  0  0  0  0  0  0  0  0  0  0
   -2.2706   -8.9669   19.0691 C   0  0  0  0  0  0  0  0  0  0  0  0
    3.0279   -5.3073   26.8197 C   0  0  0  0  0  0  0  0  0  0  0  0
    7.3282   -3.8948   29.1186 C   0  0  0  0  0  0  0  0  0  0  0  0
  1  3  4  0
  1  7  4  0
  2  3  1  0
  2  6  4  0
  2 16  4  0
  3 22  4  0
  4  9  4  0
  4 10  1  0
  4 20  4  0
  5 16  4  0
  5 23  4  0
  6 15  4  0
  7 12  4  0
  8 13  4  0
  8 14  4  0
  9 11  4  0
 11 14  4  0
 11 19  4  0
 12 18  4  0
 13 21  4  0
 15 23  4  0
 17 19  4  0
 17 20  4  0
 18 22  4  0
 19 21  4  0
M  END
$$$$

 Created by Python create_sdf_string function

 23 25  0  0  0  0  0  0  0  0999 V2000
    2.4610   -5.3070   29.1240 C   0  0  0  0  0  0  0  0  0  0  0  0
    4.7710   -4.6952   28.4803 C   0  0  0  0  0  0  0  0  0  0  0  0
    3.4047   -5.1087   28.1314 C   0  0  0  0  0  0  0  0  0  0  0  0
   -0.2234  -11.8615   16.8874 C   0  0  0  0  0  0  0  0  0  0  0  0
    6.4491   -4.1532   30.1213 C   0  0  0  0  0  0  0  0  0  0  0  0
    5.7060   -4.4340   27.4975 C   0  0  0  0  0  0  0  0  0  0  0  0
    1.1818   -5.6612   28.8399 C   0  0  0  0  0  0  0  0  0  0  0  0
   -1.2067   -7.3287   17.7772 C   0  0  0  0  0  0  0  0  0  0  0  0
   -0.0206  -10.5585   16.6210 C   0  0  0  0  0  0  0  0  0  0  0  0
    0.3696  -12.7626   16.2169 O   0  0  0  0  0  0  0  0  0  0  0  0
   -0.6895   -9.5676   17.3297 C   0  0  0  0  0  0  0  0  0  0  0  0
    0.8388   -5.8417   27.5264 C   0  0  0  0  0  0  0  0  0  0  0  0
   -2.0709   -7.6637   18.7817 C   0  0  0  0  0  0  0  0  0  0  0  0
   -0.5279   -8.2168   17.0717 C   0  0  0  0  0  0  0  0  0  0  0  0
    6.9694   -4.0191   27.8190 C   0  0  0  0  0  0  0  0  0  0  0  0
    5.1733   -4.5469   29.8123 C   0  0  0  0  0  0  0  0  0  0  0  0
   -1.7508  -11.3016   18.6072 C   0  0  0  0  0  0  0  0  0  0  0  0
    1.7497   -5.6771   26.4971 C   0  0  0  0  0  0  0  0  0  0  0  0
   -1.5799   -9.9322   18.3468 C   0  0  0  0  0  0  0  0  0  0  0  0
   -1.0871  -12.2214   17.8851 C   0  0  0  0  0  0  0  0  0  0  0  0
   -2.2706   -8.9669   19.0691 C   0  0  0  0  0  0  0  0  0  0  0  0
    3.0279   -5.3073   26.8197 C   0  0  0  0  0  0  0  0  0  0  0  0
    7.3282   -3.8948   29.1186 C   0  0  0  0  0  0  0  0  0  0  0  0
  1  3  4  0
  1  7  4  0
  2  3  1  0
  2  6  4  0
  2 16  4  0
  3 22  4  0
  4  9  4  0
  4 10  1  0
  4 20  4  0
  5 16  4  0
  5 23  4  0
  6 15  4  0
  7 12  4  0
  8 13  4  0
  8 14  4  0
  9 11  4  0
 11 14  4  0
 11 19  4  0
 12 18  4  0
 13 21  4  0
 15 23  4  0
 17 19  4  0
 17 20  4  0
 18 22  4  0
 19 21  4  0
M  END
$$$$

 Created by Python create_sdf_string function

 23 25  0  0  0  0  0  0  0  0999 V2000
    2.4610   -5.3070   29.1240 C   0  0  0  0  0  0  0  0  0  0  0  0
    4.7710   -4.6952   28.4803 C   0  0  0  0  0  0  0  0  0  0  0  0
    3.4047   -5.1087   28.1314 C   0  0  0  0  0  0  0  0  0  0  0  0
   -0.2234  -11.8615   16.8874 C   0  0  0  0  0  0  0  0  0  0  0  0
    6.4491   -4.1532   30.1213 C   0  0  0  0  0  0  0  0  0  0  0  0
    5.7060   -4.4340   27.4975 C   0  0  0  0  0  0  0  0  0  0  0  0
    1.1818   -5.6612   28.8399 C   0  0  0  0  0  0  0  0  0  0  0  0
   -1.2067   -7.3287   17.7772 C   0  0  0  0  0  0  0  0  0  0  0  0
   -0.0206  -10.5585   16.6210 C   0  0  0  0  0  0  0  0  0  0  0  0
    0.3696  -12.7626   16.2169 O   0  0  0  0  0  0  0  0  0  0  0  0
   -0.6895   -9.5676   17.3297 C   0  0  0  0  0  0  0  0  0  0  0  0
    0.8388   -5.8417   27.5264 C   0  0  0  0  0  0  0  0  0  0  0  0
   -2.0709   -7.6637   18.7817 C   0  0  0  0  0  0  0  0  0  0  0  0
   -0.5279   -8.2168   17.0717 C   0  0  0  0  0  0  0  0  0  0  0  0
    6.9694   -4.0191   27.8190 C   0  0  0  0  0  0  0  0  0  0  0  0
    5.1733   -4.5469   29.8123 C   0  0  0  0  0  0  0  0  0  0  0  0
   -1.7508  -11.3016   18.6072 C   0  0  0  0  0  0  0  0  0  0  0  0
    1.7497   -5.6771   26.4971 C   0  0  0  0  0  0  0  0  0  0  0  0
   -1.5799   -9.9322   18.3468 C   0  0  0  0  0  0  0  0  0  0  0  0
   -1.0871  -12.2214   17.8851 C   0  0  0  0  0  0  0  0  0  0  0  0
   -2.2706   -8.9669   19.0691 C   0  0  0  0  0  0  0  0  0  0  0  0
    3.0279   -5.3073   26.8197 C   0  0  0  0  0  0  0  0  0  0  0  0
    7.3282   -3.8948   29.1186 C   0  0  0  0  0  0  0  0  0  0  0  0
  1  3  4  0
  1  7  4  0
  2  3  1  0
  2  6  4  0
  2 16  4  0
  3 22  4  0
  4  9  4  0
  4 10  1  0
  4 20  4  0
  5 16  4  0
  5 23  4  0
  6 15  4  0
  7 12  4  0
  8 13  4  0
  8 14  4  0
  9 11  4  0
 11 14  4  0
 11 19  4  0
 12 18  4  0
 13 21  4  0
 15 23  4  0
 17 19  4  0
 17 20  4  0
 18 22  4  0
 19 21  4  0
M  END
$$$$

 Created by Python create_sdf_string function

 23 25  0  0  0  0  0  0  0  0999 V2000
    2.4610   -5.3070   29.1240 C   0  0  0  0  0  0  0  0  0  0  0  0
    4.7710   -4.6952   28.4803 C   0  0  0  0  0  0  0  0  0  0  0  0
    3.4047   -5.1087   28.1314 C   0  0  0  0  0  0  0  0  0  0  0  0
   -0.2234  -11.8615   16.8874 C   0  0  0  0  0  0  0  0  0  0  0  0
    6.4491   -4.1532   30.1213 C   0  0  0  0  0  0  0  0  0  0  0  0
    5.7060   -4.4340   27.4975 C   0  0  0  0  0  0  0  0  0  0  0  0
    1.1818   -5.6612   28.8399 C   0  0  0  0  0  0  0  0  0  0  0  0
   -1.2067   -7.3287   17.7772 C   0  0  0  0  0  0  0  0  0  0  0  0
   -0.0206  -10.5585   16.6210 C   0  0  0  0  0  0  0  0  0  0  0  0
    0.3696  -12.7626   16.2169 O   0  0  0  0  0  0  0  0  0  0  0  0
   -0.6895   -9.5676   17.3297 C   0  0  0  0  0  0  0  0  0  0  0  0
    0.8388   -5.8417   27.5264 C   0  0  0  0  0  0  0  0  0  0  0  0
   -2.0709   -7.6637   18.7817 C   0  0  0  0  0  0  0  0  0  0  0  0
   -0.5279   -8.2168   17.0717 C   0  0  0  0  0  0  0  0  0  0  0  0
    6.9694   -4.0191   27.8190 C   0  0  0  0  0  0  0  0  0  0  0  0
    5.1733   -4.5469   29.8123 C   0  0  0  0  0  0  0  0  0  0  0  0
   -1.7508  -11.3016   18.6072 C   0  0  0  0  0  0  0  0  0  0  0  0
    1.7497   -5.6771   26.4971 C   0  0  0  0  0  0  0  0  0  0  0  0
   -1.5799   -9.9322   18.3468 C   0  0  0  0  0  0  0  0  0  0  0  0
   -1.0871  -12.2214   17.8851 C   0  0  0  0  0  0  0  0  0  0  0  0
   -2.2706   -8.9669   19.0691 C   0  0  0  0  0  0  0  0  0  0  0  0
    3.0279   -5.3073   26.8197 C   0  0  0  0  0  0  0  0  0  0  0  0
    7.3282   -3.8948   29.1186 C   0  0  0  0  0  0  0  0  0  0  0  0
  1  3  4  0
  1  7  4  0
  2  3  1  0
  2  6  4  0
  2 16  4  0
  3 22  4  0
  4  9  4  0
  4 10  1  0
  4 20  4  0
  5 16  4  0
  5 23  4  0
  6 15  4  0
  7 12  4  0
  8 13  4  0
  8 14  4  0
  9 11  4  0
 11 14  4  0
 11 19  4  0
 12 18  4  0
 13 21  4  0
 15 23  4  0
 17 19  4  0
 17 20  4  0
 18 22  4  0
 19 21  4  0
M  END
$$$$

 Created by Python create_sdf_string function

 23 25  0  0  0  0  0  0  0  0999 V2000
    2.4610   -5.3070   29.1240 C   0  0  0  0  0  0  0  0  0  0  0  0
    4.7710   -4.6952   28.4803 C   0  0  0  0  0  0  0  0  0  0  0  0
    3.4047   -5.1087   28.1314 C   0  0  0  0  0  0  0  0  0  0  0  0
   -0.2234  -11.8615   16.8874 C   0  0  0  0  0  0  0  0  0  0  0  0
    6.4491   -4.1532   30.1213 C   0  0  0  0  0  0  0  0  0  0  0  0
    5.7060   -4.4340   27.4975 C   0  0  0  0  0  0  0  0  0  0  0  0
    1.1818   -5.6612   28.8399 C   0  0  0  0  0  0  0  0  0  0  0  0
   -1.2067   -7.3287   17.7772 C   0  0  0  0  0  0  0  0  0  0  0  0
   -0.0206  -10.5585   16.6210 C   0  0  0  0  0  0  0  0  0  0  0  0
    0.3696  -12.7626   16.2169 O   0  0  0  0  0  0  0  0  0  0  0  0
   -0.6895   -9.5676   17.3297 C   0  0  0  0  0  0  0  0  0  0  0  0
    0.8388   -5.8417   27.5264 C   0  0  0  0  0  0  0  0  0  0  0  0
   -2.0709   -7.6637   18.7817 C   0  0  0  0  0  0  0  0  0  0  0  0
   -0.5279   -8.2168   17.0717 C   0  0  0  0  0  0  0  0  0  0  0  0
    6.9694   -4.0191   27.8190 C   0  0  0  0  0  0  0  0  0  0  0  0
    5.1733   -4.5469   29.8123 C   0  0  0  0  0  0  0  0  0  0  0  0
   -1.7508  -11.3016   18.6072 C   0  0  0  0  0  0  0  0  0  0  0  0
    1.7497   -5.6771   26.4971 C   0  0  0  0  0  0  0  0  0  0  0  0
   -1.5799   -9.9322   18.3468 C   0  0  0  0  0  0  0  0  0  0  0  0
   -1.0871  -12.2214   17.8851 C   0  0  0  0  0  0  0  0  0  0  0  0
   -2.2706   -8.9669   19.0691 C   0  0  0  0  0  0  0  0  0  0  0  0
    3.0279   -5.3073   26.8197 C   0  0  0  0  0  0  0  0  0  0  0  0
    7.3282   -3.8948   29.1186 C   0  0  0  0  0  0  0  0  0  0  0  0
  1  3  4  0
  1  7  4  0
  2  3  1  0
  2  6  4  0
  2 16  4  0
  3 22  4  0
  4  9  4  0
  4 10  1  0
  4 20  4  0
  5 16  4  0
  5 23  4  0
  6 15  4  0
  7 12  4  0
  8 13  4  0
  8 14  4  0
  9 11  4  0
 11 14  4  0
 11 19  4  0
 12 18  4  0
 13 21  4  0
 15 23  4  0
 17 19  4  0
 17 20  4  0
 18 22  4  0
 19 21  4  0
M  END
$$$$

 Created by Python create_sdf_string function

 23 25  0  0  0  0  0  0  0  0999 V2000
    2.4610   -5.3070   29.1240 C   0  0  0  0  0  0  0  0  0  0  0  0
    4.7710   -4.6952   28.4803 C   0  0  0  0  0  0  0  0  0  0  0  0
    3.4047   -5.1087   28.1314 C   0  0  0  0  0  0  0  0  0  0  0  0
   -0.2234  -11.8615   16.8874 C   0  0  0  0  0  0  0  0  0  0  0  0
    6.4491   -4.1532   30.1213 C   0  0  0  0  0  0  0  0  0  0  0  0
    5.7060   -4.4340   27.4975 C   0  0  0  0  0  0  0  0  0  0  0  0
    1.1818   -5.6612   28.8399 C   0  0  0  0  0  0  0  0  0  0  0  0
   -1.2067   -7.3287   17.7772 C   0  0  0  0  0  0  0  0  0  0  0  0
   -0.0206  -10.5585   16.6210 C   0  0  0  0  0  0  0  0  0  0  0  0
    0.3696  -12.7626   16.2169 O   0  0  0  0  0  0  0  0  0  0  0  0
   -0.6895   -9.5676   17.3297 C   0  0  0  0  0  0  0  0  0  0  0  0
    0.8388   -5.8417   27.5264 C   0  0  0  0  0  0  0  0  0  0  0  0
   -2.0709   -7.6637   18.7817 C   0  0  0  0  0  0  0  0  0  0  0  0
   -0.5279   -8.2168   17.0717 C   0  0  0  0  0  0  0  0  0  0  0  0
    6.9694   -4.0191   27.8190 C   0  0  0  0  0  0  0  0  0  0  0  0
    5.1733   -4.5469   29.8123 C   0  0  0  0  0  0  0  0  0  0  0  0
   -1.7508  -11.3016   18.6072 C   0  0  0  0  0  0  0  0  0  0  0  0
    1.7497   -5.6771   26.4971 C   0  0  0  0  0  0  0  0  0  0  0  0
   -1.5799   -9.9322   18.3468 C   0  0  0  0  0  0  0  0  0  0  0  0
   -1.0871  -12.2214   17.8851 C   0  0  0  0  0  0  0  0  0  0  0  0
   -2.2706   -8.9669   19.0691 C   0  0  0  0  0  0  0  0  0  0  0  0
    3.0279   -5.3073   26.8197 C   0  0  0  0  0  0  0  0  0  0  0  0
    7.3282   -3.8948   29.1186 C   0  0  0  0  0  0  0  0  0  0  0  0
  1  3  4  0
  1  7  4  0
  2  3  1  0
  2  6  4  0
  2 16  4  0
  3 22  4  0
  4  9  4  0
  4 10  1  0
  4 20  4  0
  5 16  4  0
  5 23  4  0
  6 15  4  0
  7 12  4  0
  8 13  4  0
  8 14  4  0
  9 11  4  0
 11 14  4  0
 11 19  4  0
 12 18  4  0
 13 21  4  0
 15 23  4  0
 17 19  4  0
 17 20  4  0
 18 22  4  0
 19 21  4  0
M  END
$$$$

 Created by Python create_sdf_string function

 23 25  0  0  0  0  0  0  0  0999 V2000
    2.4610   -5.3070   29.1240 C   0  0  0  0  0  0  0  0  0  0  0  0
    4.7710   -4.6952   28.4803 C   0  0  0  0  0  0  0  0  0  0  0  0
    3.4047   -5.1087   28.1314 C   0  0  0  0  0  0  0  0  0  0  0  0
   -0.2234  -11.8615   16.8874 C   0  0  0  0  0  0  0  0  0  0  0  0
    6.4491   -4.1532   30.1213 C   0  0  0  0  0  0  0  0  0  0  0  0
    5.7060   -4.4340   27.4975 C   0  0  0  0  0  0  0  0  0  0  0  0
    1.1818   -5.6612   28.8399 C   0  0  0  0  0  0  0  0  0  0  0  0
   -1.2067   -7.3287   17.7772 C   0  0  0  0  0  0  0  0  0  0  0  0
   -0.0206  -10.5585   16.6210 C   0  0  0  0  0  0  0  0  0  0  0  0
    0.3696  -12.7626   16.2169 O   0  0  0  0  0  0  0  0  0  0  0  0
   -0.6895   -9.5676   17.3297 C   0  0  0  0  0  0  0  0  0  0  0  0
    0.8388   -5.8417   27.5264 C   0  0  0  0  0  0  0  0  0  0  0  0
   -2.0709   -7.6637   18.7817 C   0  0  0  0  0  0  0  0  0  0  0  0
   -0.5279   -8.2168   17.0717 C   0  0  0  0  0  0  0  0  0  0  0  0
    6.9694   -4.0191   27.8190 C   0  0  0  0  0  0  0  0  0  0  0  0
    5.1733   -4.5469   29.8123 C   0  0  0  0  0  0  0  0  0  0  0  0
   -1.7508  -11.3016   18.6072 C   0  0  0  0  0  0  0  0  0  0  0  0
    1.7497   -5.6771   26.4971 C   0  0  0  0  0  0  0  0  0  0  0  0
   -1.5799   -9.9322   18.3468 C   0  0  0  0  0  0  0  0  0  0  0  0
   -1.0871  -12.2214   17.8851 C   0  0  0  0  0  0  0  0  0  0  0  0
   -2.2706   -8.9669   19.0691 C   0  0  0  0  0  0  0  0  0  0  0  0
    3.0279   -5.3073   26.8197 C   0  0  0  0  0  0  0  0  0  0  0  0
    7.3282   -3.8948   29.1186 C   0  0  0  0  0  0  0  0  0  0  0  0
  1  3  4  0
  1  7  4  0
  2  3  1  0
  2  6  4  0
  2 16  4  0
  3 22  4  0
  4  9  4  0
  4 10  1  0
  4 20  4  0
  5 16  4  0
  5 23  4  0
  6 15  4  0
  7 12  4  0
  8 13  4  0
  8 14  4  0
  9 11  4  0
 11 14  4  0
 11 19  4  0
 12 18  4  0
 13 21  4  0
 15 23  4  0
 17 19  4  0
 17 20  4  0
 18 22  4  0
 19 21  4  0
M  END
$$$$

 Created by Python create_sdf_string function

 23 25  0  0  0  0  0  0  0  0999 V2000
    2.4610   -5.3070   29.1240 C   0  0  0  0  0  0  0  0  0  0  0  0
    4.7710   -4.6952   28.4803 C   0  0  0  0  0  0  0  0  0  0  0  0
    3.4047   -5.1087   28.1314 C   0  0  0  0  0  0  0  0  0  0  0  0
   -0.2234  -11.8615   16.8874 C   0  0  0  0  0  0  0  0  0  0  0  0
    6.4491   -4.1532   30.1213 C   0  0  0  0  0  0  0  0  0  0  0  0
    5.7060   -4.4340   27.4975 C   0  0  0  0  0  0  0  0  0  0  0  0
    1.1818   -5.6612   28.8399 C   0  0  0  0  0  0  0  0  0  0  0  0
   -1.2067   -7.3287   17.7772 C   0  0  0  0  0  0  0  0  0  0  0  0
   -0.0206  -10.5585   16.6210 C   0  0  0  0  0  0  0  0  0  0  0  0
    0.3696  -12.7626   16.2169 O   0  0  0  0  0  0  0  0  0  0  0  0
   -0.6895   -9.5676   17.3297 C   0  0  0  0  0  0  0  0  0  0  0  0
    0.8388   -5.8417   27.5264 C   0  0  0  0  0  0  0  0  0  0  0  0
   -2.0709   -7.6637   18.7817 C   0  0  0  0  0  0  0  0  0  0  0  0
   -0.5279   -8.2168   17.0717 C   0  0  0  0  0  0  0  0  0  0  0  0
    6.9694   -4.0191   27.8190 C   0  0  0  0  0  0  0  0  0  0  0  0
    5.1733   -4.5469   29.8123 C   0  0  0  0  0  0  0  0  0  0  0  0
   -1.7508  -11.3016   18.6072 C   0  0  0  0  0  0  0  0  0  0  0  0
    1.7497   -5.6771   26.4971 C   0  0  0  0  0  0  0  0  0  0  0  0
   -1.5799   -9.9322   18.3468 C   0  0  0  0  0  0  0  0  0  0  0  0
   -1.0871  -12.2214   17.8851 C   0  0  0  0  0  0  0  0  0  0  0  0
   -2.2706   -8.9669   19.0691 C   0  0  0  0  0  0  0  0  0  0  0  0
    3.0279   -5.3073   26.8197 C   0  0  0  0  0  0  0  0  0  0  0  0
    7.3282   -3.8948   29.1186 C   0  0  0  0  0  0  0  0  0  0  0  0
  1  3  4  0
  1  7  4  0
  2  3  1  0
  2  6  4  0
  2 16  4  0
  3 22  4  0
  4  9  4  0
  4 10  1  0
  4 20  4  0
  5 16  4  0
  5 23  4  0
  6 15  4  0
  7 12  4  0
  8 13  4  0
  8 14  4  0
  9 11  4  0
 11 14  4  0
 11 19  4  0
 12 18  4  0
 13 21  4  0
 15 23  4  0
 17 19  4  0
 17 20  4  0
 18 22  4  0
 19 21  4  0
M  END
$$$$

 Created by Python create_sdf_string function

 23 25  0  0  0  0  0  0  0  0999 V2000
    2.4610   -5.3070   29.1240 C   0  0  0  0  0  0  0  0  0  0  0  0
    4.7710   -4.6952   28.4803 C   0  0  0  0  0  0  0  0  0  0  0  0
    3.4047   -5.1087   28.1314 C   0  0  0  0  0  0  0  0  0  0  0  0
   -0.2234  -11.8615   16.8874 C   0  0  0  0  0  0  0  0  0  0  0  0
    6.4491   -4.1532   30.1213 C   0  0  0  0  0  0  0  0  0  0  0  0
    5.7060   -4.4340   27.4975 C   0  0  0  0  0  0  0  0  0  0  0  0
    1.1818   -5.6612   28.8399 C   0  0  0  0  0  0  0  0  0  0  0  0
   -1.2067   -7.3287   17.7772 C   0  0  0  0  0  0  0  0  0  0  0  0
   -0.0206  -10.5585   16.6210 C   0  0  0  0  0  0  0  0  0  0  0  0
    0.3696  -12.7626   16.2169 O   0  0  0  0  0  0  0  0  0  0  0  0
   -0.6895   -9.5676   17.3297 C   0  0  0  0  0  0  0  0  0  0  0  0
    0.8388   -5.8417   27.5264 C   0  0  0  0  0  0  0  0  0  0  0  0
   -2.0709   -7.6637   18.7817 C   0  0  0  0  0  0  0  0  0  0  0  0
   -0.5279   -8.2168   17.0717 C   0  0  0  0  0  0  0  0  0  0  0  0
    6.9694   -4.0191   27.8190 C   0  0  0  0  0  0  0  0  0  0  0  0
    5.1733   -4.5469   29.8123 C   0  0  0  0  0  0  0  0  0  0  0  0
   -1.7508  -11.3016   18.6072 C   0  0  0  0  0  0  0  0  0  0  0  0
    1.7497   -5.6771   26.4971 C   0  0  0  0  0  0  0  0  0  0  0  0
   -1.5799   -9.9322   18.3468 C   0  0  0  0  0  0  0  0  0  0  0  0
   -1.0871  -12.2214   17.8851 C   0  0  0  0  0  0  0  0  0  0  0  0
   -2.2706   -8.9669   19.0691 C   0  0  0  0  0  0  0  0  0  0  0  0
    3.0279   -5.3073   26.8197 C   0  0  0  0  0  0  0  0  0  0  0  0
    7.3282   -3.8948   29.1186 C   0  0  0  0  0  0  0  0  0  0  0  0
  1  3  4  0
  1  7  4  0
  2  3  1  0
  2  6  4  0
  2 16  4  0
  3 22  4  0
  4  9  4  0
  4 10  1  0
  4 20  4  0
  5 16  4  0
  5 23  4  0
  6 15  4  0
  7 12  4  0
  8 13  4  0
  8 14  4  0
  9 11  4  0
 11 14  4  0
 11 19  4  0
 12 18  4  0
 13 21  4  0
 15 23  4  0
 17 19  4  0
 17 20  4  0
 18 22  4  0
 19 21  4  0
M  END
$$$$

 Created by Python create_sdf_string function

 23 25  0  0  0  0  0  0  0  0999 V2000
    2.4610   -5.3070   29.1240 C   0  0  0  0  0  0  0  0  0  0  0  0
    4.7710   -4.6952   28.4803 C   0  0  0  0  0  0  0  0  0  0  0  0
    3.4047   -5.1087   28.1314 C   0  0  0  0  0  0  0  0  0  0  0  0
   -0.2234  -11.8615   16.8874 C   0  0  0  0  0  0  0  0  0  0  0  0
    6.4491   -4.1532   30.1213 C   0  0  0  0  0  0  0  0  0  0  0  0
    5.7060   -4.4340   27.4975 C   0  0  0  0  0  0  0  0  0  0  0  0
    1.1818   -5.6612   28.8399 C   0  0  0  0  0  0  0  0  0  0  0  0
   -1.2067   -7.3287   17.7772 C   0  0  0  0  0  0  0  0  0  0  0  0
   -0.0206  -10.5585   16.6210 C   0  0  0  0  0  0  0  0  0  0  0  0
    0.3696  -12.7626   16.2169 O   0  0  0  0  0  0  0  0  0  0  0  0
   -0.6895   -9.5676   17.3297 C   0  0  0  0  0  0  0  0  0  0  0  0
    0.8388   -5.8417   27.5264 C   0  0  0  0  0  0  0  0  0  0  0  0
   -2.0709   -7.6637   18.7817 C   0  0  0  0  0  0  0  0  0  0  0  0
   -0.5279   -8.2168   17.0717 C   0  0  0  0  0  0  0  0  0  0  0  0
    6.9694   -4.0191   27.8190 C   0  0  0  0  0  0  0  0  0  0  0  0
    5.1733   -4.5469   29.8123 C   0  0  0  0  0  0  0  0  0  0  0  0
   -1.7508  -11.3016   18.6072 C   0  0  0  0  0  0  0  0  0  0  0  0
    1.7497   -5.6771   26.4971 C   0  0  0  0  0  0  0  0  0  0  0  0
   -1.5799   -9.9322   18.3468 C   0  0  0  0  0  0  0  0  0  0  0  0
   -1.0871  -12.2214   17.8851 C   0  0  0  0  0  0  0  0  0  0  0  0
   -2.2706   -8.9669   19.0691 C   0  0  0  0  0  0  0  0  0  0  0  0
    3.0279   -5.3073   26.8197 C   0  0  0  0  0  0  0  0  0  0  0  0
    7.3282   -3.8948   29.1186 C   0  0  0  0  0  0  0  0  0  0  0  0
  1  3  4  0
  1  7  4  0
  2  3  1  0
  2  6  4  0
  2 16  4  0
  3 22  4  0
  4  9  4  0
  4 10  1  0
  4 20  4  0
  5 16  4  0
  5 23  4  0
  6 15  4  0
  7 12  4  0
  8 13  4  0
  8 14  4  0
  9 11  4  0
 11 14  4  0
 11 19  4  0
 12 18  4  0
 13 21  4  0
 15 23  4  0
 17 19  4  0
 17 20  4  0
 18 22  4  0
 19 21  4  0
M  END
$$$$

 Created by Python create_sdf_string function

 23 25  0  0  0  0  0  0  0  0999 V2000
    2.4610   -5.3070   29.1240 C   0  0  0  0  0  0  0  0  0  0  0  0
    4.7710   -4.6952   28.4803 C   0  0  0  0  0  0  0  0  0  0  0  0
    3.4047   -5.1087   28.1314 C   0  0  0  0  0  0  0  0  0  0  0  0
   -0.2234  -11.8615   16.8874 C   0  0  0  0  0  0  0  0  0  0  0  0
    6.4491   -4.1532   30.1213 C   0  0  0  0  0  0  0  0  0  0  0  0
    5.7060   -4.4340   27.4975 C   0  0  0  0  0  0  0  0  0  0  0  0
    1.1818   -5.6612   28.8399 C   0  0  0  0  0  0  0  0  0  0  0  0
   -1.2067   -7.3287   17.7772 C   0  0  0  0  0  0  0  0  0  0  0  0
   -0.0206  -10.5585   16.6210 C   0  0  0  0  0  0  0  0  0  0  0  0
    0.3696  -12.7626   16.2169 O   0  0  0  0  0  0  0  0  0  0  0  0
   -0.6895   -9.5676   17.3297 C   0  0  0  0  0  0  0  0  0  0  0  0
    0.8388   -5.8417   27.5264 C   0  0  0  0  0  0  0  0  0  0  0  0
   -2.0709   -7.6637   18.7817 C   0  0  0  0  0  0  0  0  0  0  0  0
   -0.5279   -8.2168   17.0717 C   0  0  0  0  0  0  0  0  0  0  0  0
    6.9694   -4.0191   27.8190 C   0  0  0  0  0  0  0  0  0  0  0  0
    5.1733   -4.5469   29.8123 C   0  0  0  0  0  0  0  0  0  0  0  0
   -1.7508  -11.3016   18.6072 C   0  0  0  0  0  0  0  0  0  0  0  0
    1.7497   -5.6771   26.4971 C   0  0  0  0  0  0  0  0  0  0  0  0
   -1.5799   -9.9322   18.3468 C   0  0  0  0  0  0  0  0  0  0  0  0
   -1.0871  -12.2214   17.8851 C   0  0  0  0  0  0  0  0  0  0  0  0
   -2.2706   -8.9669   19.0691 C   0  0  0  0  0  0  0  0  0  0  0  0
    3.0279   -5.3073   26.8197 C   0  0  0  0  0  0  0  0  0  0  0  0
    7.3282   -3.8948   29.1186 C   0  0  0  0  0  0  0  0  0  0  0  0
  1  3  4  0
  1  7  4  0
  2  3  1  0
  2  6  4  0
  2 16  4  0
  3 22  4  0
  4  9  4  0
  4 10  1  0
  4 20  4  0
  5 16  4  0
  5 23  4  0
  6 15  4  0
  7 12  4  0
  8 13  4  0
  8 14  4  0
  9 11  4  0
 11 14  4  0
 11 19  4  0
 12 18  4  0
 13 21  4  0
 15 23  4  0
 17 19  4  0
 17 20  4  0
 18 22  4  0
 19 21  4  0
M  END
$$$$

 Created by Python create_sdf_string function

 23 25  0  0  0  0  0  0  0  0999 V2000
    2.4610   -5.3070   29.1240 C   0  0  0  0  0  0  0  0  0  0  0  0
    4.7710   -4.6952   28.4803 C   0  0  0  0  0  0  0  0  0  0  0  0
    3.4047   -5.1087   28.1314 C   0  0  0  0  0  0  0  0  0  0  0  0
   -0.2234  -11.8615   16.8874 C   0  0  0  0  0  0  0  0  0  0  0  0
    6.4491   -4.1532   30.1213 C   0  0  0  0  0  0  0  0  0  0  0  0
    5.7060   -4.4340   27.4975 C   0  0  0  0  0  0  0  0  0  0  0  0
    1.1818   -5.6612   28.8399 C   0  0  0  0  0  0  0  0  0  0  0  0
   -1.2067   -7.3287   17.7772 C   0  0  0  0  0  0  0  0  0  0  0  0
   -0.0206  -10.5585   16.6210 C   0  0  0  0  0  0  0  0  0  0  0  0
    0.3696  -12.7626   16.2169 O   0  0  0  0  0  0  0  0  0  0  0  0
   -0.6895   -9.5676   17.3297 C   0  0  0  0  0  0  0  0  0  0  0  0
    0.8388   -5.8417   27.5264 C   0  0  0  0  0  0  0  0  0  0  0  0
   -2.0709   -7.6637   18.7817 C   0  0  0  0  0  0  0  0  0  0  0  0
   -0.5279   -8.2168   17.0717 C   0  0  0  0  0  0  0  0  0  0  0  0
    6.9694   -4.0191   27.8190 C   0  0  0  0  0  0  0  0  0  0  0  0
    5.1733   -4.5469   29.8123 C   0  0  0  0  0  0  0  0  0  0  0  0
   -1.7508  -11.3016   18.6072 C   0  0  0  0  0  0  0  0  0  0  0  0
    1.7497   -5.6771   26.4971 C   0  0  0  0  0  0  0  0  0  0  0  0
   -1.5799   -9.9322   18.3468 C   0  0  0  0  0  0  0  0  0  0  0  0
   -1.0871  -12.2214   17.8851 C   0  0  0  0  0  0  0  0  0  0  0  0
   -2.2706   -8.9669   19.0691 C   0  0  0  0  0  0  0  0  0  0  0  0
    3.0279   -5.3073   26.8197 C   0  0  0  0  0  0  0  0  0  0  0  0
    7.3282   -3.8948   29.1186 C   0  0  0  0  0  0  0  0  0  0  0  0
  1  3  4  0
  1  7  4  0
  2  3  1  0
  2  6  4  0
  2 16  4  0
  3 22  4  0
  4  9  4  0
  4 10  1  0
  4 20  4  0
  5 16  4  0
  5 23  4  0
  6 15  4  0
  7 12  4  0
  8 13  4  0
  8 14  4  0
  9 11  4  0
 11 14  4  0
 11 19  4  0
 12 18  4  0
 13 21  4  0
 15 23  4  0
 17 19  4  0
 17 20  4  0
 18 22  4  0
 19 21  4  0
M  END
$$$$

 Created by Python create_sdf_string function

 23 25  0  0  0  0  0  0  0  0999 V2000
    2.4610   -5.3070   29.1240 C   0  0  0  0  0  0  0  0  0  0  0  0
    4.7710   -4.6952   28.4803 C   0  0  0  0  0  0  0  0  0  0  0  0
    3.4047   -5.1087   28.1314 C   0  0  0  0  0  0  0  0  0  0  0  0
   -0.2234  -11.8615   16.8874 C   0  0  0  0  0  0  0  0  0  0  0  0
    6.4491   -4.1532   30.1213 C   0  0  0  0  0  0  0  0  0  0  0  0
    5.7060   -4.4340   27.4975 C   0  0  0  0  0  0  0  0  0  0  0  0
    1.1818   -5.6612   28.8399 C   0  0  0  0  0  0  0  0  0  0  0  0
   -1.2067   -7.3287   17.7772 C   0  0  0  0  0  0  0  0  0  0  0  0
   -0.0206  -10.5585   16.6210 C   0  0  0  0  0  0  0  0  0  0  0  0
    0.3696  -12.7626   16.2169 O   0  0  0  0  0  0  0  0  0  0  0  0
   -0.6895   -9.5676   17.3297 C   0  0  0  0  0  0  0  0  0  0  0  0
    0.8388   -5.8417   27.5264 C   0  0  0  0  0  0  0  0  0  0  0  0
   -2.0709   -7.6637   18.7817 C   0  0  0  0  0  0  0  0  0  0  0  0
   -0.5279   -8.2168   17.0717 C   0  0  0  0  0  0  0  0  0  0  0  0
    6.9694   -4.0191   27.8190 C   0  0  0  0  0  0  0  0  0  0  0  0
    5.1733   -4.5469   29.8123 C   0  0  0  0  0  0  0  0  0  0  0  0
   -1.7508  -11.3016   18.6072 C   0  0  0  0  0  0  0  0  0  0  0  0
    1.7497   -5.6771   26.4971 C   0  0  0  0  0  0  0  0  0  0  0  0
   -1.5799   -9.9322   18.3468 C   0  0  0  0  0  0  0  0  0  0  0  0
   -1.0871  -12.2214   17.8851 C   0  0  0  0  0  0  0  0  0  0  0  0
   -2.2706   -8.9669   19.0691 C   0  0  0  0  0  0  0  0  0  0  0  0
    3.0279   -5.3073   26.8197 C   0  0  0  0  0  0  0  0  0  0  0  0
    7.3282   -3.8948   29.1186 C   0  0  0  0  0  0  0  0  0  0  0  0
  1  3  4  0
  1  7  4  0
  2  3  1  0
  2  6  4  0
  2 16  4  0
  3 22  4  0
  4  9  4  0
  4 10  1  0
  4 20  4  0
  5 16  4  0
  5 23  4  0
  6 15  4  0
  7 12  4  0
  8 13  4  0
  8 14  4  0
  9 11  4  0
 11 14  4  0
 11 19  4  0
 12 18  4  0
 13 21  4  0
 15 23  4  0
 17 19  4  0
 17 20  4  0
 18 22  4  0
 19 21  4  0
M  END
$$$$

 Created by Python create_sdf_string function

 23 25  0  0  0  0  0  0  0  0999 V2000
    2.4610   -5.3070   29.1240 C   0  0  0  0  0  0  0  0  0  0  0  0
    4.7710   -4.6952   28.4803 C   0  0  0  0  0  0  0  0  0  0  0  0
    3.4047   -5.1087   28.1314 C   0  0  0  0  0  0  0  0  0  0  0  0
   -0.2234  -11.8615   16.8874 C   0  0  0  0  0  0  0  0  0  0  0  0
    6.4491   -4.1532   30.1213 C   0  0  0  0  0  0  0  0  0  0  0  0
    5.7060   -4.4340   27.4975 C   0  0  0  0  0  0  0  0  0  0  0  0
    1.1818   -5.6612   28.8399 C   0  0  0  0  0  0  0  0  0  0  0  0
   -1.2067   -7.3287   17.7772 C   0  0  0  0  0  0  0  0  0  0  0  0
   -0.0206  -10.5585   16.6210 C   0  0  0  0  0  0  0  0  0  0  0  0
    0.3696  -12.7626   16.2169 O   0  0  0  0  0  0  0  0  0  0  0  0
   -0.6895   -9.5676   17.3297 C   0  0  0  0  0  0  0  0  0  0  0  0
    0.8388   -5.8417   27.5264 C   0  0  0  0  0  0  0  0  0  0  0  0
   -2.0709   -7.6637   18.7817 C   0  0  0  0  0  0  0  0  0  0  0  0
   -0.5279   -8.2168   17.0717 C   0  0  0  0  0  0  0  0  0  0  0  0
    6.9694   -4.0191   27.8190 C   0  0  0  0  0  0  0  0  0  0  0  0
    5.1733   -4.5469   29.8123 C   0  0  0  0  0  0  0  0  0  0  0  0
   -1.7508  -11.3016   18.6072 C   0  0  0  0  0  0  0  0  0  0  0  0
    1.7497   -5.6771   26.4971 C   0  0  0  0  0  0  0  0  0  0  0  0
   -1.5799   -9.9322   18.3468 C   0  0  0  0  0  0  0  0  0  0  0  0
   -1.0871  -12.2214   17.8851 C   0  0  0  0  0  0  0  0  0  0  0  0
   -2.2706   -8.9669   19.0691 C   0  0  0  0  0  0  0  0  0  0  0  0
    3.0279   -5.3073   26.8197 C   0  0  0  0  0  0  0  0  0  0  0  0
    7.3282   -3.8948   29.1186 C   0  0  0  0  0  0  0  0  0  0  0  0
  1  3  4  0
  1  7  4  0
  2  3  1  0
  2  6  4  0
  2 16  4  0
  3 22  4  0
  4  9  4  0
  4 10  1  0
  4 20  4  0
  5 16  4  0
  5 23  4  0
  6 15  4  0
  7 12  4  0
  8 13  4  0
  8 14  4  0
  9 11  4  0
 11 14  4  0
 11 19  4  0
 12 18  4  0
 13 21  4  0
 15 23  4  0
 17 19  4  0
 17 20  4  0
 18 22  4  0
 19 21  4  0
M  END
$$$$

 Created by Python create_sdf_string function

 23 25  0  0  0  0  0  0  0  0999 V2000
    2.4610   -5.3070   29.1240 C   0  0  0  0  0  0  0  0  0  0  0  0
    4.7710   -4.6952   28.4803 C   0  0  0  0  0  0  0  0  0  0  0  0
    3.4047   -5.1087   28.1314 C   0  0  0  0  0  0  0  0  0  0  0  0
   -0.2234  -11.8615   16.8874 C   0  0  0  0  0  0  0  0  0  0  0  0
    6.4491   -4.1532   30.1213 C   0  0  0  0  0  0  0  0  0  0  0  0
    5.7060   -4.4340   27.4975 C   0  0  0  0  0  0  0  0  0  0  0  0
    1.1818   -5.6612   28.8399 C   0  0  0  0  0  0  0  0  0  0  0  0
   -1.2067   -7.3287   17.7772 C   0  0  0  0  0  0  0  0  0  0  0  0
   -0.0206  -10.5585   16.6210 C   0  0  0  0  0  0  0  0  0  0  0  0
    0.3696  -12.7626   16.2169 O   0  0  0  0  0  0  0  0  0  0  0  0
   -0.6895   -9.5676   17.3297 C   0  0  0  0  0  0  0  0  0  0  0  0
    0.8388   -5.8417   27.5264 C   0  0  0  0  0  0  0  0  0  0  0  0
   -2.0709   -7.6637   18.7817 C   0  0  0  0  0  0  0  0  0  0  0  0
   -0.5279   -8.2168   17.0717 C   0  0  0  0  0  0  0  0  0  0  0  0
    6.9694   -4.0191   27.8190 C   0  0  0  0  0  0  0  0  0  0  0  0
    5.1733   -4.5469   29.8123 C   0  0  0  0  0  0  0  0  0  0  0  0
   -1.7508  -11.3016   18.6072 C   0  0  0  0  0  0  0  0  0  0  0  0
    1.7497   -5.6771   26.4971 C   0  0  0  0  0  0  0  0  0  0  0  0
   -1.5799   -9.9322   18.3468 C   0  0  0  0  0  0  0  0  0  0  0  0
   -1.0871  -12.2214   17.8851 C   0  0  0  0  0  0  0  0  0  0  0  0
   -2.2706   -8.9669   19.0691 C   0  0  0  0  0  0  0  0  0  0  0  0
    3.0279   -5.3073   26.8197 C   0  0  0  0  0  0  0  0  0  0  0  0
    7.3282   -3.8948   29.1186 C   0  0  0  0  0  0  0  0  0  0  0  0
  1  3  4  0
  1  7  4  0
  2  3  1  0
  2  6  4  0
  2 16  4  0
  3 22  4  0
  4  9  4  0
  4 10  1  0
  4 20  4  0
  5 16  4  0
  5 23  4  0
  6 15  4  0
  7 12  4  0
  8 13  4  0
  8 14  4  0
  9 11  4  0
 11 14  4  0
 11 19  4  0
 12 18  4  0
 13 21  4  0
 15 23  4  0
 17 19  4  0
 17 20  4  0
 18 22  4  0
 19 21  4  0
M  END
$$$$

 Created by Python create_sdf_string function

 23 25  0  0  0  0  0  0  0  0999 V2000
    2.4610   -5.3070   29.1240 C   0  0  0  0  0  0  0  0  0  0  0  0
    4.7710   -4.6952   28.4803 C   0  0  0  0  0  0  0  0  0  0  0  0
    3.4047   -5.1087   28.1314 C   0  0  0  0  0  0  0  0  0  0  0  0
   -0.2234  -11.8615   16.8874 C   0  0  0  0  0  0  0  0  0  0  0  0
    6.4491   -4.1532   30.1213 C   0  0  0  0  0  0  0  0  0  0  0  0
    5.7060   -4.4340   27.4975 C   0  0  0  0  0  0  0  0  0  0  0  0
    1.1818   -5.6612   28.8399 C   0  0  0  0  0  0  0  0  0  0  0  0
   -1.2067   -7.3287   17.7772 C   0  0  0  0  0  0  0  0  0  0  0  0
   -0.0206  -10.5585   16.6210 C   0  0  0  0  0  0  0  0  0  0  0  0
    0.3696  -12.7626   16.2169 O   0  0  0  0  0  0  0  0  0  0  0  0
   -0.6895   -9.5676   17.3297 C   0  0  0  0  0  0  0  0  0  0  0  0
    0.8388   -5.8417   27.5264 C   0  0  0  0  0  0  0  0  0  0  0  0
   -2.0709   -7.6637   18.7817 C   0  0  0  0  0  0  0  0  0  0  0  0
   -0.5279   -8.2168   17.0717 C   0  0  0  0  0  0  0  0  0  0  0  0
    6.9694   -4.0191   27.8190 C   0  0  0  0  0  0  0  0  0  0  0  0
    5.1733   -4.5469   29.8123 C   0  0  0  0  0  0  0  0  0  0  0  0
   -1.7508  -11.3016   18.6072 C   0  0  0  0  0  0  0  0  0  0  0  0
    1.7497   -5.6771   26.4971 C   0  0  0  0  0  0  0  0  0  0  0  0
   -1.5799   -9.9322   18.3468 C   0  0  0  0  0  0  0  0  0  0  0  0
   -1.0871  -12.2214   17.8851 C   0  0  0  0  0  0  0  0  0  0  0  0
   -2.2706   -8.9669   19.0691 C   0  0  0  0  0  0  0  0  0  0  0  0
    3.0279   -5.3073   26.8197 C   0  0  0  0  0  0  0  0  0  0  0  0
    7.3282   -3.8948   29.1186 C   0  0  0  0  0  0  0  0  0  0  0  0
  1  3  4  0
  1  7  4  0
  2  3  1  0
  2  6  4  0
  2 16  4  0
  3 22  4  0
  4  9  4  0
  4 10  1  0
  4 20  4  0
  5 16  4  0
  5 23  4  0
  6 15  4  0
  7 12  4  0
  8 13  4  0
  8 14  4  0
  9 11  4  0
 11 14  4  0
 11 19  4  0
 12 18  4  0
 13 21  4  0
 15 23  4  0
 17 19  4  0
 17 20  4  0
 18 22  4  0
 19 21  4  0
M  END
$$$$

 Created by Python create_sdf_string function

 23 25  0  0  0  0  0  0  0  0999 V2000
    2.4610   -5.3070   29.1240 C   0  0  0  0  0  0  0  0  0  0  0  0
    4.7710   -4.6952   28.4803 C   0  0  0  0  0  0  0  0  0  0  0  0
    3.4047   -5.1087   28.1314 C   0  0  0  0  0  0  0  0  0  0  0  0
   -0.2234  -11.8615   16.8874 C   0  0  0  0  0  0  0  0  0  0  0  0
    6.4491   -4.1532   30.1213 C   0  0  0  0  0  0  0  0  0  0  0  0
    5.7060   -4.4340   27.4975 C   0  0  0  0  0  0  0  0  0  0  0  0
    1.1818   -5.6612   28.8399 C   0  0  0  0  0  0  0  0  0  0  0  0
   -1.2067   -7.3287   17.7772 C   0  0  0  0  0  0  0  0  0  0  0  0
   -0.0206  -10.5585   16.6210 C   0  0  0  0  0  0  0  0  0  0  0  0
    0.3696  -12.7626   16.2169 O   0  0  0  0  0  0  0  0  0  0  0  0
   -0.6895   -9.5676   17.3297 C   0  0  0  0  0  0  0  0  0  0  0  0
    0.8388   -5.8417   27.5264 C   0  0  0  0  0  0  0  0  0  0  0  0
   -2.0709   -7.6637   18.7817 C   0  0  0  0  0  0  0  0  0  0  0  0
   -0.5279   -8.2168   17.0717 C   0  0  0  0  0  0  0  0  0  0  0  0
    6.9694   -4.0191   27.8190 C   0  0  0  0  0  0  0  0  0  0  0  0
    5.1733   -4.5469   29.8123 C   0  0  0  0  0  0  0  0  0  0  0  0
   -1.7508  -11.3016   18.6072 C   0  0  0  0  0  0  0  0  0  0  0  0
    1.7497   -5.6771   26.4971 C   0  0  0  0  0  0  0  0  0  0  0  0
   -1.5799   -9.9322   18.3468 C   0  0  0  0  0  0  0  0  0  0  0  0
   -1.0871  -12.2214   17.8851 C   0  0  0  0  0  0  0  0  0  0  0  0
   -2.2706   -8.9669   19.0691 C   0  0  0  0  0  0  0  0  0  0  0  0
    3.0279   -5.3073   26.8197 C   0  0  0  0  0  0  0  0  0  0  0  0
    7.3282   -3.8948   29.1186 C   0  0  0  0  0  0  0  0  0  0  0  0
  1  3  4  0
  1  7  4  0
  2  3  1  0
  2  6  4  0
  2 16  4  0
  3 22  4  0
  4  9  4  0
  4 10  1  0
  4 20  4  0
  5 16  4  0
  5 23  4  0
  6 15  4  0
  7 12  4  0
  8 13  4  0
  8 14  4  0
  9 11  4  0
 11 14  4  0
 11 19  4  0
 12 18  4  0
 13 21  4  0
 15 23  4  0
 17 19  4  0
 17 20  4  0
 18 22  4  0
 19 21  4  0
M  END
$$$$

 Created by Python create_sdf_string function

 23 25  0  0  0  0  0  0  0  0999 V2000
    2.4610   -5.3070   29.1240 C   0  0  0  0  0  0  0  0  0  0  0  0
    4.7710   -4.6952   28.4803 C   0  0  0  0  0  0  0  0  0  0  0  0
    3.4047   -5.1087   28.1314 C   0  0  0  0  0  0  0  0  0  0  0  0
   -0.2234  -11.8615   16.8874 C   0  0  0  0  0  0  0  0  0  0  0  0
    6.4491   -4.1532   30.1213 C   0  0  0  0  0  0  0  0  0  0  0  0
    5.7060   -4.4340   27.4975 C   0  0  0  0  0  0  0  0  0  0  0  0
    1.1818   -5.6612   28.8399 C   0  0  0  0  0  0  0  0  0  0  0  0
   -1.2067   -7.3287   17.7772 C   0  0  0  0  0  0  0  0  0  0  0  0
   -0.0206  -10.5585   16.6210 C   0  0  0  0  0  0  0  0  0  0  0  0
    0.3696  -12.7626   16.2169 O   0  0  0  0  0  0  0  0  0  0  0  0
   -0.6895   -9.5676   17.3297 C   0  0  0  0  0  0  0  0  0  0  0  0
    0.8388   -5.8417   27.5264 C   0  0  0  0  0  0  0  0  0  0  0  0
   -2.0709   -7.6637   18.7817 C   0  0  0  0  0  0  0  0  0  0  0  0
   -0.5279   -8.2168   17.0717 C   0  0  0  0  0  0  0  0  0  0  0  0
    6.9694   -4.0191   27.8190 C   0  0  0  0  0  0  0  0  0  0  0  0
    5.1733   -4.5469   29.8123 C   0  0  0  0  0  0  0  0  0  0  0  0
   -1.7508  -11.3016   18.6072 C   0  0  0  0  0  0  0  0  0  0  0  0
    1.7497   -5.6771   26.4971 C   0  0  0  0  0  0  0  0  0  0  0  0
   -1.5799   -9.9322   18.3468 C   0  0  0  0  0  0  0  0  0  0  0  0
   -1.0871  -12.2214   17.8851 C   0  0  0  0  0  0  0  0  0  0  0  0
   -2.2706   -8.9669   19.0691 C   0  0  0  0  0  0  0  0  0  0  0  0
    3.0279   -5.3073   26.8197 C   0  0  0  0  0  0  0  0  0  0  0  0
    7.3282   -3.8948   29.1186 C   0  0  0  0  0  0  0  0  0  0  0  0
  1  3  4  0
  1  7  4  0
  2  3  1  0
  2  6  4  0
  2 16  4  0
  3 22  4  0
  4  9  4  0
  4 10  1  0
  4 20  4  0
  5 16  4  0
  5 23  4  0
  6 15  4  0
  7 12  4  0
  8 13  4  0
  8 14  4  0
  9 11  4  0
 11 14  4  0
 11 19  4  0
 12 18  4  0
 13 21  4  0
 15 23  4  0
 17 19  4  0
 17 20  4  0
 18 22  4  0
 19 21  4  0
M  END
$$$$

 Created by Python create_sdf_string function

 23 25  0  0  0  0  0  0  0  0999 V2000
    2.4610   -5.3070   29.1240 C   0  0  0  0  0  0  0  0  0  0  0  0
    4.7710   -4.6952   28.4803 C   0  0  0  0  0  0  0  0  0  0  0  0
    3.4047   -5.1087   28.1314 C   0  0  0  0  0  0  0  0  0  0  0  0
   -0.2234  -11.8615   16.8874 C   0  0  0  0  0  0  0  0  0  0  0  0
    6.4491   -4.1532   30.1213 C   0  0  0  0  0  0  0  0  0  0  0  0
    5.7060   -4.4340   27.4975 C   0  0  0  0  0  0  0  0  0  0  0  0
    1.1818   -5.6612   28.8399 C   0  0  0  0  0  0  0  0  0  0  0  0
   -1.2067   -7.3287   17.7772 C   0  0  0  0  0  0  0  0  0  0  0  0
   -0.0206  -10.5585   16.6210 C   0  0  0  0  0  0  0  0  0  0  0  0
    0.3696  -12.7626   16.2169 O   0  0  0  0  0  0  0  0  0  0  0  0
   -0.6895   -9.5676   17.3297 C   0  0  0  0  0  0  0  0  0  0  0  0
    0.8388   -5.8417   27.5264 C   0  0  0  0  0  0  0  0  0  0  0  0
   -2.0709   -7.6637   18.7817 C   0  0  0  0  0  0  0  0  0  0  0  0
   -0.5279   -8.2168   17.0717 C   0  0  0  0  0  0  0  0  0  0  0  0
    6.9694   -4.0191   27.8190 C   0  0  0  0  0  0  0  0  0  0  0  0
    5.1733   -4.5469   29.8123 C   0  0  0  0  0  0  0  0  0  0  0  0
   -1.7508  -11.3016   18.6072 C   0  0  0  0  0  0  0  0  0  0  0  0
    1.7497   -5.6771   26.4971 C   0  0  0  0  0  0  0  0  0  0  0  0
   -1.5799   -9.9322   18.3468 C   0  0  0  0  0  0  0  0  0  0  0  0
   -1.0871  -12.2214   17.8851 C   0  0  0  0  0  0  0  0  0  0  0  0
   -2.2706   -8.9669   19.0691 C   0  0  0  0  0  0  0  0  0  0  0  0
    3.0279   -5.3073   26.8197 C   0  0  0  0  0  0  0  0  0  0  0  0
    7.3282   -3.8948   29.1186 C   0  0  0  0  0  0  0  0  0  0  0  0
  1  3  4  0
  1  7  4  0
  2  3  1  0
  2  6  4  0
  2 16  4  0
  3 22  4  0
  4  9  4  0
  4 10  1  0
  4 20  4  0
  5 16  4  0
  5 23  4  0
  6 15  4  0
  7 12  4  0
  8 13  4  0
  8 14  4  0
  9 11  4  0
 11 14  4  0
 11 19  4  0
 12 18  4  0
 13 21  4  0
 15 23  4  0
 17 19  4  0
 17 20  4  0
 18 22  4  0
 19 21  4  0
M  END
$$$$

 Created by Python create_sdf_string function

 23 25  0  0  0  0  0  0  0  0999 V2000
    2.4610   -5.3070   29.1240 C   0  0  0  0  0  0  0  0  0  0  0  0
    4.7710   -4.6952   28.4803 C   0  0  0  0  0  0  0  0  0  0  0  0
    3.4047   -5.1087   28.1314 C   0  0  0  0  0  0  0  0  0  0  0  0
   -0.2234  -11.8615   16.8874 C   0  0  0  0  0  0  0  0  0  0  0  0
    6.4491   -4.1532   30.1213 C   0  0  0  0  0  0  0  0  0  0  0  0
    5.7060   -4.4340   27.4975 C   0  0  0  0  0  0  0  0  0  0  0  0
    1.1818   -5.6612   28.8399 C   0  0  0  0  0  0  0  0  0  0  0  0
   -1.2067   -7.3287   17.7772 C   0  0  0  0  0  0  0  0  0  0  0  0
   -0.0206  -10.5585   16.6210 C   0  0  0  0  0  0  0  0  0  0  0  0
    0.3696  -12.7626   16.2169 O   0  0  0  0  0  0  0  0  0  0  0  0
   -0.6895   -9.5676   17.3297 C   0  0  0  0  0  0  0  0  0  0  0  0
    0.8388   -5.8417   27.5264 C   0  0  0  0  0  0  0  0  0  0  0  0
   -2.0709   -7.6637   18.7817 C   0  0  0  0  0  0  0  0  0  0  0  0
   -0.5279   -8.2168   17.0717 C   0  0  0  0  0  0  0  0  0  0  0  0
    6.9694   -4.0191   27.8190 C   0  0  0  0  0  0  0  0  0  0  0  0
    5.1733   -4.5469   29.8123 C   0  0  0  0  0  0  0  0  0  0  0  0
   -1.7508  -11.3016   18.6072 C   0  0  0  0  0  0  0  0  0  0  0  0
    1.7497   -5.6771   26.4971 C   0  0  0  0  0  0  0  0  0  0  0  0
   -1.5799   -9.9322   18.3468 C   0  0  0  0  0  0  0  0  0  0  0  0
   -1.0871  -12.2214   17.8851 C   0  0  0  0  0  0  0  0  0  0  0  0
   -2.2706   -8.9669   19.0691 C   0  0  0  0  0  0  0  0  0  0  0  0
    3.0279   -5.3073   26.8197 C   0  0  0  0  0  0  0  0  0  0  0  0
    7.3282   -3.8948   29.1186 C   0  0  0  0  0  0  0  0  0  0  0  0
  1  3  4  0
  1  7  4  0
  2  3  1  0
  2  6  4  0
  2 16  4  0
  3 22  4  0
  4  9  4  0
  4 10  1  0
  4 20  4  0
  5 16  4  0
  5 23  4  0
  6 15  4  0
  7 12  4  0
  8 13  4  0
  8 14  4  0
  9 11  4  0
 11 14  4  0
 11 19  4  0
 12 18  4  0
 13 21  4  0
 15 23  4  0
 17 19  4  0
 17 20  4  0
 18 22  4  0
 19 21  4  0
M  END
$$$$

 Created by Python create_sdf_string function

 23 25  0  0  0  0  0  0  0  0999 V2000
    2.4610   -5.3070   29.1240 C   0  0  0  0  0  0  0  0  0  0  0  0
    4.7710   -4.6952   28.4803 C   0  0  0  0  0  0  0  0  0  0  0  0
    3.4047   -5.1087   28.1314 C   0  0  0  0  0  0  0  0  0  0  0  0
   -0.2234  -11.8615   16.8874 C   0  0  0  0  0  0  0  0  0  0  0  0
    6.4491   -4.1532   30.1213 C   0  0  0  0  0  0  0  0  0  0  0  0
    5.7060   -4.4340   27.4975 C   0  0  0  0  0  0  0  0  0  0  0  0
    1.1818   -5.6612   28.8399 C   0  0  0  0  0  0  0  0  0  0  0  0
   -1.2067   -7.3287   17.7772 C   0  0  0  0  0  0  0  0  0  0  0  0
   -0.0206  -10.5585   16.6210 C   0  0  0  0  0  0  0  0  0  0  0  0
    0.3696  -12.7626   16.2169 O   0  0  0  0  0  0  0  0  0  0  0  0
   -0.6895   -9.5676   17.3297 C   0  0  0  0  0  0  0  0  0  0  0  0
    0.8388   -5.8417   27.5264 C   0  0  0  0  0  0  0  0  0  0  0  0
   -2.0709   -7.6637   18.7817 C   0  0  0  0  0  0  0  0  0  0  0  0
   -0.5279   -8.2168   17.0717 C   0  0  0  0  0  0  0  0  0  0  0  0
    6.9694   -4.0191   27.8190 C   0  0  0  0  0  0  0  0  0  0  0  0
    5.1733   -4.5469   29.8123 C   0  0  0  0  0  0  0  0  0  0  0  0
   -1.7508  -11.3016   18.6072 C   0  0  0  0  0  0  0  0  0  0  0  0
    1.7497   -5.6771   26.4971 C   0  0  0  0  0  0  0  0  0  0  0  0
   -1.5799   -9.9322   18.3468 C   0  0  0  0  0  0  0  0  0  0  0  0
   -1.0871  -12.2214   17.8851 C   0  0  0  0  0  0  0  0  0  0  0  0
   -2.2706   -8.9669   19.0691 C   0  0  0  0  0  0  0  0  0  0  0  0
    3.0279   -5.3073   26.8197 C   0  0  0  0  0  0  0  0  0  0  0  0
    7.3282   -3.8948   29.1186 C   0  0  0  0  0  0  0  0  0  0  0  0
  1  3  4  0
  1  7  4  0
  2  3  1  0
  2  6  4  0
  2 16  4  0
  3 22  4  0
  4  9  4  0
  4 10  1  0
  4 20  4  0
  5 16  4  0
  5 23  4  0
  6 15  4  0
  7 12  4  0
  8 13  4  0
  8 14  4  0
  9 11  4  0
 11 14  4  0
 11 19  4  0
 12 18  4  0
 13 21  4  0
 15 23  4  0
 17 19  4  0
 17 20  4  0
 18 22  4  0
 19 21  4  0
M  END
$$$$

 Created by Python create_sdf_string function

 23 25  0  0  0  0  0  0  0  0999 V2000
    2.4610   -5.3070   29.1240 C   0  0  0  0  0  0  0  0  0  0  0  0
    4.7710   -4.6952   28.4803 C   0  0  0  0  0  0  0  0  0  0  0  0
    3.4047   -5.1087   28.1314 C   0  0  0  0  0  0  0  0  0  0  0  0
   -0.2234  -11.8615   16.8874 C   0  0  0  0  0  0  0  0  0  0  0  0
    6.4491   -4.1532   30.1213 C   0  0  0  0  0  0  0  0  0  0  0  0
    5.7060   -4.4340   27.4975 C   0  0  0  0  0  0  0  0  0  0  0  0
    1.1818   -5.6612   28.8399 C   0  0  0  0  0  0  0  0  0  0  0  0
   -1.2067   -7.3287   17.7772 C   0  0  0  0  0  0  0  0  0  0  0  0
   -0.0206  -10.5585   16.6210 C   0  0  0  0  0  0  0  0  0  0  0  0
    0.3696  -12.7626   16.2169 O   0  0  0  0  0  0  0  0  0  0  0  0
   -0.6895   -9.5676   17.3297 C   0  0  0  0  0  0  0  0  0  0  0  0
    0.8388   -5.8417   27.5264 C   0  0  0  0  0  0  0  0  0  0  0  0
   -2.0709   -7.6637   18.7817 C   0  0  0  0  0  0  0  0  0  0  0  0
   -0.5279   -8.2168   17.0717 C   0  0  0  0  0  0  0  0  0  0  0  0
    6.9694   -4.0191   27.8190 C   0  0  0  0  0  0  0  0  0  0  0  0
    5.1733   -4.5469   29.8123 C   0  0  0  0  0  0  0  0  0  0  0  0
   -1.7508  -11.3016   18.6072 C   0  0  0  0  0  0  0  0  0  0  0  0
    1.7497   -5.6771   26.4971 C   0  0  0  0  0  0  0  0  0  0  0  0
   -1.5799   -9.9322   18.3468 C   0  0  0  0  0  0  0  0  0  0  0  0
   -1.0871  -12.2214   17.8851 C   0  0  0  0  0  0  0  0  0  0  0  0
   -2.2706   -8.9669   19.0691 C   0  0  0  0  0  0  0  0  0  0  0  0
    3.0279   -5.3073   26.8197 C   0  0  0  0  0  0  0  0  0  0  0  0
    7.3282   -3.8948   29.1186 C   0  0  0  0  0  0  0  0  0  0  0  0
  1  3  4  0
  1  7  4  0
  2  3  1  0
  2  6  4  0
  2 16  4  0
  3 22  4  0
  4  9  4  0
  4 10  1  0
  4 20  4  0
  5 16  4  0
  5 23  4  0
  6 15  4  0
  7 12  4  0
  8 13  4  0
  8 14  4  0
  9 11  4  0
 11 14  4  0
 11 19  4  0
 12 18  4  0
 13 21  4  0
 15 23  4  0
 17 19  4  0
 17 20  4  0
 18 22  4  0
 19 21  4  0
M  END
$$$$

 Created by Python create_sdf_string function

 23 25  0  0  0  0  0  0  0  0999 V2000
    2.4610   -5.3070   29.1240 C   0  0  0  0  0  0  0  0  0  0  0  0
    4.7710   -4.6952   28.4803 C   0  0  0  0  0  0  0  0  0  0  0  0
    3.4047   -5.1087   28.1314 C   0  0  0  0  0  0  0  0  0  0  0  0
   -0.2234  -11.8615   16.8874 C   0  0  0  0  0  0  0  0  0  0  0  0
    6.4491   -4.1532   30.1213 C   0  0  0  0  0  0  0  0  0  0  0  0
    5.7060   -4.4340   27.4975 C   0  0  0  0  0  0  0  0  0  0  0  0
    1.1818   -5.6612   28.8399 C   0  0  0  0  0  0  0  0  0  0  0  0
   -1.2067   -7.3287   17.7772 C   0  0  0  0  0  0  0  0  0  0  0  0
   -0.0206  -10.5585   16.6210 C   0  0  0  0  0  0  0  0  0  0  0  0
    0.3696  -12.7626   16.2169 O   0  0  0  0  0  0  0  0  0  0  0  0
   -0.6895   -9.5676   17.3297 C   0  0  0  0  0  0  0  0  0  0  0  0
    0.8388   -5.8417   27.5264 C   0  0  0  0  0  0  0  0  0  0  0  0
   -2.0709   -7.6637   18.7817 C   0  0  0  0  0  0  0  0  0  0  0  0
   -0.5279   -8.2168   17.0717 C   0  0  0  0  0  0  0  0  0  0  0  0
    6.9694   -4.0191   27.8190 C   0  0  0  0  0  0  0  0  0  0  0  0
    5.1733   -4.5469   29.8123 C   0  0  0  0  0  0  0  0  0  0  0  0
   -1.7508  -11.3016   18.6072 C   0  0  0  0  0  0  0  0  0  0  0  0
    1.7497   -5.6771   26.4971 C   0  0  0  0  0  0  0  0  0  0  0  0
   -1.5799   -9.9322   18.3468 C   0  0  0  0  0  0  0  0  0  0  0  0
   -1.0871  -12.2214   17.8851 C   0  0  0  0  0  0  0  0  0  0  0  0
   -2.2706   -8.9669   19.0691 C   0  0  0  0  0  0  0  0  0  0  0  0
    3.0279   -5.3073   26.8197 C   0  0  0  0  0  0  0  0  0  0  0  0
    7.3282   -3.8948   29.1186 C   0  0  0  0  0  0  0  0  0  0  0  0
  1  3  4  0
  1  7  4  0
  2  3  1  0
  2  6  4  0
  2 16  4  0
  3 22  4  0
  4  9  4  0
  4 10  1  0
  4 20  4  0
  5 16  4  0
  5 23  4  0
  6 15  4  0
  7 12  4  0
  8 13  4  0
  8 14  4  0
  9 11  4  0
 11 14  4  0
 11 19  4  0
 12 18  4  0
 13 21  4  0
 15 23  4  0
 17 19  4  0
 17 20  4  0
 18 22  4  0
 19 21  4  0
M  END
$$$$

 Created by Python create_sdf_string function

 23 25  0  0  0  0  0  0  0  0999 V2000
    2.4610   -5.3070   29.1240 C   0  0  0  0  0  0  0  0  0  0  0  0
    4.7710   -4.6952   28.4803 C   0  0  0  0  0  0  0  0  0  0  0  0
    3.4047   -5.1087   28.1314 C   0  0  0  0  0  0  0  0  0  0  0  0
   -0.2234  -11.8615   16.8874 C   0  0  0  0  0  0  0  0  0  0  0  0
    6.4491   -4.1532   30.1213 C   0  0  0  0  0  0  0  0  0  0  0  0
    5.7060   -4.4340   27.4975 C   0  0  0  0  0  0  0  0  0  0  0  0
    1.1818   -5.6612   28.8399 C   0  0  0  0  0  0  0  0  0  0  0  0
   -1.2067   -7.3287   17.7772 C   0  0  0  0  0  0  0  0  0  0  0  0
   -0.0206  -10.5585   16.6210 C   0  0  0  0  0  0  0  0  0  0  0  0
    0.3696  -12.7626   16.2169 O   0  0  0  0  0  0  0  0  0  0  0  0
   -0.6895   -9.5676   17.3297 C   0  0  0  0  0  0  0  0  0  0  0  0
    0.8388   -5.8417   27.5264 C   0  0  0  0  0  0  0  0  0  0  0  0
   -2.0709   -7.6637   18.7817 C   0  0  0  0  0  0  0  0  0  0  0  0
   -0.5279   -8.2168   17.0717 C   0  0  0  0  0  0  0  0  0  0  0  0
    6.9694   -4.0191   27.8190 C   0  0  0  0  0  0  0  0  0  0  0  0
    5.1733   -4.5469   29.8123 C   0  0  0  0  0  0  0  0  0  0  0  0
   -1.7508  -11.3016   18.6072 C   0  0  0  0  0  0  0  0  0  0  0  0
    1.7497   -5.6771   26.4971 C   0  0  0  0  0  0  0  0  0  0  0  0
   -1.5799   -9.9322   18.3468 C   0  0  0  0  0  0  0  0  0  0  0  0
   -1.0871  -12.2214   17.8851 C   0  0  0  0  0  0  0  0  0  0  0  0
   -2.2706   -8.9669   19.0691 C   0  0  0  0  0  0  0  0  0  0  0  0
    3.0279   -5.3073   26.8197 C   0  0  0  0  0  0  0  0  0  0  0  0
    7.3282   -3.8948   29.1186 C   0  0  0  0  0  0  0  0  0  0  0  0
  1  3  4  0
  1  7  4  0
  2  3  1  0
  2  6  4  0
  2 16  4  0
  3 22  4  0
  4  9  4  0
  4 10  1  0
  4 20  4  0
  5 16  4  0
  5 23  4  0
  6 15  4  0
  7 12  4  0
  8 13  4  0
  8 14  4  0
  9 11  4  0
 11 14  4  0
 11 19  4  0
 12 18  4  0
 13 21  4  0
 15 23  4  0
 17 19  4  0
 17 20  4  0
 18 22  4  0
 19 21  4  0
M  END
$$$$

 Created by Python create_sdf_string function

 23 25  0  0  0  0  0  0  0  0999 V2000
    2.4610   -5.3070   29.1240 C   0  0  0  0  0  0  0  0  0  0  0  0
    4.7710   -4.6952   28.4803 C   0  0  0  0  0  0  0  0  0  0  0  0
    3.4047   -5.1087   28.1314 C   0  0  0  0  0  0  0  0  0  0  0  0
   -0.2234  -11.8615   16.8874 C   0  0  0  0  0  0  0  0  0  0  0  0
    6.4491   -4.1532   30.1213 C   0  0  0  0  0  0  0  0  0  0  0  0
    5.7060   -4.4340   27.4975 C   0  0  0  0  0  0  0  0  0  0  0  0
    1.1818   -5.6612   28.8399 C   0  0  0  0  0  0  0  0  0  0  0  0
   -1.2067   -7.3287   17.7772 C   0  0  0  0  0  0  0  0  0  0  0  0
   -0.0206  -10.5585   16.6210 C   0  0  0  0  0  0  0  0  0  0  0  0
    0.3696  -12.7626   16.2169 O   0  0  0  0  0  0  0  0  0  0  0  0
   -0.6895   -9.5676   17.3297 C   0  0  0  0  0  0  0  0  0  0  0  0
    0.8388   -5.8417   27.5264 C   0  0  0  0  0  0  0  0  0  0  0  0
   -2.0709   -7.6637   18.7817 C   0  0  0  0  0  0  0  0  0  0  0  0
   -0.5279   -8.2168   17.0717 C   0  0  0  0  0  0  0  0  0  0  0  0
    6.9694   -4.0191   27.8190 C   0  0  0  0  0  0  0  0  0  0  0  0
    5.1733   -4.5469   29.8123 C   0  0  0  0  0  0  0  0  0  0  0  0
   -1.7508  -11.3016   18.6072 C   0  0  0  0  0  0  0  0  0  0  0  0
    1.7497   -5.6771   26.4971 C   0  0  0  0  0  0  0  0  0  0  0  0
   -1.5799   -9.9322   18.3468 C   0  0  0  0  0  0  0  0  0  0  0  0
   -1.0871  -12.2214   17.8851 C   0  0  0  0  0  0  0  0  0  0  0  0
   -2.2706   -8.9669   19.0691 C   0  0  0  0  0  0  0  0  0  0  0  0
    3.0279   -5.3073   26.8197 C   0  0  0  0  0  0  0  0  0  0  0  0
    7.3282   -3.8948   29.1186 C   0  0  0  0  0  0  0  0  0  0  0  0
  1  3  4  0
  1  7  4  0
  2  3  1  0
  2  6  4  0
  2 16  4  0
  3 22  4  0
  4  9  4  0
  4 10  1  0
  4 20  4  0
  5 16  4  0
  5 23  4  0
  6 15  4  0
  7 12  4  0
  8 13  4  0
  8 14  4  0
  9 11  4  0
 11 14  4  0
 11 19  4  0
 12 18  4  0
 13 21  4  0
 15 23  4  0
 17 19  4  0
 17 20  4  0
 18 22  4  0
 19 21  4  0
M  END
$$$$

 Created by Python create_sdf_string function

 23 25  0  0  0  0  0  0  0  0999 V2000
    2.4610   -5.3070   29.1240 C   0  0  0  0  0  0  0  0  0  0  0  0
    4.7710   -4.6952   28.4803 C   0  0  0  0  0  0  0  0  0  0  0  0
    3.4047   -5.1087   28.1314 C   0  0  0  0  0  0  0  0  0  0  0  0
   -0.2234  -11.8615   16.8874 C   0  0  0  0  0  0  0  0  0  0  0  0
    6.4491   -4.1532   30.1213 C   0  0  0  0  0  0  0  0  0  0  0  0
    5.7060   -4.4340   27.4975 C   0  0  0  0  0  0  0  0  0  0  0  0
    1.1818   -5.6612   28.8399 C   0  0  0  0  0  0  0  0  0  0  0  0
   -1.2067   -7.3287   17.7772 C   0  0  0  0  0  0  0  0  0  0  0  0
   -0.0206  -10.5585   16.6210 C   0  0  0  0  0  0  0  0  0  0  0  0
    0.3696  -12.7626   16.2169 O   0  0  0  0  0  0  0  0  0  0  0  0
   -0.6895   -9.5676   17.3297 C   0  0  0  0  0  0  0  0  0  0  0  0
    0.8388   -5.8417   27.5264 C   0  0  0  0  0  0  0  0  0  0  0  0
   -2.0709   -7.6637   18.7817 C   0  0  0  0  0  0  0  0  0  0  0  0
   -0.5279   -8.2168   17.0717 C   0  0  0  0  0  0  0  0  0  0  0  0
    6.9694   -4.0191   27.8190 C   0  0  0  0  0  0  0  0  0  0  0  0
    5.1733   -4.5469   29.8123 C   0  0  0  0  0  0  0  0  0  0  0  0
   -1.7508  -11.3016   18.6072 C   0  0  0  0  0  0  0  0  0  0  0  0
    1.7497   -5.6771   26.4971 C   0  0  0  0  0  0  0  0  0  0  0  0
   -1.5799   -9.9322   18.3468 C   0  0  0  0  0  0  0  0  0  0  0  0
   -1.0871  -12.2214   17.8851 C   0  0  0  0  0  0  0  0  0  0  0  0
   -2.2706   -8.9669   19.0691 C   0  0  0  0  0  0  0  0  0  0  0  0
    3.0279   -5.3073   26.8197 C   0  0  0  0  0  0  0  0  0  0  0  0
    7.3282   -3.8948   29.1186 C   0  0  0  0  0  0  0  0  0  0  0  0
  1  3  4  0
  1  7  4  0
  2  3  1  0
  2  6  4  0
  2 16  4  0
  3 22  4  0
  4  9  4  0
  4 10  1  0
  4 20  4  0
  5 16  4  0
  5 23  4  0
  6 15  4  0
  7 12  4  0
  8 13  4  0
  8 14  4  0
  9 11  4  0
 11 14  4  0
 11 19  4  0
 12 18  4  0
 13 21  4  0
 15 23  4  0
 17 19  4  0
 17 20  4  0
 18 22  4  0
 19 21  4  0
M  END
$$$$

 Created by Python create_sdf_string function

 23 25  0  0  0  0  0  0  0  0999 V2000
    2.4610   -5.3070   29.1240 C   0  0  0  0  0  0  0  0  0  0  0  0
    4.7710   -4.6952   28.4803 C   0  0  0  0  0  0  0  0  0  0  0  0
    3.4047   -5.1087   28.1314 C   0  0  0  0  0  0  0  0  0  0  0  0
   -0.2234  -11.8615   16.8874 C   0  0  0  0  0  0  0  0  0  0  0  0
    6.4491   -4.1532   30.1213 C   0  0  0  0  0  0  0  0  0  0  0  0
    5.7060   -4.4340   27.4975 C   0  0  0  0  0  0  0  0  0  0  0  0
    1.1818   -5.6612   28.8399 C   0  0  0  0  0  0  0  0  0  0  0  0
   -1.2067   -7.3287   17.7772 C   0  0  0  0  0  0  0  0  0  0  0  0
   -0.0206  -10.5585   16.6210 C   0  0  0  0  0  0  0  0  0  0  0  0
    0.3696  -12.7626   16.2169 O   0  0  0  0  0  0  0  0  0  0  0  0
   -0.6895   -9.5676   17.3297 C   0  0  0  0  0  0  0  0  0  0  0  0
    0.8388   -5.8417   27.5264 C   0  0  0  0  0  0  0  0  0  0  0  0
   -2.0709   -7.6637   18.7817 C   0  0  0  0  0  0  0  0  0  0  0  0
   -0.5279   -8.2168   17.0717 C   0  0  0  0  0  0  0  0  0  0  0  0
    6.9694   -4.0191   27.8190 C   0  0  0  0  0  0  0  0  0  0  0  0
    5.1733   -4.5469   29.8123 C   0  0  0  0  0  0  0  0  0  0  0  0
   -1.7508  -11.3016   18.6072 C   0  0  0  0  0  0  0  0  0  0  0  0
    1.7497   -5.6771   26.4971 C   0  0  0  0  0  0  0  0  0  0  0  0
   -1.5799   -9.9322   18.3468 C   0  0  0  0  0  0  0  0  0  0  0  0
   -1.0871  -12.2214   17.8851 C   0  0  0  0  0  0  0  0  0  0  0  0
   -2.2706   -8.9669   19.0691 C   0  0  0  0  0  0  0  0  0  0  0  0
    3.0279   -5.3073   26.8197 C   0  0  0  0  0  0  0  0  0  0  0  0
    7.3282   -3.8948   29.1186 C   0  0  0  0  0  0  0  0  0  0  0  0
  1  3  4  0
  1  7  4  0
  2  3  1  0
  2  6  4  0
  2 16  4  0
  3 22  4  0
  4  9  4  0
  4 10  1  0
  4 20  4  0
  5 16  4  0
  5 23  4  0
  6 15  4  0
  7 12  4  0
  8 13  4  0
  8 14  4  0
  9 11  4  0
 11 14  4  0
 11 19  4  0
 12 18  4  0
 13 21  4  0
 15 23  4  0
 17 19  4  0
 17 20  4  0
 18 22  4  0
 19 21  4  0
M  END
$$$$

 Created by Python create_sdf_string function

 23 25  0  0  0  0  0  0  0  0999 V2000
    2.4610   -5.3070   29.1240 C   0  0  0  0  0  0  0  0  0  0  0  0
    4.7710   -4.6952   28.4803 C   0  0  0  0  0  0  0  0  0  0  0  0
    3.4047   -5.1087   28.1314 C   0  0  0  0  0  0  0  0  0  0  0  0
   -0.2234  -11.8615   16.8874 C   0  0  0  0  0  0  0  0  0  0  0  0
    6.4491   -4.1532   30.1213 C   0  0  0  0  0  0  0  0  0  0  0  0
    5.7060   -4.4340   27.4975 C   0  0  0  0  0  0  0  0  0  0  0  0
    1.1818   -5.6612   28.8399 C   0  0  0  0  0  0  0  0  0  0  0  0
   -1.2067   -7.3287   17.7772 C   0  0  0  0  0  0  0  0  0  0  0  0
   -0.0206  -10.5585   16.6210 C   0  0  0  0  0  0  0  0  0  0  0  0
    0.3696  -12.7626   16.2169 O   0  0  0  0  0  0  0  0  0  0  0  0
   -0.6895   -9.5676   17.3297 C   0  0  0  0  0  0  0  0  0  0  0  0
    0.8388   -5.8417   27.5264 C   0  0  0  0  0  0  0  0  0  0  0  0
   -2.0709   -7.6637   18.7817 C   0  0  0  0  0  0  0  0  0  0  0  0
   -0.5279   -8.2168   17.0717 C   0  0  0  0  0  0  0  0  0  0  0  0
    6.9694   -4.0191   27.8190 C   0  0  0  0  0  0  0  0  0  0  0  0
    5.1733   -4.5469   29.8123 C   0  0  0  0  0  0  0  0  0  0  0  0
   -1.7508  -11.3016   18.6072 C   0  0  0  0  0  0  0  0  0  0  0  0
    1.7497   -5.6771   26.4971 C   0  0  0  0  0  0  0  0  0  0  0  0
   -1.5799   -9.9322   18.3468 C   0  0  0  0  0  0  0  0  0  0  0  0
   -1.0871  -12.2214   17.8851 C   0  0  0  0  0  0  0  0  0  0  0  0
   -2.2706   -8.9669   19.0691 C   0  0  0  0  0  0  0  0  0  0  0  0
    3.0279   -5.3073   26.8197 C   0  0  0  0  0  0  0  0  0  0  0  0
    7.3282   -3.8948   29.1186 C   0  0  0  0  0  0  0  0  0  0  0  0
  1  3  4  0
  1  7  4  0
  2  3  1  0
  2  6  4  0
  2 16  4  0
  3 22  4  0
  4  9  4  0
  4 10  1  0
  4 20  4  0
  5 16  4  0
  5 23  4  0
  6 15  4  0
  7 12  4  0
  8 13  4  0
  8 14  4  0
  9 11  4  0
 11 14  4  0
 11 19  4  0
 12 18  4  0
 13 21  4  0
 15 23  4  0
 17 19  4  0
 17 20  4  0
 18 22  4  0
 19 21  4  0
M  END
$$$$

 Created by Python create_sdf_string function

 23 25  0  0  0  0  0  0  0  0999 V2000
    2.4610   -5.3070   29.1240 C   0  0  0  0  0  0  0  0  0  0  0  0
    4.7710   -4.6952   28.4803 C   0  0  0  0  0  0  0  0  0  0  0  0
    3.4047   -5.1087   28.1314 C   0  0  0  0  0  0  0  0  0  0  0  0
   -0.2234  -11.8615   16.8874 C   0  0  0  0  0  0  0  0  0  0  0  0
    6.4491   -4.1532   30.1213 C   0  0  0  0  0  0  0  0  0  0  0  0
    5.7060   -4.4340   27.4975 C   0  0  0  0  0  0  0  0  0  0  0  0
    1.1818   -5.6612   28.8399 C   0  0  0  0  0  0  0  0  0  0  0  0
   -1.2067   -7.3287   17.7772 C   0  0  0  0  0  0  0  0  0  0  0  0
   -0.0206  -10.5585   16.6210 C   0  0  0  0  0  0  0  0  0  0  0  0
    0.3696  -12.7626   16.2169 O   0  0  0  0  0  0  0  0  0  0  0  0
   -0.6895   -9.5676   17.3297 C   0  0  0  0  0  0  0  0  0  0  0  0
    0.8388   -5.8417   27.5264 C   0  0  0  0  0  0  0  0  0  0  0  0
   -2.0709   -7.6637   18.7817 C   0  0  0  0  0  0  0  0  0  0  0  0
   -0.5279   -8.2168   17.0717 C   0  0  0  0  0  0  0  0  0  0  0  0
    6.9694   -4.0191   27.8190 C   0  0  0  0  0  0  0  0  0  0  0  0
    5.1733   -4.5469   29.8123 C   0  0  0  0  0  0  0  0  0  0  0  0
   -1.7508  -11.3016   18.6072 C   0  0  0  0  0  0  0  0  0  0  0  0
    1.7497   -5.6771   26.4971 C   0  0  0  0  0  0  0  0  0  0  0  0
   -1.5799   -9.9322   18.3468 C   0  0  0  0  0  0  0  0  0  0  0  0
   -1.0871  -12.2214   17.8851 C   0  0  0  0  0  0  0  0  0  0  0  0
   -2.2706   -8.9669   19.0691 C   0  0  0  0  0  0  0  0  0  0  0  0
    3.0279   -5.3073   26.8197 C   0  0  0  0  0  0  0  0  0  0  0  0
    7.3282   -3.8948   29.1186 C   0  0  0  0  0  0  0  0  0  0  0  0
  1  3  4  0
  1  7  4  0
  2  3  1  0
  2  6  4  0
  2 16  4  0
  3 22  4  0
  4  9  4  0
  4 10  1  0
  4 20  4  0
  5 16  4  0
  5 23  4  0
  6 15  4  0
  7 12  4  0
  8 13  4  0
  8 14  4  0
  9 11  4  0
 11 14  4  0
 11 19  4  0
 12 18  4  0
 13 21  4  0
 15 23  4  0
 17 19  4  0
 17 20  4  0
 18 22  4  0
 19 21  4  0
M  END
$$$$

 Created by Python create_sdf_string function

 23 25  0  0  0  0  0  0  0  0999 V2000
    2.4610   -5.3070   29.1240 C   0  0  0  0  0  0  0  0  0  0  0  0
    4.7710   -4.6952   28.4803 C   0  0  0  0  0  0  0  0  0  0  0  0
    3.4047   -5.1087   28.1314 C   0  0  0  0  0  0  0  0  0  0  0  0
   -0.2234  -11.8615   16.8874 C   0  0  0  0  0  0  0  0  0  0  0  0
    6.4491   -4.1532   30.1213 C   0  0  0  0  0  0  0  0  0  0  0  0
    5.7060   -4.4340   27.4975 C   0  0  0  0  0  0  0  0  0  0  0  0
    1.1818   -5.6612   28.8399 C   0  0  0  0  0  0  0  0  0  0  0  0
   -1.2067   -7.3287   17.7772 C   0  0  0  0  0  0  0  0  0  0  0  0
   -0.0206  -10.5585   16.6210 C   0  0  0  0  0  0  0  0  0  0  0  0
    0.3696  -12.7626   16.2169 O   0  0  0  0  0  0  0  0  0  0  0  0
   -0.6895   -9.5676   17.3297 C   0  0  0  0  0  0  0  0  0  0  0  0
    0.8388   -5.8417   27.5264 C   0  0  0  0  0  0  0  0  0  0  0  0
   -2.0709   -7.6637   18.7817 C   0  0  0  0  0  0  0  0  0  0  0  0
   -0.5279   -8.2168   17.0717 C   0  0  0  0  0  0  0  0  0  0  0  0
    6.9694   -4.0191   27.8190 C   0  0  0  0  0  0  0  0  0  0  0  0
    5.1733   -4.5469   29.8123 C   0  0  0  0  0  0  0  0  0  0  0  0
   -1.7508  -11.3016   18.6072 C   0  0  0  0  0  0  0  0  0  0  0  0
    1.7497   -5.6771   26.4971 C   0  0  0  0  0  0  0  0  0  0  0  0
   -1.5799   -9.9322   18.3468 C   0  0  0  0  0  0  0  0  0  0  0  0
   -1.0871  -12.2214   17.8851 C   0  0  0  0  0  0  0  0  0  0  0  0
   -2.2706   -8.9669   19.0691 C   0  0  0  0  0  0  0  0  0  0  0  0
    3.0279   -5.3073   26.8197 C   0  0  0  0  0  0  0  0  0  0  0  0
    7.3282   -3.8948   29.1186 C   0  0  0  0  0  0  0  0  0  0  0  0
  1  3  4  0
  1  7  4  0
  2  3  1  0
  2  6  4  0
  2 16  4  0
  3 22  4  0
  4  9  4  0
  4 10  1  0
  4 20  4  0
  5 16  4  0
  5 23  4  0
  6 15  4  0
  7 12  4  0
  8 13  4  0
  8 14  4  0
  9 11  4  0
 11 14  4  0
 11 19  4  0
 12 18  4  0
 13 21  4  0
 15 23  4  0
 17 19  4  0
 17 20  4  0
 18 22  4  0
 19 21  4  0
M  END
$$$$

 Created by Python create_sdf_string function

 23 25  0  0  0  0  0  0  0  0999 V2000
    2.4610   -5.3070   29.1240 C   0  0  0  0  0  0  0  0  0  0  0  0
    4.7710   -4.6952   28.4803 C   0  0  0  0  0  0  0  0  0  0  0  0
    3.4047   -5.1087   28.1314 C   0  0  0  0  0  0  0  0  0  0  0  0
   -0.2234  -11.8615   16.8874 C   0  0  0  0  0  0  0  0  0  0  0  0
    6.4491   -4.1532   30.1213 C   0  0  0  0  0  0  0  0  0  0  0  0
    5.7060   -4.4340   27.4975 C   0  0  0  0  0  0  0  0  0  0  0  0
    1.1818   -5.6612   28.8399 C   0  0  0  0  0  0  0  0  0  0  0  0
   -1.2067   -7.3287   17.7772 C   0  0  0  0  0  0  0  0  0  0  0  0
   -0.0206  -10.5585   16.6210 C   0  0  0  0  0  0  0  0  0  0  0  0
    0.3696  -12.7626   16.2169 O   0  0  0  0  0  0  0  0  0  0  0  0
   -0.6895   -9.5676   17.3297 C   0  0  0  0  0  0  0  0  0  0  0  0
    0.8388   -5.8417   27.5264 C   0  0  0  0  0  0  0  0  0  0  0  0
   -2.0709   -7.6637   18.7817 C   0  0  0  0  0  0  0  0  0  0  0  0
   -0.5279   -8.2168   17.0717 C   0  0  0  0  0  0  0  0  0  0  0  0
    6.9694   -4.0191   27.8190 C   0  0  0  0  0  0  0  0  0  0  0  0
    5.1733   -4.5469   29.8123 C   0  0  0  0  0  0  0  0  0  0  0  0
   -1.7508  -11.3016   18.6072 C   0  0  0  0  0  0  0  0  0  0  0  0
    1.7497   -5.6771   26.4971 C   0  0  0  0  0  0  0  0  0  0  0  0
   -1.5799   -9.9322   18.3468 C   0  0  0  0  0  0  0  0  0  0  0  0
   -1.0871  -12.2214   17.8851 C   0  0  0  0  0  0  0  0  0  0  0  0
   -2.2706   -8.9669   19.0691 C   0  0  0  0  0  0  0  0  0  0  0  0
    3.0279   -5.3073   26.8197 C   0  0  0  0  0  0  0  0  0  0  0  0
    7.3282   -3.8948   29.1186 C   0  0  0  0  0  0  0  0  0  0  0  0
  1  3  4  0
  1  7  4  0
  2  3  1  0
  2  6  4  0
  2 16  4  0
  3 22  4  0
  4  9  4  0
  4 10  1  0
  4 20  4  0
  5 16  4  0
  5 23  4  0
  6 15  4  0
  7 12  4  0
  8 13  4  0
  8 14  4  0
  9 11  4  0
 11 14  4  0
 11 19  4  0
 12 18  4  0
 13 21  4  0
 15 23  4  0
 17 19  4  0
 17 20  4  0
 18 22  4  0
 19 21  4  0
M  END
$$$$

 Created by Python create_sdf_string function

 23 25  0  0  0  0  0  0  0  0999 V2000
    2.4610   -5.3070   29.1240 C   0  0  0  0  0  0  0  0  0  0  0  0
    4.7710   -4.6952   28.4803 C   0  0  0  0  0  0  0  0  0  0  0  0
    3.4047   -5.1087   28.1314 C   0  0  0  0  0  0  0  0  0  0  0  0
   -0.2234  -11.8615   16.8874 C   0  0  0  0  0  0  0  0  0  0  0  0
    6.4491   -4.1532   30.1213 C   0  0  0  0  0  0  0  0  0  0  0  0
    5.7060   -4.4340   27.4975 C   0  0  0  0  0  0  0  0  0  0  0  0
    1.1818   -5.6612   28.8399 C   0  0  0  0  0  0  0  0  0  0  0  0
   -1.2067   -7.3287   17.7772 C   0  0  0  0  0  0  0  0  0  0  0  0
   -0.0206  -10.5585   16.6210 C   0  0  0  0  0  0  0  0  0  0  0  0
    0.3696  -12.7626   16.2169 O   0  0  0  0  0  0  0  0  0  0  0  0
   -0.6895   -9.5676   17.3297 C   0  0  0  0  0  0  0  0  0  0  0  0
    0.8388   -5.8417   27.5264 C   0  0  0  0  0  0  0  0  0  0  0  0
   -2.0709   -7.6637   18.7817 C   0  0  0  0  0  0  0  0  0  0  0  0
   -0.5279   -8.2168   17.0717 C   0  0  0  0  0  0  0  0  0  0  0  0
    6.9694   -4.0191   27.8190 C   0  0  0  0  0  0  0  0  0  0  0  0
    5.1733   -4.5469   29.8123 C   0  0  0  0  0  0  0  0  0  0  0  0
   -1.7508  -11.3016   18.6072 C   0  0  0  0  0  0  0  0  0  0  0  0
    1.7497   -5.6771   26.4971 C   0  0  0  0  0  0  0  0  0  0  0  0
   -1.5799   -9.9322   18.3468 C   0  0  0  0  0  0  0  0  0  0  0  0
   -1.0871  -12.2214   17.8851 C   0  0  0  0  0  0  0  0  0  0  0  0
   -2.2706   -8.9669   19.0691 C   0  0  0  0  0  0  0  0  0  0  0  0
    3.0279   -5.3073   26.8197 C   0  0  0  0  0  0  0  0  0  0  0  0
    7.3282   -3.8948   29.1186 C   0  0  0  0  0  0  0  0  0  0  0  0
  1  3  4  0
  1  7  4  0
  2  3  1  0
  2  6  4  0
  2 16  4  0
  3 22  4  0
  4  9  4  0
  4 10  1  0
  4 20  4  0
  5 16  4  0
  5 23  4  0
  6 15  4  0
  7 12  4  0
  8 13  4  0
  8 14  4  0
  9 11  4  0
 11 14  4  0
 11 19  4  0
 12 18  4  0
 13 21  4  0
 15 23  4  0
 17 19  4  0
 17 20  4  0
 18 22  4  0
 19 21  4  0
M  END
$$$$

 Created by Python create_sdf_string function

 23 25  0  0  0  0  0  0  0  0999 V2000
    2.4610   -5.3070   29.1240 C   0  0  0  0  0  0  0  0  0  0  0  0
    4.7710   -4.6952   28.4803 C   0  0  0  0  0  0  0  0  0  0  0  0
    3.4047   -5.1087   28.1314 C   0  0  0  0  0  0  0  0  0  0  0  0
   -0.2234  -11.8615   16.8874 C   0  0  0  0  0  0  0  0  0  0  0  0
    6.4491   -4.1532   30.1213 C   0  0  0  0  0  0  0  0  0  0  0  0
    5.7060   -4.4340   27.4975 C   0  0  0  0  0  0  0  0  0  0  0  0
    1.1818   -5.6612   28.8399 C   0  0  0  0  0  0  0  0  0  0  0  0
   -1.2067   -7.3287   17.7772 C   0  0  0  0  0  0  0  0  0  0  0  0
   -0.0206  -10.5585   16.6210 C   0  0  0  0  0  0  0  0  0  0  0  0
    0.3696  -12.7626   16.2169 O   0  0  0  0  0  0  0  0  0  0  0  0
   -0.6895   -9.5676   17.3297 C   0  0  0  0  0  0  0  0  0  0  0  0
    0.8388   -5.8417   27.5264 C   0  0  0  0  0  0  0  0  0  0  0  0
   -2.0709   -7.6637   18.7817 C   0  0  0  0  0  0  0  0  0  0  0  0
   -0.5279   -8.2168   17.0717 C   0  0  0  0  0  0  0  0  0  0  0  0
    6.9694   -4.0191   27.8190 C   0  0  0  0  0  0  0  0  0  0  0  0
    5.1733   -4.5469   29.8123 C   0  0  0  0  0  0  0  0  0  0  0  0
   -1.7508  -11.3016   18.6072 C   0  0  0  0  0  0  0  0  0  0  0  0
    1.7497   -5.6771   26.4971 C   0  0  0  0  0  0  0  0  0  0  0  0
   -1.5799   -9.9322   18.3468 C   0  0  0  0  0  0  0  0  0  0  0  0
   -1.0871  -12.2214   17.8851 C   0  0  0  0  0  0  0  0  0  0  0  0
   -2.2706   -8.9669   19.0691 C   0  0  0  0  0  0  0  0  0  0  0  0
    3.0279   -5.3073   26.8197 C   0  0  0  0  0  0  0  0  0  0  0  0
    7.3282   -3.8948   29.1186 C   0  0  0  0  0  0  0  0  0  0  0  0
  1  3  4  0
  1  7  4  0
  2  3  1  0
  2  6  4  0
  2 16  4  0
  3 22  4  0
  4  9  4  0
  4 10  1  0
  4 20  4  0
  5 16  4  0
  5 23  4  0
  6 15  4  0
  7 12  4  0
  8 13  4  0
  8 14  4  0
  9 11  4  0
 11 14  4  0
 11 19  4  0
 12 18  4  0
 13 21  4  0
 15 23  4  0
 17 19  4  0
 17 20  4  0
 18 22  4  0
 19 21  4  0
M  END
$$$$

 Created by Python create_sdf_string function

 23 25  0  0  0  0  0  0  0  0999 V2000
    2.4610   -5.3070   29.1240 C   0  0  0  0  0  0  0  0  0  0  0  0
    4.7710   -4.6952   28.4803 C   0  0  0  0  0  0  0  0  0  0  0  0
    3.4047   -5.1087   28.1314 C   0  0  0  0  0  0  0  0  0  0  0  0
   -0.2234  -11.8615   16.8874 C   0  0  0  0  0  0  0  0  0  0  0  0
    6.4491   -4.1532   30.1213 C   0  0  0  0  0  0  0  0  0  0  0  0
    5.7060   -4.4340   27.4975 C   0  0  0  0  0  0  0  0  0  0  0  0
    1.1818   -5.6612   28.8399 C   0  0  0  0  0  0  0  0  0  0  0  0
   -1.2067   -7.3287   17.7772 C   0  0  0  0  0  0  0  0  0  0  0  0
   -0.0206  -10.5585   16.6210 C   0  0  0  0  0  0  0  0  0  0  0  0
    0.3696  -12.7626   16.2169 O   0  0  0  0  0  0  0  0  0  0  0  0
   -0.6895   -9.5676   17.3297 C   0  0  0  0  0  0  0  0  0  0  0  0
    0.8388   -5.8417   27.5264 C   0  0  0  0  0  0  0  0  0  0  0  0
   -2.0709   -7.6637   18.7817 C   0  0  0  0  0  0  0  0  0  0  0  0
   -0.5279   -8.2168   17.0717 C   0  0  0  0  0  0  0  0  0  0  0  0
    6.9694   -4.0191   27.8190 C   0  0  0  0  0  0  0  0  0  0  0  0
    5.1733   -4.5469   29.8123 C   0  0  0  0  0  0  0  0  0  0  0  0
   -1.7508  -11.3016   18.6072 C   0  0  0  0  0  0  0  0  0  0  0  0
    1.7497   -5.6771   26.4971 C   0  0  0  0  0  0  0  0  0  0  0  0
   -1.5799   -9.9322   18.3468 C   0  0  0  0  0  0  0  0  0  0  0  0
   -1.0871  -12.2214   17.8851 C   0  0  0  0  0  0  0  0  0  0  0  0
   -2.2706   -8.9669   19.0691 C   0  0  0  0  0  0  0  0  0  0  0  0
    3.0279   -5.3073   26.8197 C   0  0  0  0  0  0  0  0  0  0  0  0
    7.3282   -3.8948   29.1186 C   0  0  0  0  0  0  0  0  0  0  0  0
  1  3  4  0
  1  7  4  0
  2  3  1  0
  2  6  4  0
  2 16  4  0
  3 22  4  0
  4  9  4  0
  4 10  1  0
  4 20  4  0
  5 16  4  0
  5 23  4  0
  6 15  4  0
  7 12  4  0
  8 13  4  0
  8 14  4  0
  9 11  4  0
 11 14  4  0
 11 19  4  0
 12 18  4  0
 13 21  4  0
 15 23  4  0
 17 19  4  0
 17 20  4  0
 18 22  4  0
 19 21  4  0
M  END
$$$$

 Created by Python create_sdf_string function

 23 25  0  0  0  0  0  0  0  0999 V2000
    2.4610   -5.3070   29.1240 C   0  0  0  0  0  0  0  0  0  0  0  0
    4.7710   -4.6952   28.4803 C   0  0  0  0  0  0  0  0  0  0  0  0
    3.4047   -5.1087   28.1314 C   0  0  0  0  0  0  0  0  0  0  0  0
   -0.2234  -11.8615   16.8874 C   0  0  0  0  0  0  0  0  0  0  0  0
    6.4491   -4.1532   30.1213 C   0  0  0  0  0  0  0  0  0  0  0  0
    5.7060   -4.4340   27.4975 C   0  0  0  0  0  0  0  0  0  0  0  0
    1.1818   -5.6612   28.8399 C   0  0  0  0  0  0  0  0  0  0  0  0
   -1.2067   -7.3287   17.7772 C   0  0  0  0  0  0  0  0  0  0  0  0
   -0.0206  -10.5585   16.6210 C   0  0  0  0  0  0  0  0  0  0  0  0
    0.3696  -12.7626   16.2169 O   0  0  0  0  0  0  0  0  0  0  0  0
   -0.6895   -9.5676   17.3297 C   0  0  0  0  0  0  0  0  0  0  0  0
    0.8388   -5.8417   27.5264 C   0  0  0  0  0  0  0  0  0  0  0  0
   -2.0709   -7.6637   18.7817 C   0  0  0  0  0  0  0  0  0  0  0  0
   -0.5279   -8.2168   17.0717 C   0  0  0  0  0  0  0  0  0  0  0  0
    6.9694   -4.0191   27.8190 C   0  0  0  0  0  0  0  0  0  0  0  0
    5.1733   -4.5469   29.8123 C   0  0  0  0  0  0  0  0  0  0  0  0
   -1.7508  -11.3016   18.6072 C   0  0  0  0  0  0  0  0  0  0  0  0
    1.7497   -5.6771   26.4971 C   0  0  0  0  0  0  0  0  0  0  0  0
   -1.5799   -9.9322   18.3468 C   0  0  0  0  0  0  0  0  0  0  0  0
   -1.0871  -12.2214   17.8851 C   0  0  0  0  0  0  0  0  0  0  0  0
   -2.2706   -8.9669   19.0691 C   0  0  0  0  0  0  0  0  0  0  0  0
    3.0279   -5.3073   26.8197 C   0  0  0  0  0  0  0  0  0  0  0  0
    7.3282   -3.8948   29.1186 C   0  0  0  0  0  0  0  0  0  0  0  0
  1  3  4  0
  1  7  4  0
  2  3  1  0
  2  6  4  0
  2 16  4  0
  3 22  4  0
  4  9  4  0
  4 10  1  0
  4 20  4  0
  5 16  4  0
  5 23  4  0
  6 15  4  0
  7 12  4  0
  8 13  4  0
  8 14  4  0
  9 11  4  0
 11 14  4  0
 11 19  4  0
 12 18  4  0
 13 21  4  0
 15 23  4  0
 17 19  4  0
 17 20  4  0
 18 22  4  0
 19 21  4  0
M  END
$$$$

 Created by Python create_sdf_string function

 23 25  0  0  0  0  0  0  0  0999 V2000
    2.4610   -5.3070   29.1240 C   0  0  0  0  0  0  0  0  0  0  0  0
    4.7710   -4.6952   28.4803 C   0  0  0  0  0  0  0  0  0  0  0  0
    3.4047   -5.1087   28.1314 C   0  0  0  0  0  0  0  0  0  0  0  0
   -0.2234  -11.8615   16.8874 C   0  0  0  0  0  0  0  0  0  0  0  0
    6.4491   -4.1532   30.1213 C   0  0  0  0  0  0  0  0  0  0  0  0
    5.7060   -4.4340   27.4975 C   0  0  0  0  0  0  0  0  0  0  0  0
    1.1818   -5.6612   28.8399 C   0  0  0  0  0  0  0  0  0  0  0  0
   -1.2067   -7.3287   17.7772 C   0  0  0  0  0  0  0  0  0  0  0  0
   -0.0206  -10.5585   16.6210 C   0  0  0  0  0  0  0  0  0  0  0  0
    0.3696  -12.7626   16.2169 O   0  0  0  0  0  0  0  0  0  0  0  0
   -0.6895   -9.5676   17.3297 C   0  0  0  0  0  0  0  0  0  0  0  0
    0.8388   -5.8417   27.5264 C   0  0  0  0  0  0  0  0  0  0  0  0
   -2.0709   -7.6637   18.7817 C   0  0  0  0  0  0  0  0  0  0  0  0
   -0.5279   -8.2168   17.0717 C   0  0  0  0  0  0  0  0  0  0  0  0
    6.9694   -4.0191   27.8190 C   0  0  0  0  0  0  0  0  0  0  0  0
    5.1733   -4.5469   29.8123 C   0  0  0  0  0  0  0  0  0  0  0  0
   -1.7508  -11.3016   18.6072 C   0  0  0  0  0  0  0  0  0  0  0  0
    1.7497   -5.6771   26.4971 C   0  0  0  0  0  0  0  0  0  0  0  0
   -1.5799   -9.9322   18.3468 C   0  0  0  0  0  0  0  0  0  0  0  0
   -1.0871  -12.2214   17.8851 C   0  0  0  0  0  0  0  0  0  0  0  0
   -2.2706   -8.9669   19.0691 C   0  0  0  0  0  0  0  0  0  0  0  0
    3.0279   -5.3073   26.8197 C   0  0  0  0  0  0  0  0  0  0  0  0
    7.3282   -3.8948   29.1186 C   0  0  0  0  0  0  0  0  0  0  0  0
  1  3  4  0
  1  7  4  0
  2  3  1  0
  2  6  4  0
  2 16  4  0
  3 22  4  0
  4  9  4  0
  4 10  1  0
  4 20  4  0
  5 16  4  0
  5 23  4  0
  6 15  4  0
  7 12  4  0
  8 13  4  0
  8 14  4  0
  9 11  4  0
 11 14  4  0
 11 19  4  0
 12 18  4  0
 13 21  4  0
 15 23  4  0
 17 19  4  0
 17 20  4  0
 18 22  4  0
 19 21  4  0
M  END
$$$$

 Created by Python create_sdf_string function

 23 25  0  0  0  0  0  0  0  0999 V2000
    2.4610   -5.3070   29.1240 C   0  0  0  0  0  0  0  0  0  0  0  0
    4.7710   -4.6952   28.4803 C   0  0  0  0  0  0  0  0  0  0  0  0
    3.4047   -5.1087   28.1314 C   0  0  0  0  0  0  0  0  0  0  0  0
   -0.2234  -11.8615   16.8874 C   0  0  0  0  0  0  0  0  0  0  0  0
    6.4491   -4.1532   30.1213 C   0  0  0  0  0  0  0  0  0  0  0  0
    5.7060   -4.4340   27.4975 C   0  0  0  0  0  0  0  0  0  0  0  0
    1.1818   -5.6612   28.8399 C   0  0  0  0  0  0  0  0  0  0  0  0
   -1.2067   -7.3287   17.7772 C   0  0  0  0  0  0  0  0  0  0  0  0
   -0.0206  -10.5585   16.6210 C   0  0  0  0  0  0  0  0  0  0  0  0
    0.3696  -12.7626   16.2169 O   0  0  0  0  0  0  0  0  0  0  0  0
   -0.6895   -9.5676   17.3297 C   0  0  0  0  0  0  0  0  0  0  0  0
    0.8388   -5.8417   27.5264 C   0  0  0  0  0  0  0  0  0  0  0  0
   -2.0709   -7.6637   18.7817 C   0  0  0  0  0  0  0  0  0  0  0  0
   -0.5279   -8.2168   17.0717 C   0  0  0  0  0  0  0  0  0  0  0  0
    6.9694   -4.0191   27.8190 C   0  0  0  0  0  0  0  0  0  0  0  0
    5.1733   -4.5469   29.8123 C   0  0  0  0  0  0  0  0  0  0  0  0
   -1.7508  -11.3016   18.6072 C   0  0  0  0  0  0  0  0  0  0  0  0
    1.7497   -5.6771   26.4971 C   0  0  0  0  0  0  0  0  0  0  0  0
   -1.5799   -9.9322   18.3468 C   0  0  0  0  0  0  0  0  0  0  0  0
   -1.0871  -12.2214   17.8851 C   0  0  0  0  0  0  0  0  0  0  0  0
   -2.2706   -8.9669   19.0691 C   0  0  0  0  0  0  0  0  0  0  0  0
    3.0279   -5.3073   26.8197 C   0  0  0  0  0  0  0  0  0  0  0  0
    7.3282   -3.8948   29.1186 C   0  0  0  0  0  0  0  0  0  0  0  0
  1  3  4  0
  1  7  4  0
  2  3  1  0
  2  6  4  0
  2 16  4  0
  3 22  4  0
  4  9  4  0
  4 10  1  0
  4 20  4  0
  5 16  4  0
  5 23  4  0
  6 15  4  0
  7 12  4  0
  8 13  4  0
  8 14  4  0
  9 11  4  0
 11 14  4  0
 11 19  4  0
 12 18  4  0
 13 21  4  0
 15 23  4  0
 17 19  4  0
 17 20  4  0
 18 22  4  0
 19 21  4  0
M  END
$$$$

 Created by Python create_sdf_string function

 23 25  0  0  0  0  0  0  0  0999 V2000
    2.4610   -5.3070   29.1240 C   0  0  0  0  0  0  0  0  0  0  0  0
    4.7710   -4.6952   28.4803 C   0  0  0  0  0  0  0  0  0  0  0  0
    3.4047   -5.1087   28.1314 C   0  0  0  0  0  0  0  0  0  0  0  0
   -0.2234  -11.8615   16.8874 C   0  0  0  0  0  0  0  0  0  0  0  0
    6.4491   -4.1532   30.1213 C   0  0  0  0  0  0  0  0  0  0  0  0
    5.7060   -4.4340   27.4975 C   0  0  0  0  0  0  0  0  0  0  0  0
    1.1818   -5.6612   28.8399 C   0  0  0  0  0  0  0  0  0  0  0  0
   -1.2067   -7.3287   17.7772 C   0  0  0  0  0  0  0  0  0  0  0  0
   -0.0206  -10.5585   16.6210 C   0  0  0  0  0  0  0  0  0  0  0  0
    0.3696  -12.7626   16.2169 O   0  0  0  0  0  0  0  0  0  0  0  0
   -0.6895   -9.5676   17.3297 C   0  0  0  0  0  0  0  0  0  0  0  0
    0.8388   -5.8417   27.5264 C   0  0  0  0  0  0  0  0  0  0  0  0
   -2.0709   -7.6637   18.7817 C   0  0  0  0  0  0  0  0  0  0  0  0
   -0.5279   -8.2168   17.0717 C   0  0  0  0  0  0  0  0  0  0  0  0
    6.9694   -4.0191   27.8190 C   0  0  0  0  0  0  0  0  0  0  0  0
    5.1733   -4.5469   29.8123 C   0  0  0  0  0  0  0  0  0  0  0  0
   -1.7508  -11.3016   18.6072 C   0  0  0  0  0  0  0  0  0  0  0  0
    1.7497   -5.6771   26.4971 C   0  0  0  0  0  0  0  0  0  0  0  0
   -1.5799   -9.9322   18.3468 C   0  0  0  0  0  0  0  0  0  0  0  0
   -1.0871  -12.2214   17.8851 C   0  0  0  0  0  0  0  0  0  0  0  0
   -2.2706   -8.9669   19.0691 C   0  0  0  0  0  0  0  0  0  0  0  0
    3.0279   -5.3073   26.8197 C   0  0  0  0  0  0  0  0  0  0  0  0
    7.3282   -3.8948   29.1186 C   0  0  0  0  0  0  0  0  0  0  0  0
  1  3  4  0
  1  7  4  0
  2  3  1  0
  2  6  4  0
  2 16  4  0
  3 22  4  0
  4  9  4  0
  4 10  1  0
  4 20  4  0
  5 16  4  0
  5 23  4  0
  6 15  4  0
  7 12  4  0
  8 13  4  0
  8 14  4  0
  9 11  4  0
 11 14  4  0
 11 19  4  0
 12 18  4  0
 13 21  4  0
 15 23  4  0
 17 19  4  0
 17 20  4  0
 18 22  4  0
 19 21  4  0
M  END
$$$$

 Created by Python create_sdf_string function

 23 25  0  0  0  0  0  0  0  0999 V2000
    2.4610   -5.3070   29.1240 C   0  0  0  0  0  0  0  0  0  0  0  0
    4.7710   -4.6952   28.4803 C   0  0  0  0  0  0  0  0  0  0  0  0
    3.4047   -5.1087   28.1314 C   0  0  0  0  0  0  0  0  0  0  0  0
   -0.2234  -11.8615   16.8874 C   0  0  0  0  0  0  0  0  0  0  0  0
    6.4491   -4.1532   30.1213 C   0  0  0  0  0  0  0  0  0  0  0  0
    5.7060   -4.4340   27.4975 C   0  0  0  0  0  0  0  0  0  0  0  0
    1.1818   -5.6612   28.8399 C   0  0  0  0  0  0  0  0  0  0  0  0
   -1.2067   -7.3287   17.7772 C   0  0  0  0  0  0  0  0  0  0  0  0
   -0.0206  -10.5585   16.6210 C   0  0  0  0  0  0  0  0  0  0  0  0
    0.3696  -12.7626   16.2169 O   0  0  0  0  0  0  0  0  0  0  0  0
   -0.6895   -9.5676   17.3297 C   0  0  0  0  0  0  0  0  0  0  0  0
    0.8388   -5.8417   27.5264 C   0  0  0  0  0  0  0  0  0  0  0  0
   -2.0709   -7.6637   18.7817 C   0  0  0  0  0  0  0  0  0  0  0  0
   -0.5279   -8.2168   17.0717 C   0  0  0  0  0  0  0  0  0  0  0  0
    6.9694   -4.0191   27.8190 C   0  0  0  0  0  0  0  0  0  0  0  0
    5.1733   -4.5469   29.8123 C   0  0  0  0  0  0  0  0  0  0  0  0
   -1.7508  -11.3016   18.6072 C   0  0  0  0  0  0  0  0  0  0  0  0
    1.7497   -5.6771   26.4971 C   0  0  0  0  0  0  0  0  0  0  0  0
   -1.5799   -9.9322   18.3468 C   0  0  0  0  0  0  0  0  0  0  0  0
   -1.0871  -12.2214   17.8851 C   0  0  0  0  0  0  0  0  0  0  0  0
   -2.2706   -8.9669   19.0691 C   0  0  0  0  0  0  0  0  0  0  0  0
    3.0279   -5.3073   26.8197 C   0  0  0  0  0  0  0  0  0  0  0  0
    7.3282   -3.8948   29.1186 C   0  0  0  0  0  0  0  0  0  0  0  0
  1  3  4  0
  1  7  4  0
  2  3  1  0
  2  6  4  0
  2 16  4  0
  3 22  4  0
  4  9  4  0
  4 10  1  0
  4 20  4  0
  5 16  4  0
  5 23  4  0
  6 15  4  0
  7 12  4  0
  8 13  4  0
  8 14  4  0
  9 11  4  0
 11 14  4  0
 11 19  4  0
 12 18  4  0
 13 21  4  0
 15 23  4  0
 17 19  4  0
 17 20  4  0
 18 22  4  0
 19 21  4  0
M  END
$$$$

 Created by Python create_sdf_string function

 23 25  0  0  0  0  0  0  0  0999 V2000
    2.4610   -5.3070   29.1240 C   0  0  0  0  0  0  0  0  0  0  0  0
    4.7710   -4.6952   28.4803 C   0  0  0  0  0  0  0  0  0  0  0  0
    3.4047   -5.1087   28.1314 C   0  0  0  0  0  0  0  0  0  0  0  0
   -0.2234  -11.8615   16.8874 C   0  0  0  0  0  0  0  0  0  0  0  0
    6.4491   -4.1532   30.1213 C   0  0  0  0  0  0  0  0  0  0  0  0
    5.7060   -4.4340   27.4975 C   0  0  0  0  0  0  0  0  0  0  0  0
    1.1818   -5.6612   28.8399 C   0  0  0  0  0  0  0  0  0  0  0  0
   -1.2067   -7.3287   17.7772 C   0  0  0  0  0  0  0  0  0  0  0  0
   -0.0206  -10.5585   16.6210 C   0  0  0  0  0  0  0  0  0  0  0  0
    0.3696  -12.7626   16.2169 O   0  0  0  0  0  0  0  0  0  0  0  0
   -0.6895   -9.5676   17.3297 C   0  0  0  0  0  0  0  0  0  0  0  0
    0.8388   -5.8417   27.5264 C   0  0  0  0  0  0  0  0  0  0  0  0
   -2.0709   -7.6637   18.7817 C   0  0  0  0  0  0  0  0  0  0  0  0
   -0.5279   -8.2168   17.0717 C   0  0  0  0  0  0  0  0  0  0  0  0
    6.9694   -4.0191   27.8190 C   0  0  0  0  0  0  0  0  0  0  0  0
    5.1733   -4.5469   29.8123 C   0  0  0  0  0  0  0  0  0  0  0  0
   -1.7508  -11.3016   18.6072 C   0  0  0  0  0  0  0  0  0  0  0  0
    1.7497   -5.6771   26.4971 C   0  0  0  0  0  0  0  0  0  0  0  0
   -1.5799   -9.9322   18.3468 C   0  0  0  0  0  0  0  0  0  0  0  0
   -1.0871  -12.2214   17.8851 C   0  0  0  0  0  0  0  0  0  0  0  0
   -2.2706   -8.9669   19.0691 C   0  0  0  0  0  0  0  0  0  0  0  0
    3.0279   -5.3073   26.8197 C   0  0  0  0  0  0  0  0  0  0  0  0
    7.3282   -3.8948   29.1186 C   0  0  0  0  0  0  0  0  0  0  0  0
  1  3  4  0
  1  7  4  0
  2  3  1  0
  2  6  4  0
  2 16  4  0
  3 22  4  0
  4  9  4  0
  4 10  1  0
  4 20  4  0
  5 16  4  0
  5 23  4  0
  6 15  4  0
  7 12  4  0
  8 13  4  0
  8 14  4  0
  9 11  4  0
 11 14  4  0
 11 19  4  0
 12 18  4  0
 13 21  4  0
 15 23  4  0
 17 19  4  0
 17 20  4  0
 18 22  4  0
 19 21  4  0
M  END
$$$$

 Created by Python create_sdf_string function

 23 25  0  0  0  0  0  0  0  0999 V2000
    2.4610   -5.3070   29.1240 C   0  0  0  0  0  0  0  0  0  0  0  0
    4.7710   -4.6952   28.4803 C   0  0  0  0  0  0  0  0  0  0  0  0
    3.4047   -5.1087   28.1314 C   0  0  0  0  0  0  0  0  0  0  0  0
   -0.2234  -11.8615   16.8874 C   0  0  0  0  0  0  0  0  0  0  0  0
    6.4491   -4.1532   30.1213 C   0  0  0  0  0  0  0  0  0  0  0  0
    5.7060   -4.4340   27.4975 C   0  0  0  0  0  0  0  0  0  0  0  0
    1.1818   -5.6612   28.8399 C   0  0  0  0  0  0  0  0  0  0  0  0
   -1.2067   -7.3287   17.7772 C   0  0  0  0  0  0  0  0  0  0  0  0
   -0.0206  -10.5585   16.6210 C   0  0  0  0  0  0  0  0  0  0  0  0
    0.3696  -12.7626   16.2169 O   0  0  0  0  0  0  0  0  0  0  0  0
   -0.6895   -9.5676   17.3297 C   0  0  0  0  0  0  0  0  0  0  0  0
    0.8388   -5.8417   27.5264 C   0  0  0  0  0  0  0  0  0  0  0  0
   -2.0709   -7.6637   18.7817 C   0  0  0  0  0  0  0  0  0  0  0  0
   -0.5279   -8.2168   17.0717 C   0  0  0  0  0  0  0  0  0  0  0  0
    6.9694   -4.0191   27.8190 C   0  0  0  0  0  0  0  0  0  0  0  0
    5.1733   -4.5469   29.8123 C   0  0  0  0  0  0  0  0  0  0  0  0
   -1.7508  -11.3016   18.6072 C   0  0  0  0  0  0  0  0  0  0  0  0
    1.7497   -5.6771   26.4971 C   0  0  0  0  0  0  0  0  0  0  0  0
   -1.5799   -9.9322   18.3468 C   0  0  0  0  0  0  0  0  0  0  0  0
   -1.0871  -12.2214   17.8851 C   0  0  0  0  0  0  0  0  0  0  0  0
   -2.2706   -8.9669   19.0691 C   0  0  0  0  0  0  0  0  0  0  0  0
    3.0279   -5.3073   26.8197 C   0  0  0  0  0  0  0  0  0  0  0  0
    7.3282   -3.8948   29.1186 C   0  0  0  0  0  0  0  0  0  0  0  0
  1  3  4  0
  1  7  4  0
  2  3  1  0
  2  6  4  0
  2 16  4  0
  3 22  4  0
  4  9  4  0
  4 10  1  0
  4 20  4  0
  5 16  4  0
  5 23  4  0
  6 15  4  0
  7 12  4  0
  8 13  4  0
  8 14  4  0
  9 11  4  0
 11 14  4  0
 11 19  4  0
 12 18  4  0
 13 21  4  0
 15 23  4  0
 17 19  4  0
 17 20  4  0
 18 22  4  0
 19 21  4  0
M  END
$$$$

 Created by Python create_sdf_string function

 23 25  0  0  0  0  0  0  0  0999 V2000
    2.4610   -5.3070   29.1240 C   0  0  0  0  0  0  0  0  0  0  0  0
    4.7710   -4.6952   28.4803 C   0  0  0  0  0  0  0  0  0  0  0  0
    3.4047   -5.1087   28.1314 C   0  0  0  0  0  0  0  0  0  0  0  0
   -0.2234  -11.8615   16.8874 C   0  0  0  0  0  0  0  0  0  0  0  0
    6.4491   -4.1532   30.1213 C   0  0  0  0  0  0  0  0  0  0  0  0
    5.7060   -4.4340   27.4975 C   0  0  0  0  0  0  0  0  0  0  0  0
    1.1818   -5.6612   28.8399 C   0  0  0  0  0  0  0  0  0  0  0  0
   -1.2067   -7.3287   17.7772 C   0  0  0  0  0  0  0  0  0  0  0  0
   -0.0206  -10.5585   16.6210 C   0  0  0  0  0  0  0  0  0  0  0  0
    0.3696  -12.7626   16.2169 O   0  0  0  0  0  0  0  0  0  0  0  0
   -0.6895   -9.5676   17.3297 C   0  0  0  0  0  0  0  0  0  0  0  0
    0.8388   -5.8417   27.5264 C   0  0  0  0  0  0  0  0  0  0  0  0
   -2.0709   -7.6637   18.7817 C   0  0  0  0  0  0  0  0  0  0  0  0
   -0.5279   -8.2168   17.0717 C   0  0  0  0  0  0  0  0  0  0  0  0
    6.9694   -4.0191   27.8190 C   0  0  0  0  0  0  0  0  0  0  0  0
    5.1733   -4.5469   29.8123 C   0  0  0  0  0  0  0  0  0  0  0  0
   -1.7508  -11.3016   18.6072 C   0  0  0  0  0  0  0  0  0  0  0  0
    1.7497   -5.6771   26.4971 C   0  0  0  0  0  0  0  0  0  0  0  0
   -1.5799   -9.9322   18.3468 C   0  0  0  0  0  0  0  0  0  0  0  0
   -1.0871  -12.2214   17.8851 C   0  0  0  0  0  0  0  0  0  0  0  0
   -2.2706   -8.9669   19.0691 C   0  0  0  0  0  0  0  0  0  0  0  0
    3.0279   -5.3073   26.8197 C   0  0  0  0  0  0  0  0  0  0  0  0
    7.3282   -3.8948   29.1186 C   0  0  0  0  0  0  0  0  0  0  0  0
  1  3  4  0
  1  7  4  0
  2  3  1  0
  2  6  4  0
  2 16  4  0
  3 22  4  0
  4  9  4  0
  4 10  1  0
  4 20  4  0
  5 16  4  0
  5 23  4  0
  6 15  4  0
  7 12  4  0
  8 13  4  0
  8 14  4  0
  9 11  4  0
 11 14  4  0
 11 19  4  0
 12 18  4  0
 13 21  4  0
 15 23  4  0
 17 19  4  0
 17 20  4  0
 18 22  4  0
 19 21  4  0
M  END
$$$$

 Created by Python create_sdf_string function

 23 25  0  0  0  0  0  0  0  0999 V2000
    2.4610   -5.3070   29.1240 C   0  0  0  0  0  0  0  0  0  0  0  0
    4.7710   -4.6952   28.4803 C   0  0  0  0  0  0  0  0  0  0  0  0
    3.4047   -5.1087   28.1314 C   0  0  0  0  0  0  0  0  0  0  0  0
   -0.2234  -11.8615   16.8874 C   0  0  0  0  0  0  0  0  0  0  0  0
    6.4491   -4.1532   30.1213 C   0  0  0  0  0  0  0  0  0  0  0  0
    5.7060   -4.4340   27.4975 C   0  0  0  0  0  0  0  0  0  0  0  0
    1.1818   -5.6612   28.8399 C   0  0  0  0  0  0  0  0  0  0  0  0
   -1.2067   -7.3287   17.7772 C   0  0  0  0  0  0  0  0  0  0  0  0
   -0.0206  -10.5585   16.6210 C   0  0  0  0  0  0  0  0  0  0  0  0
    0.3696  -12.7626   16.2169 O   0  0  0  0  0  0  0  0  0  0  0  0
   -0.6895   -9.5676   17.3297 C   0  0  0  0  0  0  0  0  0  0  0  0
    0.8388   -5.8417   27.5264 C   0  0  0  0  0  0  0  0  0  0  0  0
   -2.0709   -7.6637   18.7817 C   0  0  0  0  0  0  0  0  0  0  0  0
   -0.5279   -8.2168   17.0717 C   0  0  0  0  0  0  0  0  0  0  0  0
    6.9694   -4.0191   27.8190 C   0  0  0  0  0  0  0  0  0  0  0  0
    5.1733   -4.5469   29.8123 C   0  0  0  0  0  0  0  0  0  0  0  0
   -1.7508  -11.3016   18.6072 C   0  0  0  0  0  0  0  0  0  0  0  0
    1.7497   -5.6771   26.4971 C   0  0  0  0  0  0  0  0  0  0  0  0
   -1.5799   -9.9322   18.3468 C   0  0  0  0  0  0  0  0  0  0  0  0
   -1.0871  -12.2214   17.8851 C   0  0  0  0  0  0  0  0  0  0  0  0
   -2.2706   -8.9669   19.0691 C   0  0  0  0  0  0  0  0  0  0  0  0
    3.0279   -5.3073   26.8197 C   0  0  0  0  0  0  0  0  0  0  0  0
    7.3282   -3.8948   29.1186 C   0  0  0  0  0  0  0  0  0  0  0  0
  1  3  4  0
  1  7  4  0
  2  3  1  0
  2  6  4  0
  2 16  4  0
  3 22  4  0
  4  9  4  0
  4 10  1  0
  4 20  4  0
  5 16  4  0
  5 23  4  0
  6 15  4  0
  7 12  4  0
  8 13  4  0
  8 14  4  0
  9 11  4  0
 11 14  4  0
 11 19  4  0
 12 18  4  0
 13 21  4  0
 15 23  4  0
 17 19  4  0
 17 20  4  0
 18 22  4  0
 19 21  4  0
M  END
$$$$

 Created by Python create_sdf_string function

 23 25  0  0  0  0  0  0  0  0999 V2000
    2.4610   -5.3070   29.1240 C   0  0  0  0  0  0  0  0  0  0  0  0
    4.7710   -4.6952   28.4803 C   0  0  0  0  0  0  0  0  0  0  0  0
    3.4047   -5.1087   28.1314 C   0  0  0  0  0  0  0  0  0  0  0  0
   -0.2234  -11.8615   16.8874 C   0  0  0  0  0  0  0  0  0  0  0  0
    6.4491   -4.1532   30.1213 C   0  0  0  0  0  0  0  0  0  0  0  0
    5.7060   -4.4340   27.4975 C   0  0  0  0  0  0  0  0  0  0  0  0
    1.1818   -5.6612   28.8399 C   0  0  0  0  0  0  0  0  0  0  0  0
   -1.2067   -7.3287   17.7772 C   0  0  0  0  0  0  0  0  0  0  0  0
   -0.0206  -10.5585   16.6210 C   0  0  0  0  0  0  0  0  0  0  0  0
    0.3696  -12.7626   16.2169 O   0  0  0  0  0  0  0  0  0  0  0  0
   -0.6895   -9.5676   17.3297 C   0  0  0  0  0  0  0  0  0  0  0  0
    0.8388   -5.8417   27.5264 C   0  0  0  0  0  0  0  0  0  0  0  0
   -2.0709   -7.6637   18.7817 C   0  0  0  0  0  0  0  0  0  0  0  0
   -0.5279   -8.2168   17.0717 C   0  0  0  0  0  0  0  0  0  0  0  0
    6.9694   -4.0191   27.8190 C   0  0  0  0  0  0  0  0  0  0  0  0
    5.1733   -4.5469   29.8123 C   0  0  0  0  0  0  0  0  0  0  0  0
   -1.7508  -11.3016   18.6072 C   0  0  0  0  0  0  0  0  0  0  0  0
    1.7497   -5.6771   26.4971 C   0  0  0  0  0  0  0  0  0  0  0  0
   -1.5799   -9.9322   18.3468 C   0  0  0  0  0  0  0  0  0  0  0  0
   -1.0871  -12.2214   17.8851 C   0  0  0  0  0  0  0  0  0  0  0  0
   -2.2706   -8.9669   19.0691 C   0  0  0  0  0  0  0  0  0  0  0  0
    3.0279   -5.3073   26.8197 C   0  0  0  0  0  0  0  0  0  0  0  0
    7.3282   -3.8948   29.1186 C   0  0  0  0  0  0  0  0  0  0  0  0
  1  3  4  0
  1  7  4  0
  2  3  1  0
  2  6  4  0
  2 16  4  0
  3 22  4  0
  4  9  4  0
  4 10  1  0
  4 20  4  0
  5 16  4  0
  5 23  4  0
  6 15  4  0
  7 12  4  0
  8 13  4  0
  8 14  4  0
  9 11  4  0
 11 14  4  0
 11 19  4  0
 12 18  4  0
 13 21  4  0
 15 23  4  0
 17 19  4  0
 17 20  4  0
 18 22  4  0
 19 21  4  0
M  END
$$$$

 Created by Python create_sdf_string function

 23 25  0  0  0  0  0  0  0  0999 V2000
    2.4610   -5.3070   29.1240 C   0  0  0  0  0  0  0  0  0  0  0  0
    4.7710   -4.6952   28.4803 C   0  0  0  0  0  0  0  0  0  0  0  0
    3.4047   -5.1087   28.1314 C   0  0  0  0  0  0  0  0  0  0  0  0
   -0.2234  -11.8615   16.8874 C   0  0  0  0  0  0  0  0  0  0  0  0
    6.4491   -4.1532   30.1213 C   0  0  0  0  0  0  0  0  0  0  0  0
    5.7060   -4.4340   27.4975 C   0  0  0  0  0  0  0  0  0  0  0  0
    1.1818   -5.6612   28.8399 C   0  0  0  0  0  0  0  0  0  0  0  0
   -1.2067   -7.3287   17.7772 C   0  0  0  0  0  0  0  0  0  0  0  0
   -0.0206  -10.5585   16.6210 C   0  0  0  0  0  0  0  0  0  0  0  0
    0.3696  -12.7626   16.2169 O   0  0  0  0  0  0  0  0  0  0  0  0
   -0.6895   -9.5676   17.3297 C   0  0  0  0  0  0  0  0  0  0  0  0
    0.8388   -5.8417   27.5264 C   0  0  0  0  0  0  0  0  0  0  0  0
   -2.0709   -7.6637   18.7817 C   0  0  0  0  0  0  0  0  0  0  0  0
   -0.5279   -8.2168   17.0717 C   0  0  0  0  0  0  0  0  0  0  0  0
    6.9694   -4.0191   27.8190 C   0  0  0  0  0  0  0  0  0  0  0  0
    5.1733   -4.5469   29.8123 C   0  0  0  0  0  0  0  0  0  0  0  0
   -1.7508  -11.3016   18.6072 C   0  0  0  0  0  0  0  0  0  0  0  0
    1.7497   -5.6771   26.4971 C   0  0  0  0  0  0  0  0  0  0  0  0
   -1.5799   -9.9322   18.3468 C   0  0  0  0  0  0  0  0  0  0  0  0
   -1.0871  -12.2214   17.8851 C   0  0  0  0  0  0  0  0  0  0  0  0
   -2.2706   -8.9669   19.0691 C   0  0  0  0  0  0  0  0  0  0  0  0
    3.0279   -5.3073   26.8197 C   0  0  0  0  0  0  0  0  0  0  0  0
    7.3282   -3.8948   29.1186 C   0  0  0  0  0  0  0  0  0  0  0  0
  1  3  4  0
  1  7  4  0
  2  3  1  0
  2  6  4  0
  2 16  4  0
  3 22  4  0
  4  9  4  0
  4 10  1  0
  4 20  4  0
  5 16  4  0
  5 23  4  0
  6 15  4  0
  7 12  4  0
  8 13  4  0
  8 14  4  0
  9 11  4  0
 11 14  4  0
 11 19  4  0
 12 18  4  0
 13 21  4  0
 15 23  4  0
 17 19  4  0
 17 20  4  0
 18 22  4  0
 19 21  4  0
M  END
$$$$

 Created by Python create_sdf_string function

 23 25  0  0  0  0  0  0  0  0999 V2000
    2.4610   -5.3070   29.1240 C   0  0  0  0  0  0  0  0  0  0  0  0
    4.7710   -4.6952   28.4803 C   0  0  0  0  0  0  0  0  0  0  0  0
    3.4047   -5.1087   28.1314 C   0  0  0  0  0  0  0  0  0  0  0  0
   -0.2234  -11.8615   16.8874 C   0  0  0  0  0  0  0  0  0  0  0  0
    6.4491   -4.1532   30.1213 C   0  0  0  0  0  0  0  0  0  0  0  0
    5.7060   -4.4340   27.4975 C   0  0  0  0  0  0  0  0  0  0  0  0
    1.1818   -5.6612   28.8399 C   0  0  0  0  0  0  0  0  0  0  0  0
   -1.2067   -7.3287   17.7772 C   0  0  0  0  0  0  0  0  0  0  0  0
   -0.0206  -10.5585   16.6210 C   0  0  0  0  0  0  0  0  0  0  0  0
    0.3696  -12.7626   16.2169 O   0  0  0  0  0  0  0  0  0  0  0  0
   -0.6895   -9.5676   17.3297 C   0  0  0  0  0  0  0  0  0  0  0  0
    0.8388   -5.8417   27.5264 C   0  0  0  0  0  0  0  0  0  0  0  0
   -2.0709   -7.6637   18.7817 C   0  0  0  0  0  0  0  0  0  0  0  0
   -0.5279   -8.2168   17.0717 C   0  0  0  0  0  0  0  0  0  0  0  0
    6.9694   -4.0191   27.8190 C   0  0  0  0  0  0  0  0  0  0  0  0
    5.1733   -4.5469   29.8123 C   0  0  0  0  0  0  0  0  0  0  0  0
   -1.7508  -11.3016   18.6072 C   0  0  0  0  0  0  0  0  0  0  0  0
    1.7497   -5.6771   26.4971 C   0  0  0  0  0  0  0  0  0  0  0  0
   -1.5799   -9.9322   18.3468 C   0  0  0  0  0  0  0  0  0  0  0  0
   -1.0871  -12.2214   17.8851 C   0  0  0  0  0  0  0  0  0  0  0  0
   -2.2706   -8.9669   19.0691 C   0  0  0  0  0  0  0  0  0  0  0  0
    3.0279   -5.3073   26.8197 C   0  0  0  0  0  0  0  0  0  0  0  0
    7.3282   -3.8948   29.1186 C   0  0  0  0  0  0  0  0  0  0  0  0
  1  3  4  0
  1  7  4  0
  2  3  1  0
  2  6  4  0
  2 16  4  0
  3 22  4  0
  4  9  4  0
  4 10  1  0
  4 20  4  0
  5 16  4  0
  5 23  4  0
  6 15  4  0
  7 12  4  0
  8 13  4  0
  8 14  4  0
  9 11  4  0
 11 14  4  0
 11 19  4  0
 12 18  4  0
 13 21  4  0
 15 23  4  0
 17 19  4  0
 17 20  4  0
 18 22  4  0
 19 21  4  0
M  END
$$$$

 Created by Python create_sdf_string function

 23 25  0  0  0  0  0  0  0  0999 V2000
    2.4610   -5.3070   29.1240 C   0  0  0  0  0  0  0  0  0  0  0  0
    4.7710   -4.6952   28.4803 C   0  0  0  0  0  0  0  0  0  0  0  0
    3.4047   -5.1087   28.1314 C   0  0  0  0  0  0  0  0  0  0  0  0
   -0.2234  -11.8615   16.8874 C   0  0  0  0  0  0  0  0  0  0  0  0
    6.4491   -4.1532   30.1213 C   0  0  0  0  0  0  0  0  0  0  0  0
    5.7060   -4.4340   27.4975 C   0  0  0  0  0  0  0  0  0  0  0  0
    1.1818   -5.6612   28.8399 C   0  0  0  0  0  0  0  0  0  0  0  0
   -1.2067   -7.3287   17.7772 C   0  0  0  0  0  0  0  0  0  0  0  0
   -0.0206  -10.5585   16.6210 C   0  0  0  0  0  0  0  0  0  0  0  0
    0.3696  -12.7626   16.2169 O   0  0  0  0  0  0  0  0  0  0  0  0
   -0.6895   -9.5676   17.3297 C   0  0  0  0  0  0  0  0  0  0  0  0
    0.8388   -5.8417   27.5264 C   0  0  0  0  0  0  0  0  0  0  0  0
   -2.0709   -7.6637   18.7817 C   0  0  0  0  0  0  0  0  0  0  0  0
   -0.5279   -8.2168   17.0717 C   0  0  0  0  0  0  0  0  0  0  0  0
    6.9694   -4.0191   27.8190 C   0  0  0  0  0  0  0  0  0  0  0  0
    5.1733   -4.5469   29.8123 C   0  0  0  0  0  0  0  0  0  0  0  0
   -1.7508  -11.3016   18.6072 C   0  0  0  0  0  0  0  0  0  0  0  0
    1.7497   -5.6771   26.4971 C   0  0  0  0  0  0  0  0  0  0  0  0
   -1.5799   -9.9322   18.3468 C   0  0  0  0  0  0  0  0  0  0  0  0
   -1.0871  -12.2214   17.8851 C   0  0  0  0  0  0  0  0  0  0  0  0
   -2.2706   -8.9669   19.0691 C   0  0  0  0  0  0  0  0  0  0  0  0
    3.0279   -5.3073   26.8197 C   0  0  0  0  0  0  0  0  0  0  0  0
    7.3282   -3.8948   29.1186 C   0  0  0  0  0  0  0  0  0  0  0  0
  1  3  4  0
  1  7  4  0
  2  3  1  0
  2  6  4  0
  2 16  4  0
  3 22  4  0
  4  9  4  0
  4 10  1  0
  4 20  4  0
  5 16  4  0
  5 23  4  0
  6 15  4  0
  7 12  4  0
  8 13  4  0
  8 14  4  0
  9 11  4  0
 11 14  4  0
 11 19  4  0
 12 18  4  0
 13 21  4  0
 15 23  4  0
 17 19  4  0
 17 20  4  0
 18 22  4  0
 19 21  4  0
M  END
$$$$

 Created by Python create_sdf_string function

 23 25  0  0  0  0  0  0  0  0999 V2000
    2.4610   -5.3070   29.1240 C   0  0  0  0  0  0  0  0  0  0  0  0
    4.7710   -4.6952   28.4803 C   0  0  0  0  0  0  0  0  0  0  0  0
    3.4047   -5.1087   28.1314 C   0  0  0  0  0  0  0  0  0  0  0  0
   -0.2234  -11.8615   16.8874 C   0  0  0  0  0  0  0  0  0  0  0  0
    6.4491   -4.1532   30.1213 C   0  0  0  0  0  0  0  0  0  0  0  0
    5.7060   -4.4340   27.4975 C   0  0  0  0  0  0  0  0  0  0  0  0
    1.1818   -5.6612   28.8399 C   0  0  0  0  0  0  0  0  0  0  0  0
   -1.2067   -7.3287   17.7772 C   0  0  0  0  0  0  0  0  0  0  0  0
   -0.0206  -10.5585   16.6210 C   0  0  0  0  0  0  0  0  0  0  0  0
    0.3696  -12.7626   16.2169 O   0  0  0  0  0  0  0  0  0  0  0  0
   -0.6895   -9.5676   17.3297 C   0  0  0  0  0  0  0  0  0  0  0  0
    0.8388   -5.8417   27.5264 C   0  0  0  0  0  0  0  0  0  0  0  0
   -2.0709   -7.6637   18.7817 C   0  0  0  0  0  0  0  0  0  0  0  0
   -0.5279   -8.2168   17.0717 C   0  0  0  0  0  0  0  0  0  0  0  0
    6.9694   -4.0191   27.8190 C   0  0  0  0  0  0  0  0  0  0  0  0
    5.1733   -4.5469   29.8123 C   0  0  0  0  0  0  0  0  0  0  0  0
   -1.7508  -11.3016   18.6072 C   0  0  0  0  0  0  0  0  0  0  0  0
    1.7497   -5.6771   26.4971 C   0  0  0  0  0  0  0  0  0  0  0  0
   -1.5799   -9.9322   18.3468 C   0  0  0  0  0  0  0  0  0  0  0  0
   -1.0871  -12.2214   17.8851 C   0  0  0  0  0  0  0  0  0  0  0  0
   -2.2706   -8.9669   19.0691 C   0  0  0  0  0  0  0  0  0  0  0  0
    3.0279   -5.3073   26.8197 C   0  0  0  0  0  0  0  0  0  0  0  0
    7.3282   -3.8948   29.1186 C   0  0  0  0  0  0  0  0  0  0  0  0
  1  3  4  0
  1  7  4  0
  2  3  1  0
  2  6  4  0
  2 16  4  0
  3 22  4  0
  4  9  4  0
  4 10  1  0
  4 20  4  0
  5 16  4  0
  5 23  4  0
  6 15  4  0
  7 12  4  0
  8 13  4  0
  8 14  4  0
  9 11  4  0
 11 14  4  0
 11 19  4  0
 12 18  4  0
 13 21  4  0
 15 23  4  0
 17 19  4  0
 17 20  4  0
 18 22  4  0
 19 21  4  0
M  END
$$$$

 Created by Python create_sdf_string function

 23 25  0  0  0  0  0  0  0  0999 V2000
    2.4610   -5.3070   29.1240 C   0  0  0  0  0  0  0  0  0  0  0  0
    4.7710   -4.6952   28.4803 C   0  0  0  0  0  0  0  0  0  0  0  0
    3.4047   -5.1087   28.1314 C   0  0  0  0  0  0  0  0  0  0  0  0
   -0.2234  -11.8615   16.8874 C   0  0  0  0  0  0  0  0  0  0  0  0
    6.4491   -4.1532   30.1213 C   0  0  0  0  0  0  0  0  0  0  0  0
    5.7060   -4.4340   27.4975 C   0  0  0  0  0  0  0  0  0  0  0  0
    1.1818   -5.6612   28.8399 C   0  0  0  0  0  0  0  0  0  0  0  0
   -1.2067   -7.3287   17.7772 C   0  0  0  0  0  0  0  0  0  0  0  0
   -0.0206  -10.5585   16.6210 C   0  0  0  0  0  0  0  0  0  0  0  0
    0.3696  -12.7626   16.2169 O   0  0  0  0  0  0  0  0  0  0  0  0
   -0.6895   -9.5676   17.3297 C   0  0  0  0  0  0  0  0  0  0  0  0
    0.8388   -5.8417   27.5264 C   0  0  0  0  0  0  0  0  0  0  0  0
   -2.0709   -7.6637   18.7817 C   0  0  0  0  0  0  0  0  0  0  0  0
   -0.5279   -8.2168   17.0717 C   0  0  0  0  0  0  0  0  0  0  0  0
    6.9694   -4.0191   27.8190 C   0  0  0  0  0  0  0  0  0  0  0  0
    5.1733   -4.5469   29.8123 C   0  0  0  0  0  0  0  0  0  0  0  0
   -1.7508  -11.3016   18.6072 C   0  0  0  0  0  0  0  0  0  0  0  0
    1.7497   -5.6771   26.4971 C   0  0  0  0  0  0  0  0  0  0  0  0
   -1.5799   -9.9322   18.3468 C   0  0  0  0  0  0  0  0  0  0  0  0
   -1.0871  -12.2214   17.8851 C   0  0  0  0  0  0  0  0  0  0  0  0
   -2.2706   -8.9669   19.0691 C   0  0  0  0  0  0  0  0  0  0  0  0
    3.0279   -5.3073   26.8197 C   0  0  0  0  0  0  0  0  0  0  0  0
    7.3282   -3.8948   29.1186 C   0  0  0  0  0  0  0  0  0  0  0  0
  1  3  4  0
  1  7  4  0
  2  3  1  0
  2  6  4  0
  2 16  4  0
  3 22  4  0
  4  9  4  0
  4 10  1  0
  4 20  4  0
  5 16  4  0
  5 23  4  0
  6 15  4  0
  7 12  4  0
  8 13  4  0
  8 14  4  0
  9 11  4  0
 11 14  4  0
 11 19  4  0
 12 18  4  0
 13 21  4  0
 15 23  4  0
 17 19  4  0
 17 20  4  0
 18 22  4  0
 19 21  4  0
M  END
$$$$

 Created by Python create_sdf_string function

 23 25  0  0  0  0  0  0  0  0999 V2000
    2.4610   -5.3070   29.1240 C   0  0  0  0  0  0  0  0  0  0  0  0
    4.7710   -4.6952   28.4803 C   0  0  0  0  0  0  0  0  0  0  0  0
    3.4047   -5.1087   28.1314 C   0  0  0  0  0  0  0  0  0  0  0  0
   -0.2234  -11.8615   16.8874 C   0  0  0  0  0  0  0  0  0  0  0  0
    6.4491   -4.1532   30.1213 C   0  0  0  0  0  0  0  0  0  0  0  0
    5.7060   -4.4340   27.4975 C   0  0  0  0  0  0  0  0  0  0  0  0
    1.1818   -5.6612   28.8399 C   0  0  0  0  0  0  0  0  0  0  0  0
   -1.2067   -7.3287   17.7772 C   0  0  0  0  0  0  0  0  0  0  0  0
   -0.0206  -10.5585   16.6210 C   0  0  0  0  0  0  0  0  0  0  0  0
    0.3696  -12.7626   16.2169 O   0  0  0  0  0  0  0  0  0  0  0  0
   -0.6895   -9.5676   17.3297 C   0  0  0  0  0  0  0  0  0  0  0  0
    0.8388   -5.8417   27.5264 C   0  0  0  0  0  0  0  0  0  0  0  0
   -2.0709   -7.6637   18.7817 C   0  0  0  0  0  0  0  0  0  0  0  0
   -0.5279   -8.2168   17.0717 C   0  0  0  0  0  0  0  0  0  0  0  0
    6.9694   -4.0191   27.8190 C   0  0  0  0  0  0  0  0  0  0  0  0
    5.1733   -4.5469   29.8123 C   0  0  0  0  0  0  0  0  0  0  0  0
   -1.7508  -11.3016   18.6072 C   0  0  0  0  0  0  0  0  0  0  0  0
    1.7497   -5.6771   26.4971 C   0  0  0  0  0  0  0  0  0  0  0  0
   -1.5799   -9.9322   18.3468 C   0  0  0  0  0  0  0  0  0  0  0  0
   -1.0871  -12.2214   17.8851 C   0  0  0  0  0  0  0  0  0  0  0  0
   -2.2706   -8.9669   19.0691 C   0  0  0  0  0  0  0  0  0  0  0  0
    3.0279   -5.3073   26.8197 C   0  0  0  0  0  0  0  0  0  0  0  0
    7.3282   -3.8948   29.1186 C   0  0  0  0  0  0  0  0  0  0  0  0
  1  3  4  0
  1  7  4  0
  2  3  1  0
  2  6  4  0
  2 16  4  0
  3 22  4  0
  4  9  4  0
  4 10  1  0
  4 20  4  0
  5 16  4  0
  5 23  4  0
  6 15  4  0
  7 12  4  0
  8 13  4  0
  8 14  4  0
  9 11  4  0
 11 14  4  0
 11 19  4  0
 12 18  4  0
 13 21  4  0
 15 23  4  0
 17 19  4  0
 17 20  4  0
 18 22  4  0
 19 21  4  0
M  END
$$$$

 Created by Python create_sdf_string function

 23 25  0  0  0  0  0  0  0  0999 V2000
    2.4610   -5.3070   29.1240 C   0  0  0  0  0  0  0  0  0  0  0  0
    4.7710   -4.6952   28.4803 C   0  0  0  0  0  0  0  0  0  0  0  0
    3.4047   -5.1087   28.1314 C   0  0  0  0  0  0  0  0  0  0  0  0
   -0.2234  -11.8615   16.8874 C   0  0  0  0  0  0  0  0  0  0  0  0
    6.4491   -4.1532   30.1213 C   0  0  0  0  0  0  0  0  0  0  0  0
    5.7060   -4.4340   27.4975 C   0  0  0  0  0  0  0  0  0  0  0  0
    1.1818   -5.6612   28.8399 C   0  0  0  0  0  0  0  0  0  0  0  0
   -1.2067   -7.3287   17.7772 C   0  0  0  0  0  0  0  0  0  0  0  0
   -0.0206  -10.5585   16.6210 C   0  0  0  0  0  0  0  0  0  0  0  0
    0.3696  -12.7626   16.2169 O   0  0  0  0  0  0  0  0  0  0  0  0
   -0.6895   -9.5676   17.3297 C   0  0  0  0  0  0  0  0  0  0  0  0
    0.8388   -5.8417   27.5264 C   0  0  0  0  0  0  0  0  0  0  0  0
   -2.0709   -7.6637   18.7817 C   0  0  0  0  0  0  0  0  0  0  0  0
   -0.5279   -8.2168   17.0717 C   0  0  0  0  0  0  0  0  0  0  0  0
    6.9694   -4.0191   27.8190 C   0  0  0  0  0  0  0  0  0  0  0  0
    5.1733   -4.5469   29.8123 C   0  0  0  0  0  0  0  0  0  0  0  0
   -1.7508  -11.3016   18.6072 C   0  0  0  0  0  0  0  0  0  0  0  0
    1.7497   -5.6771   26.4971 C   0  0  0  0  0  0  0  0  0  0  0  0
   -1.5799   -9.9322   18.3468 C   0  0  0  0  0  0  0  0  0  0  0  0
   -1.0871  -12.2214   17.8851 C   0  0  0  0  0  0  0  0  0  0  0  0
   -2.2706   -8.9669   19.0691 C   0  0  0  0  0  0  0  0  0  0  0  0
    3.0279   -5.3073   26.8197 C   0  0  0  0  0  0  0  0  0  0  0  0
    7.3282   -3.8948   29.1186 C   0  0  0  0  0  0  0  0  0  0  0  0
  1  3  4  0
  1  7  4  0
  2  3  1  0
  2  6  4  0
  2 16  4  0
  3 22  4  0
  4  9  4  0
  4 10  1  0
  4 20  4  0
  5 16  4  0
  5 23  4  0
  6 15  4  0
  7 12  4  0
  8 13  4  0
  8 14  4  0
  9 11  4  0
 11 14  4  0
 11 19  4  0
 12 18  4  0
 13 21  4  0
 15 23  4  0
 17 19  4  0
 17 20  4  0
 18 22  4  0
 19 21  4  0
M  END
$$$$

 Created by Python create_sdf_string function

 23 25  0  0  0  0  0  0  0  0999 V2000
    2.4610   -5.3070   29.1240 C   0  0  0  0  0  0  0  0  0  0  0  0
    4.7710   -4.6952   28.4803 C   0  0  0  0  0  0  0  0  0  0  0  0
    3.4047   -5.1087   28.1314 C   0  0  0  0  0  0  0  0  0  0  0  0
   -0.2234  -11.8615   16.8874 C   0  0  0  0  0  0  0  0  0  0  0  0
    6.4491   -4.1532   30.1213 C   0  0  0  0  0  0  0  0  0  0  0  0
    5.7060   -4.4340   27.4975 C   0  0  0  0  0  0  0  0  0  0  0  0
    1.1818   -5.6612   28.8399 C   0  0  0  0  0  0  0  0  0  0  0  0
   -1.2067   -7.3287   17.7772 C   0  0  0  0  0  0  0  0  0  0  0  0
   -0.0206  -10.5585   16.6210 C   0  0  0  0  0  0  0  0  0  0  0  0
    0.3696  -12.7626   16.2169 O   0  0  0  0  0  0  0  0  0  0  0  0
   -0.6895   -9.5676   17.3297 C   0  0  0  0  0  0  0  0  0  0  0  0
    0.8388   -5.8417   27.5264 C   0  0  0  0  0  0  0  0  0  0  0  0
   -2.0709   -7.6637   18.7817 C   0  0  0  0  0  0  0  0  0  0  0  0
   -0.5279   -8.2168   17.0717 C   0  0  0  0  0  0  0  0  0  0  0  0
    6.9694   -4.0191   27.8190 C   0  0  0  0  0  0  0  0  0  0  0  0
    5.1733   -4.5469   29.8123 C   0  0  0  0  0  0  0  0  0  0  0  0
   -1.7508  -11.3016   18.6072 C   0  0  0  0  0  0  0  0  0  0  0  0
    1.7497   -5.6771   26.4971 C   0  0  0  0  0  0  0  0  0  0  0  0
   -1.5799   -9.9322   18.3468 C   0  0  0  0  0  0  0  0  0  0  0  0
   -1.0871  -12.2214   17.8851 C   0  0  0  0  0  0  0  0  0  0  0  0
   -2.2706   -8.9669   19.0691 C   0  0  0  0  0  0  0  0  0  0  0  0
    3.0279   -5.3073   26.8197 C   0  0  0  0  0  0  0  0  0  0  0  0
    7.3282   -3.8948   29.1186 C   0  0  0  0  0  0  0  0  0  0  0  0
  1  3  4  0
  1  7  4  0
  2  3  1  0
  2  6  4  0
  2 16  4  0
  3 22  4  0
  4  9  4  0
  4 10  1  0
  4 20  4  0
  5 16  4  0
  5 23  4  0
  6 15  4  0
  7 12  4  0
  8 13  4  0
  8 14  4  0
  9 11  4  0
 11 14  4  0
 11 19  4  0
 12 18  4  0
 13 21  4  0
 15 23  4  0
 17 19  4  0
 17 20  4  0
 18 22  4  0
 19 21  4  0
M  END
$$$$

 Created by Python create_sdf_string function

 23 25  0  0  0  0  0  0  0  0999 V2000
    2.4610   -5.3070   29.1240 C   0  0  0  0  0  0  0  0  0  0  0  0
    4.7710   -4.6952   28.4803 C   0  0  0  0  0  0  0  0  0  0  0  0
    3.4047   -5.1087   28.1314 C   0  0  0  0  0  0  0  0  0  0  0  0
   -0.2234  -11.8615   16.8874 C   0  0  0  0  0  0  0  0  0  0  0  0
    6.4491   -4.1532   30.1213 C   0  0  0  0  0  0  0  0  0  0  0  0
    5.7060   -4.4340   27.4975 C   0  0  0  0  0  0  0  0  0  0  0  0
    1.1818   -5.6612   28.8399 C   0  0  0  0  0  0  0  0  0  0  0  0
   -1.2067   -7.3287   17.7772 C   0  0  0  0  0  0  0  0  0  0  0  0
   -0.0206  -10.5585   16.6210 C   0  0  0  0  0  0  0  0  0  0  0  0
    0.3696  -12.7626   16.2169 O   0  0  0  0  0  0  0  0  0  0  0  0
   -0.6895   -9.5676   17.3297 C   0  0  0  0  0  0  0  0  0  0  0  0
    0.8388   -5.8417   27.5264 C   0  0  0  0  0  0  0  0  0  0  0  0
   -2.0709   -7.6637   18.7817 C   0  0  0  0  0  0  0  0  0  0  0  0
   -0.5279   -8.2168   17.0717 C   0  0  0  0  0  0  0  0  0  0  0  0
    6.9694   -4.0191   27.8190 C   0  0  0  0  0  0  0  0  0  0  0  0
    5.1733   -4.5469   29.8123 C   0  0  0  0  0  0  0  0  0  0  0  0
   -1.7508  -11.3016   18.6072 C   0  0  0  0  0  0  0  0  0  0  0  0
    1.7497   -5.6771   26.4971 C   0  0  0  0  0  0  0  0  0  0  0  0
   -1.5799   -9.9322   18.3468 C   0  0  0  0  0  0  0  0  0  0  0  0
   -1.0871  -12.2214   17.8851 C   0  0  0  0  0  0  0  0  0  0  0  0
   -2.2706   -8.9669   19.0691 C   0  0  0  0  0  0  0  0  0  0  0  0
    3.0279   -5.3073   26.8197 C   0  0  0  0  0  0  0  0  0  0  0  0
    7.3282   -3.8948   29.1186 C   0  0  0  0  0  0  0  0  0  0  0  0
  1  3  4  0
  1  7  4  0
  2  3  1  0
  2  6  4  0
  2 16  4  0
  3 22  4  0
  4  9  4  0
  4 10  1  0
  4 20  4  0
  5 16  4  0
  5 23  4  0
  6 15  4  0
  7 12  4  0
  8 13  4  0
  8 14  4  0
  9 11  4  0
 11 14  4  0
 11 19  4  0
 12 18  4  0
 13 21  4  0
 15 23  4  0
 17 19  4  0
 17 20  4  0
 18 22  4  0
 19 21  4  0
M  END
$$$$

 Created by Python create_sdf_string function

 23 25  0  0  0  0  0  0  0  0999 V2000
    2.4610   -5.3070   29.1240 C   0  0  0  0  0  0  0  0  0  0  0  0
    4.7710   -4.6952   28.4803 C   0  0  0  0  0  0  0  0  0  0  0  0
    3.4047   -5.1087   28.1314 C   0  0  0  0  0  0  0  0  0  0  0  0
   -0.2234  -11.8615   16.8874 C   0  0  0  0  0  0  0  0  0  0  0  0
    6.4491   -4.1532   30.1213 C   0  0  0  0  0  0  0  0  0  0  0  0
    5.7060   -4.4340   27.4975 C   0  0  0  0  0  0  0  0  0  0  0  0
    1.1818   -5.6612   28.8399 C   0  0  0  0  0  0  0  0  0  0  0  0
   -1.2067   -7.3287   17.7772 C   0  0  0  0  0  0  0  0  0  0  0  0
   -0.0206  -10.5585   16.6210 C   0  0  0  0  0  0  0  0  0  0  0  0
    0.3696  -12.7626   16.2169 O   0  0  0  0  0  0  0  0  0  0  0  0
   -0.6895   -9.5676   17.3297 C   0  0  0  0  0  0  0  0  0  0  0  0
    0.8388   -5.8417   27.5264 C   0  0  0  0  0  0  0  0  0  0  0  0
   -2.0709   -7.6637   18.7817 C   0  0  0  0  0  0  0  0  0  0  0  0
   -0.5279   -8.2168   17.0717 C   0  0  0  0  0  0  0  0  0  0  0  0
    6.9694   -4.0191   27.8190 C   0  0  0  0  0  0  0  0  0  0  0  0
    5.1733   -4.5469   29.8123 C   0  0  0  0  0  0  0  0  0  0  0  0
   -1.7508  -11.3016   18.6072 C   0  0  0  0  0  0  0  0  0  0  0  0
    1.7497   -5.6771   26.4971 C   0  0  0  0  0  0  0  0  0  0  0  0
   -1.5799   -9.9322   18.3468 C   0  0  0  0  0  0  0  0  0  0  0  0
   -1.0871  -12.2214   17.8851 C   0  0  0  0  0  0  0  0  0  0  0  0
   -2.2706   -8.9669   19.0691 C   0  0  0  0  0  0  0  0  0  0  0  0
    3.0279   -5.3073   26.8197 C   0  0  0  0  0  0  0  0  0  0  0  0
    7.3282   -3.8948   29.1186 C   0  0  0  0  0  0  0  0  0  0  0  0
  1  3  4  0
  1  7  4  0
  2  3  1  0
  2  6  4  0
  2 16  4  0
  3 22  4  0
  4  9  4  0
  4 10  1  0
  4 20  4  0
  5 16  4  0
  5 23  4  0
  6 15  4  0
  7 12  4  0
  8 13  4  0
  8 14  4  0
  9 11  4  0
 11 14  4  0
 11 19  4  0
 12 18  4  0
 13 21  4  0
 15 23  4  0
 17 19  4  0
 17 20  4  0
 18 22  4  0
 19 21  4  0
M  END
$$$$

 Created by Python create_sdf_string function

 23 25  0  0  0  0  0  0  0  0999 V2000
    2.4610   -5.3070   29.1240 C   0  0  0  0  0  0  0  0  0  0  0  0
    4.7710   -4.6952   28.4803 C   0  0  0  0  0  0  0  0  0  0  0  0
    3.4047   -5.1087   28.1314 C   0  0  0  0  0  0  0  0  0  0  0  0
   -0.2234  -11.8615   16.8874 C   0  0  0  0  0  0  0  0  0  0  0  0
    6.4491   -4.1532   30.1213 C   0  0  0  0  0  0  0  0  0  0  0  0
    5.7060   -4.4340   27.4975 C   0  0  0  0  0  0  0  0  0  0  0  0
    1.1818   -5.6612   28.8399 C   0  0  0  0  0  0  0  0  0  0  0  0
   -1.2067   -7.3287   17.7772 C   0  0  0  0  0  0  0  0  0  0  0  0
   -0.0206  -10.5585   16.6210 C   0  0  0  0  0  0  0  0  0  0  0  0
    0.3696  -12.7626   16.2169 O   0  0  0  0  0  0  0  0  0  0  0  0
   -0.6895   -9.5676   17.3297 C   0  0  0  0  0  0  0  0  0  0  0  0
    0.8388   -5.8417   27.5264 C   0  0  0  0  0  0  0  0  0  0  0  0
   -2.0709   -7.6637   18.7817 C   0  0  0  0  0  0  0  0  0  0  0  0
   -0.5279   -8.2168   17.0717 C   0  0  0  0  0  0  0  0  0  0  0  0
    6.9694   -4.0191   27.8190 C   0  0  0  0  0  0  0  0  0  0  0  0
    5.1733   -4.5469   29.8123 C   0  0  0  0  0  0  0  0  0  0  0  0
   -1.7508  -11.3016   18.6072 C   0  0  0  0  0  0  0  0  0  0  0  0
    1.7497   -5.6771   26.4971 C   0  0  0  0  0  0  0  0  0  0  0  0
   -1.5799   -9.9322   18.3468 C   0  0  0  0  0  0  0  0  0  0  0  0
   -1.0871  -12.2214   17.8851 C   0  0  0  0  0  0  0  0  0  0  0  0
   -2.2706   -8.9669   19.0691 C   0  0  0  0  0  0  0  0  0  0  0  0
    3.0279   -5.3073   26.8197 C   0  0  0  0  0  0  0  0  0  0  0  0
    7.3282   -3.8948   29.1186 C   0  0  0  0  0  0  0  0  0  0  0  0
  1  3  4  0
  1  7  4  0
  2  3  1  0
  2  6  4  0
  2 16  4  0
  3 22  4  0
  4  9  4  0
  4 10  1  0
  4 20  4  0
  5 16  4  0
  5 23  4  0
  6 15  4  0
  7 12  4  0
  8 13  4  0
  8 14  4  0
  9 11  4  0
 11 14  4  0
 11 19  4  0
 12 18  4  0
 13 21  4  0
 15 23  4  0
 17 19  4  0
 17 20  4  0
 18 22  4  0
 19 21  4  0
M  END
$$$$

 Created by Python create_sdf_string function

 23 25  0  0  0  0  0  0  0  0999 V2000
    2.4610   -5.3070   29.1240 C   0  0  0  0  0  0  0  0  0  0  0  0
    4.7710   -4.6952   28.4803 C   0  0  0  0  0  0  0  0  0  0  0  0
    3.4047   -5.1087   28.1314 C   0  0  0  0  0  0  0  0  0  0  0  0
   -0.2234  -11.8615   16.8874 C   0  0  0  0  0  0  0  0  0  0  0  0
    6.4491   -4.1532   30.1213 C   0  0  0  0  0  0  0  0  0  0  0  0
    5.7060   -4.4340   27.4975 C   0  0  0  0  0  0  0  0  0  0  0  0
    1.1818   -5.6612   28.8399 C   0  0  0  0  0  0  0  0  0  0  0  0
   -1.2067   -7.3287   17.7772 C   0  0  0  0  0  0  0  0  0  0  0  0
   -0.0206  -10.5585   16.6210 C   0  0  0  0  0  0  0  0  0  0  0  0
    0.3696  -12.7626   16.2169 O   0  0  0  0  0  0  0  0  0  0  0  0
   -0.6895   -9.5676   17.3297 C   0  0  0  0  0  0  0  0  0  0  0  0
    0.8388   -5.8417   27.5264 C   0  0  0  0  0  0  0  0  0  0  0  0
   -2.0709   -7.6637   18.7817 C   0  0  0  0  0  0  0  0  0  0  0  0
   -0.5279   -8.2168   17.0717 C   0  0  0  0  0  0  0  0  0  0  0  0
    6.9694   -4.0191   27.8190 C   0  0  0  0  0  0  0  0  0  0  0  0
    5.1733   -4.5469   29.8123 C   0  0  0  0  0  0  0  0  0  0  0  0
   -1.7508  -11.3016   18.6072 C   0  0  0  0  0  0  0  0  0  0  0  0
    1.7497   -5.6771   26.4971 C   0  0  0  0  0  0  0  0  0  0  0  0
   -1.5799   -9.9322   18.3468 C   0  0  0  0  0  0  0  0  0  0  0  0
   -1.0871  -12.2214   17.8851 C   0  0  0  0  0  0  0  0  0  0  0  0
   -2.2706   -8.9669   19.0691 C   0  0  0  0  0  0  0  0  0  0  0  0
    3.0279   -5.3073   26.8197 C   0  0  0  0  0  0  0  0  0  0  0  0
    7.3282   -3.8948   29.1186 C   0  0  0  0  0  0  0  0  0  0  0  0
  1  3  4  0
  1  7  4  0
  2  3  1  0
  2  6  4  0
  2 16  4  0
  3 22  4  0
  4  9  4  0
  4 10  1  0
  4 20  4  0
  5 16  4  0
  5 23  4  0
  6 15  4  0
  7 12  4  0
  8 13  4  0
  8 14  4  0
  9 11  4  0
 11 14  4  0
 11 19  4  0
 12 18  4  0
 13 21  4  0
 15 23  4  0
 17 19  4  0
 17 20  4  0
 18 22  4  0
 19 21  4  0
M  END
$$$$

 Created by Python create_sdf_string function

 23 25  0  0  0  0  0  0  0  0999 V2000
    2.4610   -5.3070   29.1240 C   0  0  0  0  0  0  0  0  0  0  0  0
    4.7710   -4.6952   28.4803 C   0  0  0  0  0  0  0  0  0  0  0  0
    3.4047   -5.1087   28.1314 C   0  0  0  0  0  0  0  0  0  0  0  0
   -0.2234  -11.8615   16.8874 C   0  0  0  0  0  0  0  0  0  0  0  0
    6.4491   -4.1532   30.1213 C   0  0  0  0  0  0  0  0  0  0  0  0
    5.7060   -4.4340   27.4975 C   0  0  0  0  0  0  0  0  0  0  0  0
    1.1818   -5.6612   28.8399 C   0  0  0  0  0  0  0  0  0  0  0  0
   -1.2067   -7.3287   17.7772 C   0  0  0  0  0  0  0  0  0  0  0  0
   -0.0206  -10.5585   16.6210 C   0  0  0  0  0  0  0  0  0  0  0  0
    0.3696  -12.7626   16.2169 O   0  0  0  0  0  0  0  0  0  0  0  0
   -0.6895   -9.5676   17.3297 C   0  0  0  0  0  0  0  0  0  0  0  0
    0.8388   -5.8417   27.5264 C   0  0  0  0  0  0  0  0  0  0  0  0
   -2.0709   -7.6637   18.7817 C   0  0  0  0  0  0  0  0  0  0  0  0
   -0.5279   -8.2168   17.0717 C   0  0  0  0  0  0  0  0  0  0  0  0
    6.9694   -4.0191   27.8190 C   0  0  0  0  0  0  0  0  0  0  0  0
    5.1733   -4.5469   29.8123 C   0  0  0  0  0  0  0  0  0  0  0  0
   -1.7508  -11.3016   18.6072 C   0  0  0  0  0  0  0  0  0  0  0  0
    1.7497   -5.6771   26.4971 C   0  0  0  0  0  0  0  0  0  0  0  0
   -1.5799   -9.9322   18.3468 C   0  0  0  0  0  0  0  0  0  0  0  0
   -1.0871  -12.2214   17.8851 C   0  0  0  0  0  0  0  0  0  0  0  0
   -2.2706   -8.9669   19.0691 C   0  0  0  0  0  0  0  0  0  0  0  0
    3.0279   -5.3073   26.8197 C   0  0  0  0  0  0  0  0  0  0  0  0
    7.3282   -3.8948   29.1186 C   0  0  0  0  0  0  0  0  0  0  0  0
  1  3  4  0
  1  7  4  0
  2  3  1  0
  2  6  4  0
  2 16  4  0
  3 22  4  0
  4  9  4  0
  4 10  1  0
  4 20  4  0
  5 16  4  0
  5 23  4  0
  6 15  4  0
  7 12  4  0
  8 13  4  0
  8 14  4  0
  9 11  4  0
 11 14  4  0
 11 19  4  0
 12 18  4  0
 13 21  4  0
 15 23  4  0
 17 19  4  0
 17 20  4  0
 18 22  4  0
 19 21  4  0
M  END
$$$$

 Created by Python create_sdf_string function

 23 25  0  0  0  0  0  0  0  0999 V2000
    2.4610   -5.3070   29.1240 C   0  0  0  0  0  0  0  0  0  0  0  0
    4.7710   -4.6952   28.4803 C   0  0  0  0  0  0  0  0  0  0  0  0
    3.4047   -5.1087   28.1314 C   0  0  0  0  0  0  0  0  0  0  0  0
   -0.2234  -11.8615   16.8874 C   0  0  0  0  0  0  0  0  0  0  0  0
    6.4491   -4.1532   30.1213 C   0  0  0  0  0  0  0  0  0  0  0  0
    5.7060   -4.4340   27.4975 C   0  0  0  0  0  0  0  0  0  0  0  0
    1.1818   -5.6612   28.8399 C   0  0  0  0  0  0  0  0  0  0  0  0
   -1.2067   -7.3287   17.7772 C   0  0  0  0  0  0  0  0  0  0  0  0
   -0.0206  -10.5585   16.6210 C   0  0  0  0  0  0  0  0  0  0  0  0
    0.3696  -12.7626   16.2169 O   0  0  0  0  0  0  0  0  0  0  0  0
   -0.6895   -9.5676   17.3297 C   0  0  0  0  0  0  0  0  0  0  0  0
    0.8388   -5.8417   27.5264 C   0  0  0  0  0  0  0  0  0  0  0  0
   -2.0709   -7.6637   18.7817 C   0  0  0  0  0  0  0  0  0  0  0  0
   -0.5279   -8.2168   17.0717 C   0  0  0  0  0  0  0  0  0  0  0  0
    6.9694   -4.0191   27.8190 C   0  0  0  0  0  0  0  0  0  0  0  0
    5.1733   -4.5469   29.8123 C   0  0  0  0  0  0  0  0  0  0  0  0
   -1.7508  -11.3016   18.6072 C   0  0  0  0  0  0  0  0  0  0  0  0
    1.7497   -5.6771   26.4971 C   0  0  0  0  0  0  0  0  0  0  0  0
   -1.5799   -9.9322   18.3468 C   0  0  0  0  0  0  0  0  0  0  0  0
   -1.0871  -12.2214   17.8851 C   0  0  0  0  0  0  0  0  0  0  0  0
   -2.2706   -8.9669   19.0691 C   0  0  0  0  0  0  0  0  0  0  0  0
    3.0279   -5.3073   26.8197 C   0  0  0  0  0  0  0  0  0  0  0  0
    7.3282   -3.8948   29.1186 C   0  0  0  0  0  0  0  0  0  0  0  0
  1  3  4  0
  1  7  4  0
  2  3  1  0
  2  6  4  0
  2 16  4  0
  3 22  4  0
  4  9  4  0
  4 10  1  0
  4 20  4  0
  5 16  4  0
  5 23  4  0
  6 15  4  0
  7 12  4  0
  8 13  4  0
  8 14  4  0
  9 11  4  0
 11 14  4  0
 11 19  4  0
 12 18  4  0
 13 21  4  0
 15 23  4  0
 17 19  4  0
 17 20  4  0
 18 22  4  0
 19 21  4  0
M  END
$$$$

 Created by Python create_sdf_string function

 23 25  0  0  0  0  0  0  0  0999 V2000
    2.4610   -5.3070   29.1240 C   0  0  0  0  0  0  0  0  0  0  0  0
    4.7710   -4.6952   28.4803 C   0  0  0  0  0  0  0  0  0  0  0  0
    3.4047   -5.1087   28.1314 C   0  0  0  0  0  0  0  0  0  0  0  0
   -0.2234  -11.8615   16.8874 C   0  0  0  0  0  0  0  0  0  0  0  0
    6.4491   -4.1532   30.1213 C   0  0  0  0  0  0  0  0  0  0  0  0
    5.7060   -4.4340   27.4975 C   0  0  0  0  0  0  0  0  0  0  0  0
    1.1818   -5.6612   28.8399 C   0  0  0  0  0  0  0  0  0  0  0  0
   -1.2067   -7.3287   17.7772 C   0  0  0  0  0  0  0  0  0  0  0  0
   -0.0206  -10.5585   16.6210 C   0  0  0  0  0  0  0  0  0  0  0  0
    0.3696  -12.7626   16.2169 O   0  0  0  0  0  0  0  0  0  0  0  0
   -0.6895   -9.5676   17.3297 C   0  0  0  0  0  0  0  0  0  0  0  0
    0.8388   -5.8417   27.5264 C   0  0  0  0  0  0  0  0  0  0  0  0
   -2.0709   -7.6637   18.7817 C   0  0  0  0  0  0  0  0  0  0  0  0
   -0.5279   -8.2168   17.0717 C   0  0  0  0  0  0  0  0  0  0  0  0
    6.9694   -4.0191   27.8190 C   0  0  0  0  0  0  0  0  0  0  0  0
    5.1733   -4.5469   29.8123 C   0  0  0  0  0  0  0  0  0  0  0  0
   -1.7508  -11.3016   18.6072 C   0  0  0  0  0  0  0  0  0  0  0  0
    1.7497   -5.6771   26.4971 C   0  0  0  0  0  0  0  0  0  0  0  0
   -1.5799   -9.9322   18.3468 C   0  0  0  0  0  0  0  0  0  0  0  0
   -1.0871  -12.2214   17.8851 C   0  0  0  0  0  0  0  0  0  0  0  0
   -2.2706   -8.9669   19.0691 C   0  0  0  0  0  0  0  0  0  0  0  0
    3.0279   -5.3073   26.8197 C   0  0  0  0  0  0  0  0  0  0  0  0
    7.3282   -3.8948   29.1186 C   0  0  0  0  0  0  0  0  0  0  0  0
  1  3  4  0
  1  7  4  0
  2  3  1  0
  2  6  4  0
  2 16  4  0
  3 22  4  0
  4  9  4  0
  4 10  1  0
  4 20  4  0
  5 16  4  0
  5 23  4  0
  6 15  4  0
  7 12  4  0
  8 13  4  0
  8 14  4  0
  9 11  4  0
 11 14  4  0
 11 19  4  0
 12 18  4  0
 13 21  4  0
 15 23  4  0
 17 19  4  0
 17 20  4  0
 18 22  4  0
 19 21  4  0
M  END
$$$$

 Created by Python create_sdf_string function

 23 25  0  0  0  0  0  0  0  0999 V2000
    2.4610   -5.3070   29.1240 C   0  0  0  0  0  0  0  0  0  0  0  0
    4.7710   -4.6952   28.4803 C   0  0  0  0  0  0  0  0  0  0  0  0
    3.4047   -5.1087   28.1314 C   0  0  0  0  0  0  0  0  0  0  0  0
   -0.2234  -11.8615   16.8874 C   0  0  0  0  0  0  0  0  0  0  0  0
    6.4491   -4.1532   30.1213 C   0  0  0  0  0  0  0  0  0  0  0  0
    5.7060   -4.4340   27.4975 C   0  0  0  0  0  0  0  0  0  0  0  0
    1.1818   -5.6612   28.8399 C   0  0  0  0  0  0  0  0  0  0  0  0
   -1.2067   -7.3287   17.7772 C   0  0  0  0  0  0  0  0  0  0  0  0
   -0.0206  -10.5585   16.6210 C   0  0  0  0  0  0  0  0  0  0  0  0
    0.3696  -12.7626   16.2169 O   0  0  0  0  0  0  0  0  0  0  0  0
   -0.6895   -9.5676   17.3297 C   0  0  0  0  0  0  0  0  0  0  0  0
    0.8388   -5.8417   27.5264 C   0  0  0  0  0  0  0  0  0  0  0  0
   -2.0709   -7.6637   18.7817 C   0  0  0  0  0  0  0  0  0  0  0  0
   -0.5279   -8.2168   17.0717 C   0  0  0  0  0  0  0  0  0  0  0  0
    6.9694   -4.0191   27.8190 C   0  0  0  0  0  0  0  0  0  0  0  0
    5.1733   -4.5469   29.8123 C   0  0  0  0  0  0  0  0  0  0  0  0
   -1.7508  -11.3016   18.6072 C   0  0  0  0  0  0  0  0  0  0  0  0
    1.7497   -5.6771   26.4971 C   0  0  0  0  0  0  0  0  0  0  0  0
   -1.5799   -9.9322   18.3468 C   0  0  0  0  0  0  0  0  0  0  0  0
   -1.0871  -12.2214   17.8851 C   0  0  0  0  0  0  0  0  0  0  0  0
   -2.2706   -8.9669   19.0691 C   0  0  0  0  0  0  0  0  0  0  0  0
    3.0279   -5.3073   26.8197 C   0  0  0  0  0  0  0  0  0  0  0  0
    7.3282   -3.8948   29.1186 C   0  0  0  0  0  0  0  0  0  0  0  0
  1  3  4  0
  1  7  4  0
  2  3  1  0
  2  6  4  0
  2 16  4  0
  3 22  4  0
  4  9  4  0
  4 10  1  0
  4 20  4  0
  5 16  4  0
  5 23  4  0
  6 15  4  0
  7 12  4  0
  8 13  4  0
  8 14  4  0
  9 11  4  0
 11 14  4  0
 11 19  4  0
 12 18  4  0
 13 21  4  0
 15 23  4  0
 17 19  4  0
 17 20  4  0
 18 22  4  0
 19 21  4  0
M  END
$$$$

 Created by Python create_sdf_string function

 23 25  0  0  0  0  0  0  0  0999 V2000
    2.4610   -5.3070   29.1240 C   0  0  0  0  0  0  0  0  0  0  0  0
    4.7710   -4.6952   28.4803 C   0  0  0  0  0  0  0  0  0  0  0  0
    3.4047   -5.1087   28.1314 C   0  0  0  0  0  0  0  0  0  0  0  0
   -0.2234  -11.8615   16.8874 C   0  0  0  0  0  0  0  0  0  0  0  0
    6.4491   -4.1532   30.1213 C   0  0  0  0  0  0  0  0  0  0  0  0
    5.7060   -4.4340   27.4975 C   0  0  0  0  0  0  0  0  0  0  0  0
    1.1818   -5.6612   28.8399 C   0  0  0  0  0  0  0  0  0  0  0  0
   -1.2067   -7.3287   17.7772 C   0  0  0  0  0  0  0  0  0  0  0  0
   -0.0206  -10.5585   16.6210 C   0  0  0  0  0  0  0  0  0  0  0  0
    0.3696  -12.7626   16.2169 O   0  0  0  0  0  0  0  0  0  0  0  0
   -0.6895   -9.5676   17.3297 C   0  0  0  0  0  0  0  0  0  0  0  0
    0.8388   -5.8417   27.5264 C   0  0  0  0  0  0  0  0  0  0  0  0
   -2.0709   -7.6637   18.7817 C   0  0  0  0  0  0  0  0  0  0  0  0
   -0.5279   -8.2168   17.0717 C   0  0  0  0  0  0  0  0  0  0  0  0
    6.9694   -4.0191   27.8190 C   0  0  0  0  0  0  0  0  0  0  0  0
    5.1733   -4.5469   29.8123 C   0  0  0  0  0  0  0  0  0  0  0  0
   -1.7508  -11.3016   18.6072 C   0  0  0  0  0  0  0  0  0  0  0  0
    1.7497   -5.6771   26.4971 C   0  0  0  0  0  0  0  0  0  0  0  0
   -1.5799   -9.9322   18.3468 C   0  0  0  0  0  0  0  0  0  0  0  0
   -1.0871  -12.2214   17.8851 C   0  0  0  0  0  0  0  0  0  0  0  0
   -2.2706   -8.9669   19.0691 C   0  0  0  0  0  0  0  0  0  0  0  0
    3.0279   -5.3073   26.8197 C   0  0  0  0  0  0  0  0  0  0  0  0
    7.3282   -3.8948   29.1186 C   0  0  0  0  0  0  0  0  0  0  0  0
  1  3  4  0
  1  7  4  0
  2  3  1  0
  2  6  4  0
  2 16  4  0
  3 22  4  0
  4  9  4  0
  4 10  1  0
  4 20  4  0
  5 16  4  0
  5 23  4  0
  6 15  4  0
  7 12  4  0
  8 13  4  0
  8 14  4  0
  9 11  4  0
 11 14  4  0
 11 19  4  0
 12 18  4  0
 13 21  4  0
 15 23  4  0
 17 19  4  0
 17 20  4  0
 18 22  4  0
 19 21  4  0
M  END
$$$$

 Created by Python create_sdf_string function

 23 25  0  0  0  0  0  0  0  0999 V2000
    2.4610   -5.3070   29.1240 C   0  0  0  0  0  0  0  0  0  0  0  0
    4.7710   -4.6952   28.4803 C   0  0  0  0  0  0  0  0  0  0  0  0
    3.4047   -5.1087   28.1314 C   0  0  0  0  0  0  0  0  0  0  0  0
   -0.2234  -11.8615   16.8874 C   0  0  0  0  0  0  0  0  0  0  0  0
    6.4491   -4.1532   30.1213 C   0  0  0  0  0  0  0  0  0  0  0  0
    5.7060   -4.4340   27.4975 C   0  0  0  0  0  0  0  0  0  0  0  0
    1.1818   -5.6612   28.8399 C   0  0  0  0  0  0  0  0  0  0  0  0
   -1.2067   -7.3287   17.7772 C   0  0  0  0  0  0  0  0  0  0  0  0
   -0.0206  -10.5585   16.6210 C   0  0  0  0  0  0  0  0  0  0  0  0
    0.3696  -12.7626   16.2169 O   0  0  0  0  0  0  0  0  0  0  0  0
   -0.6895   -9.5676   17.3297 C   0  0  0  0  0  0  0  0  0  0  0  0
    0.8388   -5.8417   27.5264 C   0  0  0  0  0  0  0  0  0  0  0  0
   -2.0709   -7.6637   18.7817 C   0  0  0  0  0  0  0  0  0  0  0  0
   -0.5279   -8.2168   17.0717 C   0  0  0  0  0  0  0  0  0  0  0  0
    6.9694   -4.0191   27.8190 C   0  0  0  0  0  0  0  0  0  0  0  0
    5.1733   -4.5469   29.8123 C   0  0  0  0  0  0  0  0  0  0  0  0
   -1.7508  -11.3016   18.6072 C   0  0  0  0  0  0  0  0  0  0  0  0
    1.7497   -5.6771   26.4971 C   0  0  0  0  0  0  0  0  0  0  0  0
   -1.5799   -9.9322   18.3468 C   0  0  0  0  0  0  0  0  0  0  0  0
   -1.0871  -12.2214   17.8851 C   0  0  0  0  0  0  0  0  0  0  0  0
   -2.2706   -8.9669   19.0691 C   0  0  0  0  0  0  0  0  0  0  0  0
    3.0279   -5.3073   26.8197 C   0  0  0  0  0  0  0  0  0  0  0  0
    7.3282   -3.8948   29.1186 C   0  0  0  0  0  0  0  0  0  0  0  0
  1  3  4  0
  1  7  4  0
  2  3  1  0
  2  6  4  0
  2 16  4  0
  3 22  4  0
  4  9  4  0
  4 10  1  0
  4 20  4  0
  5 16  4  0
  5 23  4  0
  6 15  4  0
  7 12  4  0
  8 13  4  0
  8 14  4  0
  9 11  4  0
 11 14  4  0
 11 19  4  0
 12 18  4  0
 13 21  4  0
 15 23  4  0
 17 19  4  0
 17 20  4  0
 18 22  4  0
 19 21  4  0
M  END
$$$$

 Created by Python create_sdf_string function

 23 25  0  0  0  0  0  0  0  0999 V2000
    2.4610   -5.3070   29.1240 C   0  0  0  0  0  0  0  0  0  0  0  0
    4.7710   -4.6952   28.4803 C   0  0  0  0  0  0  0  0  0  0  0  0
    3.4047   -5.1087   28.1314 C   0  0  0  0  0  0  0  0  0  0  0  0
   -0.2234  -11.8615   16.8874 C   0  0  0  0  0  0  0  0  0  0  0  0
    6.4491   -4.1532   30.1213 C   0  0  0  0  0  0  0  0  0  0  0  0
    5.7060   -4.4340   27.4975 C   0  0  0  0  0  0  0  0  0  0  0  0
    1.1818   -5.6612   28.8399 C   0  0  0  0  0  0  0  0  0  0  0  0
   -1.2067   -7.3287   17.7772 C   0  0  0  0  0  0  0  0  0  0  0  0
   -0.0206  -10.5585   16.6210 C   0  0  0  0  0  0  0  0  0  0  0  0
    0.3696  -12.7626   16.2169 O   0  0  0  0  0  0  0  0  0  0  0  0
   -0.6895   -9.5676   17.3297 C   0  0  0  0  0  0  0  0  0  0  0  0
    0.8388   -5.8417   27.5264 C   0  0  0  0  0  0  0  0  0  0  0  0
   -2.0709   -7.6637   18.7817 C   0  0  0  0  0  0  0  0  0  0  0  0
   -0.5279   -8.2168   17.0717 C   0  0  0  0  0  0  0  0  0  0  0  0
    6.9694   -4.0191   27.8190 C   0  0  0  0  0  0  0  0  0  0  0  0
    5.1733   -4.5469   29.8123 C   0  0  0  0  0  0  0  0  0  0  0  0
   -1.7508  -11.3016   18.6072 C   0  0  0  0  0  0  0  0  0  0  0  0
    1.7497   -5.6771   26.4971 C   0  0  0  0  0  0  0  0  0  0  0  0
   -1.5799   -9.9322   18.3468 C   0  0  0  0  0  0  0  0  0  0  0  0
   -1.0871  -12.2214   17.8851 C   0  0  0  0  0  0  0  0  0  0  0  0
   -2.2706   -8.9669   19.0691 C   0  0  0  0  0  0  0  0  0  0  0  0
    3.0279   -5.3073   26.8197 C   0  0  0  0  0  0  0  0  0  0  0  0
    7.3282   -3.8948   29.1186 C   0  0  0  0  0  0  0  0  0  0  0  0
  1  3  4  0
  1  7  4  0
  2  3  1  0
  2  6  4  0
  2 16  4  0
  3 22  4  0
  4  9  4  0
  4 10  1  0
  4 20  4  0
  5 16  4  0
  5 23  4  0
  6 15  4  0
  7 12  4  0
  8 13  4  0
  8 14  4  0
  9 11  4  0
 11 14  4  0
 11 19  4  0
 12 18  4  0
 13 21  4  0
 15 23  4  0
 17 19  4  0
 17 20  4  0
 18 22  4  0
 19 21  4  0
M  END
$$$$

 Created by Python create_sdf_string function

 23 25  0  0  0  0  0  0  0  0999 V2000
    2.4610   -5.3070   29.1240 C   0  0  0  0  0  0  0  0  0  0  0  0
    4.7710   -4.6952   28.4803 C   0  0  0  0  0  0  0  0  0  0  0  0
    3.4047   -5.1087   28.1314 C   0  0  0  0  0  0  0  0  0  0  0  0
   -0.2234  -11.8615   16.8874 C   0  0  0  0  0  0  0  0  0  0  0  0
    6.4491   -4.1532   30.1213 C   0  0  0  0  0  0  0  0  0  0  0  0
    5.7060   -4.4340   27.4975 C   0  0  0  0  0  0  0  0  0  0  0  0
    1.1818   -5.6612   28.8399 C   0  0  0  0  0  0  0  0  0  0  0  0
   -1.2067   -7.3287   17.7772 C   0  0  0  0  0  0  0  0  0  0  0  0
   -0.0206  -10.5585   16.6210 C   0  0  0  0  0  0  0  0  0  0  0  0
    0.3696  -12.7626   16.2169 O   0  0  0  0  0  0  0  0  0  0  0  0
   -0.6895   -9.5676   17.3297 C   0  0  0  0  0  0  0  0  0  0  0  0
    0.8388   -5.8417   27.5264 C   0  0  0  0  0  0  0  0  0  0  0  0
   -2.0709   -7.6637   18.7817 C   0  0  0  0  0  0  0  0  0  0  0  0
   -0.5279   -8.2168   17.0717 C   0  0  0  0  0  0  0  0  0  0  0  0
    6.9694   -4.0191   27.8190 C   0  0  0  0  0  0  0  0  0  0  0  0
    5.1733   -4.5469   29.8123 C   0  0  0  0  0  0  0  0  0  0  0  0
   -1.7508  -11.3016   18.6072 C   0  0  0  0  0  0  0  0  0  0  0  0
    1.7497   -5.6771   26.4971 C   0  0  0  0  0  0  0  0  0  0  0  0
   -1.5799   -9.9322   18.3468 C   0  0  0  0  0  0  0  0  0  0  0  0
   -1.0871  -12.2214   17.8851 C   0  0  0  0  0  0  0  0  0  0  0  0
   -2.2706   -8.9669   19.0691 C   0  0  0  0  0  0  0  0  0  0  0  0
    3.0279   -5.3073   26.8197 C   0  0  0  0  0  0  0  0  0  0  0  0
    7.3282   -3.8948   29.1186 C   0  0  0  0  0  0  0  0  0  0  0  0
  1  3  4  0
  1  7  4  0
  2  3  1  0
  2  6  4  0
  2 16  4  0
  3 22  4  0
  4  9  4  0
  4 10  1  0
  4 20  4  0
  5 16  4  0
  5 23  4  0
  6 15  4  0
  7 12  4  0
  8 13  4  0
  8 14  4  0
  9 11  4  0
 11 14  4  0
 11 19  4  0
 12 18  4  0
 13 21  4  0
 15 23  4  0
 17 19  4  0
 17 20  4  0
 18 22  4  0
 19 21  4  0
M  END
$$$$

 Created by Python create_sdf_string function

 23 25  0  0  0  0  0  0  0  0999 V2000
    2.4610   -5.3070   29.1240 C   0  0  0  0  0  0  0  0  0  0  0  0
    4.7710   -4.6952   28.4803 C   0  0  0  0  0  0  0  0  0  0  0  0
    3.4047   -5.1087   28.1314 C   0  0  0  0  0  0  0  0  0  0  0  0
   -0.2234  -11.8615   16.8874 C   0  0  0  0  0  0  0  0  0  0  0  0
    6.4491   -4.1532   30.1213 C   0  0  0  0  0  0  0  0  0  0  0  0
    5.7060   -4.4340   27.4975 C   0  0  0  0  0  0  0  0  0  0  0  0
    1.1818   -5.6612   28.8399 C   0  0  0  0  0  0  0  0  0  0  0  0
   -1.2067   -7.3287   17.7772 C   0  0  0  0  0  0  0  0  0  0  0  0
   -0.0206  -10.5585   16.6210 C   0  0  0  0  0  0  0  0  0  0  0  0
    0.3696  -12.7626   16.2169 O   0  0  0  0  0  0  0  0  0  0  0  0
   -0.6895   -9.5676   17.3297 C   0  0  0  0  0  0  0  0  0  0  0  0
    0.8388   -5.8417   27.5264 C   0  0  0  0  0  0  0  0  0  0  0  0
   -2.0709   -7.6637   18.7817 C   0  0  0  0  0  0  0  0  0  0  0  0
   -0.5279   -8.2168   17.0717 C   0  0  0  0  0  0  0  0  0  0  0  0
    6.9694   -4.0191   27.8190 C   0  0  0  0  0  0  0  0  0  0  0  0
    5.1733   -4.5469   29.8123 C   0  0  0  0  0  0  0  0  0  0  0  0
   -1.7508  -11.3016   18.6072 C   0  0  0  0  0  0  0  0  0  0  0  0
    1.7497   -5.6771   26.4971 C   0  0  0  0  0  0  0  0  0  0  0  0
   -1.5799   -9.9322   18.3468 C   0  0  0  0  0  0  0  0  0  0  0  0
   -1.0871  -12.2214   17.8851 C   0  0  0  0  0  0  0  0  0  0  0  0
   -2.2706   -8.9669   19.0691 C   0  0  0  0  0  0  0  0  0  0  0  0
    3.0279   -5.3073   26.8197 C   0  0  0  0  0  0  0  0  0  0  0  0
    7.3282   -3.8948   29.1186 C   0  0  0  0  0  0  0  0  0  0  0  0
  1  3  4  0
  1  7  4  0
  2  3  1  0
  2  6  4  0
  2 16  4  0
  3 22  4  0
  4  9  4  0
  4 10  1  0
  4 20  4  0
  5 16  4  0
  5 23  4  0
  6 15  4  0
  7 12  4  0
  8 13  4  0
  8 14  4  0
  9 11  4  0
 11 14  4  0
 11 19  4  0
 12 18  4  0
 13 21  4  0
 15 23  4  0
 17 19  4  0
 17 20  4  0
 18 22  4  0
 19 21  4  0
M  END
$$$$

 Created by Python create_sdf_string function

 23 25  0  0  0  0  0  0  0  0999 V2000
    2.4610   -5.3070   29.1240 C   0  0  0  0  0  0  0  0  0  0  0  0
    4.7710   -4.6952   28.4803 C   0  0  0  0  0  0  0  0  0  0  0  0
    3.4047   -5.1087   28.1314 C   0  0  0  0  0  0  0  0  0  0  0  0
   -0.2234  -11.8615   16.8874 C   0  0  0  0  0  0  0  0  0  0  0  0
    6.4491   -4.1532   30.1213 C   0  0  0  0  0  0  0  0  0  0  0  0
    5.7060   -4.4340   27.4975 C   0  0  0  0  0  0  0  0  0  0  0  0
    1.1818   -5.6612   28.8399 C   0  0  0  0  0  0  0  0  0  0  0  0
   -1.2067   -7.3287   17.7772 C   0  0  0  0  0  0  0  0  0  0  0  0
   -0.0206  -10.5585   16.6210 C   0  0  0  0  0  0  0  0  0  0  0  0
    0.3696  -12.7626   16.2169 O   0  0  0  0  0  0  0  0  0  0  0  0
   -0.6895   -9.5676   17.3297 C   0  0  0  0  0  0  0  0  0  0  0  0
    0.8388   -5.8417   27.5264 C   0  0  0  0  0  0  0  0  0  0  0  0
   -2.0709   -7.6637   18.7817 C   0  0  0  0  0  0  0  0  0  0  0  0
   -0.5279   -8.2168   17.0717 C   0  0  0  0  0  0  0  0  0  0  0  0
    6.9694   -4.0191   27.8190 C   0  0  0  0  0  0  0  0  0  0  0  0
    5.1733   -4.5469   29.8123 C   0  0  0  0  0  0  0  0  0  0  0  0
   -1.7508  -11.3016   18.6072 C   0  0  0  0  0  0  0  0  0  0  0  0
    1.7497   -5.6771   26.4971 C   0  0  0  0  0  0  0  0  0  0  0  0
   -1.5799   -9.9322   18.3468 C   0  0  0  0  0  0  0  0  0  0  0  0
   -1.0871  -12.2214   17.8851 C   0  0  0  0  0  0  0  0  0  0  0  0
   -2.2706   -8.9669   19.0691 C   0  0  0  0  0  0  0  0  0  0  0  0
    3.0279   -5.3073   26.8197 C   0  0  0  0  0  0  0  0  0  0  0  0
    7.3282   -3.8948   29.1186 C   0  0  0  0  0  0  0  0  0  0  0  0
  1  3  4  0
  1  7  4  0
  2  3  1  0
  2  6  4  0
  2 16  4  0
  3 22  4  0
  4  9  4  0
  4 10  1  0
  4 20  4  0
  5 16  4  0
  5 23  4  0
  6 15  4  0
  7 12  4  0
  8 13  4  0
  8 14  4  0
  9 11  4  0
 11 14  4  0
 11 19  4  0
 12 18  4  0
 13 21  4  0
 15 23  4  0
 17 19  4  0
 17 20  4  0
 18 22  4  0
 19 21  4  0
M  END
$$$$

 Created by Python create_sdf_string function

 23 25  0  0  0  0  0  0  0  0999 V2000
    2.4610   -5.3070   29.1240 C   0  0  0  0  0  0  0  0  0  0  0  0
    4.7710   -4.6952   28.4803 C   0  0  0  0  0  0  0  0  0  0  0  0
    3.4047   -5.1087   28.1314 C   0  0  0  0  0  0  0  0  0  0  0  0
   -0.2234  -11.8615   16.8874 C   0  0  0  0  0  0  0  0  0  0  0  0
    6.4491   -4.1532   30.1213 C   0  0  0  0  0  0  0  0  0  0  0  0
    5.7060   -4.4340   27.4975 C   0  0  0  0  0  0  0  0  0  0  0  0
    1.1818   -5.6612   28.8399 C   0  0  0  0  0  0  0  0  0  0  0  0
   -1.2067   -7.3287   17.7772 C   0  0  0  0  0  0  0  0  0  0  0  0
   -0.0206  -10.5585   16.6210 C   0  0  0  0  0  0  0  0  0  0  0  0
    0.3696  -12.7626   16.2169 O   0  0  0  0  0  0  0  0  0  0  0  0
   -0.6895   -9.5676   17.3297 C   0  0  0  0  0  0  0  0  0  0  0  0
    0.8388   -5.8417   27.5264 C   0  0  0  0  0  0  0  0  0  0  0  0
   -2.0709   -7.6637   18.7817 C   0  0  0  0  0  0  0  0  0  0  0  0
   -0.5279   -8.2168   17.0717 C   0  0  0  0  0  0  0  0  0  0  0  0
    6.9694   -4.0191   27.8190 C   0  0  0  0  0  0  0  0  0  0  0  0
    5.1733   -4.5469   29.8123 C   0  0  0  0  0  0  0  0  0  0  0  0
   -1.7508  -11.3016   18.6072 C   0  0  0  0  0  0  0  0  0  0  0  0
    1.7497   -5.6771   26.4971 C   0  0  0  0  0  0  0  0  0  0  0  0
   -1.5799   -9.9322   18.3468 C   0  0  0  0  0  0  0  0  0  0  0  0
   -1.0871  -12.2214   17.8851 C   0  0  0  0  0  0  0  0  0  0  0  0
   -2.2706   -8.9669   19.0691 C   0  0  0  0  0  0  0  0  0  0  0  0
    3.0279   -5.3073   26.8197 C   0  0  0  0  0  0  0  0  0  0  0  0
    7.3282   -3.8948   29.1186 C   0  0  0  0  0  0  0  0  0  0  0  0
  1  3  4  0
  1  7  4  0
  2  3  1  0
  2  6  4  0
  2 16  4  0
  3 22  4  0
  4  9  4  0
  4 10  1  0
  4 20  4  0
  5 16  4  0
  5 23  4  0
  6 15  4  0
  7 12  4  0
  8 13  4  0
  8 14  4  0
  9 11  4  0
 11 14  4  0
 11 19  4  0
 12 18  4  0
 13 21  4  0
 15 23  4  0
 17 19  4  0
 17 20  4  0
 18 22  4  0
 19 21  4  0
M  END
$$$$

 Created by Python create_sdf_string function

 23 25  0  0  0  0  0  0  0  0999 V2000
    2.4610   -5.3070   29.1240 C   0  0  0  0  0  0  0  0  0  0  0  0
    4.7710   -4.6952   28.4803 C   0  0  0  0  0  0  0  0  0  0  0  0
    3.4047   -5.1087   28.1314 C   0  0  0  0  0  0  0  0  0  0  0  0
   -0.2234  -11.8615   16.8874 C   0  0  0  0  0  0  0  0  0  0  0  0
    6.4491   -4.1532   30.1213 C   0  0  0  0  0  0  0  0  0  0  0  0
    5.7060   -4.4340   27.4975 C   0  0  0  0  0  0  0  0  0  0  0  0
    1.1818   -5.6612   28.8399 C   0  0  0  0  0  0  0  0  0  0  0  0
   -1.2067   -7.3287   17.7772 C   0  0  0  0  0  0  0  0  0  0  0  0
   -0.0206  -10.5585   16.6210 C   0  0  0  0  0  0  0  0  0  0  0  0
    0.3696  -12.7626   16.2169 O   0  0  0  0  0  0  0  0  0  0  0  0
   -0.6895   -9.5676   17.3297 C   0  0  0  0  0  0  0  0  0  0  0  0
    0.8388   -5.8417   27.5264 C   0  0  0  0  0  0  0  0  0  0  0  0
   -2.0709   -7.6637   18.7817 C   0  0  0  0  0  0  0  0  0  0  0  0
   -0.5279   -8.2168   17.0717 C   0  0  0  0  0  0  0  0  0  0  0  0
    6.9694   -4.0191   27.8190 C   0  0  0  0  0  0  0  0  0  0  0  0
    5.1733   -4.5469   29.8123 C   0  0  0  0  0  0  0  0  0  0  0  0
   -1.7508  -11.3016   18.6072 C   0  0  0  0  0  0  0  0  0  0  0  0
    1.7497   -5.6771   26.4971 C   0  0  0  0  0  0  0  0  0  0  0  0
   -1.5799   -9.9322   18.3468 C   0  0  0  0  0  0  0  0  0  0  0  0
   -1.0871  -12.2214   17.8851 C   0  0  0  0  0  0  0  0  0  0  0  0
   -2.2706   -8.9669   19.0691 C   0  0  0  0  0  0  0  0  0  0  0  0
    3.0279   -5.3073   26.8197 C   0  0  0  0  0  0  0  0  0  0  0  0
    7.3282   -3.8948   29.1186 C   0  0  0  0  0  0  0  0  0  0  0  0
  1  3  4  0
  1  7  4  0
  2  3  1  0
  2  6  4  0
  2 16  4  0
  3 22  4  0
  4  9  4  0
  4 10  1  0
  4 20  4  0
  5 16  4  0
  5 23  4  0
  6 15  4  0
  7 12  4  0
  8 13  4  0
  8 14  4  0
  9 11  4  0
 11 14  4  0
 11 19  4  0
 12 18  4  0
 13 21  4  0
 15 23  4  0
 17 19  4  0
 17 20  4  0
 18 22  4  0
 19 21  4  0
M  END
$$$$

 Created by Python create_sdf_string function

 23 25  0  0  0  0  0  0  0  0999 V2000
    2.4610   -5.3070   29.1240 C   0  0  0  0  0  0  0  0  0  0  0  0
    4.7710   -4.6952   28.4803 C   0  0  0  0  0  0  0  0  0  0  0  0
    3.4047   -5.1087   28.1314 C   0  0  0  0  0  0  0  0  0  0  0  0
   -0.2234  -11.8615   16.8874 C   0  0  0  0  0  0  0  0  0  0  0  0
    6.4491   -4.1532   30.1213 C   0  0  0  0  0  0  0  0  0  0  0  0
    5.7060   -4.4340   27.4975 C   0  0  0  0  0  0  0  0  0  0  0  0
    1.1818   -5.6612   28.8399 C   0  0  0  0  0  0  0  0  0  0  0  0
   -1.2067   -7.3287   17.7772 C   0  0  0  0  0  0  0  0  0  0  0  0
   -0.0206  -10.5585   16.6210 C   0  0  0  0  0  0  0  0  0  0  0  0
    0.3696  -12.7626   16.2169 O   0  0  0  0  0  0  0  0  0  0  0  0
   -0.6895   -9.5676   17.3297 C   0  0  0  0  0  0  0  0  0  0  0  0
    0.8388   -5.8417   27.5264 C   0  0  0  0  0  0  0  0  0  0  0  0
   -2.0709   -7.6637   18.7817 C   0  0  0  0  0  0  0  0  0  0  0  0
   -0.5279   -8.2168   17.0717 C   0  0  0  0  0  0  0  0  0  0  0  0
    6.9694   -4.0191   27.8190 C   0  0  0  0  0  0  0  0  0  0  0  0
    5.1733   -4.5469   29.8123 C   0  0  0  0  0  0  0  0  0  0  0  0
   -1.7508  -11.3016   18.6072 C   0  0  0  0  0  0  0  0  0  0  0  0
    1.7497   -5.6771   26.4971 C   0  0  0  0  0  0  0  0  0  0  0  0
   -1.5799   -9.9322   18.3468 C   0  0  0  0  0  0  0  0  0  0  0  0
   -1.0871  -12.2214   17.8851 C   0  0  0  0  0  0  0  0  0  0  0  0
   -2.2706   -8.9669   19.0691 C   0  0  0  0  0  0  0  0  0  0  0  0
    3.0279   -5.3073   26.8197 C   0  0  0  0  0  0  0  0  0  0  0  0
    7.3282   -3.8948   29.1186 C   0  0  0  0  0  0  0  0  0  0  0  0
  1  3  4  0
  1  7  4  0
  2  3  1  0
  2  6  4  0
  2 16  4  0
  3 22  4  0
  4  9  4  0
  4 10  1  0
  4 20  4  0
  5 16  4  0
  5 23  4  0
  6 15  4  0
  7 12  4  0
  8 13  4  0
  8 14  4  0
  9 11  4  0
 11 14  4  0
 11 19  4  0
 12 18  4  0
 13 21  4  0
 15 23  4  0
 17 19  4  0
 17 20  4  0
 18 22  4  0
 19 21  4  0
M  END
$$$$

 Created by Python create_sdf_string function

 23 25  0  0  0  0  0  0  0  0999 V2000
    2.4610   -5.3070   29.1240 C   0  0  0  0  0  0  0  0  0  0  0  0
    4.7710   -4.6952   28.4803 C   0  0  0  0  0  0  0  0  0  0  0  0
    3.4047   -5.1087   28.1314 C   0  0  0  0  0  0  0  0  0  0  0  0
   -0.2234  -11.8615   16.8874 C   0  0  0  0  0  0  0  0  0  0  0  0
    6.4491   -4.1532   30.1213 C   0  0  0  0  0  0  0  0  0  0  0  0
    5.7060   -4.4340   27.4975 C   0  0  0  0  0  0  0  0  0  0  0  0
    1.1818   -5.6612   28.8399 C   0  0  0  0  0  0  0  0  0  0  0  0
   -1.2067   -7.3287   17.7772 C   0  0  0  0  0  0  0  0  0  0  0  0
   -0.0206  -10.5585   16.6210 C   0  0  0  0  0  0  0  0  0  0  0  0
    0.3696  -12.7626   16.2169 O   0  0  0  0  0  0  0  0  0  0  0  0
   -0.6895   -9.5676   17.3297 C   0  0  0  0  0  0  0  0  0  0  0  0
    0.8388   -5.8417   27.5264 C   0  0  0  0  0  0  0  0  0  0  0  0
   -2.0709   -7.6637   18.7817 C   0  0  0  0  0  0  0  0  0  0  0  0
   -0.5279   -8.2168   17.0717 C   0  0  0  0  0  0  0  0  0  0  0  0
    6.9694   -4.0191   27.8190 C   0  0  0  0  0  0  0  0  0  0  0  0
    5.1733   -4.5469   29.8123 C   0  0  0  0  0  0  0  0  0  0  0  0
   -1.7508  -11.3016   18.6072 C   0  0  0  0  0  0  0  0  0  0  0  0
    1.7497   -5.6771   26.4971 C   0  0  0  0  0  0  0  0  0  0  0  0
   -1.5799   -9.9322   18.3468 C   0  0  0  0  0  0  0  0  0  0  0  0
   -1.0871  -12.2214   17.8851 C   0  0  0  0  0  0  0  0  0  0  0  0
   -2.2706   -8.9669   19.0691 C   0  0  0  0  0  0  0  0  0  0  0  0
    3.0279   -5.3073   26.8197 C   0  0  0  0  0  0  0  0  0  0  0  0
    7.3282   -3.8948   29.1186 C   0  0  0  0  0  0  0  0  0  0  0  0
  1  3  4  0
  1  7  4  0
  2  3  1  0
  2  6  4  0
  2 16  4  0
  3 22  4  0
  4  9  4  0
  4 10  1  0
  4 20  4  0
  5 16  4  0
  5 23  4  0
  6 15  4  0
  7 12  4  0
  8 13  4  0
  8 14  4  0
  9 11  4  0
 11 14  4  0
 11 19  4  0
 12 18  4  0
 13 21  4  0
 15 23  4  0
 17 19  4  0
 17 20  4  0
 18 22  4  0
 19 21  4  0
M  END
$$$$

 Created by Python create_sdf_string function

 23 25  0  0  0  0  0  0  0  0999 V2000
    2.4610   -5.3070   29.1240 C   0  0  0  0  0  0  0  0  0  0  0  0
    4.7710   -4.6952   28.4803 C   0  0  0  0  0  0  0  0  0  0  0  0
    3.4047   -5.1087   28.1314 C   0  0  0  0  0  0  0  0  0  0  0  0
   -0.2234  -11.8615   16.8874 C   0  0  0  0  0  0  0  0  0  0  0  0
    6.4491   -4.1532   30.1213 C   0  0  0  0  0  0  0  0  0  0  0  0
    5.7060   -4.4340   27.4975 C   0  0  0  0  0  0  0  0  0  0  0  0
    1.1818   -5.6612   28.8399 C   0  0  0  0  0  0  0  0  0  0  0  0
   -1.2067   -7.3287   17.7772 C   0  0  0  0  0  0  0  0  0  0  0  0
   -0.0206  -10.5585   16.6210 C   0  0  0  0  0  0  0  0  0  0  0  0
    0.3696  -12.7626   16.2169 O   0  0  0  0  0  0  0  0  0  0  0  0
   -0.6895   -9.5676   17.3297 C   0  0  0  0  0  0  0  0  0  0  0  0
    0.8388   -5.8417   27.5264 C   0  0  0  0  0  0  0  0  0  0  0  0
   -2.0709   -7.6637   18.7817 C   0  0  0  0  0  0  0  0  0  0  0  0
   -0.5279   -8.2168   17.0717 C   0  0  0  0  0  0  0  0  0  0  0  0
    6.9694   -4.0191   27.8190 C   0  0  0  0  0  0  0  0  0  0  0  0
    5.1733   -4.5469   29.8123 C   0  0  0  0  0  0  0  0  0  0  0  0
   -1.7508  -11.3016   18.6072 C   0  0  0  0  0  0  0  0  0  0  0  0
    1.7497   -5.6771   26.4971 C   0  0  0  0  0  0  0  0  0  0  0  0
   -1.5799   -9.9322   18.3468 C   0  0  0  0  0  0  0  0  0  0  0  0
   -1.0871  -12.2214   17.8851 C   0  0  0  0  0  0  0  0  0  0  0  0
   -2.2706   -8.9669   19.0691 C   0  0  0  0  0  0  0  0  0  0  0  0
    3.0279   -5.3073   26.8197 C   0  0  0  0  0  0  0  0  0  0  0  0
    7.3282   -3.8948   29.1186 C   0  0  0  0  0  0  0  0  0  0  0  0
  1  3  4  0
  1  7  4  0
  2  3  1  0
  2  6  4  0
  2 16  4  0
  3 22  4  0
  4  9  4  0
  4 10  1  0
  4 20  4  0
  5 16  4  0
  5 23  4  0
  6 15  4  0
  7 12  4  0
  8 13  4  0
  8 14  4  0
  9 11  4  0
 11 14  4  0
 11 19  4  0
 12 18  4  0
 13 21  4  0
 15 23  4  0
 17 19  4  0
 17 20  4  0
 18 22  4  0
 19 21  4  0
M  END
$$$$

 Created by Python create_sdf_string function

 23 25  0  0  0  0  0  0  0  0999 V2000
    2.4610   -5.3070   29.1240 C   0  0  0  0  0  0  0  0  0  0  0  0
    4.7710   -4.6952   28.4803 C   0  0  0  0  0  0  0  0  0  0  0  0
    3.4047   -5.1087   28.1314 C   0  0  0  0  0  0  0  0  0  0  0  0
   -0.2234  -11.8615   16.8874 C   0  0  0  0  0  0  0  0  0  0  0  0
    6.4491   -4.1532   30.1213 C   0  0  0  0  0  0  0  0  0  0  0  0
    5.7060   -4.4340   27.4975 C   0  0  0  0  0  0  0  0  0  0  0  0
    1.1818   -5.6612   28.8399 C   0  0  0  0  0  0  0  0  0  0  0  0
   -1.2067   -7.3287   17.7772 C   0  0  0  0  0  0  0  0  0  0  0  0
   -0.0206  -10.5585   16.6210 C   0  0  0  0  0  0  0  0  0  0  0  0
    0.3696  -12.7626   16.2169 O   0  0  0  0  0  0  0  0  0  0  0  0
   -0.6895   -9.5676   17.3297 C   0  0  0  0  0  0  0  0  0  0  0  0
    0.8388   -5.8417   27.5264 C   0  0  0  0  0  0  0  0  0  0  0  0
   -2.0709   -7.6637   18.7817 C   0  0  0  0  0  0  0  0  0  0  0  0
   -0.5279   -8.2168   17.0717 C   0  0  0  0  0  0  0  0  0  0  0  0
    6.9694   -4.0191   27.8190 C   0  0  0  0  0  0  0  0  0  0  0  0
    5.1733   -4.5469   29.8123 C   0  0  0  0  0  0  0  0  0  0  0  0
   -1.7508  -11.3016   18.6072 C   0  0  0  0  0  0  0  0  0  0  0  0
    1.7497   -5.6771   26.4971 C   0  0  0  0  0  0  0  0  0  0  0  0
   -1.5799   -9.9322   18.3468 C   0  0  0  0  0  0  0  0  0  0  0  0
   -1.0871  -12.2214   17.8851 C   0  0  0  0  0  0  0  0  0  0  0  0
   -2.2706   -8.9669   19.0691 C   0  0  0  0  0  0  0  0  0  0  0  0
    3.0279   -5.3073   26.8197 C   0  0  0  0  0  0  0  0  0  0  0  0
    7.3282   -3.8948   29.1186 C   0  0  0  0  0  0  0  0  0  0  0  0
  1  3  4  0
  1  7  4  0
  2  3  1  0
  2  6  4  0
  2 16  4  0
  3 22  4  0
  4  9  4  0
  4 10  1  0
  4 20  4  0
  5 16  4  0
  5 23  4  0
  6 15  4  0
  7 12  4  0
  8 13  4  0
  8 14  4  0
  9 11  4  0
 11 14  4  0
 11 19  4  0
 12 18  4  0
 13 21  4  0
 15 23  4  0
 17 19  4  0
 17 20  4  0
 18 22  4  0
 19 21  4  0
M  END
$$$$

 Created by Python create_sdf_string function

 23 25  0  0  0  0  0  0  0  0999 V2000
    2.4610   -5.3070   29.1240 C   0  0  0  0  0  0  0  0  0  0  0  0
    4.7710   -4.6952   28.4803 C   0  0  0  0  0  0  0  0  0  0  0  0
    3.4047   -5.1087   28.1314 C   0  0  0  0  0  0  0  0  0  0  0  0
   -0.2234  -11.8615   16.8874 C   0  0  0  0  0  0  0  0  0  0  0  0
    6.4491   -4.1532   30.1213 C   0  0  0  0  0  0  0  0  0  0  0  0
    5.7060   -4.4340   27.4975 C   0  0  0  0  0  0  0  0  0  0  0  0
    1.1818   -5.6612   28.8399 C   0  0  0  0  0  0  0  0  0  0  0  0
   -1.2067   -7.3287   17.7772 C   0  0  0  0  0  0  0  0  0  0  0  0
   -0.0206  -10.5585   16.6210 C   0  0  0  0  0  0  0  0  0  0  0  0
    0.3696  -12.7626   16.2169 O   0  0  0  0  0  0  0  0  0  0  0  0
   -0.6895   -9.5676   17.3297 C   0  0  0  0  0  0  0  0  0  0  0  0
    0.8388   -5.8417   27.5264 C   0  0  0  0  0  0  0  0  0  0  0  0
   -2.0709   -7.6637   18.7817 C   0  0  0  0  0  0  0  0  0  0  0  0
   -0.5279   -8.2168   17.0717 C   0  0  0  0  0  0  0  0  0  0  0  0
    6.9694   -4.0191   27.8190 C   0  0  0  0  0  0  0  0  0  0  0  0
    5.1733   -4.5469   29.8123 C   0  0  0  0  0  0  0  0  0  0  0  0
   -1.7508  -11.3016   18.6072 C   0  0  0  0  0  0  0  0  0  0  0  0
    1.7497   -5.6771   26.4971 C   0  0  0  0  0  0  0  0  0  0  0  0
   -1.5799   -9.9322   18.3468 C   0  0  0  0  0  0  0  0  0  0  0  0
   -1.0871  -12.2214   17.8851 C   0  0  0  0  0  0  0  0  0  0  0  0
   -2.2706   -8.9669   19.0691 C   0  0  0  0  0  0  0  0  0  0  0  0
    3.0279   -5.3073   26.8197 C   0  0  0  0  0  0  0  0  0  0  0  0
    7.3282   -3.8948   29.1186 C   0  0  0  0  0  0  0  0  0  0  0  0
  1  3  4  0
  1  7  4  0
  2  3  1  0
  2  6  4  0
  2 16  4  0
  3 22  4  0
  4  9  4  0
  4 10  1  0
  4 20  4  0
  5 16  4  0
  5 23  4  0
  6 15  4  0
  7 12  4  0
  8 13  4  0
  8 14  4  0
  9 11  4  0
 11 14  4  0
 11 19  4  0
 12 18  4  0
 13 21  4  0
 15 23  4  0
 17 19  4  0
 17 20  4  0
 18 22  4  0
 19 21  4  0
M  END
$$$$

 Created by Python create_sdf_string function

 23 25  0  0  0  0  0  0  0  0999 V2000
    2.4610   -5.3070   29.1240 C   0  0  0  0  0  0  0  0  0  0  0  0
    4.7710   -4.6952   28.4803 C   0  0  0  0  0  0  0  0  0  0  0  0
    3.4047   -5.1087   28.1314 C   0  0  0  0  0  0  0  0  0  0  0  0
   -0.2234  -11.8615   16.8874 C   0  0  0  0  0  0  0  0  0  0  0  0
    6.4491   -4.1532   30.1213 C   0  0  0  0  0  0  0  0  0  0  0  0
    5.7060   -4.4340   27.4975 C   0  0  0  0  0  0  0  0  0  0  0  0
    1.1818   -5.6612   28.8399 C   0  0  0  0  0  0  0  0  0  0  0  0
   -1.2067   -7.3287   17.7772 C   0  0  0  0  0  0  0  0  0  0  0  0
   -0.0206  -10.5585   16.6210 C   0  0  0  0  0  0  0  0  0  0  0  0
    0.3696  -12.7626   16.2169 O   0  0  0  0  0  0  0  0  0  0  0  0
   -0.6895   -9.5676   17.3297 C   0  0  0  0  0  0  0  0  0  0  0  0
    0.8388   -5.8417   27.5264 C   0  0  0  0  0  0  0  0  0  0  0  0
   -2.0709   -7.6637   18.7817 C   0  0  0  0  0  0  0  0  0  0  0  0
   -0.5279   -8.2168   17.0717 C   0  0  0  0  0  0  0  0  0  0  0  0
    6.9694   -4.0191   27.8190 C   0  0  0  0  0  0  0  0  0  0  0  0
    5.1733   -4.5469   29.8123 C   0  0  0  0  0  0  0  0  0  0  0  0
   -1.7508  -11.3016   18.6072 C   0  0  0  0  0  0  0  0  0  0  0  0
    1.7497   -5.6771   26.4971 C   0  0  0  0  0  0  0  0  0  0  0  0
   -1.5799   -9.9322   18.3468 C   0  0  0  0  0  0  0  0  0  0  0  0
   -1.0871  -12.2214   17.8851 C   0  0  0  0  0  0  0  0  0  0  0  0
   -2.2706   -8.9669   19.0691 C   0  0  0  0  0  0  0  0  0  0  0  0
    3.0279   -5.3073   26.8197 C   0  0  0  0  0  0  0  0  0  0  0  0
    7.3282   -3.8948   29.1186 C   0  0  0  0  0  0  0  0  0  0  0  0
  1  3  4  0
  1  7  4  0
  2  3  1  0
  2  6  4  0
  2 16  4  0
  3 22  4  0
  4  9  4  0
  4 10  1  0
  4 20  4  0
  5 16  4  0
  5 23  4  0
  6 15  4  0
  7 12  4  0
  8 13  4  0
  8 14  4  0
  9 11  4  0
 11 14  4  0
 11 19  4  0
 12 18  4  0
 13 21  4  0
 15 23  4  0
 17 19  4  0
 17 20  4  0
 18 22  4  0
 19 21  4  0
M  END
$$$$

 Created by Python create_sdf_string function

 23 25  0  0  0  0  0  0  0  0999 V2000
    2.4610   -5.3070   29.1240 C   0  0  0  0  0  0  0  0  0  0  0  0
    4.7710   -4.6952   28.4803 C   0  0  0  0  0  0  0  0  0  0  0  0
    3.4047   -5.1087   28.1314 C   0  0  0  0  0  0  0  0  0  0  0  0
   -0.2234  -11.8615   16.8874 C   0  0  0  0  0  0  0  0  0  0  0  0
    6.4491   -4.1532   30.1213 C   0  0  0  0  0  0  0  0  0  0  0  0
    5.7060   -4.4340   27.4975 C   0  0  0  0  0  0  0  0  0  0  0  0
    1.1818   -5.6612   28.8399 C   0  0  0  0  0  0  0  0  0  0  0  0
   -1.2067   -7.3287   17.7772 C   0  0  0  0  0  0  0  0  0  0  0  0
   -0.0206  -10.5585   16.6210 C   0  0  0  0  0  0  0  0  0  0  0  0
    0.3696  -12.7626   16.2169 O   0  0  0  0  0  0  0  0  0  0  0  0
   -0.6895   -9.5676   17.3297 C   0  0  0  0  0  0  0  0  0  0  0  0
    0.8388   -5.8417   27.5264 C   0  0  0  0  0  0  0  0  0  0  0  0
   -2.0709   -7.6637   18.7817 C   0  0  0  0  0  0  0  0  0  0  0  0
   -0.5279   -8.2168   17.0717 C   0  0  0  0  0  0  0  0  0  0  0  0
    6.9694   -4.0191   27.8190 C   0  0  0  0  0  0  0  0  0  0  0  0
    5.1733   -4.5469   29.8123 C   0  0  0  0  0  0  0  0  0  0  0  0
   -1.7508  -11.3016   18.6072 C   0  0  0  0  0  0  0  0  0  0  0  0
    1.7497   -5.6771   26.4971 C   0  0  0  0  0  0  0  0  0  0  0  0
   -1.5799   -9.9322   18.3468 C   0  0  0  0  0  0  0  0  0  0  0  0
   -1.0871  -12.2214   17.8851 C   0  0  0  0  0  0  0  0  0  0  0  0
   -2.2706   -8.9669   19.0691 C   0  0  0  0  0  0  0  0  0  0  0  0
    3.0279   -5.3073   26.8197 C   0  0  0  0  0  0  0  0  0  0  0  0
    7.3282   -3.8948   29.1186 C   0  0  0  0  0  0  0  0  0  0  0  0
  1  3  4  0
  1  7  4  0
  2  3  1  0
  2  6  4  0
  2 16  4  0
  3 22  4  0
  4  9  4  0
  4 10  1  0
  4 20  4  0
  5 16  4  0
  5 23  4  0
  6 15  4  0
  7 12  4  0
  8 13  4  0
  8 14  4  0
  9 11  4  0
 11 14  4  0
 11 19  4  0
 12 18  4  0
 13 21  4  0
 15 23  4  0
 17 19  4  0
 17 20  4  0
 18 22  4  0
 19 21  4  0
M  END
$$$$

 Created by Python create_sdf_string function

 23 25  0  0  0  0  0  0  0  0999 V2000
    2.4610   -5.3070   29.1240 C   0  0  0  0  0  0  0  0  0  0  0  0
    4.7710   -4.6952   28.4803 C   0  0  0  0  0  0  0  0  0  0  0  0
    3.4047   -5.1087   28.1314 C   0  0  0  0  0  0  0  0  0  0  0  0
   -0.2234  -11.8615   16.8874 C   0  0  0  0  0  0  0  0  0  0  0  0
    6.4491   -4.1532   30.1213 C   0  0  0  0  0  0  0  0  0  0  0  0
    5.7060   -4.4340   27.4975 C   0  0  0  0  0  0  0  0  0  0  0  0
    1.1818   -5.6612   28.8399 C   0  0  0  0  0  0  0  0  0  0  0  0
   -1.2067   -7.3287   17.7772 C   0  0  0  0  0  0  0  0  0  0  0  0
   -0.0206  -10.5585   16.6210 C   0  0  0  0  0  0  0  0  0  0  0  0
    0.3696  -12.7626   16.2169 O   0  0  0  0  0  0  0  0  0  0  0  0
   -0.6895   -9.5676   17.3297 C   0  0  0  0  0  0  0  0  0  0  0  0
    0.8388   -5.8417   27.5264 C   0  0  0  0  0  0  0  0  0  0  0  0
   -2.0709   -7.6637   18.7817 C   0  0  0  0  0  0  0  0  0  0  0  0
   -0.5279   -8.2168   17.0717 C   0  0  0  0  0  0  0  0  0  0  0  0
    6.9694   -4.0191   27.8190 C   0  0  0  0  0  0  0  0  0  0  0  0
    5.1733   -4.5469   29.8123 C   0  0  0  0  0  0  0  0  0  0  0  0
   -1.7508  -11.3016   18.6072 C   0  0  0  0  0  0  0  0  0  0  0  0
    1.7497   -5.6771   26.4971 C   0  0  0  0  0  0  0  0  0  0  0  0
   -1.5799   -9.9322   18.3468 C   0  0  0  0  0  0  0  0  0  0  0  0
   -1.0871  -12.2214   17.8851 C   0  0  0  0  0  0  0  0  0  0  0  0
   -2.2706   -8.9669   19.0691 C   0  0  0  0  0  0  0  0  0  0  0  0
    3.0279   -5.3073   26.8197 C   0  0  0  0  0  0  0  0  0  0  0  0
    7.3282   -3.8948   29.1186 C   0  0  0  0  0  0  0  0  0  0  0  0
  1  3  4  0
  1  7  4  0
  2  3  1  0
  2  6  4  0
  2 16  4  0
  3 22  4  0
  4  9  4  0
  4 10  1  0
  4 20  4  0
  5 16  4  0
  5 23  4  0
  6 15  4  0
  7 12  4  0
  8 13  4  0
  8 14  4  0
  9 11  4  0
 11 14  4  0
 11 19  4  0
 12 18  4  0
 13 21  4  0
 15 23  4  0
 17 19  4  0
 17 20  4  0
 18 22  4  0
 19 21  4  0
M  END
$$$$

 Created by Python create_sdf_string function

 23 25  0  0  0  0  0  0  0  0999 V2000
    2.4610   -5.3070   29.1240 C   0  0  0  0  0  0  0  0  0  0  0  0
    4.7710   -4.6952   28.4803 C   0  0  0  0  0  0  0  0  0  0  0  0
    3.4047   -5.1087   28.1314 C   0  0  0  0  0  0  0  0  0  0  0  0
   -0.2234  -11.8615   16.8874 C   0  0  0  0  0  0  0  0  0  0  0  0
    6.4491   -4.1532   30.1213 C   0  0  0  0  0  0  0  0  0  0  0  0
    5.7060   -4.4340   27.4975 C   0  0  0  0  0  0  0  0  0  0  0  0
    1.1818   -5.6612   28.8399 C   0  0  0  0  0  0  0  0  0  0  0  0
   -1.2067   -7.3287   17.7772 C   0  0  0  0  0  0  0  0  0  0  0  0
   -0.0206  -10.5585   16.6210 C   0  0  0  0  0  0  0  0  0  0  0  0
    0.3696  -12.7626   16.2169 O   0  0  0  0  0  0  0  0  0  0  0  0
   -0.6895   -9.5676   17.3297 C   0  0  0  0  0  0  0  0  0  0  0  0
    0.8388   -5.8417   27.5264 C   0  0  0  0  0  0  0  0  0  0  0  0
   -2.0709   -7.6637   18.7817 C   0  0  0  0  0  0  0  0  0  0  0  0
   -0.5279   -8.2168   17.0717 C   0  0  0  0  0  0  0  0  0  0  0  0
    6.9694   -4.0191   27.8190 C   0  0  0  0  0  0  0  0  0  0  0  0
    5.1733   -4.5469   29.8123 C   0  0  0  0  0  0  0  0  0  0  0  0
   -1.7508  -11.3016   18.6072 C   0  0  0  0  0  0  0  0  0  0  0  0
    1.7497   -5.6771   26.4971 C   0  0  0  0  0  0  0  0  0  0  0  0
   -1.5799   -9.9322   18.3468 C   0  0  0  0  0  0  0  0  0  0  0  0
   -1.0871  -12.2214   17.8851 C   0  0  0  0  0  0  0  0  0  0  0  0
   -2.2706   -8.9669   19.0691 C   0  0  0  0  0  0  0  0  0  0  0  0
    3.0279   -5.3073   26.8197 C   0  0  0  0  0  0  0  0  0  0  0  0
    7.3282   -3.8948   29.1186 C   0  0  0  0  0  0  0  0  0  0  0  0
  1  3  4  0
  1  7  4  0
  2  3  1  0
  2  6  4  0
  2 16  4  0
  3 22  4  0
  4  9  4  0
  4 10  1  0
  4 20  4  0
  5 16  4  0
  5 23  4  0
  6 15  4  0
  7 12  4  0
  8 13  4  0
  8 14  4  0
  9 11  4  0
 11 14  4  0
 11 19  4  0
 12 18  4  0
 13 21  4  0
 15 23  4  0
 17 19  4  0
 17 20  4  0
 18 22  4  0
 19 21  4  0
M  END
$$$$

 Created by Python create_sdf_string function

 23 25  0  0  0  0  0  0  0  0999 V2000
    2.4610   -5.3070   29.1240 C   0  0  0  0  0  0  0  0  0  0  0  0
    4.7710   -4.6952   28.4803 C   0  0  0  0  0  0  0  0  0  0  0  0
    3.4047   -5.1087   28.1314 C   0  0  0  0  0  0  0  0  0  0  0  0
   -0.2234  -11.8615   16.8874 C   0  0  0  0  0  0  0  0  0  0  0  0
    6.4491   -4.1532   30.1213 C   0  0  0  0  0  0  0  0  0  0  0  0
    5.7060   -4.4340   27.4975 C   0  0  0  0  0  0  0  0  0  0  0  0
    1.1818   -5.6612   28.8399 C   0  0  0  0  0  0  0  0  0  0  0  0
   -1.2067   -7.3287   17.7772 C   0  0  0  0  0  0  0  0  0  0  0  0
   -0.0206  -10.5585   16.6210 C   0  0  0  0  0  0  0  0  0  0  0  0
    0.3696  -12.7626   16.2169 O   0  0  0  0  0  0  0  0  0  0  0  0
   -0.6895   -9.5676   17.3297 C   0  0  0  0  0  0  0  0  0  0  0  0
    0.8388   -5.8417   27.5264 C   0  0  0  0  0  0  0  0  0  0  0  0
   -2.0709   -7.6637   18.7817 C   0  0  0  0  0  0  0  0  0  0  0  0
   -0.5279   -8.2168   17.0717 C   0  0  0  0  0  0  0  0  0  0  0  0
    6.9694   -4.0191   27.8190 C   0  0  0  0  0  0  0  0  0  0  0  0
    5.1733   -4.5469   29.8123 C   0  0  0  0  0  0  0  0  0  0  0  0
   -1.7508  -11.3016   18.6072 C   0  0  0  0  0  0  0  0  0  0  0  0
    1.7497   -5.6771   26.4971 C   0  0  0  0  0  0  0  0  0  0  0  0
   -1.5799   -9.9322   18.3468 C   0  0  0  0  0  0  0  0  0  0  0  0
   -1.0871  -12.2214   17.8851 C   0  0  0  0  0  0  0  0  0  0  0  0
   -2.2706   -8.9669   19.0691 C   0  0  0  0  0  0  0  0  0  0  0  0
    3.0279   -5.3073   26.8197 C   0  0  0  0  0  0  0  0  0  0  0  0
    7.3282   -3.8948   29.1186 C   0  0  0  0  0  0  0  0  0  0  0  0
  1  3  4  0
  1  7  4  0
  2  3  1  0
  2  6  4  0
  2 16  4  0
  3 22  4  0
  4  9  4  0
  4 10  1  0
  4 20  4  0
  5 16  4  0
  5 23  4  0
  6 15  4  0
  7 12  4  0
  8 13  4  0
  8 14  4  0
  9 11  4  0
 11 14  4  0
 11 19  4  0
 12 18  4  0
 13 21  4  0
 15 23  4  0
 17 19  4  0
 17 20  4  0
 18 22  4  0
 19 21  4  0
M  END
$$$$

 Created by Python create_sdf_string function

 23 25  0  0  0  0  0  0  0  0999 V2000
    2.4610   -5.3070   29.1240 C   0  0  0  0  0  0  0  0  0  0  0  0
    4.7710   -4.6952   28.4803 C   0  0  0  0  0  0  0  0  0  0  0  0
    3.4047   -5.1087   28.1314 C   0  0  0  0  0  0  0  0  0  0  0  0
   -0.2234  -11.8615   16.8874 C   0  0  0  0  0  0  0  0  0  0  0  0
    6.4491   -4.1532   30.1213 C   0  0  0  0  0  0  0  0  0  0  0  0
    5.7060   -4.4340   27.4975 C   0  0  0  0  0  0  0  0  0  0  0  0
    1.1818   -5.6612   28.8399 C   0  0  0  0  0  0  0  0  0  0  0  0
   -1.2067   -7.3287   17.7772 C   0  0  0  0  0  0  0  0  0  0  0  0
   -0.0206  -10.5585   16.6210 C   0  0  0  0  0  0  0  0  0  0  0  0
    0.3696  -12.7626   16.2169 O   0  0  0  0  0  0  0  0  0  0  0  0
   -0.6895   -9.5676   17.3297 C   0  0  0  0  0  0  0  0  0  0  0  0
    0.8388   -5.8417   27.5264 C   0  0  0  0  0  0  0  0  0  0  0  0
   -2.0709   -7.6637   18.7817 C   0  0  0  0  0  0  0  0  0  0  0  0
   -0.5279   -8.2168   17.0717 C   0  0  0  0  0  0  0  0  0  0  0  0
    6.9694   -4.0191   27.8190 C   0  0  0  0  0  0  0  0  0  0  0  0
    5.1733   -4.5469   29.8123 C   0  0  0  0  0  0  0  0  0  0  0  0
   -1.7508  -11.3016   18.6072 C   0  0  0  0  0  0  0  0  0  0  0  0
    1.7497   -5.6771   26.4971 C   0  0  0  0  0  0  0  0  0  0  0  0
   -1.5799   -9.9322   18.3468 C   0  0  0  0  0  0  0  0  0  0  0  0
   -1.0871  -12.2214   17.8851 C   0  0  0  0  0  0  0  0  0  0  0  0
   -2.2706   -8.9669   19.0691 C   0  0  0  0  0  0  0  0  0  0  0  0
    3.0279   -5.3073   26.8197 C   0  0  0  0  0  0  0  0  0  0  0  0
    7.3282   -3.8948   29.1186 C   0  0  0  0  0  0  0  0  0  0  0  0
  1  3  4  0
  1  7  4  0
  2  3  1  0
  2  6  4  0
  2 16  4  0
  3 22  4  0
  4  9  4  0
  4 10  1  0
  4 20  4  0
  5 16  4  0
  5 23  4  0
  6 15  4  0
  7 12  4  0
  8 13  4  0
  8 14  4  0
  9 11  4  0
 11 14  4  0
 11 19  4  0
 12 18  4  0
 13 21  4  0
 15 23  4  0
 17 19  4  0
 17 20  4  0
 18 22  4  0
 19 21  4  0
M  END
$$$$

 Created by Python create_sdf_string function

 23 25  0  0  0  0  0  0  0  0999 V2000
    2.4610   -5.3070   29.1240 C   0  0  0  0  0  0  0  0  0  0  0  0
    4.7710   -4.6952   28.4803 C   0  0  0  0  0  0  0  0  0  0  0  0
    3.4047   -5.1087   28.1314 C   0  0  0  0  0  0  0  0  0  0  0  0
   -0.2234  -11.8615   16.8874 C   0  0  0  0  0  0  0  0  0  0  0  0
    6.4491   -4.1532   30.1213 C   0  0  0  0  0  0  0  0  0  0  0  0
    5.7060   -4.4340   27.4975 C   0  0  0  0  0  0  0  0  0  0  0  0
    1.1818   -5.6612   28.8399 C   0  0  0  0  0  0  0  0  0  0  0  0
   -1.2067   -7.3287   17.7772 C   0  0  0  0  0  0  0  0  0  0  0  0
   -0.0206  -10.5585   16.6210 C   0  0  0  0  0  0  0  0  0  0  0  0
    0.3696  -12.7626   16.2169 O   0  0  0  0  0  0  0  0  0  0  0  0
   -0.6895   -9.5676   17.3297 C   0  0  0  0  0  0  0  0  0  0  0  0
    0.8388   -5.8417   27.5264 C   0  0  0  0  0  0  0  0  0  0  0  0
   -2.0709   -7.6637   18.7817 C   0  0  0  0  0  0  0  0  0  0  0  0
   -0.5279   -8.2168   17.0717 C   0  0  0  0  0  0  0  0  0  0  0  0
    6.9694   -4.0191   27.8190 C   0  0  0  0  0  0  0  0  0  0  0  0
    5.1733   -4.5469   29.8123 C   0  0  0  0  0  0  0  0  0  0  0  0
   -1.7508  -11.3016   18.6072 C   0  0  0  0  0  0  0  0  0  0  0  0
    1.7497   -5.6771   26.4971 C   0  0  0  0  0  0  0  0  0  0  0  0
   -1.5799   -9.9322   18.3468 C   0  0  0  0  0  0  0  0  0  0  0  0
   -1.0871  -12.2214   17.8851 C   0  0  0  0  0  0  0  0  0  0  0  0
   -2.2706   -8.9669   19.0691 C   0  0  0  0  0  0  0  0  0  0  0  0
    3.0279   -5.3073   26.8197 C   0  0  0  0  0  0  0  0  0  0  0  0
    7.3282   -3.8948   29.1186 C   0  0  0  0  0  0  0  0  0  0  0  0
  1  3  4  0
  1  7  4  0
  2  3  1  0
  2  6  4  0
  2 16  4  0
  3 22  4  0
  4  9  4  0
  4 10  1  0
  4 20  4  0
  5 16  4  0
  5 23  4  0
  6 15  4  0
  7 12  4  0
  8 13  4  0
  8 14  4  0
  9 11  4  0
 11 14  4  0
 11 19  4  0
 12 18  4  0
 13 21  4  0
 15 23  4  0
 17 19  4  0
 17 20  4  0
 18 22  4  0
 19 21  4  0
M  END
$$$$

 Created by Python create_sdf_string function

 23 25  0  0  0  0  0  0  0  0999 V2000
    2.4610   -5.3070   29.1240 C   0  0  0  0  0  0  0  0  0  0  0  0
    4.7710   -4.6952   28.4803 C   0  0  0  0  0  0  0  0  0  0  0  0
    3.4047   -5.1087   28.1314 C   0  0  0  0  0  0  0  0  0  0  0  0
   -0.2234  -11.8615   16.8874 C   0  0  0  0  0  0  0  0  0  0  0  0
    6.4491   -4.1532   30.1213 C   0  0  0  0  0  0  0  0  0  0  0  0
    5.7060   -4.4340   27.4975 C   0  0  0  0  0  0  0  0  0  0  0  0
    1.1818   -5.6612   28.8399 C   0  0  0  0  0  0  0  0  0  0  0  0
   -1.2067   -7.3287   17.7772 C   0  0  0  0  0  0  0  0  0  0  0  0
   -0.0206  -10.5585   16.6210 C   0  0  0  0  0  0  0  0  0  0  0  0
    0.3696  -12.7626   16.2169 O   0  0  0  0  0  0  0  0  0  0  0  0
   -0.6895   -9.5676   17.3297 C   0  0  0  0  0  0  0  0  0  0  0  0
    0.8388   -5.8417   27.5264 C   0  0  0  0  0  0  0  0  0  0  0  0
   -2.0709   -7.6637   18.7817 C   0  0  0  0  0  0  0  0  0  0  0  0
   -0.5279   -8.2168   17.0717 C   0  0  0  0  0  0  0  0  0  0  0  0
    6.9694   -4.0191   27.8190 C   0  0  0  0  0  0  0  0  0  0  0  0
    5.1733   -4.5469   29.8123 C   0  0  0  0  0  0  0  0  0  0  0  0
   -1.7508  -11.3016   18.6072 C   0  0  0  0  0  0  0  0  0  0  0  0
    1.7497   -5.6771   26.4971 C   0  0  0  0  0  0  0  0  0  0  0  0
   -1.5799   -9.9322   18.3468 C   0  0  0  0  0  0  0  0  0  0  0  0
   -1.0871  -12.2214   17.8851 C   0  0  0  0  0  0  0  0  0  0  0  0
   -2.2706   -8.9669   19.0691 C   0  0  0  0  0  0  0  0  0  0  0  0
    3.0279   -5.3073   26.8197 C   0  0  0  0  0  0  0  0  0  0  0  0
    7.3282   -3.8948   29.1186 C   0  0  0  0  0  0  0  0  0  0  0  0
  1  3  4  0
  1  7  4  0
  2  3  1  0
  2  6  4  0
  2 16  4  0
  3 22  4  0
  4  9  4  0
  4 10  1  0
  4 20  4  0
  5 16  4  0
  5 23  4  0
  6 15  4  0
  7 12  4  0
  8 13  4  0
  8 14  4  0
  9 11  4  0
 11 14  4  0
 11 19  4  0
 12 18  4  0
 13 21  4  0
 15 23  4  0
 17 19  4  0
 17 20  4  0
 18 22  4  0
 19 21  4  0
M  END
$$$$

 Created by Python create_sdf_string function

 23 25  0  0  0  0  0  0  0  0999 V2000
    2.4610   -5.3070   29.1240 C   0  0  0  0  0  0  0  0  0  0  0  0
    4.7710   -4.6952   28.4803 C   0  0  0  0  0  0  0  0  0  0  0  0
    3.4047   -5.1087   28.1314 C   0  0  0  0  0  0  0  0  0  0  0  0
   -0.2234  -11.8615   16.8874 C   0  0  0  0  0  0  0  0  0  0  0  0
    6.4491   -4.1532   30.1213 C   0  0  0  0  0  0  0  0  0  0  0  0
    5.7060   -4.4340   27.4975 C   0  0  0  0  0  0  0  0  0  0  0  0
    1.1818   -5.6612   28.8399 C   0  0  0  0  0  0  0  0  0  0  0  0
   -1.2067   -7.3287   17.7772 C   0  0  0  0  0  0  0  0  0  0  0  0
   -0.0206  -10.5585   16.6210 C   0  0  0  0  0  0  0  0  0  0  0  0
    0.3696  -12.7626   16.2169 O   0  0  0  0  0  0  0  0  0  0  0  0
   -0.6895   -9.5676   17.3297 C   0  0  0  0  0  0  0  0  0  0  0  0
    0.8388   -5.8417   27.5264 C   0  0  0  0  0  0  0  0  0  0  0  0
   -2.0709   -7.6637   18.7817 C   0  0  0  0  0  0  0  0  0  0  0  0
   -0.5279   -8.2168   17.0717 C   0  0  0  0  0  0  0  0  0  0  0  0
    6.9694   -4.0191   27.8190 C   0  0  0  0  0  0  0  0  0  0  0  0
    5.1733   -4.5469   29.8123 C   0  0  0  0  0  0  0  0  0  0  0  0
   -1.7508  -11.3016   18.6072 C   0  0  0  0  0  0  0  0  0  0  0  0
    1.7497   -5.6771   26.4971 C   0  0  0  0  0  0  0  0  0  0  0  0
   -1.5799   -9.9322   18.3468 C   0  0  0  0  0  0  0  0  0  0  0  0
   -1.0871  -12.2214   17.8851 C   0  0  0  0  0  0  0  0  0  0  0  0
   -2.2706   -8.9669   19.0691 C   0  0  0  0  0  0  0  0  0  0  0  0
    3.0279   -5.3073   26.8197 C   0  0  0  0  0  0  0  0  0  0  0  0
    7.3282   -3.8948   29.1186 C   0  0  0  0  0  0  0  0  0  0  0  0
  1  3  4  0
  1  7  4  0
  2  3  1  0
  2  6  4  0
  2 16  4  0
  3 22  4  0
  4  9  4  0
  4 10  1  0
  4 20  4  0
  5 16  4  0
  5 23  4  0
  6 15  4  0
  7 12  4  0
  8 13  4  0
  8 14  4  0
  9 11  4  0
 11 14  4  0
 11 19  4  0
 12 18  4  0
 13 21  4  0
 15 23  4  0
 17 19  4  0
 17 20  4  0
 18 22  4  0
 19 21  4  0
M  END
$$$$

 Created by Python create_sdf_string function

 23 25  0  0  0  0  0  0  0  0999 V2000
    2.4610   -5.3070   29.1240 C   0  0  0  0  0  0  0  0  0  0  0  0
    4.7710   -4.6952   28.4803 C   0  0  0  0  0  0  0  0  0  0  0  0
    3.4047   -5.1087   28.1314 C   0  0  0  0  0  0  0  0  0  0  0  0
   -0.2234  -11.8615   16.8874 C   0  0  0  0  0  0  0  0  0  0  0  0
    6.4491   -4.1532   30.1213 C   0  0  0  0  0  0  0  0  0  0  0  0
    5.7060   -4.4340   27.4975 C   0  0  0  0  0  0  0  0  0  0  0  0
    1.1818   -5.6612   28.8399 C   0  0  0  0  0  0  0  0  0  0  0  0
   -1.2067   -7.3287   17.7772 C   0  0  0  0  0  0  0  0  0  0  0  0
   -0.0206  -10.5585   16.6210 C   0  0  0  0  0  0  0  0  0  0  0  0
    0.3696  -12.7626   16.2169 O   0  0  0  0  0  0  0  0  0  0  0  0
   -0.6895   -9.5676   17.3297 C   0  0  0  0  0  0  0  0  0  0  0  0
    0.8388   -5.8417   27.5264 C   0  0  0  0  0  0  0  0  0  0  0  0
   -2.0709   -7.6637   18.7817 C   0  0  0  0  0  0  0  0  0  0  0  0
   -0.5279   -8.2168   17.0717 C   0  0  0  0  0  0  0  0  0  0  0  0
    6.9694   -4.0191   27.8190 C   0  0  0  0  0  0  0  0  0  0  0  0
    5.1733   -4.5469   29.8123 C   0  0  0  0  0  0  0  0  0  0  0  0
   -1.7508  -11.3016   18.6072 C   0  0  0  0  0  0  0  0  0  0  0  0
    1.7497   -5.6771   26.4971 C   0  0  0  0  0  0  0  0  0  0  0  0
   -1.5799   -9.9322   18.3468 C   0  0  0  0  0  0  0  0  0  0  0  0
   -1.0871  -12.2214   17.8851 C   0  0  0  0  0  0  0  0  0  0  0  0
   -2.2706   -8.9669   19.0691 C   0  0  0  0  0  0  0  0  0  0  0  0
    3.0279   -5.3073   26.8197 C   0  0  0  0  0  0  0  0  0  0  0  0
    7.3282   -3.8948   29.1186 C   0  0  0  0  0  0  0  0  0  0  0  0
  1  3  4  0
  1  7  4  0
  2  3  1  0
  2  6  4  0
  2 16  4  0
  3 22  4  0
  4  9  4  0
  4 10  1  0
  4 20  4  0
  5 16  4  0
  5 23  4  0
  6 15  4  0
  7 12  4  0
  8 13  4  0
  8 14  4  0
  9 11  4  0
 11 14  4  0
 11 19  4  0
 12 18  4  0
 13 21  4  0
 15 23  4  0
 17 19  4  0
 17 20  4  0
 18 22  4  0
 19 21  4  0
M  END
$$$$

 Created by Python create_sdf_string function

 23 25  0  0  0  0  0  0  0  0999 V2000
    2.4610   -5.3070   29.1240 C   0  0  0  0  0  0  0  0  0  0  0  0
    4.7710   -4.6952   28.4803 C   0  0  0  0  0  0  0  0  0  0  0  0
    3.4047   -5.1087   28.1314 C   0  0  0  0  0  0  0  0  0  0  0  0
   -0.2234  -11.8615   16.8874 C   0  0  0  0  0  0  0  0  0  0  0  0
    6.4491   -4.1532   30.1213 C   0  0  0  0  0  0  0  0  0  0  0  0
    5.7060   -4.4340   27.4975 C   0  0  0  0  0  0  0  0  0  0  0  0
    1.1818   -5.6612   28.8399 C   0  0  0  0  0  0  0  0  0  0  0  0
   -1.2067   -7.3287   17.7772 C   0  0  0  0  0  0  0  0  0  0  0  0
   -0.0206  -10.5585   16.6210 C   0  0  0  0  0  0  0  0  0  0  0  0
    0.3696  -12.7626   16.2169 O   0  0  0  0  0  0  0  0  0  0  0  0
   -0.6895   -9.5676   17.3297 C   0  0  0  0  0  0  0  0  0  0  0  0
    0.8388   -5.8417   27.5264 C   0  0  0  0  0  0  0  0  0  0  0  0
   -2.0709   -7.6637   18.7817 C   0  0  0  0  0  0  0  0  0  0  0  0
   -0.5279   -8.2168   17.0717 C   0  0  0  0  0  0  0  0  0  0  0  0
    6.9694   -4.0191   27.8190 C   0  0  0  0  0  0  0  0  0  0  0  0
    5.1733   -4.5469   29.8123 C   0  0  0  0  0  0  0  0  0  0  0  0
   -1.7508  -11.3016   18.6072 C   0  0  0  0  0  0  0  0  0  0  0  0
    1.7497   -5.6771   26.4971 C   0  0  0  0  0  0  0  0  0  0  0  0
   -1.5799   -9.9322   18.3468 C   0  0  0  0  0  0  0  0  0  0  0  0
   -1.0871  -12.2214   17.8851 C   0  0  0  0  0  0  0  0  0  0  0  0
   -2.2706   -8.9669   19.0691 C   0  0  0  0  0  0  0  0  0  0  0  0
    3.0279   -5.3073   26.8197 C   0  0  0  0  0  0  0  0  0  0  0  0
    7.3282   -3.8948   29.1186 C   0  0  0  0  0  0  0  0  0  0  0  0
  1  3  4  0
  1  7  4  0
  2  3  1  0
  2  6  4  0
  2 16  4  0
  3 22  4  0
  4  9  4  0
  4 10  1  0
  4 20  4  0
  5 16  4  0
  5 23  4  0
  6 15  4  0
  7 12  4  0
  8 13  4  0
  8 14  4  0
  9 11  4  0
 11 14  4  0
 11 19  4  0
 12 18  4  0
 13 21  4  0
 15 23  4  0
 17 19  4  0
 17 20  4  0
 18 22  4  0
 19 21  4  0
M  END
$$$$

 Created by Python create_sdf_string function

 23 25  0  0  0  0  0  0  0  0999 V2000
    2.4610   -5.3070   29.1240 C   0  0  0  0  0  0  0  0  0  0  0  0
    4.7710   -4.6952   28.4803 C   0  0  0  0  0  0  0  0  0  0  0  0
    3.4047   -5.1087   28.1314 C   0  0  0  0  0  0  0  0  0  0  0  0
   -0.2234  -11.8615   16.8874 C   0  0  0  0  0  0  0  0  0  0  0  0
    6.4491   -4.1532   30.1213 C   0  0  0  0  0  0  0  0  0  0  0  0
    5.7060   -4.4340   27.4975 C   0  0  0  0  0  0  0  0  0  0  0  0
    1.1818   -5.6612   28.8399 C   0  0  0  0  0  0  0  0  0  0  0  0
   -1.2067   -7.3287   17.7772 C   0  0  0  0  0  0  0  0  0  0  0  0
   -0.0206  -10.5585   16.6210 C   0  0  0  0  0  0  0  0  0  0  0  0
    0.3696  -12.7626   16.2169 O   0  0  0  0  0  0  0  0  0  0  0  0
   -0.6895   -9.5676   17.3297 C   0  0  0  0  0  0  0  0  0  0  0  0
    0.8388   -5.8417   27.5264 C   0  0  0  0  0  0  0  0  0  0  0  0
   -2.0709   -7.6637   18.7817 C   0  0  0  0  0  0  0  0  0  0  0  0
   -0.5279   -8.2168   17.0717 C   0  0  0  0  0  0  0  0  0  0  0  0
    6.9694   -4.0191   27.8190 C   0  0  0  0  0  0  0  0  0  0  0  0
    5.1733   -4.5469   29.8123 C   0  0  0  0  0  0  0  0  0  0  0  0
   -1.7508  -11.3016   18.6072 C   0  0  0  0  0  0  0  0  0  0  0  0
    1.7497   -5.6771   26.4971 C   0  0  0  0  0  0  0  0  0  0  0  0
   -1.5799   -9.9322   18.3468 C   0  0  0  0  0  0  0  0  0  0  0  0
   -1.0871  -12.2214   17.8851 C   0  0  0  0  0  0  0  0  0  0  0  0
   -2.2706   -8.9669   19.0691 C   0  0  0  0  0  0  0  0  0  0  0  0
    3.0279   -5.3073   26.8197 C   0  0  0  0  0  0  0  0  0  0  0  0
    7.3282   -3.8948   29.1186 C   0  0  0  0  0  0  0  0  0  0  0  0
  1  3  4  0
  1  7  4  0
  2  3  1  0
  2  6  4  0
  2 16  4  0
  3 22  4  0
  4  9  4  0
  4 10  1  0
  4 20  4  0
  5 16  4  0
  5 23  4  0
  6 15  4  0
  7 12  4  0
  8 13  4  0
  8 14  4  0
  9 11  4  0
 11 14  4  0
 11 19  4  0
 12 18  4  0
 13 21  4  0
 15 23  4  0
 17 19  4  0
 17 20  4  0
 18 22  4  0
 19 21  4  0
M  END
$$$$

 Created by Python create_sdf_string function

 23 25  0  0  0  0  0  0  0  0999 V2000
    2.4610   -5.3070   29.1240 C   0  0  0  0  0  0  0  0  0  0  0  0
    4.7710   -4.6952   28.4803 C   0  0  0  0  0  0  0  0  0  0  0  0
    3.4047   -5.1087   28.1314 C   0  0  0  0  0  0  0  0  0  0  0  0
   -0.2234  -11.8615   16.8874 C   0  0  0  0  0  0  0  0  0  0  0  0
    6.4491   -4.1532   30.1213 C   0  0  0  0  0  0  0  0  0  0  0  0
    5.7060   -4.4340   27.4975 C   0  0  0  0  0  0  0  0  0  0  0  0
    1.1818   -5.6612   28.8399 C   0  0  0  0  0  0  0  0  0  0  0  0
   -1.2067   -7.3287   17.7772 C   0  0  0  0  0  0  0  0  0  0  0  0
   -0.0206  -10.5585   16.6210 C   0  0  0  0  0  0  0  0  0  0  0  0
    0.3696  -12.7626   16.2169 O   0  0  0  0  0  0  0  0  0  0  0  0
   -0.6895   -9.5676   17.3297 C   0  0  0  0  0  0  0  0  0  0  0  0
    0.8388   -5.8417   27.5264 C   0  0  0  0  0  0  0  0  0  0  0  0
   -2.0709   -7.6637   18.7817 C   0  0  0  0  0  0  0  0  0  0  0  0
   -0.5279   -8.2168   17.0717 C   0  0  0  0  0  0  0  0  0  0  0  0
    6.9694   -4.0191   27.8190 C   0  0  0  0  0  0  0  0  0  0  0  0
    5.1733   -4.5469   29.8123 C   0  0  0  0  0  0  0  0  0  0  0  0
   -1.7508  -11.3016   18.6072 C   0  0  0  0  0  0  0  0  0  0  0  0
    1.7497   -5.6771   26.4971 C   0  0  0  0  0  0  0  0  0  0  0  0
   -1.5799   -9.9322   18.3468 C   0  0  0  0  0  0  0  0  0  0  0  0
   -1.0871  -12.2214   17.8851 C   0  0  0  0  0  0  0  0  0  0  0  0
   -2.2706   -8.9669   19.0691 C   0  0  0  0  0  0  0  0  0  0  0  0
    3.0279   -5.3073   26.8197 C   0  0  0  0  0  0  0  0  0  0  0  0
    7.3282   -3.8948   29.1186 C   0  0  0  0  0  0  0  0  0  0  0  0
  1  3  4  0
  1  7  4  0
  2  3  1  0
  2  6  4  0
  2 16  4  0
  3 22  4  0
  4  9  4  0
  4 10  1  0
  4 20  4  0
  5 16  4  0
  5 23  4  0
  6 15  4  0
  7 12  4  0
  8 13  4  0
  8 14  4  0
  9 11  4  0
 11 14  4  0
 11 19  4  0
 12 18  4  0
 13 21  4  0
 15 23  4  0
 17 19  4  0
 17 20  4  0
 18 22  4  0
 19 21  4  0
M  END
$$$$

 Created by Python create_sdf_string function

 23 25  0  0  0  0  0  0  0  0999 V2000
    2.4610   -5.3070   29.1240 C   0  0  0  0  0  0  0  0  0  0  0  0
    4.7710   -4.6952   28.4803 C   0  0  0  0  0  0  0  0  0  0  0  0
    3.4047   -5.1087   28.1314 C   0  0  0  0  0  0  0  0  0  0  0  0
   -0.2234  -11.8615   16.8874 C   0  0  0  0  0  0  0  0  0  0  0  0
    6.4491   -4.1532   30.1213 C   0  0  0  0  0  0  0  0  0  0  0  0
    5.7060   -4.4340   27.4975 C   0  0  0  0  0  0  0  0  0  0  0  0
    1.1818   -5.6612   28.8399 C   0  0  0  0  0  0  0  0  0  0  0  0
   -1.2067   -7.3287   17.7772 C   0  0  0  0  0  0  0  0  0  0  0  0
   -0.0206  -10.5585   16.6210 C   0  0  0  0  0  0  0  0  0  0  0  0
    0.3696  -12.7626   16.2169 O   0  0  0  0  0  0  0  0  0  0  0  0
   -0.6895   -9.5676   17.3297 C   0  0  0  0  0  0  0  0  0  0  0  0
    0.8388   -5.8417   27.5264 C   0  0  0  0  0  0  0  0  0  0  0  0
   -2.0709   -7.6637   18.7817 C   0  0  0  0  0  0  0  0  0  0  0  0
   -0.5279   -8.2168   17.0717 C   0  0  0  0  0  0  0  0  0  0  0  0
    6.9694   -4.0191   27.8190 C   0  0  0  0  0  0  0  0  0  0  0  0
    5.1733   -4.5469   29.8123 C   0  0  0  0  0  0  0  0  0  0  0  0
   -1.7508  -11.3016   18.6072 C   0  0  0  0  0  0  0  0  0  0  0  0
    1.7497   -5.6771   26.4971 C   0  0  0  0  0  0  0  0  0  0  0  0
   -1.5799   -9.9322   18.3468 C   0  0  0  0  0  0  0  0  0  0  0  0
   -1.0871  -12.2214   17.8851 C   0  0  0  0  0  0  0  0  0  0  0  0
   -2.2706   -8.9669   19.0691 C   0  0  0  0  0  0  0  0  0  0  0  0
    3.0279   -5.3073   26.8197 C   0  0  0  0  0  0  0  0  0  0  0  0
    7.3282   -3.8948   29.1186 C   0  0  0  0  0  0  0  0  0  0  0  0
  1  3  4  0
  1  7  4  0
  2  3  1  0
  2  6  4  0
  2 16  4  0
  3 22  4  0
  4  9  4  0
  4 10  1  0
  4 20  4  0
  5 16  4  0
  5 23  4  0
  6 15  4  0
  7 12  4  0
  8 13  4  0
  8 14  4  0
  9 11  4  0
 11 14  4  0
 11 19  4  0
 12 18  4  0
 13 21  4  0
 15 23  4  0
 17 19  4  0
 17 20  4  0
 18 22  4  0
 19 21  4  0
M  END
$$$$

 Created by Python create_sdf_string function

 23 25  0  0  0  0  0  0  0  0999 V2000
    2.4610   -5.3070   29.1240 C   0  0  0  0  0  0  0  0  0  0  0  0
    4.7710   -4.6952   28.4803 C   0  0  0  0  0  0  0  0  0  0  0  0
    3.4047   -5.1087   28.1314 C   0  0  0  0  0  0  0  0  0  0  0  0
   -0.2234  -11.8615   16.8874 C   0  0  0  0  0  0  0  0  0  0  0  0
    6.4491   -4.1532   30.1213 C   0  0  0  0  0  0  0  0  0  0  0  0
    5.7060   -4.4340   27.4975 C   0  0  0  0  0  0  0  0  0  0  0  0
    1.1818   -5.6612   28.8399 C   0  0  0  0  0  0  0  0  0  0  0  0
   -1.2067   -7.3287   17.7772 C   0  0  0  0  0  0  0  0  0  0  0  0
   -0.0206  -10.5585   16.6210 C   0  0  0  0  0  0  0  0  0  0  0  0
    0.3696  -12.7626   16.2169 O   0  0  0  0  0  0  0  0  0  0  0  0
   -0.6895   -9.5676   17.3297 C   0  0  0  0  0  0  0  0  0  0  0  0
    0.8388   -5.8417   27.5264 C   0  0  0  0  0  0  0  0  0  0  0  0
   -2.0709   -7.6637   18.7817 C   0  0  0  0  0  0  0  0  0  0  0  0
   -0.5279   -8.2168   17.0717 C   0  0  0  0  0  0  0  0  0  0  0  0
    6.9694   -4.0191   27.8190 C   0  0  0  0  0  0  0  0  0  0  0  0
    5.1733   -4.5469   29.8123 C   0  0  0  0  0  0  0  0  0  0  0  0
   -1.7508  -11.3016   18.6072 C   0  0  0  0  0  0  0  0  0  0  0  0
    1.7497   -5.6771   26.4971 C   0  0  0  0  0  0  0  0  0  0  0  0
   -1.5799   -9.9322   18.3468 C   0  0  0  0  0  0  0  0  0  0  0  0
   -1.0871  -12.2214   17.8851 C   0  0  0  0  0  0  0  0  0  0  0  0
   -2.2706   -8.9669   19.0691 C   0  0  0  0  0  0  0  0  0  0  0  0
    3.0279   -5.3073   26.8197 C   0  0  0  0  0  0  0  0  0  0  0  0
    7.3282   -3.8948   29.1186 C   0  0  0  0  0  0  0  0  0  0  0  0
  1  3  4  0
  1  7  4  0
  2  3  1  0
  2  6  4  0
  2 16  4  0
  3 22  4  0
  4  9  4  0
  4 10  1  0
  4 20  4  0
  5 16  4  0
  5 23  4  0
  6 15  4  0
  7 12  4  0
  8 13  4  0
  8 14  4  0
  9 11  4  0
 11 14  4  0
 11 19  4  0
 12 18  4  0
 13 21  4  0
 15 23  4  0
 17 19  4  0
 17 20  4  0
 18 22  4  0
 19 21  4  0
M  END
$$$$

 Created by Python create_sdf_string function

 23 25  0  0  0  0  0  0  0  0999 V2000
    2.4610   -5.3070   29.1240 C   0  0  0  0  0  0  0  0  0  0  0  0
    4.7710   -4.6952   28.4803 C   0  0  0  0  0  0  0  0  0  0  0  0
    3.4047   -5.1087   28.1314 C   0  0  0  0  0  0  0  0  0  0  0  0
   -0.2234  -11.8615   16.8874 C   0  0  0  0  0  0  0  0  0  0  0  0
    6.4491   -4.1532   30.1213 C   0  0  0  0  0  0  0  0  0  0  0  0
    5.7060   -4.4340   27.4975 C   0  0  0  0  0  0  0  0  0  0  0  0
    1.1818   -5.6612   28.8399 C   0  0  0  0  0  0  0  0  0  0  0  0
   -1.2067   -7.3287   17.7772 C   0  0  0  0  0  0  0  0  0  0  0  0
   -0.0206  -10.5585   16.6210 C   0  0  0  0  0  0  0  0  0  0  0  0
    0.3696  -12.7626   16.2169 O   0  0  0  0  0  0  0  0  0  0  0  0
   -0.6895   -9.5676   17.3297 C   0  0  0  0  0  0  0  0  0  0  0  0
    0.8388   -5.8417   27.5264 C   0  0  0  0  0  0  0  0  0  0  0  0
   -2.0709   -7.6637   18.7817 C   0  0  0  0  0  0  0  0  0  0  0  0
   -0.5279   -8.2168   17.0717 C   0  0  0  0  0  0  0  0  0  0  0  0
    6.9694   -4.0191   27.8190 C   0  0  0  0  0  0  0  0  0  0  0  0
    5.1733   -4.5469   29.8123 C   0  0  0  0  0  0  0  0  0  0  0  0
   -1.7508  -11.3016   18.6072 C   0  0  0  0  0  0  0  0  0  0  0  0
    1.7497   -5.6771   26.4971 C   0  0  0  0  0  0  0  0  0  0  0  0
   -1.5799   -9.9322   18.3468 C   0  0  0  0  0  0  0  0  0  0  0  0
   -1.0871  -12.2214   17.8851 C   0  0  0  0  0  0  0  0  0  0  0  0
   -2.2706   -8.9669   19.0691 C   0  0  0  0  0  0  0  0  0  0  0  0
    3.0279   -5.3073   26.8197 C   0  0  0  0  0  0  0  0  0  0  0  0
    7.3282   -3.8948   29.1186 C   0  0  0  0  0  0  0  0  0  0  0  0
  1  3  4  0
  1  7  4  0
  2  3  1  0
  2  6  4  0
  2 16  4  0
  3 22  4  0
  4  9  4  0
  4 10  1  0
  4 20  4  0
  5 16  4  0
  5 23  4  0
  6 15  4  0
  7 12  4  0
  8 13  4  0
  8 14  4  0
  9 11  4  0
 11 14  4  0
 11 19  4  0
 12 18  4  0
 13 21  4  0
 15 23  4  0
 17 19  4  0
 17 20  4  0
 18 22  4  0
 19 21  4  0
M  END
$$$$

 Created by Python create_sdf_string function

 23 25  0  0  0  0  0  0  0  0999 V2000
    2.4610   -5.3070   29.1240 C   0  0  0  0  0  0  0  0  0  0  0  0
    4.7710   -4.6952   28.4803 C   0  0  0  0  0  0  0  0  0  0  0  0
    3.4047   -5.1087   28.1314 C   0  0  0  0  0  0  0  0  0  0  0  0
   -0.2234  -11.8615   16.8874 C   0  0  0  0  0  0  0  0  0  0  0  0
    6.4491   -4.1532   30.1213 C   0  0  0  0  0  0  0  0  0  0  0  0
    5.7060   -4.4340   27.4975 C   0  0  0  0  0  0  0  0  0  0  0  0
    1.1818   -5.6612   28.8399 C   0  0  0  0  0  0  0  0  0  0  0  0
   -1.2067   -7.3287   17.7772 C   0  0  0  0  0  0  0  0  0  0  0  0
   -0.0206  -10.5585   16.6210 C   0  0  0  0  0  0  0  0  0  0  0  0
    0.3696  -12.7626   16.2169 O   0  0  0  0  0  0  0  0  0  0  0  0
   -0.6895   -9.5676   17.3297 C   0  0  0  0  0  0  0  0  0  0  0  0
    0.8388   -5.8417   27.5264 C   0  0  0  0  0  0  0  0  0  0  0  0
   -2.0709   -7.6637   18.7817 C   0  0  0  0  0  0  0  0  0  0  0  0
   -0.5279   -8.2168   17.0717 C   0  0  0  0  0  0  0  0  0  0  0  0
    6.9694   -4.0191   27.8190 C   0  0  0  0  0  0  0  0  0  0  0  0
    5.1733   -4.5469   29.8123 C   0  0  0  0  0  0  0  0  0  0  0  0
   -1.7508  -11.3016   18.6072 C   0  0  0  0  0  0  0  0  0  0  0  0
    1.7497   -5.6771   26.4971 C   0  0  0  0  0  0  0  0  0  0  0  0
   -1.5799   -9.9322   18.3468 C   0  0  0  0  0  0  0  0  0  0  0  0
   -1.0871  -12.2214   17.8851 C   0  0  0  0  0  0  0  0  0  0  0  0
   -2.2706   -8.9669   19.0691 C   0  0  0  0  0  0  0  0  0  0  0  0
    3.0279   -5.3073   26.8197 C   0  0  0  0  0  0  0  0  0  0  0  0
    7.3282   -3.8948   29.1186 C   0  0  0  0  0  0  0  0  0  0  0  0
  1  3  4  0
  1  7  4  0
  2  3  1  0
  2  6  4  0
  2 16  4  0
  3 22  4  0
  4  9  4  0
  4 10  1  0
  4 20  4  0
  5 16  4  0
  5 23  4  0
  6 15  4  0
  7 12  4  0
  8 13  4  0
  8 14  4  0
  9 11  4  0
 11 14  4  0
 11 19  4  0
 12 18  4  0
 13 21  4  0
 15 23  4  0
 17 19  4  0
 17 20  4  0
 18 22  4  0
 19 21  4  0
M  END
$$$$

 Created by Python create_sdf_string function

 23 25  0  0  0  0  0  0  0  0999 V2000
    2.4610   -5.3070   29.1240 C   0  0  0  0  0  0  0  0  0  0  0  0
    4.7710   -4.6952   28.4803 C   0  0  0  0  0  0  0  0  0  0  0  0
    3.4047   -5.1087   28.1314 C   0  0  0  0  0  0  0  0  0  0  0  0
   -0.2234  -11.8615   16.8874 C   0  0  0  0  0  0  0  0  0  0  0  0
    6.4491   -4.1532   30.1213 C   0  0  0  0  0  0  0  0  0  0  0  0
    5.7060   -4.4340   27.4975 C   0  0  0  0  0  0  0  0  0  0  0  0
    1.1818   -5.6612   28.8399 C   0  0  0  0  0  0  0  0  0  0  0  0
   -1.2067   -7.3287   17.7772 C   0  0  0  0  0  0  0  0  0  0  0  0
   -0.0206  -10.5585   16.6210 C   0  0  0  0  0  0  0  0  0  0  0  0
    0.3696  -12.7626   16.2169 O   0  0  0  0  0  0  0  0  0  0  0  0
   -0.6895   -9.5676   17.3297 C   0  0  0  0  0  0  0  0  0  0  0  0
    0.8388   -5.8417   27.5264 C   0  0  0  0  0  0  0  0  0  0  0  0
   -2.0709   -7.6637   18.7817 C   0  0  0  0  0  0  0  0  0  0  0  0
   -0.5279   -8.2168   17.0717 C   0  0  0  0  0  0  0  0  0  0  0  0
    6.9694   -4.0191   27.8190 C   0  0  0  0  0  0  0  0  0  0  0  0
    5.1733   -4.5469   29.8123 C   0  0  0  0  0  0  0  0  0  0  0  0
   -1.7508  -11.3016   18.6072 C   0  0  0  0  0  0  0  0  0  0  0  0
    1.7497   -5.6771   26.4971 C   0  0  0  0  0  0  0  0  0  0  0  0
   -1.5799   -9.9322   18.3468 C   0  0  0  0  0  0  0  0  0  0  0  0
   -1.0871  -12.2214   17.8851 C   0  0  0  0  0  0  0  0  0  0  0  0
   -2.2706   -8.9669   19.0691 C   0  0  0  0  0  0  0  0  0  0  0  0
    3.0279   -5.3073   26.8197 C   0  0  0  0  0  0  0  0  0  0  0  0
    7.3282   -3.8948   29.1186 C   0  0  0  0  0  0  0  0  0  0  0  0
  1  3  4  0
  1  7  4  0
  2  3  1  0
  2  6  4  0
  2 16  4  0
  3 22  4  0
  4  9  4  0
  4 10  1  0
  4 20  4  0
  5 16  4  0
  5 23  4  0
  6 15  4  0
  7 12  4  0
  8 13  4  0
  8 14  4  0
  9 11  4  0
 11 14  4  0
 11 19  4  0
 12 18  4  0
 13 21  4  0
 15 23  4  0
 17 19  4  0
 17 20  4  0
 18 22  4  0
 19 21  4  0
M  END
$$$$

 Created by Python create_sdf_string function

 23 25  0  0  0  0  0  0  0  0999 V2000
    2.4610   -5.3070   29.1240 C   0  0  0  0  0  0  0  0  0  0  0  0
    4.7710   -4.6952   28.4803 C   0  0  0  0  0  0  0  0  0  0  0  0
    3.4047   -5.1087   28.1314 C   0  0  0  0  0  0  0  0  0  0  0  0
   -0.2234  -11.8615   16.8874 C   0  0  0  0  0  0  0  0  0  0  0  0
    6.4491   -4.1532   30.1213 C   0  0  0  0  0  0  0  0  0  0  0  0
    5.7060   -4.4340   27.4975 C   0  0  0  0  0  0  0  0  0  0  0  0
    1.1818   -5.6612   28.8399 C   0  0  0  0  0  0  0  0  0  0  0  0
   -1.2067   -7.3287   17.7772 C   0  0  0  0  0  0  0  0  0  0  0  0
   -0.0206  -10.5585   16.6210 C   0  0  0  0  0  0  0  0  0  0  0  0
    0.3696  -12.7626   16.2169 O   0  0  0  0  0  0  0  0  0  0  0  0
   -0.6895   -9.5676   17.3297 C   0  0  0  0  0  0  0  0  0  0  0  0
    0.8388   -5.8417   27.5264 C   0  0  0  0  0  0  0  0  0  0  0  0
   -2.0709   -7.6637   18.7817 C   0  0  0  0  0  0  0  0  0  0  0  0
   -0.5279   -8.2168   17.0717 C   0  0  0  0  0  0  0  0  0  0  0  0
    6.9694   -4.0191   27.8190 C   0  0  0  0  0  0  0  0  0  0  0  0
    5.1733   -4.5469   29.8123 C   0  0  0  0  0  0  0  0  0  0  0  0
   -1.7508  -11.3016   18.6072 C   0  0  0  0  0  0  0  0  0  0  0  0
    1.7497   -5.6771   26.4971 C   0  0  0  0  0  0  0  0  0  0  0  0
   -1.5799   -9.9322   18.3468 C   0  0  0  0  0  0  0  0  0  0  0  0
   -1.0871  -12.2214   17.8851 C   0  0  0  0  0  0  0  0  0  0  0  0
   -2.2706   -8.9669   19.0691 C   0  0  0  0  0  0  0  0  0  0  0  0
    3.0279   -5.3073   26.8197 C   0  0  0  0  0  0  0  0  0  0  0  0
    7.3282   -3.8948   29.1186 C   0  0  0  0  0  0  0  0  0  0  0  0
  1  3  4  0
  1  7  4  0
  2  3  1  0
  2  6  4  0
  2 16  4  0
  3 22  4  0
  4  9  4  0
  4 10  1  0
  4 20  4  0
  5 16  4  0
  5 23  4  0
  6 15  4  0
  7 12  4  0
  8 13  4  0
  8 14  4  0
  9 11  4  0
 11 14  4  0
 11 19  4  0
 12 18  4  0
 13 21  4  0
 15 23  4  0
 17 19  4  0
 17 20  4  0
 18 22  4  0
 19 21  4  0
M  END
$$$$

 Created by Python create_sdf_string function

 23 25  0  0  0  0  0  0  0  0999 V2000
    2.4610   -5.3070   29.1240 C   0  0  0  0  0  0  0  0  0  0  0  0
    4.7710   -4.6952   28.4803 C   0  0  0  0  0  0  0  0  0  0  0  0
    3.4047   -5.1087   28.1314 C   0  0  0  0  0  0  0  0  0  0  0  0
   -0.2234  -11.8615   16.8874 C   0  0  0  0  0  0  0  0  0  0  0  0
    6.4491   -4.1532   30.1213 C   0  0  0  0  0  0  0  0  0  0  0  0
    5.7060   -4.4340   27.4975 C   0  0  0  0  0  0  0  0  0  0  0  0
    1.1818   -5.6612   28.8399 C   0  0  0  0  0  0  0  0  0  0  0  0
   -1.2067   -7.3287   17.7772 C   0  0  0  0  0  0  0  0  0  0  0  0
   -0.0206  -10.5585   16.6210 C   0  0  0  0  0  0  0  0  0  0  0  0
    0.3696  -12.7626   16.2169 O   0  0  0  0  0  0  0  0  0  0  0  0
   -0.6895   -9.5676   17.3297 C   0  0  0  0  0  0  0  0  0  0  0  0
    0.8388   -5.8417   27.5264 C   0  0  0  0  0  0  0  0  0  0  0  0
   -2.0709   -7.6637   18.7817 C   0  0  0  0  0  0  0  0  0  0  0  0
   -0.5279   -8.2168   17.0717 C   0  0  0  0  0  0  0  0  0  0  0  0
    6.9694   -4.0191   27.8190 C   0  0  0  0  0  0  0  0  0  0  0  0
    5.1733   -4.5469   29.8123 C   0  0  0  0  0  0  0  0  0  0  0  0
   -1.7508  -11.3016   18.6072 C   0  0  0  0  0  0  0  0  0  0  0  0
    1.7497   -5.6771   26.4971 C   0  0  0  0  0  0  0  0  0  0  0  0
   -1.5799   -9.9322   18.3468 C   0  0  0  0  0  0  0  0  0  0  0  0
   -1.0871  -12.2214   17.8851 C   0  0  0  0  0  0  0  0  0  0  0  0
   -2.2706   -8.9669   19.0691 C   0  0  0  0  0  0  0  0  0  0  0  0
    3.0279   -5.3073   26.8197 C   0  0  0  0  0  0  0  0  0  0  0  0
    7.3282   -3.8948   29.1186 C   0  0  0  0  0  0  0  0  0  0  0  0
  1  3  4  0
  1  7  4  0
  2  3  1  0
  2  6  4  0
  2 16  4  0
  3 22  4  0
  4  9  4  0
  4 10  1  0
  4 20  4  0
  5 16  4  0
  5 23  4  0
  6 15  4  0
  7 12  4  0
  8 13  4  0
  8 14  4  0
  9 11  4  0
 11 14  4  0
 11 19  4  0
 12 18  4  0
 13 21  4  0
 15 23  4  0
 17 19  4  0
 17 20  4  0
 18 22  4  0
 19 21  4  0
M  END
$$$$

 Created by Python create_sdf_string function

 23 25  0  0  0  0  0  0  0  0999 V2000
    2.4610   -5.3070   29.1240 C   0  0  0  0  0  0  0  0  0  0  0  0
    4.7710   -4.6952   28.4803 C   0  0  0  0  0  0  0  0  0  0  0  0
    3.4047   -5.1087   28.1314 C   0  0  0  0  0  0  0  0  0  0  0  0
   -0.2234  -11.8615   16.8874 C   0  0  0  0  0  0  0  0  0  0  0  0
    6.4491   -4.1532   30.1213 C   0  0  0  0  0  0  0  0  0  0  0  0
    5.7060   -4.4340   27.4975 C   0  0  0  0  0  0  0  0  0  0  0  0
    1.1818   -5.6612   28.8399 C   0  0  0  0  0  0  0  0  0  0  0  0
   -1.2067   -7.3287   17.7772 C   0  0  0  0  0  0  0  0  0  0  0  0
   -0.0206  -10.5585   16.6210 C   0  0  0  0  0  0  0  0  0  0  0  0
    0.3696  -12.7626   16.2169 O   0  0  0  0  0  0  0  0  0  0  0  0
   -0.6895   -9.5676   17.3297 C   0  0  0  0  0  0  0  0  0  0  0  0
    0.8388   -5.8417   27.5264 C   0  0  0  0  0  0  0  0  0  0  0  0
   -2.0709   -7.6637   18.7817 C   0  0  0  0  0  0  0  0  0  0  0  0
   -0.5279   -8.2168   17.0717 C   0  0  0  0  0  0  0  0  0  0  0  0
    6.9694   -4.0191   27.8190 C   0  0  0  0  0  0  0  0  0  0  0  0
    5.1733   -4.5469   29.8123 C   0  0  0  0  0  0  0  0  0  0  0  0
   -1.7508  -11.3016   18.6072 C   0  0  0  0  0  0  0  0  0  0  0  0
    1.7497   -5.6771   26.4971 C   0  0  0  0  0  0  0  0  0  0  0  0
   -1.5799   -9.9322   18.3468 C   0  0  0  0  0  0  0  0  0  0  0  0
   -1.0871  -12.2214   17.8851 C   0  0  0  0  0  0  0  0  0  0  0  0
   -2.2706   -8.9669   19.0691 C   0  0  0  0  0  0  0  0  0  0  0  0
    3.0279   -5.3073   26.8197 C   0  0  0  0  0  0  0  0  0  0  0  0
    7.3282   -3.8948   29.1186 C   0  0  0  0  0  0  0  0  0  0  0  0
  1  3  4  0
  1  7  4  0
  2  3  1  0
  2  6  4  0
  2 16  4  0
  3 22  4  0
  4  9  4  0
  4 10  1  0
  4 20  4  0
  5 16  4  0
  5 23  4  0
  6 15  4  0
  7 12  4  0
  8 13  4  0
  8 14  4  0
  9 11  4  0
 11 14  4  0
 11 19  4  0
 12 18  4  0
 13 21  4  0
 15 23  4  0
 17 19  4  0
 17 20  4  0
 18 22  4  0
 19 21  4  0
M  END
$$$$

 Created by Python create_sdf_string function

 23 25  0  0  0  0  0  0  0  0999 V2000
    2.4610   -5.3070   29.1240 C   0  0  0  0  0  0  0  0  0  0  0  0
    4.7710   -4.6952   28.4803 C   0  0  0  0  0  0  0  0  0  0  0  0
    3.4047   -5.1087   28.1314 C   0  0  0  0  0  0  0  0  0  0  0  0
   -0.2234  -11.8615   16.8874 C   0  0  0  0  0  0  0  0  0  0  0  0
    6.4491   -4.1532   30.1213 C   0  0  0  0  0  0  0  0  0  0  0  0
    5.7060   -4.4340   27.4975 C   0  0  0  0  0  0  0  0  0  0  0  0
    1.1818   -5.6612   28.8399 C   0  0  0  0  0  0  0  0  0  0  0  0
   -1.2067   -7.3287   17.7772 C   0  0  0  0  0  0  0  0  0  0  0  0
   -0.0206  -10.5585   16.6210 C   0  0  0  0  0  0  0  0  0  0  0  0
    0.3696  -12.7626   16.2169 O   0  0  0  0  0  0  0  0  0  0  0  0
   -0.6895   -9.5676   17.3297 C   0  0  0  0  0  0  0  0  0  0  0  0
    0.8388   -5.8417   27.5264 C   0  0  0  0  0  0  0  0  0  0  0  0
   -2.0709   -7.6637   18.7817 C   0  0  0  0  0  0  0  0  0  0  0  0
   -0.5279   -8.2168   17.0717 C   0  0  0  0  0  0  0  0  0  0  0  0
    6.9694   -4.0191   27.8190 C   0  0  0  0  0  0  0  0  0  0  0  0
    5.1733   -4.5469   29.8123 C   0  0  0  0  0  0  0  0  0  0  0  0
   -1.7508  -11.3016   18.6072 C   0  0  0  0  0  0  0  0  0  0  0  0
    1.7497   -5.6771   26.4971 C   0  0  0  0  0  0  0  0  0  0  0  0
   -1.5799   -9.9322   18.3468 C   0  0  0  0  0  0  0  0  0  0  0  0
   -1.0871  -12.2214   17.8851 C   0  0  0  0  0  0  0  0  0  0  0  0
   -2.2706   -8.9669   19.0691 C   0  0  0  0  0  0  0  0  0  0  0  0
    3.0279   -5.3073   26.8197 C   0  0  0  0  0  0  0  0  0  0  0  0
    7.3282   -3.8948   29.1186 C   0  0  0  0  0  0  0  0  0  0  0  0
  1  3  4  0
  1  7  4  0
  2  3  1  0
  2  6  4  0
  2 16  4  0
  3 22  4  0
  4  9  4  0
  4 10  1  0
  4 20  4  0
  5 16  4  0
  5 23  4  0
  6 15  4  0
  7 12  4  0
  8 13  4  0
  8 14  4  0
  9 11  4  0
 11 14  4  0
 11 19  4  0
 12 18  4  0
 13 21  4  0
 15 23  4  0
 17 19  4  0
 17 20  4  0
 18 22  4  0
 19 21  4  0
M  END
$$$$

 Created by Python create_sdf_string function

 23 25  0  0  0  0  0  0  0  0999 V2000
    2.4610   -5.3070   29.1240 C   0  0  0  0  0  0  0  0  0  0  0  0
    4.7710   -4.6952   28.4803 C   0  0  0  0  0  0  0  0  0  0  0  0
    3.4047   -5.1087   28.1314 C   0  0  0  0  0  0  0  0  0  0  0  0
   -0.2234  -11.8615   16.8874 C   0  0  0  0  0  0  0  0  0  0  0  0
    6.4491   -4.1532   30.1213 C   0  0  0  0  0  0  0  0  0  0  0  0
    5.7060   -4.4340   27.4975 C   0  0  0  0  0  0  0  0  0  0  0  0
    1.1818   -5.6612   28.8399 C   0  0  0  0  0  0  0  0  0  0  0  0
   -1.2067   -7.3287   17.7772 C   0  0  0  0  0  0  0  0  0  0  0  0
   -0.0206  -10.5585   16.6210 C   0  0  0  0  0  0  0  0  0  0  0  0
    0.3696  -12.7626   16.2169 O   0  0  0  0  0  0  0  0  0  0  0  0
   -0.6895   -9.5676   17.3297 C   0  0  0  0  0  0  0  0  0  0  0  0
    0.8388   -5.8417   27.5264 C   0  0  0  0  0  0  0  0  0  0  0  0
   -2.0709   -7.6637   18.7817 C   0  0  0  0  0  0  0  0  0  0  0  0
   -0.5279   -8.2168   17.0717 C   0  0  0  0  0  0  0  0  0  0  0  0
    6.9694   -4.0191   27.8190 C   0  0  0  0  0  0  0  0  0  0  0  0
    5.1733   -4.5469   29.8123 C   0  0  0  0  0  0  0  0  0  0  0  0
   -1.7508  -11.3016   18.6072 C   0  0  0  0  0  0  0  0  0  0  0  0
    1.7497   -5.6771   26.4971 C   0  0  0  0  0  0  0  0  0  0  0  0
   -1.5799   -9.9322   18.3468 C   0  0  0  0  0  0  0  0  0  0  0  0
   -1.0871  -12.2214   17.8851 C   0  0  0  0  0  0  0  0  0  0  0  0
   -2.2706   -8.9669   19.0691 C   0  0  0  0  0  0  0  0  0  0  0  0
    3.0279   -5.3073   26.8197 C   0  0  0  0  0  0  0  0  0  0  0  0
    7.3282   -3.8948   29.1186 C   0  0  0  0  0  0  0  0  0  0  0  0
  1  3  4  0
  1  7  4  0
  2  3  1  0
  2  6  4  0
  2 16  4  0
  3 22  4  0
  4  9  4  0
  4 10  1  0
  4 20  4  0
  5 16  4  0
  5 23  4  0
  6 15  4  0
  7 12  4  0
  8 13  4  0
  8 14  4  0
  9 11  4  0
 11 14  4  0
 11 19  4  0
 12 18  4  0
 13 21  4  0
 15 23  4  0
 17 19  4  0
 17 20  4  0
 18 22  4  0
 19 21  4  0
M  END
$$$$

 Created by Python create_sdf_string function

 23 25  0  0  0  0  0  0  0  0999 V2000
    2.4610   -5.3070   29.1240 C   0  0  0  0  0  0  0  0  0  0  0  0
    4.7710   -4.6952   28.4803 C   0  0  0  0  0  0  0  0  0  0  0  0
    3.4047   -5.1087   28.1314 C   0  0  0  0  0  0  0  0  0  0  0  0
   -0.2234  -11.8615   16.8874 C   0  0  0  0  0  0  0  0  0  0  0  0
    6.4491   -4.1532   30.1213 C   0  0  0  0  0  0  0  0  0  0  0  0
    5.7060   -4.4340   27.4975 C   0  0  0  0  0  0  0  0  0  0  0  0
    1.1818   -5.6612   28.8399 C   0  0  0  0  0  0  0  0  0  0  0  0
   -1.2067   -7.3287   17.7772 C   0  0  0  0  0  0  0  0  0  0  0  0
   -0.0206  -10.5585   16.6210 C   0  0  0  0  0  0  0  0  0  0  0  0
    0.3696  -12.7626   16.2169 O   0  0  0  0  0  0  0  0  0  0  0  0
   -0.6895   -9.5676   17.3297 C   0  0  0  0  0  0  0  0  0  0  0  0
    0.8388   -5.8417   27.5264 C   0  0  0  0  0  0  0  0  0  0  0  0
   -2.0709   -7.6637   18.7817 C   0  0  0  0  0  0  0  0  0  0  0  0
   -0.5279   -8.2168   17.0717 C   0  0  0  0  0  0  0  0  0  0  0  0
    6.9694   -4.0191   27.8190 C   0  0  0  0  0  0  0  0  0  0  0  0
    5.1733   -4.5469   29.8123 C   0  0  0  0  0  0  0  0  0  0  0  0
   -1.7508  -11.3016   18.6072 C   0  0  0  0  0  0  0  0  0  0  0  0
    1.7497   -5.6771   26.4971 C   0  0  0  0  0  0  0  0  0  0  0  0
   -1.5799   -9.9322   18.3468 C   0  0  0  0  0  0  0  0  0  0  0  0
   -1.0871  -12.2214   17.8851 C   0  0  0  0  0  0  0  0  0  0  0  0
   -2.2706   -8.9669   19.0691 C   0  0  0  0  0  0  0  0  0  0  0  0
    3.0279   -5.3073   26.8197 C   0  0  0  0  0  0  0  0  0  0  0  0
    7.3282   -3.8948   29.1186 C   0  0  0  0  0  0  0  0  0  0  0  0
  1  3  4  0
  1  7  4  0
  2  3  1  0
  2  6  4  0
  2 16  4  0
  3 22  4  0
  4  9  4  0
  4 10  1  0
  4 20  4  0
  5 16  4  0
  5 23  4  0
  6 15  4  0
  7 12  4  0
  8 13  4  0
  8 14  4  0
  9 11  4  0
 11 14  4  0
 11 19  4  0
 12 18  4  0
 13 21  4  0
 15 23  4  0
 17 19  4  0
 17 20  4  0
 18 22  4  0
 19 21  4  0
M  END
$$$$

 Created by Python create_sdf_string function

 23 25  0  0  0  0  0  0  0  0999 V2000
    2.4610   -5.3070   29.1240 C   0  0  0  0  0  0  0  0  0  0  0  0
    4.7710   -4.6952   28.4803 C   0  0  0  0  0  0  0  0  0  0  0  0
    3.4047   -5.1087   28.1314 C   0  0  0  0  0  0  0  0  0  0  0  0
   -0.2234  -11.8615   16.8874 C   0  0  0  0  0  0  0  0  0  0  0  0
    6.4491   -4.1532   30.1213 C   0  0  0  0  0  0  0  0  0  0  0  0
    5.7060   -4.4340   27.4975 C   0  0  0  0  0  0  0  0  0  0  0  0
    1.1818   -5.6612   28.8399 C   0  0  0  0  0  0  0  0  0  0  0  0
   -1.2067   -7.3287   17.7772 C   0  0  0  0  0  0  0  0  0  0  0  0
   -0.0206  -10.5585   16.6210 C   0  0  0  0  0  0  0  0  0  0  0  0
    0.3696  -12.7626   16.2169 O   0  0  0  0  0  0  0  0  0  0  0  0
   -0.6895   -9.5676   17.3297 C   0  0  0  0  0  0  0  0  0  0  0  0
    0.8388   -5.8417   27.5264 C   0  0  0  0  0  0  0  0  0  0  0  0
   -2.0709   -7.6637   18.7817 C   0  0  0  0  0  0  0  0  0  0  0  0
   -0.5279   -8.2168   17.0717 C   0  0  0  0  0  0  0  0  0  0  0  0
    6.9694   -4.0191   27.8190 C   0  0  0  0  0  0  0  0  0  0  0  0
    5.1733   -4.5469   29.8123 C   0  0  0  0  0  0  0  0  0  0  0  0
   -1.7508  -11.3016   18.6072 C   0  0  0  0  0  0  0  0  0  0  0  0
    1.7497   -5.6771   26.4971 C   0  0  0  0  0  0  0  0  0  0  0  0
   -1.5799   -9.9322   18.3468 C   0  0  0  0  0  0  0  0  0  0  0  0
   -1.0871  -12.2214   17.8851 C   0  0  0  0  0  0  0  0  0  0  0  0
   -2.2706   -8.9669   19.0691 C   0  0  0  0  0  0  0  0  0  0  0  0
    3.0279   -5.3073   26.8197 C   0  0  0  0  0  0  0  0  0  0  0  0
    7.3282   -3.8948   29.1186 C   0  0  0  0  0  0  0  0  0  0  0  0
  1  3  4  0
  1  7  4  0
  2  3  1  0
  2  6  4  0
  2 16  4  0
  3 22  4  0
  4  9  4  0
  4 10  1  0
  4 20  4  0
  5 16  4  0
  5 23  4  0
  6 15  4  0
  7 12  4  0
  8 13  4  0
  8 14  4  0
  9 11  4  0
 11 14  4  0
 11 19  4  0
 12 18  4  0
 13 21  4  0
 15 23  4  0
 17 19  4  0
 17 20  4  0
 18 22  4  0
 19 21  4  0
M  END
$$$$

 Created by Python create_sdf_string function

 23 25  0  0  0  0  0  0  0  0999 V2000
    2.4610   -5.3070   29.1240 C   0  0  0  0  0  0  0  0  0  0  0  0
    4.7710   -4.6952   28.4803 C   0  0  0  0  0  0  0  0  0  0  0  0
    3.4047   -5.1087   28.1314 C   0  0  0  0  0  0  0  0  0  0  0  0
   -0.2234  -11.8615   16.8874 C   0  0  0  0  0  0  0  0  0  0  0  0
    6.4491   -4.1532   30.1213 C   0  0  0  0  0  0  0  0  0  0  0  0
    5.7060   -4.4340   27.4975 C   0  0  0  0  0  0  0  0  0  0  0  0
    1.1818   -5.6612   28.8399 C   0  0  0  0  0  0  0  0  0  0  0  0
   -1.2067   -7.3287   17.7772 C   0  0  0  0  0  0  0  0  0  0  0  0
   -0.0206  -10.5585   16.6210 C   0  0  0  0  0  0  0  0  0  0  0  0
    0.3696  -12.7626   16.2169 O   0  0  0  0  0  0  0  0  0  0  0  0
   -0.6895   -9.5676   17.3297 C   0  0  0  0  0  0  0  0  0  0  0  0
    0.8388   -5.8417   27.5264 C   0  0  0  0  0  0  0  0  0  0  0  0
   -2.0709   -7.6637   18.7817 C   0  0  0  0  0  0  0  0  0  0  0  0
   -0.5279   -8.2168   17.0717 C   0  0  0  0  0  0  0  0  0  0  0  0
    6.9694   -4.0191   27.8190 C   0  0  0  0  0  0  0  0  0  0  0  0
    5.1733   -4.5469   29.8123 C   0  0  0  0  0  0  0  0  0  0  0  0
   -1.7508  -11.3016   18.6072 C   0  0  0  0  0  0  0  0  0  0  0  0
    1.7497   -5.6771   26.4971 C   0  0  0  0  0  0  0  0  0  0  0  0
   -1.5799   -9.9322   18.3468 C   0  0  0  0  0  0  0  0  0  0  0  0
   -1.0871  -12.2214   17.8851 C   0  0  0  0  0  0  0  0  0  0  0  0
   -2.2706   -8.9669   19.0691 C   0  0  0  0  0  0  0  0  0  0  0  0
    3.0279   -5.3073   26.8197 C   0  0  0  0  0  0  0  0  0  0  0  0
    7.3282   -3.8948   29.1186 C   0  0  0  0  0  0  0  0  0  0  0  0
  1  3  4  0
  1  7  4  0
  2  3  1  0
  2  6  4  0
  2 16  4  0
  3 22  4  0
  4  9  4  0
  4 10  1  0
  4 20  4  0
  5 16  4  0
  5 23  4  0
  6 15  4  0
  7 12  4  0
  8 13  4  0
  8 14  4  0
  9 11  4  0
 11 14  4  0
 11 19  4  0
 12 18  4  0
 13 21  4  0
 15 23  4  0
 17 19  4  0
 17 20  4  0
 18 22  4  0
 19 21  4  0
M  END
$$$$

 Created by Python create_sdf_string function

 23 25  0  0  0  0  0  0  0  0999 V2000
    2.4610   -5.3070   29.1240 C   0  0  0  0  0  0  0  0  0  0  0  0
    4.7710   -4.6952   28.4803 C   0  0  0  0  0  0  0  0  0  0  0  0
    3.4047   -5.1087   28.1314 C   0  0  0  0  0  0  0  0  0  0  0  0
   -0.2234  -11.8615   16.8874 C   0  0  0  0  0  0  0  0  0  0  0  0
    6.4491   -4.1532   30.1213 C   0  0  0  0  0  0  0  0  0  0  0  0
    5.7060   -4.4340   27.4975 C   0  0  0  0  0  0  0  0  0  0  0  0
    1.1818   -5.6612   28.8399 C   0  0  0  0  0  0  0  0  0  0  0  0
   -1.2067   -7.3287   17.7772 C   0  0  0  0  0  0  0  0  0  0  0  0
   -0.0206  -10.5585   16.6210 C   0  0  0  0  0  0  0  0  0  0  0  0
    0.3696  -12.7626   16.2169 O   0  0  0  0  0  0  0  0  0  0  0  0
   -0.6895   -9.5676   17.3297 C   0  0  0  0  0  0  0  0  0  0  0  0
    0.8388   -5.8417   27.5264 C   0  0  0  0  0  0  0  0  0  0  0  0
   -2.0709   -7.6637   18.7817 C   0  0  0  0  0  0  0  0  0  0  0  0
   -0.5279   -8.2168   17.0717 C   0  0  0  0  0  0  0  0  0  0  0  0
    6.9694   -4.0191   27.8190 C   0  0  0  0  0  0  0  0  0  0  0  0
    5.1733   -4.5469   29.8123 C   0  0  0  0  0  0  0  0  0  0  0  0
   -1.7508  -11.3016   18.6072 C   0  0  0  0  0  0  0  0  0  0  0  0
    1.7497   -5.6771   26.4971 C   0  0  0  0  0  0  0  0  0  0  0  0
   -1.5799   -9.9322   18.3468 C   0  0  0  0  0  0  0  0  0  0  0  0
   -1.0871  -12.2214   17.8851 C   0  0  0  0  0  0  0  0  0  0  0  0
   -2.2706   -8.9669   19.0691 C   0  0  0  0  0  0  0  0  0  0  0  0
    3.0279   -5.3073   26.8197 C   0  0  0  0  0  0  0  0  0  0  0  0
    7.3282   -3.8948   29.1186 C   0  0  0  0  0  0  0  0  0  0  0  0
  1  3  4  0
  1  7  4  0
  2  3  1  0
  2  6  4  0
  2 16  4  0
  3 22  4  0
  4  9  4  0
  4 10  1  0
  4 20  4  0
  5 16  4  0
  5 23  4  0
  6 15  4  0
  7 12  4  0
  8 13  4  0
  8 14  4  0
  9 11  4  0
 11 14  4  0
 11 19  4  0
 12 18  4  0
 13 21  4  0
 15 23  4  0
 17 19  4  0
 17 20  4  0
 18 22  4  0
 19 21  4  0
M  END
$$$$

 Created by Python create_sdf_string function

 23 25  0  0  0  0  0  0  0  0999 V2000
    2.4610   -5.3070   29.1240 C   0  0  0  0  0  0  0  0  0  0  0  0
    4.7710   -4.6952   28.4803 C   0  0  0  0  0  0  0  0  0  0  0  0
    3.4047   -5.1087   28.1314 C   0  0  0  0  0  0  0  0  0  0  0  0
   -0.2234  -11.8615   16.8874 C   0  0  0  0  0  0  0  0  0  0  0  0
    6.4491   -4.1532   30.1213 C   0  0  0  0  0  0  0  0  0  0  0  0
    5.7060   -4.4340   27.4975 C   0  0  0  0  0  0  0  0  0  0  0  0
    1.1818   -5.6612   28.8399 C   0  0  0  0  0  0  0  0  0  0  0  0
   -1.2067   -7.3287   17.7772 C   0  0  0  0  0  0  0  0  0  0  0  0
   -0.0206  -10.5585   16.6210 C   0  0  0  0  0  0  0  0  0  0  0  0
    0.3696  -12.7626   16.2169 O   0  0  0  0  0  0  0  0  0  0  0  0
   -0.6895   -9.5676   17.3297 C   0  0  0  0  0  0  0  0  0  0  0  0
    0.8388   -5.8417   27.5264 C   0  0  0  0  0  0  0  0  0  0  0  0
   -2.0709   -7.6637   18.7817 C   0  0  0  0  0  0  0  0  0  0  0  0
   -0.5279   -8.2168   17.0717 C   0  0  0  0  0  0  0  0  0  0  0  0
    6.9694   -4.0191   27.8190 C   0  0  0  0  0  0  0  0  0  0  0  0
    5.1733   -4.5469   29.8123 C   0  0  0  0  0  0  0  0  0  0  0  0
   -1.7508  -11.3016   18.6072 C   0  0  0  0  0  0  0  0  0  0  0  0
    1.7497   -5.6771   26.4971 C   0  0  0  0  0  0  0  0  0  0  0  0
   -1.5799   -9.9322   18.3468 C   0  0  0  0  0  0  0  0  0  0  0  0
   -1.0871  -12.2214   17.8851 C   0  0  0  0  0  0  0  0  0  0  0  0
   -2.2706   -8.9669   19.0691 C   0  0  0  0  0  0  0  0  0  0  0  0
    3.0279   -5.3073   26.8197 C   0  0  0  0  0  0  0  0  0  0  0  0
    7.3282   -3.8948   29.1186 C   0  0  0  0  0  0  0  0  0  0  0  0
  1  3  4  0
  1  7  4  0
  2  3  1  0
  2  6  4  0
  2 16  4  0
  3 22  4  0
  4  9  4  0
  4 10  1  0
  4 20  4  0
  5 16  4  0
  5 23  4  0
  6 15  4  0
  7 12  4  0
  8 13  4  0
  8 14  4  0
  9 11  4  0
 11 14  4  0
 11 19  4  0
 12 18  4  0
 13 21  4  0
 15 23  4  0
 17 19  4  0
 17 20  4  0
 18 22  4  0
 19 21  4  0
M  END
$$$$

 Created by Python create_sdf_string function

 23 25  0  0  0  0  0  0  0  0999 V2000
    2.4610   -5.3070   29.1240 C   0  0  0  0  0  0  0  0  0  0  0  0
    4.7710   -4.6952   28.4803 C   0  0  0  0  0  0  0  0  0  0  0  0
    3.4047   -5.1087   28.1314 C   0  0  0  0  0  0  0  0  0  0  0  0
   -0.2234  -11.8615   16.8874 C   0  0  0  0  0  0  0  0  0  0  0  0
    6.4491   -4.1532   30.1213 C   0  0  0  0  0  0  0  0  0  0  0  0
    5.7060   -4.4340   27.4975 C   0  0  0  0  0  0  0  0  0  0  0  0
    1.1818   -5.6612   28.8399 C   0  0  0  0  0  0  0  0  0  0  0  0
   -1.2067   -7.3287   17.7772 C   0  0  0  0  0  0  0  0  0  0  0  0
   -0.0206  -10.5585   16.6210 C   0  0  0  0  0  0  0  0  0  0  0  0
    0.3696  -12.7626   16.2169 O   0  0  0  0  0  0  0  0  0  0  0  0
   -0.6895   -9.5676   17.3297 C   0  0  0  0  0  0  0  0  0  0  0  0
    0.8388   -5.8417   27.5264 C   0  0  0  0  0  0  0  0  0  0  0  0
   -2.0709   -7.6637   18.7817 C   0  0  0  0  0  0  0  0  0  0  0  0
   -0.5279   -8.2168   17.0717 C   0  0  0  0  0  0  0  0  0  0  0  0
    6.9694   -4.0191   27.8190 C   0  0  0  0  0  0  0  0  0  0  0  0
    5.1733   -4.5469   29.8123 C   0  0  0  0  0  0  0  0  0  0  0  0
   -1.7508  -11.3016   18.6072 C   0  0  0  0  0  0  0  0  0  0  0  0
    1.7497   -5.6771   26.4971 C   0  0  0  0  0  0  0  0  0  0  0  0
   -1.5799   -9.9322   18.3468 C   0  0  0  0  0  0  0  0  0  0  0  0
   -1.0871  -12.2214   17.8851 C   0  0  0  0  0  0  0  0  0  0  0  0
   -2.2706   -8.9669   19.0691 C   0  0  0  0  0  0  0  0  0  0  0  0
    3.0279   -5.3073   26.8197 C   0  0  0  0  0  0  0  0  0  0  0  0
    7.3282   -3.8948   29.1186 C   0  0  0  0  0  0  0  0  0  0  0  0
  1  3  4  0
  1  7  4  0
  2  3  1  0
  2  6  4  0
  2 16  4  0
  3 22  4  0
  4  9  4  0
  4 10  1  0
  4 20  4  0
  5 16  4  0
  5 23  4  0
  6 15  4  0
  7 12  4  0
  8 13  4  0
  8 14  4  0
  9 11  4  0
 11 14  4  0
 11 19  4  0
 12 18  4  0
 13 21  4  0
 15 23  4  0
 17 19  4  0
 17 20  4  0
 18 22  4  0
 19 21  4  0
M  END
$$$$

 Created by Python create_sdf_string function

 23 25  0  0  0  0  0  0  0  0999 V2000
    2.4610   -5.3070   29.1240 C   0  0  0  0  0  0  0  0  0  0  0  0
    4.7710   -4.6952   28.4803 C   0  0  0  0  0  0  0  0  0  0  0  0
    3.4047   -5.1087   28.1314 C   0  0  0  0  0  0  0  0  0  0  0  0
   -0.2234  -11.8615   16.8874 C   0  0  0  0  0  0  0  0  0  0  0  0
    6.4491   -4.1532   30.1213 C   0  0  0  0  0  0  0  0  0  0  0  0
    5.7060   -4.4340   27.4975 C   0  0  0  0  0  0  0  0  0  0  0  0
    1.1818   -5.6612   28.8399 C   0  0  0  0  0  0  0  0  0  0  0  0
   -1.2067   -7.3287   17.7772 C   0  0  0  0  0  0  0  0  0  0  0  0
   -0.0206  -10.5585   16.6210 C   0  0  0  0  0  0  0  0  0  0  0  0
    0.3696  -12.7626   16.2169 O   0  0  0  0  0  0  0  0  0  0  0  0
   -0.6895   -9.5676   17.3297 C   0  0  0  0  0  0  0  0  0  0  0  0
    0.8388   -5.8417   27.5264 C   0  0  0  0  0  0  0  0  0  0  0  0
   -2.0709   -7.6637   18.7817 C   0  0  0  0  0  0  0  0  0  0  0  0
   -0.5279   -8.2168   17.0717 C   0  0  0  0  0  0  0  0  0  0  0  0
    6.9694   -4.0191   27.8190 C   0  0  0  0  0  0  0  0  0  0  0  0
    5.1733   -4.5469   29.8123 C   0  0  0  0  0  0  0  0  0  0  0  0
   -1.7508  -11.3016   18.6072 C   0  0  0  0  0  0  0  0  0  0  0  0
    1.7497   -5.6771   26.4971 C   0  0  0  0  0  0  0  0  0  0  0  0
   -1.5799   -9.9322   18.3468 C   0  0  0  0  0  0  0  0  0  0  0  0
   -1.0871  -12.2214   17.8851 C   0  0  0  0  0  0  0  0  0  0  0  0
   -2.2706   -8.9669   19.0691 C   0  0  0  0  0  0  0  0  0  0  0  0
    3.0279   -5.3073   26.8197 C   0  0  0  0  0  0  0  0  0  0  0  0
    7.3282   -3.8948   29.1186 C   0  0  0  0  0  0  0  0  0  0  0  0
  1  3  4  0
  1  7  4  0
  2  3  1  0
  2  6  4  0
  2 16  4  0
  3 22  4  0
  4  9  4  0
  4 10  1  0
  4 20  4  0
  5 16  4  0
  5 23  4  0
  6 15  4  0
  7 12  4  0
  8 13  4  0
  8 14  4  0
  9 11  4  0
 11 14  4  0
 11 19  4  0
 12 18  4  0
 13 21  4  0
 15 23  4  0
 17 19  4  0
 17 20  4  0
 18 22  4  0
 19 21  4  0
M  END
$$$$

 Created by Python create_sdf_string function

 23 25  0  0  0  0  0  0  0  0999 V2000
    2.4610   -5.3070   29.1240 C   0  0  0  0  0  0  0  0  0  0  0  0
    4.7710   -4.6952   28.4803 C   0  0  0  0  0  0  0  0  0  0  0  0
    3.4047   -5.1087   28.1314 C   0  0  0  0  0  0  0  0  0  0  0  0
   -0.2234  -11.8615   16.8874 C   0  0  0  0  0  0  0  0  0  0  0  0
    6.4491   -4.1532   30.1213 C   0  0  0  0  0  0  0  0  0  0  0  0
    5.7060   -4.4340   27.4975 C   0  0  0  0  0  0  0  0  0  0  0  0
    1.1818   -5.6612   28.8399 C   0  0  0  0  0  0  0  0  0  0  0  0
   -1.2067   -7.3287   17.7772 C   0  0  0  0  0  0  0  0  0  0  0  0
   -0.0206  -10.5585   16.6210 C   0  0  0  0  0  0  0  0  0  0  0  0
    0.3696  -12.7626   16.2169 O   0  0  0  0  0  0  0  0  0  0  0  0
   -0.6895   -9.5676   17.3297 C   0  0  0  0  0  0  0  0  0  0  0  0
    0.8388   -5.8417   27.5264 C   0  0  0  0  0  0  0  0  0  0  0  0
   -2.0709   -7.6637   18.7817 C   0  0  0  0  0  0  0  0  0  0  0  0
   -0.5279   -8.2168   17.0717 C   0  0  0  0  0  0  0  0  0  0  0  0
    6.9694   -4.0191   27.8190 C   0  0  0  0  0  0  0  0  0  0  0  0
    5.1733   -4.5469   29.8123 C   0  0  0  0  0  0  0  0  0  0  0  0
   -1.7508  -11.3016   18.6072 C   0  0  0  0  0  0  0  0  0  0  0  0
    1.7497   -5.6771   26.4971 C   0  0  0  0  0  0  0  0  0  0  0  0
   -1.5799   -9.9322   18.3468 C   0  0  0  0  0  0  0  0  0  0  0  0
   -1.0871  -12.2214   17.8851 C   0  0  0  0  0  0  0  0  0  0  0  0
   -2.2706   -8.9669   19.0691 C   0  0  0  0  0  0  0  0  0  0  0  0
    3.0279   -5.3073   26.8197 C   0  0  0  0  0  0  0  0  0  0  0  0
    7.3282   -3.8948   29.1186 C   0  0  0  0  0  0  0  0  0  0  0  0
  1  3  4  0
  1  7  4  0
  2  3  1  0
  2  6  4  0
  2 16  4  0
  3 22  4  0
  4  9  4  0
  4 10  1  0
  4 20  4  0
  5 16  4  0
  5 23  4  0
  6 15  4  0
  7 12  4  0
  8 13  4  0
  8 14  4  0
  9 11  4  0
 11 14  4  0
 11 19  4  0
 12 18  4  0
 13 21  4  0
 15 23  4  0
 17 19  4  0
 17 20  4  0
 18 22  4  0
 19 21  4  0
M  END
$$$$

 Created by Python create_sdf_string function

 23 25  0  0  0  0  0  0  0  0999 V2000
    2.4610   -5.3070   29.1240 C   0  0  0  0  0  0  0  0  0  0  0  0
    4.7710   -4.6952   28.4803 C   0  0  0  0  0  0  0  0  0  0  0  0
    3.4047   -5.1087   28.1314 C   0  0  0  0  0  0  0  0  0  0  0  0
   -0.2234  -11.8615   16.8874 C   0  0  0  0  0  0  0  0  0  0  0  0
    6.4491   -4.1532   30.1213 C   0  0  0  0  0  0  0  0  0  0  0  0
    5.7060   -4.4340   27.4975 C   0  0  0  0  0  0  0  0  0  0  0  0
    1.1818   -5.6612   28.8399 C   0  0  0  0  0  0  0  0  0  0  0  0
   -1.2067   -7.3287   17.7772 C   0  0  0  0  0  0  0  0  0  0  0  0
   -0.0206  -10.5585   16.6210 C   0  0  0  0  0  0  0  0  0  0  0  0
    0.3696  -12.7626   16.2169 O   0  0  0  0  0  0  0  0  0  0  0  0
   -0.6895   -9.5676   17.3297 C   0  0  0  0  0  0  0  0  0  0  0  0
    0.8388   -5.8417   27.5264 C   0  0  0  0  0  0  0  0  0  0  0  0
   -2.0709   -7.6637   18.7817 C   0  0  0  0  0  0  0  0  0  0  0  0
   -0.5279   -8.2168   17.0717 C   0  0  0  0  0  0  0  0  0  0  0  0
    6.9694   -4.0191   27.8190 C   0  0  0  0  0  0  0  0  0  0  0  0
    5.1733   -4.5469   29.8123 C   0  0  0  0  0  0  0  0  0  0  0  0
   -1.7508  -11.3016   18.6072 C   0  0  0  0  0  0  0  0  0  0  0  0
    1.7497   -5.6771   26.4971 C   0  0  0  0  0  0  0  0  0  0  0  0
   -1.5799   -9.9322   18.3468 C   0  0  0  0  0  0  0  0  0  0  0  0
   -1.0871  -12.2214   17.8851 C   0  0  0  0  0  0  0  0  0  0  0  0
   -2.2706   -8.9669   19.0691 C   0  0  0  0  0  0  0  0  0  0  0  0
    3.0279   -5.3073   26.8197 C   0  0  0  0  0  0  0  0  0  0  0  0
    7.3282   -3.8948   29.1186 C   0  0  0  0  0  0  0  0  0  0  0  0
  1  3  4  0
  1  7  4  0
  2  3  1  0
  2  6  4  0
  2 16  4  0
  3 22  4  0
  4  9  4  0
  4 10  1  0
  4 20  4  0
  5 16  4  0
  5 23  4  0
  6 15  4  0
  7 12  4  0
  8 13  4  0
  8 14  4  0
  9 11  4  0
 11 14  4  0
 11 19  4  0
 12 18  4  0
 13 21  4  0
 15 23  4  0
 17 19  4  0
 17 20  4  0
 18 22  4  0
 19 21  4  0
M  END
$$$$

 Created by Python create_sdf_string function

 23 25  0  0  0  0  0  0  0  0999 V2000
    2.4610   -5.3070   29.1240 C   0  0  0  0  0  0  0  0  0  0  0  0
    4.7710   -4.6952   28.4803 C   0  0  0  0  0  0  0  0  0  0  0  0
    3.4047   -5.1087   28.1314 C   0  0  0  0  0  0  0  0  0  0  0  0
   -0.2234  -11.8615   16.8874 C   0  0  0  0  0  0  0  0  0  0  0  0
    6.4491   -4.1532   30.1213 C   0  0  0  0  0  0  0  0  0  0  0  0
    5.7060   -4.4340   27.4975 C   0  0  0  0  0  0  0  0  0  0  0  0
    1.1818   -5.6612   28.8399 C   0  0  0  0  0  0  0  0  0  0  0  0
   -1.2067   -7.3287   17.7772 C   0  0  0  0  0  0  0  0  0  0  0  0
   -0.0206  -10.5585   16.6210 C   0  0  0  0  0  0  0  0  0  0  0  0
    0.3696  -12.7626   16.2169 O   0  0  0  0  0  0  0  0  0  0  0  0
   -0.6895   -9.5676   17.3297 C   0  0  0  0  0  0  0  0  0  0  0  0
    0.8388   -5.8417   27.5264 C   0  0  0  0  0  0  0  0  0  0  0  0
   -2.0709   -7.6637   18.7817 C   0  0  0  0  0  0  0  0  0  0  0  0
   -0.5279   -8.2168   17.0717 C   0  0  0  0  0  0  0  0  0  0  0  0
    6.9694   -4.0191   27.8190 C   0  0  0  0  0  0  0  0  0  0  0  0
    5.1733   -4.5469   29.8123 C   0  0  0  0  0  0  0  0  0  0  0  0
   -1.7508  -11.3016   18.6072 C   0  0  0  0  0  0  0  0  0  0  0  0
    1.7497   -5.6771   26.4971 C   0  0  0  0  0  0  0  0  0  0  0  0
   -1.5799   -9.9322   18.3468 C   0  0  0  0  0  0  0  0  0  0  0  0
   -1.0871  -12.2214   17.8851 C   0  0  0  0  0  0  0  0  0  0  0  0
   -2.2706   -8.9669   19.0691 C   0  0  0  0  0  0  0  0  0  0  0  0
    3.0279   -5.3073   26.8197 C   0  0  0  0  0  0  0  0  0  0  0  0
    7.3282   -3.8948   29.1186 C   0  0  0  0  0  0  0  0  0  0  0  0
  1  3  4  0
  1  7  4  0
  2  3  1  0
  2  6  4  0
  2 16  4  0
  3 22  4  0
  4  9  4  0
  4 10  1  0
  4 20  4  0
  5 16  4  0
  5 23  4  0
  6 15  4  0
  7 12  4  0
  8 13  4  0
  8 14  4  0
  9 11  4  0
 11 14  4  0
 11 19  4  0
 12 18  4  0
 13 21  4  0
 15 23  4  0
 17 19  4  0
 17 20  4  0
 18 22  4  0
 19 21  4  0
M  END
$$$$

 Created by Python create_sdf_string function

 23 25  0  0  0  0  0  0  0  0999 V2000
    2.4610   -5.3070   29.1240 C   0  0  0  0  0  0  0  0  0  0  0  0
    4.7710   -4.6952   28.4803 C   0  0  0  0  0  0  0  0  0  0  0  0
    3.4047   -5.1087   28.1314 C   0  0  0  0  0  0  0  0  0  0  0  0
   -0.2234  -11.8615   16.8874 C   0  0  0  0  0  0  0  0  0  0  0  0
    6.4491   -4.1532   30.1213 C   0  0  0  0  0  0  0  0  0  0  0  0
    5.7060   -4.4340   27.4975 C   0  0  0  0  0  0  0  0  0  0  0  0
    1.1818   -5.6612   28.8399 C   0  0  0  0  0  0  0  0  0  0  0  0
   -1.2067   -7.3287   17.7772 C   0  0  0  0  0  0  0  0  0  0  0  0
   -0.0206  -10.5585   16.6210 C   0  0  0  0  0  0  0  0  0  0  0  0
    0.3696  -12.7626   16.2169 O   0  0  0  0  0  0  0  0  0  0  0  0
   -0.6895   -9.5676   17.3297 C   0  0  0  0  0  0  0  0  0  0  0  0
    0.8388   -5.8417   27.5264 C   0  0  0  0  0  0  0  0  0  0  0  0
   -2.0709   -7.6637   18.7817 C   0  0  0  0  0  0  0  0  0  0  0  0
   -0.5279   -8.2168   17.0717 C   0  0  0  0  0  0  0  0  0  0  0  0
    6.9694   -4.0191   27.8190 C   0  0  0  0  0  0  0  0  0  0  0  0
    5.1733   -4.5469   29.8123 C   0  0  0  0  0  0  0  0  0  0  0  0
   -1.7508  -11.3016   18.6072 C   0  0  0  0  0  0  0  0  0  0  0  0
    1.7497   -5.6771   26.4971 C   0  0  0  0  0  0  0  0  0  0  0  0
   -1.5799   -9.9322   18.3468 C   0  0  0  0  0  0  0  0  0  0  0  0
   -1.0871  -12.2214   17.8851 C   0  0  0  0  0  0  0  0  0  0  0  0
   -2.2706   -8.9669   19.0691 C   0  0  0  0  0  0  0  0  0  0  0  0
    3.0279   -5.3073   26.8197 C   0  0  0  0  0  0  0  0  0  0  0  0
    7.3282   -3.8948   29.1186 C   0  0  0  0  0  0  0  0  0  0  0  0
  1  3  4  0
  1  7  4  0
  2  3  1  0
  2  6  4  0
  2 16  4  0
  3 22  4  0
  4  9  4  0
  4 10  1  0
  4 20  4  0
  5 16  4  0
  5 23  4  0
  6 15  4  0
  7 12  4  0
  8 13  4  0
  8 14  4  0
  9 11  4  0
 11 14  4  0
 11 19  4  0
 12 18  4  0
 13 21  4  0
 15 23  4  0
 17 19  4  0
 17 20  4  0
 18 22  4  0
 19 21  4  0
M  END
$$$$

 Created by Python create_sdf_string function

 23 25  0  0  0  0  0  0  0  0999 V2000
    2.4610   -5.3070   29.1240 C   0  0  0  0  0  0  0  0  0  0  0  0
    4.7710   -4.6952   28.4803 C   0  0  0  0  0  0  0  0  0  0  0  0
    3.4047   -5.1087   28.1314 C   0  0  0  0  0  0  0  0  0  0  0  0
   -0.2234  -11.8615   16.8874 C   0  0  0  0  0  0  0  0  0  0  0  0
    6.4491   -4.1532   30.1213 C   0  0  0  0  0  0  0  0  0  0  0  0
    5.7060   -4.4340   27.4975 C   0  0  0  0  0  0  0  0  0  0  0  0
    1.1818   -5.6612   28.8399 C   0  0  0  0  0  0  0  0  0  0  0  0
   -1.2067   -7.3287   17.7772 C   0  0  0  0  0  0  0  0  0  0  0  0
   -0.0206  -10.5585   16.6210 C   0  0  0  0  0  0  0  0  0  0  0  0
    0.3696  -12.7626   16.2169 O   0  0  0  0  0  0  0  0  0  0  0  0
   -0.6895   -9.5676   17.3297 C   0  0  0  0  0  0  0  0  0  0  0  0
    0.8388   -5.8417   27.5264 C   0  0  0  0  0  0  0  0  0  0  0  0
   -2.0709   -7.6637   18.7817 C   0  0  0  0  0  0  0  0  0  0  0  0
   -0.5279   -8.2168   17.0717 C   0  0  0  0  0  0  0  0  0  0  0  0
    6.9694   -4.0191   27.8190 C   0  0  0  0  0  0  0  0  0  0  0  0
    5.1733   -4.5469   29.8123 C   0  0  0  0  0  0  0  0  0  0  0  0
   -1.7508  -11.3016   18.6072 C   0  0  0  0  0  0  0  0  0  0  0  0
    1.7497   -5.6771   26.4971 C   0  0  0  0  0  0  0  0  0  0  0  0
   -1.5799   -9.9322   18.3468 C   0  0  0  0  0  0  0  0  0  0  0  0
   -1.0871  -12.2214   17.8851 C   0  0  0  0  0  0  0  0  0  0  0  0
   -2.2706   -8.9669   19.0691 C   0  0  0  0  0  0  0  0  0  0  0  0
    3.0279   -5.3073   26.8197 C   0  0  0  0  0  0  0  0  0  0  0  0
    7.3282   -3.8948   29.1186 C   0  0  0  0  0  0  0  0  0  0  0  0
  1  3  4  0
  1  7  4  0
  2  3  1  0
  2  6  4  0
  2 16  4  0
  3 22  4  0
  4  9  4  0
  4 10  1  0
  4 20  4  0
  5 16  4  0
  5 23  4  0
  6 15  4  0
  7 12  4  0
  8 13  4  0
  8 14  4  0
  9 11  4  0
 11 14  4  0
 11 19  4  0
 12 18  4  0
 13 21  4  0
 15 23  4  0
 17 19  4  0
 17 20  4  0
 18 22  4  0
 19 21  4  0
M  END
$$$$

 Created by Python create_sdf_string function

 23 25  0  0  0  0  0  0  0  0999 V2000
    2.4610   -5.3070   29.1240 C   0  0  0  0  0  0  0  0  0  0  0  0
    4.7710   -4.6952   28.4803 C   0  0  0  0  0  0  0  0  0  0  0  0
    3.4047   -5.1087   28.1314 C   0  0  0  0  0  0  0  0  0  0  0  0
   -0.2234  -11.8615   16.8874 C   0  0  0  0  0  0  0  0  0  0  0  0
    6.4491   -4.1532   30.1213 C   0  0  0  0  0  0  0  0  0  0  0  0
    5.7060   -4.4340   27.4975 C   0  0  0  0  0  0  0  0  0  0  0  0
    1.1818   -5.6612   28.8399 C   0  0  0  0  0  0  0  0  0  0  0  0
   -1.2067   -7.3287   17.7772 C   0  0  0  0  0  0  0  0  0  0  0  0
   -0.0206  -10.5585   16.6210 C   0  0  0  0  0  0  0  0  0  0  0  0
    0.3696  -12.7626   16.2169 O   0  0  0  0  0  0  0  0  0  0  0  0
   -0.6895   -9.5676   17.3297 C   0  0  0  0  0  0  0  0  0  0  0  0
    0.8388   -5.8417   27.5264 C   0  0  0  0  0  0  0  0  0  0  0  0
   -2.0709   -7.6637   18.7817 C   0  0  0  0  0  0  0  0  0  0  0  0
   -0.5279   -8.2168   17.0717 C   0  0  0  0  0  0  0  0  0  0  0  0
    6.9694   -4.0191   27.8190 C   0  0  0  0  0  0  0  0  0  0  0  0
    5.1733   -4.5469   29.8123 C   0  0  0  0  0  0  0  0  0  0  0  0
   -1.7508  -11.3016   18.6072 C   0  0  0  0  0  0  0  0  0  0  0  0
    1.7497   -5.6771   26.4971 C   0  0  0  0  0  0  0  0  0  0  0  0
   -1.5799   -9.9322   18.3468 C   0  0  0  0  0  0  0  0  0  0  0  0
   -1.0871  -12.2214   17.8851 C   0  0  0  0  0  0  0  0  0  0  0  0
   -2.2706   -8.9669   19.0691 C   0  0  0  0  0  0  0  0  0  0  0  0
    3.0279   -5.3073   26.8197 C   0  0  0  0  0  0  0  0  0  0  0  0
    7.3282   -3.8948   29.1186 C   0  0  0  0  0  0  0  0  0  0  0  0
  1  3  4  0
  1  7  4  0
  2  3  1  0
  2  6  4  0
  2 16  4  0
  3 22  4  0
  4  9  4  0
  4 10  1  0
  4 20  4  0
  5 16  4  0
  5 23  4  0
  6 15  4  0
  7 12  4  0
  8 13  4  0
  8 14  4  0
  9 11  4  0
 11 14  4  0
 11 19  4  0
 12 18  4  0
 13 21  4  0
 15 23  4  0
 17 19  4  0
 17 20  4  0
 18 22  4  0
 19 21  4  0
M  END
$$$$

 Created by Python create_sdf_string function

 23 25  0  0  0  0  0  0  0  0999 V2000
    2.4610   -5.3070   29.1240 C   0  0  0  0  0  0  0  0  0  0  0  0
    4.7710   -4.6952   28.4803 C   0  0  0  0  0  0  0  0  0  0  0  0
    3.4047   -5.1087   28.1314 C   0  0  0  0  0  0  0  0  0  0  0  0
   -0.2234  -11.8615   16.8874 C   0  0  0  0  0  0  0  0  0  0  0  0
    6.4491   -4.1532   30.1213 C   0  0  0  0  0  0  0  0  0  0  0  0
    5.7060   -4.4340   27.4975 C   0  0  0  0  0  0  0  0  0  0  0  0
    1.1818   -5.6612   28.8399 C   0  0  0  0  0  0  0  0  0  0  0  0
   -1.2067   -7.3287   17.7772 C   0  0  0  0  0  0  0  0  0  0  0  0
   -0.0206  -10.5585   16.6210 C   0  0  0  0  0  0  0  0  0  0  0  0
    0.3696  -12.7626   16.2169 O   0  0  0  0  0  0  0  0  0  0  0  0
   -0.6895   -9.5676   17.3297 C   0  0  0  0  0  0  0  0  0  0  0  0
    0.8388   -5.8417   27.5264 C   0  0  0  0  0  0  0  0  0  0  0  0
   -2.0709   -7.6637   18.7817 C   0  0  0  0  0  0  0  0  0  0  0  0
   -0.5279   -8.2168   17.0717 C   0  0  0  0  0  0  0  0  0  0  0  0
    6.9694   -4.0191   27.8190 C   0  0  0  0  0  0  0  0  0  0  0  0
    5.1733   -4.5469   29.8123 C   0  0  0  0  0  0  0  0  0  0  0  0
   -1.7508  -11.3016   18.6072 C   0  0  0  0  0  0  0  0  0  0  0  0
    1.7497   -5.6771   26.4971 C   0  0  0  0  0  0  0  0  0  0  0  0
   -1.5799   -9.9322   18.3468 C   0  0  0  0  0  0  0  0  0  0  0  0
   -1.0871  -12.2214   17.8851 C   0  0  0  0  0  0  0  0  0  0  0  0
   -2.2706   -8.9669   19.0691 C   0  0  0  0  0  0  0  0  0  0  0  0
    3.0279   -5.3073   26.8197 C   0  0  0  0  0  0  0  0  0  0  0  0
    7.3282   -3.8948   29.1186 C   0  0  0  0  0  0  0  0  0  0  0  0
  1  3  4  0
  1  7  4  0
  2  3  1  0
  2  6  4  0
  2 16  4  0
  3 22  4  0
  4  9  4  0
  4 10  1  0
  4 20  4  0
  5 16  4  0
  5 23  4  0
  6 15  4  0
  7 12  4  0
  8 13  4  0
  8 14  4  0
  9 11  4  0
 11 14  4  0
 11 19  4  0
 12 18  4  0
 13 21  4  0
 15 23  4  0
 17 19  4  0
 17 20  4  0
 18 22  4  0
 19 21  4  0
M  END
$$$$

 Created by Python create_sdf_string function

 23 25  0  0  0  0  0  0  0  0999 V2000
    2.4610   -5.3070   29.1240 C   0  0  0  0  0  0  0  0  0  0  0  0
    4.7710   -4.6952   28.4803 C   0  0  0  0  0  0  0  0  0  0  0  0
    3.4047   -5.1087   28.1314 C   0  0  0  0  0  0  0  0  0  0  0  0
   -0.2234  -11.8615   16.8874 C   0  0  0  0  0  0  0  0  0  0  0  0
    6.4491   -4.1532   30.1213 C   0  0  0  0  0  0  0  0  0  0  0  0
    5.7060   -4.4340   27.4975 C   0  0  0  0  0  0  0  0  0  0  0  0
    1.1818   -5.6612   28.8399 C   0  0  0  0  0  0  0  0  0  0  0  0
   -1.2067   -7.3287   17.7772 C   0  0  0  0  0  0  0  0  0  0  0  0
   -0.0206  -10.5585   16.6210 C   0  0  0  0  0  0  0  0  0  0  0  0
    0.3696  -12.7626   16.2169 O   0  0  0  0  0  0  0  0  0  0  0  0
   -0.6895   -9.5676   17.3297 C   0  0  0  0  0  0  0  0  0  0  0  0
    0.8388   -5.8417   27.5264 C   0  0  0  0  0  0  0  0  0  0  0  0
   -2.0709   -7.6637   18.7817 C   0  0  0  0  0  0  0  0  0  0  0  0
   -0.5279   -8.2168   17.0717 C   0  0  0  0  0  0  0  0  0  0  0  0
    6.9694   -4.0191   27.8190 C   0  0  0  0  0  0  0  0  0  0  0  0
    5.1733   -4.5469   29.8123 C   0  0  0  0  0  0  0  0  0  0  0  0
   -1.7508  -11.3016   18.6072 C   0  0  0  0  0  0  0  0  0  0  0  0
    1.7497   -5.6771   26.4971 C   0  0  0  0  0  0  0  0  0  0  0  0
   -1.5799   -9.9322   18.3468 C   0  0  0  0  0  0  0  0  0  0  0  0
   -1.0871  -12.2214   17.8851 C   0  0  0  0  0  0  0  0  0  0  0  0
   -2.2706   -8.9669   19.0691 C   0  0  0  0  0  0  0  0  0  0  0  0
    3.0279   -5.3073   26.8197 C   0  0  0  0  0  0  0  0  0  0  0  0
    7.3282   -3.8948   29.1186 C   0  0  0  0  0  0  0  0  0  0  0  0
  1  3  4  0
  1  7  4  0
  2  3  1  0
  2  6  4  0
  2 16  4  0
  3 22  4  0
  4  9  4  0
  4 10  1  0
  4 20  4  0
  5 16  4  0
  5 23  4  0
  6 15  4  0
  7 12  4  0
  8 13  4  0
  8 14  4  0
  9 11  4  0
 11 14  4  0
 11 19  4  0
 12 18  4  0
 13 21  4  0
 15 23  4  0
 17 19  4  0
 17 20  4  0
 18 22  4  0
 19 21  4  0
M  END
$$$$

 Created by Python create_sdf_string function

 23 25  0  0  0  0  0  0  0  0999 V2000
    2.4610   -5.3070   29.1240 C   0  0  0  0  0  0  0  0  0  0  0  0
    4.7710   -4.6952   28.4803 C   0  0  0  0  0  0  0  0  0  0  0  0
    3.4047   -5.1087   28.1314 C   0  0  0  0  0  0  0  0  0  0  0  0
   -0.2234  -11.8615   16.8874 C   0  0  0  0  0  0  0  0  0  0  0  0
    6.4491   -4.1532   30.1213 C   0  0  0  0  0  0  0  0  0  0  0  0
    5.7060   -4.4340   27.4975 C   0  0  0  0  0  0  0  0  0  0  0  0
    1.1818   -5.6612   28.8399 C   0  0  0  0  0  0  0  0  0  0  0  0
   -1.2067   -7.3287   17.7772 C   0  0  0  0  0  0  0  0  0  0  0  0
   -0.0206  -10.5585   16.6210 C   0  0  0  0  0  0  0  0  0  0  0  0
    0.3696  -12.7626   16.2169 O   0  0  0  0  0  0  0  0  0  0  0  0
   -0.6895   -9.5676   17.3297 C   0  0  0  0  0  0  0  0  0  0  0  0
    0.8388   -5.8417   27.5264 C   0  0  0  0  0  0  0  0  0  0  0  0
   -2.0709   -7.6637   18.7817 C   0  0  0  0  0  0  0  0  0  0  0  0
   -0.5279   -8.2168   17.0717 C   0  0  0  0  0  0  0  0  0  0  0  0
    6.9694   -4.0191   27.8190 C   0  0  0  0  0  0  0  0  0  0  0  0
    5.1733   -4.5469   29.8123 C   0  0  0  0  0  0  0  0  0  0  0  0
   -1.7508  -11.3016   18.6072 C   0  0  0  0  0  0  0  0  0  0  0  0
    1.7497   -5.6771   26.4971 C   0  0  0  0  0  0  0  0  0  0  0  0
   -1.5799   -9.9322   18.3468 C   0  0  0  0  0  0  0  0  0  0  0  0
   -1.0871  -12.2214   17.8851 C   0  0  0  0  0  0  0  0  0  0  0  0
   -2.2706   -8.9669   19.0691 C   0  0  0  0  0  0  0  0  0  0  0  0
    3.0279   -5.3073   26.8197 C   0  0  0  0  0  0  0  0  0  0  0  0
    7.3282   -3.8948   29.1186 C   0  0  0  0  0  0  0  0  0  0  0  0
  1  3  4  0
  1  7  4  0
  2  3  1  0
  2  6  4  0
  2 16  4  0
  3 22  4  0
  4  9  4  0
  4 10  1  0
  4 20  4  0
  5 16  4  0
  5 23  4  0
  6 15  4  0
  7 12  4  0
  8 13  4  0
  8 14  4  0
  9 11  4  0
 11 14  4  0
 11 19  4  0
 12 18  4  0
 13 21  4  0
 15 23  4  0
 17 19  4  0
 17 20  4  0
 18 22  4  0
 19 21  4  0
M  END
$$$$

 Created by Python create_sdf_string function

 23 25  0  0  0  0  0  0  0  0999 V2000
    2.4610   -5.3070   29.1240 C   0  0  0  0  0  0  0  0  0  0  0  0
    4.7710   -4.6952   28.4803 C   0  0  0  0  0  0  0  0  0  0  0  0
    3.4047   -5.1087   28.1314 C   0  0  0  0  0  0  0  0  0  0  0  0
   -0.2234  -11.8615   16.8874 C   0  0  0  0  0  0  0  0  0  0  0  0
    6.4491   -4.1532   30.1213 C   0  0  0  0  0  0  0  0  0  0  0  0
    5.7060   -4.4340   27.4975 C   0  0  0  0  0  0  0  0  0  0  0  0
    1.1818   -5.6612   28.8399 C   0  0  0  0  0  0  0  0  0  0  0  0
   -1.2067   -7.3287   17.7772 C   0  0  0  0  0  0  0  0  0  0  0  0
   -0.0206  -10.5585   16.6210 C   0  0  0  0  0  0  0  0  0  0  0  0
    0.3696  -12.7626   16.2169 O   0  0  0  0  0  0  0  0  0  0  0  0
   -0.6895   -9.5676   17.3297 C   0  0  0  0  0  0  0  0  0  0  0  0
    0.8388   -5.8417   27.5264 C   0  0  0  0  0  0  0  0  0  0  0  0
   -2.0709   -7.6637   18.7817 C   0  0  0  0  0  0  0  0  0  0  0  0
   -0.5279   -8.2168   17.0717 C   0  0  0  0  0  0  0  0  0  0  0  0
    6.9694   -4.0191   27.8190 C   0  0  0  0  0  0  0  0  0  0  0  0
    5.1733   -4.5469   29.8123 C   0  0  0  0  0  0  0  0  0  0  0  0
   -1.7508  -11.3016   18.6072 C   0  0  0  0  0  0  0  0  0  0  0  0
    1.7497   -5.6771   26.4971 C   0  0  0  0  0  0  0  0  0  0  0  0
   -1.5799   -9.9322   18.3468 C   0  0  0  0  0  0  0  0  0  0  0  0
   -1.0871  -12.2214   17.8851 C   0  0  0  0  0  0  0  0  0  0  0  0
   -2.2706   -8.9669   19.0691 C   0  0  0  0  0  0  0  0  0  0  0  0
    3.0279   -5.3073   26.8197 C   0  0  0  0  0  0  0  0  0  0  0  0
    7.3282   -3.8948   29.1186 C   0  0  0  0  0  0  0  0  0  0  0  0
  1  3  4  0
  1  7  4  0
  2  3  1  0
  2  6  4  0
  2 16  4  0
  3 22  4  0
  4  9  4  0
  4 10  1  0
  4 20  4  0
  5 16  4  0
  5 23  4  0
  6 15  4  0
  7 12  4  0
  8 13  4  0
  8 14  4  0
  9 11  4  0
 11 14  4  0
 11 19  4  0
 12 18  4  0
 13 21  4  0
 15 23  4  0
 17 19  4  0
 17 20  4  0
 18 22  4  0
 19 21  4  0
M  END
$$$$

 Created by Python create_sdf_string function

 23 25  0  0  0  0  0  0  0  0999 V2000
    2.4610   -5.3070   29.1240 C   0  0  0  0  0  0  0  0  0  0  0  0
    4.7710   -4.6952   28.4803 C   0  0  0  0  0  0  0  0  0  0  0  0
    3.4047   -5.1087   28.1314 C   0  0  0  0  0  0  0  0  0  0  0  0
   -0.2234  -11.8615   16.8874 C   0  0  0  0  0  0  0  0  0  0  0  0
    6.4491   -4.1532   30.1213 C   0  0  0  0  0  0  0  0  0  0  0  0
    5.7060   -4.4340   27.4975 C   0  0  0  0  0  0  0  0  0  0  0  0
    1.1818   -5.6612   28.8399 C   0  0  0  0  0  0  0  0  0  0  0  0
   -1.2067   -7.3287   17.7772 C   0  0  0  0  0  0  0  0  0  0  0  0
   -0.0206  -10.5585   16.6210 C   0  0  0  0  0  0  0  0  0  0  0  0
    0.3696  -12.7626   16.2169 O   0  0  0  0  0  0  0  0  0  0  0  0
   -0.6895   -9.5676   17.3297 C   0  0  0  0  0  0  0  0  0  0  0  0
    0.8388   -5.8417   27.5264 C   0  0  0  0  0  0  0  0  0  0  0  0
   -2.0709   -7.6637   18.7817 C   0  0  0  0  0  0  0  0  0  0  0  0
   -0.5279   -8.2168   17.0717 C   0  0  0  0  0  0  0  0  0  0  0  0
    6.9694   -4.0191   27.8190 C   0  0  0  0  0  0  0  0  0  0  0  0
    5.1733   -4.5469   29.8123 C   0  0  0  0  0  0  0  0  0  0  0  0
   -1.7508  -11.3016   18.6072 C   0  0  0  0  0  0  0  0  0  0  0  0
    1.7497   -5.6771   26.4971 C   0  0  0  0  0  0  0  0  0  0  0  0
   -1.5799   -9.9322   18.3468 C   0  0  0  0  0  0  0  0  0  0  0  0
   -1.0871  -12.2214   17.8851 C   0  0  0  0  0  0  0  0  0  0  0  0
   -2.2706   -8.9669   19.0691 C   0  0  0  0  0  0  0  0  0  0  0  0
    3.0279   -5.3073   26.8197 C   0  0  0  0  0  0  0  0  0  0  0  0
    7.3282   -3.8948   29.1186 C   0  0  0  0  0  0  0  0  0  0  0  0
  1  3  4  0
  1  7  4  0
  2  3  1  0
  2  6  4  0
  2 16  4  0
  3 22  4  0
  4  9  4  0
  4 10  1  0
  4 20  4  0
  5 16  4  0
  5 23  4  0
  6 15  4  0
  7 12  4  0
  8 13  4  0
  8 14  4  0
  9 11  4  0
 11 14  4  0
 11 19  4  0
 12 18  4  0
 13 21  4  0
 15 23  4  0
 17 19  4  0
 17 20  4  0
 18 22  4  0
 19 21  4  0
M  END
$$$$

 Created by Python create_sdf_string function

 23 25  0  0  0  0  0  0  0  0999 V2000
    2.4610   -5.3070   29.1240 C   0  0  0  0  0  0  0  0  0  0  0  0
    4.7710   -4.6952   28.4803 C   0  0  0  0  0  0  0  0  0  0  0  0
    3.4047   -5.1087   28.1314 C   0  0  0  0  0  0  0  0  0  0  0  0
   -0.2234  -11.8615   16.8874 C   0  0  0  0  0  0  0  0  0  0  0  0
    6.4491   -4.1532   30.1213 C   0  0  0  0  0  0  0  0  0  0  0  0
    5.7060   -4.4340   27.4975 C   0  0  0  0  0  0  0  0  0  0  0  0
    1.1818   -5.6612   28.8399 C   0  0  0  0  0  0  0  0  0  0  0  0
   -1.2067   -7.3287   17.7772 C   0  0  0  0  0  0  0  0  0  0  0  0
   -0.0206  -10.5585   16.6210 C   0  0  0  0  0  0  0  0  0  0  0  0
    0.3696  -12.7626   16.2169 O   0  0  0  0  0  0  0  0  0  0  0  0
   -0.6895   -9.5676   17.3297 C   0  0  0  0  0  0  0  0  0  0  0  0
    0.8388   -5.8417   27.5264 C   0  0  0  0  0  0  0  0  0  0  0  0
   -2.0709   -7.6637   18.7817 C   0  0  0  0  0  0  0  0  0  0  0  0
   -0.5279   -8.2168   17.0717 C   0  0  0  0  0  0  0  0  0  0  0  0
    6.9694   -4.0191   27.8190 C   0  0  0  0  0  0  0  0  0  0  0  0
    5.1733   -4.5469   29.8123 C   0  0  0  0  0  0  0  0  0  0  0  0
   -1.7508  -11.3016   18.6072 C   0  0  0  0  0  0  0  0  0  0  0  0
    1.7497   -5.6771   26.4971 C   0  0  0  0  0  0  0  0  0  0  0  0
   -1.5799   -9.9322   18.3468 C   0  0  0  0  0  0  0  0  0  0  0  0
   -1.0871  -12.2214   17.8851 C   0  0  0  0  0  0  0  0  0  0  0  0
   -2.2706   -8.9669   19.0691 C   0  0  0  0  0  0  0  0  0  0  0  0
    3.0279   -5.3073   26.8197 C   0  0  0  0  0  0  0  0  0  0  0  0
    7.3282   -3.8948   29.1186 C   0  0  0  0  0  0  0  0  0  0  0  0
  1  3  4  0
  1  7  4  0
  2  3  1  0
  2  6  4  0
  2 16  4  0
  3 22  4  0
  4  9  4  0
  4 10  1  0
  4 20  4  0
  5 16  4  0
  5 23  4  0
  6 15  4  0
  7 12  4  0
  8 13  4  0
  8 14  4  0
  9 11  4  0
 11 14  4  0
 11 19  4  0
 12 18  4  0
 13 21  4  0
 15 23  4  0
 17 19  4  0
 17 20  4  0
 18 22  4  0
 19 21  4  0
M  END
$$$$

 Created by Python create_sdf_string function

 23 25  0  0  0  0  0  0  0  0999 V2000
    2.4610   -5.3070   29.1240 C   0  0  0  0  0  0  0  0  0  0  0  0
    4.7710   -4.6952   28.4803 C   0  0  0  0  0  0  0  0  0  0  0  0
    3.4047   -5.1087   28.1314 C   0  0  0  0  0  0  0  0  0  0  0  0
   -0.2234  -11.8615   16.8874 C   0  0  0  0  0  0  0  0  0  0  0  0
    6.4491   -4.1532   30.1213 C   0  0  0  0  0  0  0  0  0  0  0  0
    5.7060   -4.4340   27.4975 C   0  0  0  0  0  0  0  0  0  0  0  0
    1.1818   -5.6612   28.8399 C   0  0  0  0  0  0  0  0  0  0  0  0
   -1.2067   -7.3287   17.7772 C   0  0  0  0  0  0  0  0  0  0  0  0
   -0.0206  -10.5585   16.6210 C   0  0  0  0  0  0  0  0  0  0  0  0
    0.3696  -12.7626   16.2169 O   0  0  0  0  0  0  0  0  0  0  0  0
   -0.6895   -9.5676   17.3297 C   0  0  0  0  0  0  0  0  0  0  0  0
    0.8388   -5.8417   27.5264 C   0  0  0  0  0  0  0  0  0  0  0  0
   -2.0709   -7.6637   18.7817 C   0  0  0  0  0  0  0  0  0  0  0  0
   -0.5279   -8.2168   17.0717 C   0  0  0  0  0  0  0  0  0  0  0  0
    6.9694   -4.0191   27.8190 C   0  0  0  0  0  0  0  0  0  0  0  0
    5.1733   -4.5469   29.8123 C   0  0  0  0  0  0  0  0  0  0  0  0
   -1.7508  -11.3016   18.6072 C   0  0  0  0  0  0  0  0  0  0  0  0
    1.7497   -5.6771   26.4971 C   0  0  0  0  0  0  0  0  0  0  0  0
   -1.5799   -9.9322   18.3468 C   0  0  0  0  0  0  0  0  0  0  0  0
   -1.0871  -12.2214   17.8851 C   0  0  0  0  0  0  0  0  0  0  0  0
   -2.2706   -8.9669   19.0691 C   0  0  0  0  0  0  0  0  0  0  0  0
    3.0279   -5.3073   26.8197 C   0  0  0  0  0  0  0  0  0  0  0  0
    7.3282   -3.8948   29.1186 C   0  0  0  0  0  0  0  0  0  0  0  0
  1  3  4  0
  1  7  4  0
  2  3  1  0
  2  6  4  0
  2 16  4  0
  3 22  4  0
  4  9  4  0
  4 10  1  0
  4 20  4  0
  5 16  4  0
  5 23  4  0
  6 15  4  0
  7 12  4  0
  8 13  4  0
  8 14  4  0
  9 11  4  0
 11 14  4  0
 11 19  4  0
 12 18  4  0
 13 21  4  0
 15 23  4  0
 17 19  4  0
 17 20  4  0
 18 22  4  0
 19 21  4  0
M  END
$$$$

 Created by Python create_sdf_string function

 23 25  0  0  0  0  0  0  0  0999 V2000
    2.4610   -5.3070   29.1240 C   0  0  0  0  0  0  0  0  0  0  0  0
    4.7710   -4.6952   28.4803 C   0  0  0  0  0  0  0  0  0  0  0  0
    3.4047   -5.1087   28.1314 C   0  0  0  0  0  0  0  0  0  0  0  0
   -0.2234  -11.8615   16.8874 C   0  0  0  0  0  0  0  0  0  0  0  0
    6.4491   -4.1532   30.1213 C   0  0  0  0  0  0  0  0  0  0  0  0
    5.7060   -4.4340   27.4975 C   0  0  0  0  0  0  0  0  0  0  0  0
    1.1818   -5.6612   28.8399 C   0  0  0  0  0  0  0  0  0  0  0  0
   -1.2067   -7.3287   17.7772 C   0  0  0  0  0  0  0  0  0  0  0  0
   -0.0206  -10.5585   16.6210 C   0  0  0  0  0  0  0  0  0  0  0  0
    0.3696  -12.7626   16.2169 O   0  0  0  0  0  0  0  0  0  0  0  0
   -0.6895   -9.5676   17.3297 C   0  0  0  0  0  0  0  0  0  0  0  0
    0.8388   -5.8417   27.5264 C   0  0  0  0  0  0  0  0  0  0  0  0
   -2.0709   -7.6637   18.7817 C   0  0  0  0  0  0  0  0  0  0  0  0
   -0.5279   -8.2168   17.0717 C   0  0  0  0  0  0  0  0  0  0  0  0
    6.9694   -4.0191   27.8190 C   0  0  0  0  0  0  0  0  0  0  0  0
    5.1733   -4.5469   29.8123 C   0  0  0  0  0  0  0  0  0  0  0  0
   -1.7508  -11.3016   18.6072 C   0  0  0  0  0  0  0  0  0  0  0  0
    1.7497   -5.6771   26.4971 C   0  0  0  0  0  0  0  0  0  0  0  0
   -1.5799   -9.9322   18.3468 C   0  0  0  0  0  0  0  0  0  0  0  0
   -1.0871  -12.2214   17.8851 C   0  0  0  0  0  0  0  0  0  0  0  0
   -2.2706   -8.9669   19.0691 C   0  0  0  0  0  0  0  0  0  0  0  0
    3.0279   -5.3073   26.8197 C   0  0  0  0  0  0  0  0  0  0  0  0
    7.3282   -3.8948   29.1186 C   0  0  0  0  0  0  0  0  0  0  0  0
  1  3  4  0
  1  7  4  0
  2  3  1  0
  2  6  4  0
  2 16  4  0
  3 22  4  0
  4  9  4  0
  4 10  1  0
  4 20  4  0
  5 16  4  0
  5 23  4  0
  6 15  4  0
  7 12  4  0
  8 13  4  0
  8 14  4  0
  9 11  4  0
 11 14  4  0
 11 19  4  0
 12 18  4  0
 13 21  4  0
 15 23  4  0
 17 19  4  0
 17 20  4  0
 18 22  4  0
 19 21  4  0
M  END
$$$$

 Created by Python create_sdf_string function

 23 25  0  0  0  0  0  0  0  0999 V2000
    2.4610   -5.3070   29.1240 C   0  0  0  0  0  0  0  0  0  0  0  0
    4.7710   -4.6952   28.4803 C   0  0  0  0  0  0  0  0  0  0  0  0
    3.4047   -5.1087   28.1314 C   0  0  0  0  0  0  0  0  0  0  0  0
   -0.2234  -11.8615   16.8874 C   0  0  0  0  0  0  0  0  0  0  0  0
    6.4491   -4.1532   30.1213 C   0  0  0  0  0  0  0  0  0  0  0  0
    5.7060   -4.4340   27.4975 C   0  0  0  0  0  0  0  0  0  0  0  0
    1.1818   -5.6612   28.8399 C   0  0  0  0  0  0  0  0  0  0  0  0
   -1.2067   -7.3287   17.7772 C   0  0  0  0  0  0  0  0  0  0  0  0
   -0.0206  -10.5585   16.6210 C   0  0  0  0  0  0  0  0  0  0  0  0
    0.3696  -12.7626   16.2169 O   0  0  0  0  0  0  0  0  0  0  0  0
   -0.6895   -9.5676   17.3297 C   0  0  0  0  0  0  0  0  0  0  0  0
    0.8388   -5.8417   27.5264 C   0  0  0  0  0  0  0  0  0  0  0  0
   -2.0709   -7.6637   18.7817 C   0  0  0  0  0  0  0  0  0  0  0  0
   -0.5279   -8.2168   17.0717 C   0  0  0  0  0  0  0  0  0  0  0  0
    6.9694   -4.0191   27.8190 C   0  0  0  0  0  0  0  0  0  0  0  0
    5.1733   -4.5469   29.8123 C   0  0  0  0  0  0  0  0  0  0  0  0
   -1.7508  -11.3016   18.6072 C   0  0  0  0  0  0  0  0  0  0  0  0
    1.7497   -5.6771   26.4971 C   0  0  0  0  0  0  0  0  0  0  0  0
   -1.5799   -9.9322   18.3468 C   0  0  0  0  0  0  0  0  0  0  0  0
   -1.0871  -12.2214   17.8851 C   0  0  0  0  0  0  0  0  0  0  0  0
   -2.2706   -8.9669   19.0691 C   0  0  0  0  0  0  0  0  0  0  0  0
    3.0279   -5.3073   26.8197 C   0  0  0  0  0  0  0  0  0  0  0  0
    7.3282   -3.8948   29.1186 C   0  0  0  0  0  0  0  0  0  0  0  0
  1  3  4  0
  1  7  4  0
  2  3  1  0
  2  6  4  0
  2 16  4  0
  3 22  4  0
  4  9  4  0
  4 10  1  0
  4 20  4  0
  5 16  4  0
  5 23  4  0
  6 15  4  0
  7 12  4  0
  8 13  4  0
  8 14  4  0
  9 11  4  0
 11 14  4  0
 11 19  4  0
 12 18  4  0
 13 21  4  0
 15 23  4  0
 17 19  4  0
 17 20  4  0
 18 22  4  0
 19 21  4  0
M  END
$$$$

 Created by Python create_sdf_string function

 23 25  0  0  0  0  0  0  0  0999 V2000
    2.4610   -5.3070   29.1240 C   0  0  0  0  0  0  0  0  0  0  0  0
    4.7710   -4.6952   28.4803 C   0  0  0  0  0  0  0  0  0  0  0  0
    3.4047   -5.1087   28.1314 C   0  0  0  0  0  0  0  0  0  0  0  0
   -0.2234  -11.8615   16.8874 C   0  0  0  0  0  0  0  0  0  0  0  0
    6.4491   -4.1532   30.1213 C   0  0  0  0  0  0  0  0  0  0  0  0
    5.7060   -4.4340   27.4975 C   0  0  0  0  0  0  0  0  0  0  0  0
    1.1818   -5.6612   28.8399 C   0  0  0  0  0  0  0  0  0  0  0  0
   -1.2067   -7.3287   17.7772 C   0  0  0  0  0  0  0  0  0  0  0  0
   -0.0206  -10.5585   16.6210 C   0  0  0  0  0  0  0  0  0  0  0  0
    0.3696  -12.7626   16.2169 O   0  0  0  0  0  0  0  0  0  0  0  0
   -0.6895   -9.5676   17.3297 C   0  0  0  0  0  0  0  0  0  0  0  0
    0.8388   -5.8417   27.5264 C   0  0  0  0  0  0  0  0  0  0  0  0
   -2.0709   -7.6637   18.7817 C   0  0  0  0  0  0  0  0  0  0  0  0
   -0.5279   -8.2168   17.0717 C   0  0  0  0  0  0  0  0  0  0  0  0
    6.9694   -4.0191   27.8190 C   0  0  0  0  0  0  0  0  0  0  0  0
    5.1733   -4.5469   29.8123 C   0  0  0  0  0  0  0  0  0  0  0  0
   -1.7508  -11.3016   18.6072 C   0  0  0  0  0  0  0  0  0  0  0  0
    1.7497   -5.6771   26.4971 C   0  0  0  0  0  0  0  0  0  0  0  0
   -1.5799   -9.9322   18.3468 C   0  0  0  0  0  0  0  0  0  0  0  0
   -1.0871  -12.2214   17.8851 C   0  0  0  0  0  0  0  0  0  0  0  0
   -2.2706   -8.9669   19.0691 C   0  0  0  0  0  0  0  0  0  0  0  0
    3.0279   -5.3073   26.8197 C   0  0  0  0  0  0  0  0  0  0  0  0
    7.3282   -3.8948   29.1186 C   0  0  0  0  0  0  0  0  0  0  0  0
  1  3  4  0
  1  7  4  0
  2  3  1  0
  2  6  4  0
  2 16  4  0
  3 22  4  0
  4  9  4  0
  4 10  1  0
  4 20  4  0
  5 16  4  0
  5 23  4  0
  6 15  4  0
  7 12  4  0
  8 13  4  0
  8 14  4  0
  9 11  4  0
 11 14  4  0
 11 19  4  0
 12 18  4  0
 13 21  4  0
 15 23  4  0
 17 19  4  0
 17 20  4  0
 18 22  4  0
 19 21  4  0
M  END
$$$$

 Created by Python create_sdf_string function

 23 25  0  0  0  0  0  0  0  0999 V2000
    2.4610   -5.3070   29.1240 C   0  0  0  0  0  0  0  0  0  0  0  0
    4.7710   -4.6952   28.4803 C   0  0  0  0  0  0  0  0  0  0  0  0
    3.4047   -5.1087   28.1314 C   0  0  0  0  0  0  0  0  0  0  0  0
   -0.2234  -11.8615   16.8874 C   0  0  0  0  0  0  0  0  0  0  0  0
    6.4491   -4.1532   30.1213 C   0  0  0  0  0  0  0  0  0  0  0  0
    5.7060   -4.4340   27.4975 C   0  0  0  0  0  0  0  0  0  0  0  0
    1.1818   -5.6612   28.8399 C   0  0  0  0  0  0  0  0  0  0  0  0
   -1.2067   -7.3287   17.7772 C   0  0  0  0  0  0  0  0  0  0  0  0
   -0.0206  -10.5585   16.6210 C   0  0  0  0  0  0  0  0  0  0  0  0
    0.3696  -12.7626   16.2169 O   0  0  0  0  0  0  0  0  0  0  0  0
   -0.6895   -9.5676   17.3297 C   0  0  0  0  0  0  0  0  0  0  0  0
    0.8388   -5.8417   27.5264 C   0  0  0  0  0  0  0  0  0  0  0  0
   -2.0709   -7.6637   18.7817 C   0  0  0  0  0  0  0  0  0  0  0  0
   -0.5279   -8.2168   17.0717 C   0  0  0  0  0  0  0  0  0  0  0  0
    6.9694   -4.0191   27.8190 C   0  0  0  0  0  0  0  0  0  0  0  0
    5.1733   -4.5469   29.8123 C   0  0  0  0  0  0  0  0  0  0  0  0
   -1.7508  -11.3016   18.6072 C   0  0  0  0  0  0  0  0  0  0  0  0
    1.7497   -5.6771   26.4971 C   0  0  0  0  0  0  0  0  0  0  0  0
   -1.5799   -9.9322   18.3468 C   0  0  0  0  0  0  0  0  0  0  0  0
   -1.0871  -12.2214   17.8851 C   0  0  0  0  0  0  0  0  0  0  0  0
   -2.2706   -8.9669   19.0691 C   0  0  0  0  0  0  0  0  0  0  0  0
    3.0279   -5.3073   26.8197 C   0  0  0  0  0  0  0  0  0  0  0  0
    7.3282   -3.8948   29.1186 C   0  0  0  0  0  0  0  0  0  0  0  0
  1  3  4  0
  1  7  4  0
  2  3  1  0
  2  6  4  0
  2 16  4  0
  3 22  4  0
  4  9  4  0
  4 10  1  0
  4 20  4  0
  5 16  4  0
  5 23  4  0
  6 15  4  0
  7 12  4  0
  8 13  4  0
  8 14  4  0
  9 11  4  0
 11 14  4  0
 11 19  4  0
 12 18  4  0
 13 21  4  0
 15 23  4  0
 17 19  4  0
 17 20  4  0
 18 22  4  0
 19 21  4  0
M  END
$$$$

 Created by Python create_sdf_string function

 23 25  0  0  0  0  0  0  0  0999 V2000
    2.4610   -5.3070   29.1240 C   0  0  0  0  0  0  0  0  0  0  0  0
    4.7710   -4.6952   28.4803 C   0  0  0  0  0  0  0  0  0  0  0  0
    3.4047   -5.1087   28.1314 C   0  0  0  0  0  0  0  0  0  0  0  0
   -0.2234  -11.8615   16.8874 C   0  0  0  0  0  0  0  0  0  0  0  0
    6.4491   -4.1532   30.1213 C   0  0  0  0  0  0  0  0  0  0  0  0
    5.7060   -4.4340   27.4975 C   0  0  0  0  0  0  0  0  0  0  0  0
    1.1818   -5.6612   28.8399 C   0  0  0  0  0  0  0  0  0  0  0  0
   -1.2067   -7.3287   17.7772 C   0  0  0  0  0  0  0  0  0  0  0  0
   -0.0206  -10.5585   16.6210 C   0  0  0  0  0  0  0  0  0  0  0  0
    0.3696  -12.7626   16.2169 O   0  0  0  0  0  0  0  0  0  0  0  0
   -0.6895   -9.5676   17.3297 C   0  0  0  0  0  0  0  0  0  0  0  0
    0.8388   -5.8417   27.5264 C   0  0  0  0  0  0  0  0  0  0  0  0
   -2.0709   -7.6637   18.7817 C   0  0  0  0  0  0  0  0  0  0  0  0
   -0.5279   -8.2168   17.0717 C   0  0  0  0  0  0  0  0  0  0  0  0
    6.9694   -4.0191   27.8190 C   0  0  0  0  0  0  0  0  0  0  0  0
    5.1733   -4.5469   29.8123 C   0  0  0  0  0  0  0  0  0  0  0  0
   -1.7508  -11.3016   18.6072 C   0  0  0  0  0  0  0  0  0  0  0  0
    1.7497   -5.6771   26.4971 C   0  0  0  0  0  0  0  0  0  0  0  0
   -1.5799   -9.9322   18.3468 C   0  0  0  0  0  0  0  0  0  0  0  0
   -1.0871  -12.2214   17.8851 C   0  0  0  0  0  0  0  0  0  0  0  0
   -2.2706   -8.9669   19.0691 C   0  0  0  0  0  0  0  0  0  0  0  0
    3.0279   -5.3073   26.8197 C   0  0  0  0  0  0  0  0  0  0  0  0
    7.3282   -3.8948   29.1186 C   0  0  0  0  0  0  0  0  0  0  0  0
  1  3  4  0
  1  7  4  0
  2  3  1  0
  2  6  4  0
  2 16  4  0
  3 22  4  0
  4  9  4  0
  4 10  1  0
  4 20  4  0
  5 16  4  0
  5 23  4  0
  6 15  4  0
  7 12  4  0
  8 13  4  0
  8 14  4  0
  9 11  4  0
 11 14  4  0
 11 19  4  0
 12 18  4  0
 13 21  4  0
 15 23  4  0
 17 19  4  0
 17 20  4  0
 18 22  4  0
 19 21  4  0
M  END
$$$$

 Created by Python create_sdf_string function

 23 25  0  0  0  0  0  0  0  0999 V2000
    2.4610   -5.3070   29.1240 C   0  0  0  0  0  0  0  0  0  0  0  0
    4.7710   -4.6952   28.4803 C   0  0  0  0  0  0  0  0  0  0  0  0
    3.4047   -5.1087   28.1314 C   0  0  0  0  0  0  0  0  0  0  0  0
   -0.2234  -11.8615   16.8874 C   0  0  0  0  0  0  0  0  0  0  0  0
    6.4491   -4.1532   30.1213 C   0  0  0  0  0  0  0  0  0  0  0  0
    5.7060   -4.4340   27.4975 C   0  0  0  0  0  0  0  0  0  0  0  0
    1.1818   -5.6612   28.8399 C   0  0  0  0  0  0  0  0  0  0  0  0
   -1.2067   -7.3287   17.7772 C   0  0  0  0  0  0  0  0  0  0  0  0
   -0.0206  -10.5585   16.6210 C   0  0  0  0  0  0  0  0  0  0  0  0
    0.3696  -12.7626   16.2169 O   0  0  0  0  0  0  0  0  0  0  0  0
   -0.6895   -9.5676   17.3297 C   0  0  0  0  0  0  0  0  0  0  0  0
    0.8388   -5.8417   27.5264 C   0  0  0  0  0  0  0  0  0  0  0  0
   -2.0709   -7.6637   18.7817 C   0  0  0  0  0  0  0  0  0  0  0  0
   -0.5279   -8.2168   17.0717 C   0  0  0  0  0  0  0  0  0  0  0  0
    6.9694   -4.0191   27.8190 C   0  0  0  0  0  0  0  0  0  0  0  0
    5.1733   -4.5469   29.8123 C   0  0  0  0  0  0  0  0  0  0  0  0
   -1.7508  -11.3016   18.6072 C   0  0  0  0  0  0  0  0  0  0  0  0
    1.7497   -5.6771   26.4971 C   0  0  0  0  0  0  0  0  0  0  0  0
   -1.5799   -9.9322   18.3468 C   0  0  0  0  0  0  0  0  0  0  0  0
   -1.0871  -12.2214   17.8851 C   0  0  0  0  0  0  0  0  0  0  0  0
   -2.2706   -8.9669   19.0691 C   0  0  0  0  0  0  0  0  0  0  0  0
    3.0279   -5.3073   26.8197 C   0  0  0  0  0  0  0  0  0  0  0  0
    7.3282   -3.8948   29.1186 C   0  0  0  0  0  0  0  0  0  0  0  0
  1  3  4  0
  1  7  4  0
  2  3  1  0
  2  6  4  0
  2 16  4  0
  3 22  4  0
  4  9  4  0
  4 10  1  0
  4 20  4  0
  5 16  4  0
  5 23  4  0
  6 15  4  0
  7 12  4  0
  8 13  4  0
  8 14  4  0
  9 11  4  0
 11 14  4  0
 11 19  4  0
 12 18  4  0
 13 21  4  0
 15 23  4  0
 17 19  4  0
 17 20  4  0
 18 22  4  0
 19 21  4  0
M  END
$$$$

 Created by Python create_sdf_string function

 23 25  0  0  0  0  0  0  0  0999 V2000
    2.4610   -5.3070   29.1240 C   0  0  0  0  0  0  0  0  0  0  0  0
    4.7710   -4.6952   28.4803 C   0  0  0  0  0  0  0  0  0  0  0  0
    3.4047   -5.1087   28.1314 C   0  0  0  0  0  0  0  0  0  0  0  0
   -0.2234  -11.8615   16.8874 C   0  0  0  0  0  0  0  0  0  0  0  0
    6.4491   -4.1532   30.1213 C   0  0  0  0  0  0  0  0  0  0  0  0
    5.7060   -4.4340   27.4975 C   0  0  0  0  0  0  0  0  0  0  0  0
    1.1818   -5.6612   28.8399 C   0  0  0  0  0  0  0  0  0  0  0  0
   -1.2067   -7.3287   17.7772 C   0  0  0  0  0  0  0  0  0  0  0  0
   -0.0206  -10.5585   16.6210 C   0  0  0  0  0  0  0  0  0  0  0  0
    0.3696  -12.7626   16.2169 O   0  0  0  0  0  0  0  0  0  0  0  0
   -0.6895   -9.5676   17.3297 C   0  0  0  0  0  0  0  0  0  0  0  0
    0.8388   -5.8417   27.5264 C   0  0  0  0  0  0  0  0  0  0  0  0
   -2.0709   -7.6637   18.7817 C   0  0  0  0  0  0  0  0  0  0  0  0
   -0.5279   -8.2168   17.0717 C   0  0  0  0  0  0  0  0  0  0  0  0
    6.9694   -4.0191   27.8190 C   0  0  0  0  0  0  0  0  0  0  0  0
    5.1733   -4.5469   29.8123 C   0  0  0  0  0  0  0  0  0  0  0  0
   -1.7508  -11.3016   18.6072 C   0  0  0  0  0  0  0  0  0  0  0  0
    1.7497   -5.6771   26.4971 C   0  0  0  0  0  0  0  0  0  0  0  0
   -1.5799   -9.9322   18.3468 C   0  0  0  0  0  0  0  0  0  0  0  0
   -1.0871  -12.2214   17.8851 C   0  0  0  0  0  0  0  0  0  0  0  0
   -2.2706   -8.9669   19.0691 C   0  0  0  0  0  0  0  0  0  0  0  0
    3.0279   -5.3073   26.8197 C   0  0  0  0  0  0  0  0  0  0  0  0
    7.3282   -3.8948   29.1186 C   0  0  0  0  0  0  0  0  0  0  0  0
  1  3  4  0
  1  7  4  0
  2  3  1  0
  2  6  4  0
  2 16  4  0
  3 22  4  0
  4  9  4  0
  4 10  1  0
  4 20  4  0
  5 16  4  0
  5 23  4  0
  6 15  4  0
  7 12  4  0
  8 13  4  0
  8 14  4  0
  9 11  4  0
 11 14  4  0
 11 19  4  0
 12 18  4  0
 13 21  4  0
 15 23  4  0
 17 19  4  0
 17 20  4  0
 18 22  4  0
 19 21  4  0
M  END
$$$$

 Created by Python create_sdf_string function

 23 25  0  0  0  0  0  0  0  0999 V2000
    2.4610   -5.3070   29.1240 C   0  0  0  0  0  0  0  0  0  0  0  0
    4.7710   -4.6952   28.4803 C   0  0  0  0  0  0  0  0  0  0  0  0
    3.4047   -5.1087   28.1314 C   0  0  0  0  0  0  0  0  0  0  0  0
   -0.2234  -11.8615   16.8874 C   0  0  0  0  0  0  0  0  0  0  0  0
    6.4491   -4.1532   30.1213 C   0  0  0  0  0  0  0  0  0  0  0  0
    5.7060   -4.4340   27.4975 C   0  0  0  0  0  0  0  0  0  0  0  0
    1.1818   -5.6612   28.8399 C   0  0  0  0  0  0  0  0  0  0  0  0
   -1.2067   -7.3287   17.7772 C   0  0  0  0  0  0  0  0  0  0  0  0
   -0.0206  -10.5585   16.6210 C   0  0  0  0  0  0  0  0  0  0  0  0
    0.3696  -12.7626   16.2169 O   0  0  0  0  0  0  0  0  0  0  0  0
   -0.6895   -9.5676   17.3297 C   0  0  0  0  0  0  0  0  0  0  0  0
    0.8388   -5.8417   27.5264 C   0  0  0  0  0  0  0  0  0  0  0  0
   -2.0709   -7.6637   18.7817 C   0  0  0  0  0  0  0  0  0  0  0  0
   -0.5279   -8.2168   17.0717 C   0  0  0  0  0  0  0  0  0  0  0  0
    6.9694   -4.0191   27.8190 C   0  0  0  0  0  0  0  0  0  0  0  0
    5.1733   -4.5469   29.8123 C   0  0  0  0  0  0  0  0  0  0  0  0
   -1.7508  -11.3016   18.6072 C   0  0  0  0  0  0  0  0  0  0  0  0
    1.7497   -5.6771   26.4971 C   0  0  0  0  0  0  0  0  0  0  0  0
   -1.5799   -9.9322   18.3468 C   0  0  0  0  0  0  0  0  0  0  0  0
   -1.0871  -12.2214   17.8851 C   0  0  0  0  0  0  0  0  0  0  0  0
   -2.2706   -8.9669   19.0691 C   0  0  0  0  0  0  0  0  0  0  0  0
    3.0279   -5.3073   26.8197 C   0  0  0  0  0  0  0  0  0  0  0  0
    7.3282   -3.8948   29.1186 C   0  0  0  0  0  0  0  0  0  0  0  0
  1  3  4  0
  1  7  4  0
  2  3  1  0
  2  6  4  0
  2 16  4  0
  3 22  4  0
  4  9  4  0
  4 10  1  0
  4 20  4  0
  5 16  4  0
  5 23  4  0
  6 15  4  0
  7 12  4  0
  8 13  4  0
  8 14  4  0
  9 11  4  0
 11 14  4  0
 11 19  4  0
 12 18  4  0
 13 21  4  0
 15 23  4  0
 17 19  4  0
 17 20  4  0
 18 22  4  0
 19 21  4  0
M  END
$$$$

 Created by Python create_sdf_string function

 23 25  0  0  0  0  0  0  0  0999 V2000
    2.4610   -5.3070   29.1240 C   0  0  0  0  0  0  0  0  0  0  0  0
    4.7710   -4.6952   28.4803 C   0  0  0  0  0  0  0  0  0  0  0  0
    3.4047   -5.1087   28.1314 C   0  0  0  0  0  0  0  0  0  0  0  0
   -0.2234  -11.8615   16.8874 C   0  0  0  0  0  0  0  0  0  0  0  0
    6.4491   -4.1532   30.1213 C   0  0  0  0  0  0  0  0  0  0  0  0
    5.7060   -4.4340   27.4975 C   0  0  0  0  0  0  0  0  0  0  0  0
    1.1818   -5.6612   28.8399 C   0  0  0  0  0  0  0  0  0  0  0  0
   -1.2067   -7.3287   17.7772 C   0  0  0  0  0  0  0  0  0  0  0  0
   -0.0206  -10.5585   16.6210 C   0  0  0  0  0  0  0  0  0  0  0  0
    0.3696  -12.7626   16.2169 O   0  0  0  0  0  0  0  0  0  0  0  0
   -0.6895   -9.5676   17.3297 C   0  0  0  0  0  0  0  0  0  0  0  0
    0.8388   -5.8417   27.5264 C   0  0  0  0  0  0  0  0  0  0  0  0
   -2.0709   -7.6637   18.7817 C   0  0  0  0  0  0  0  0  0  0  0  0
   -0.5279   -8.2168   17.0717 C   0  0  0  0  0  0  0  0  0  0  0  0
    6.9694   -4.0191   27.8190 C   0  0  0  0  0  0  0  0  0  0  0  0
    5.1733   -4.5469   29.8123 C   0  0  0  0  0  0  0  0  0  0  0  0
   -1.7508  -11.3016   18.6072 C   0  0  0  0  0  0  0  0  0  0  0  0
    1.7497   -5.6771   26.4971 C   0  0  0  0  0  0  0  0  0  0  0  0
   -1.5799   -9.9322   18.3468 C   0  0  0  0  0  0  0  0  0  0  0  0
   -1.0871  -12.2214   17.8851 C   0  0  0  0  0  0  0  0  0  0  0  0
   -2.2706   -8.9669   19.0691 C   0  0  0  0  0  0  0  0  0  0  0  0
    3.0279   -5.3073   26.8197 C   0  0  0  0  0  0  0  0  0  0  0  0
    7.3282   -3.8948   29.1186 C   0  0  0  0  0  0  0  0  0  0  0  0
  1  3  4  0
  1  7  4  0
  2  3  1  0
  2  6  4  0
  2 16  4  0
  3 22  4  0
  4  9  4  0
  4 10  1  0
  4 20  4  0
  5 16  4  0
  5 23  4  0
  6 15  4  0
  7 12  4  0
  8 13  4  0
  8 14  4  0
  9 11  4  0
 11 14  4  0
 11 19  4  0
 12 18  4  0
 13 21  4  0
 15 23  4  0
 17 19  4  0
 17 20  4  0
 18 22  4  0
 19 21  4  0
M  END
$$$$

 Created by Python create_sdf_string function

 23 25  0  0  0  0  0  0  0  0999 V2000
    2.4610   -5.3070   29.1240 C   0  0  0  0  0  0  0  0  0  0  0  0
    4.7710   -4.6952   28.4803 C   0  0  0  0  0  0  0  0  0  0  0  0
    3.4047   -5.1087   28.1314 C   0  0  0  0  0  0  0  0  0  0  0  0
   -0.2234  -11.8615   16.8874 C   0  0  0  0  0  0  0  0  0  0  0  0
    6.4491   -4.1532   30.1213 C   0  0  0  0  0  0  0  0  0  0  0  0
    5.7060   -4.4340   27.4975 C   0  0  0  0  0  0  0  0  0  0  0  0
    1.1818   -5.6612   28.8399 C   0  0  0  0  0  0  0  0  0  0  0  0
   -1.2067   -7.3287   17.7772 C   0  0  0  0  0  0  0  0  0  0  0  0
   -0.0206  -10.5585   16.6210 C   0  0  0  0  0  0  0  0  0  0  0  0
    0.3696  -12.7626   16.2169 O   0  0  0  0  0  0  0  0  0  0  0  0
   -0.6895   -9.5676   17.3297 C   0  0  0  0  0  0  0  0  0  0  0  0
    0.8388   -5.8417   27.5264 C   0  0  0  0  0  0  0  0  0  0  0  0
   -2.0709   -7.6637   18.7817 C   0  0  0  0  0  0  0  0  0  0  0  0
   -0.5279   -8.2168   17.0717 C   0  0  0  0  0  0  0  0  0  0  0  0
    6.9694   -4.0191   27.8190 C   0  0  0  0  0  0  0  0  0  0  0  0
    5.1733   -4.5469   29.8123 C   0  0  0  0  0  0  0  0  0  0  0  0
   -1.7508  -11.3016   18.6072 C   0  0  0  0  0  0  0  0  0  0  0  0
    1.7497   -5.6771   26.4971 C   0  0  0  0  0  0  0  0  0  0  0  0
   -1.5799   -9.9322   18.3468 C   0  0  0  0  0  0  0  0  0  0  0  0
   -1.0871  -12.2214   17.8851 C   0  0  0  0  0  0  0  0  0  0  0  0
   -2.2706   -8.9669   19.0691 C   0  0  0  0  0  0  0  0  0  0  0  0
    3.0279   -5.3073   26.8197 C   0  0  0  0  0  0  0  0  0  0  0  0
    7.3282   -3.8948   29.1186 C   0  0  0  0  0  0  0  0  0  0  0  0
  1  3  4  0
  1  7  4  0
  2  3  1  0
  2  6  4  0
  2 16  4  0
  3 22  4  0
  4  9  4  0
  4 10  1  0
  4 20  4  0
  5 16  4  0
  5 23  4  0
  6 15  4  0
  7 12  4  0
  8 13  4  0
  8 14  4  0
  9 11  4  0
 11 14  4  0
 11 19  4  0
 12 18  4  0
 13 21  4  0
 15 23  4  0
 17 19  4  0
 17 20  4  0
 18 22  4  0
 19 21  4  0
M  END
$$$$

 Created by Python create_sdf_string function

 23 25  0  0  0  0  0  0  0  0999 V2000
    2.4610   -5.3070   29.1240 C   0  0  0  0  0  0  0  0  0  0  0  0
    4.7710   -4.6952   28.4803 C   0  0  0  0  0  0  0  0  0  0  0  0
    3.4047   -5.1087   28.1314 C   0  0  0  0  0  0  0  0  0  0  0  0
   -0.2234  -11.8615   16.8874 C   0  0  0  0  0  0  0  0  0  0  0  0
    6.4491   -4.1532   30.1213 C   0  0  0  0  0  0  0  0  0  0  0  0
    5.7060   -4.4340   27.4975 C   0  0  0  0  0  0  0  0  0  0  0  0
    1.1818   -5.6612   28.8399 C   0  0  0  0  0  0  0  0  0  0  0  0
   -1.2067   -7.3287   17.7772 C   0  0  0  0  0  0  0  0  0  0  0  0
   -0.0206  -10.5585   16.6210 C   0  0  0  0  0  0  0  0  0  0  0  0
    0.3696  -12.7626   16.2169 O   0  0  0  0  0  0  0  0  0  0  0  0
   -0.6895   -9.5676   17.3297 C   0  0  0  0  0  0  0  0  0  0  0  0
    0.8388   -5.8417   27.5264 C   0  0  0  0  0  0  0  0  0  0  0  0
   -2.0709   -7.6637   18.7817 C   0  0  0  0  0  0  0  0  0  0  0  0
   -0.5279   -8.2168   17.0717 C   0  0  0  0  0  0  0  0  0  0  0  0
    6.9694   -4.0191   27.8190 C   0  0  0  0  0  0  0  0  0  0  0  0
    5.1733   -4.5469   29.8123 C   0  0  0  0  0  0  0  0  0  0  0  0
   -1.7508  -11.3016   18.6072 C   0  0  0  0  0  0  0  0  0  0  0  0
    1.7497   -5.6771   26.4971 C   0  0  0  0  0  0  0  0  0  0  0  0
   -1.5799   -9.9322   18.3468 C   0  0  0  0  0  0  0  0  0  0  0  0
   -1.0871  -12.2214   17.8851 C   0  0  0  0  0  0  0  0  0  0  0  0
   -2.2706   -8.9669   19.0691 C   0  0  0  0  0  0  0  0  0  0  0  0
    3.0279   -5.3073   26.8197 C   0  0  0  0  0  0  0  0  0  0  0  0
    7.3282   -3.8948   29.1186 C   0  0  0  0  0  0  0  0  0  0  0  0
  1  3  4  0
  1  7  4  0
  2  3  1  0
  2  6  4  0
  2 16  4  0
  3 22  4  0
  4  9  4  0
  4 10  1  0
  4 20  4  0
  5 16  4  0
  5 23  4  0
  6 15  4  0
  7 12  4  0
  8 13  4  0
  8 14  4  0
  9 11  4  0
 11 14  4  0
 11 19  4  0
 12 18  4  0
 13 21  4  0
 15 23  4  0
 17 19  4  0
 17 20  4  0
 18 22  4  0
 19 21  4  0
M  END
$$$$

 Created by Python create_sdf_string function

 23 25  0  0  0  0  0  0  0  0999 V2000
    2.4610   -5.3070   29.1240 C   0  0  0  0  0  0  0  0  0  0  0  0
    4.7710   -4.6952   28.4803 C   0  0  0  0  0  0  0  0  0  0  0  0
    3.4047   -5.1087   28.1314 C   0  0  0  0  0  0  0  0  0  0  0  0
   -0.2234  -11.8615   16.8874 C   0  0  0  0  0  0  0  0  0  0  0  0
    6.4491   -4.1532   30.1213 C   0  0  0  0  0  0  0  0  0  0  0  0
    5.7060   -4.4340   27.4975 C   0  0  0  0  0  0  0  0  0  0  0  0
    1.1818   -5.6612   28.8399 C   0  0  0  0  0  0  0  0  0  0  0  0
   -1.2067   -7.3287   17.7772 C   0  0  0  0  0  0  0  0  0  0  0  0
   -0.0206  -10.5585   16.6210 C   0  0  0  0  0  0  0  0  0  0  0  0
    0.3696  -12.7626   16.2169 O   0  0  0  0  0  0  0  0  0  0  0  0
   -0.6895   -9.5676   17.3297 C   0  0  0  0  0  0  0  0  0  0  0  0
    0.8388   -5.8417   27.5264 C   0  0  0  0  0  0  0  0  0  0  0  0
   -2.0709   -7.6637   18.7817 C   0  0  0  0  0  0  0  0  0  0  0  0
   -0.5279   -8.2168   17.0717 C   0  0  0  0  0  0  0  0  0  0  0  0
    6.9694   -4.0191   27.8190 C   0  0  0  0  0  0  0  0  0  0  0  0
    5.1733   -4.5469   29.8123 C   0  0  0  0  0  0  0  0  0  0  0  0
   -1.7508  -11.3016   18.6072 C   0  0  0  0  0  0  0  0  0  0  0  0
    1.7497   -5.6771   26.4971 C   0  0  0  0  0  0  0  0  0  0  0  0
   -1.5799   -9.9322   18.3468 C   0  0  0  0  0  0  0  0  0  0  0  0
   -1.0871  -12.2214   17.8851 C   0  0  0  0  0  0  0  0  0  0  0  0
   -2.2706   -8.9669   19.0691 C   0  0  0  0  0  0  0  0  0  0  0  0
    3.0279   -5.3073   26.8197 C   0  0  0  0  0  0  0  0  0  0  0  0
    7.3282   -3.8948   29.1186 C   0  0  0  0  0  0  0  0  0  0  0  0
  1  3  4  0
  1  7  4  0
  2  3  1  0
  2  6  4  0
  2 16  4  0
  3 22  4  0
  4  9  4  0
  4 10  1  0
  4 20  4  0
  5 16  4  0
  5 23  4  0
  6 15  4  0
  7 12  4  0
  8 13  4  0
  8 14  4  0
  9 11  4  0
 11 14  4  0
 11 19  4  0
 12 18  4  0
 13 21  4  0
 15 23  4  0
 17 19  4  0
 17 20  4  0
 18 22  4  0
 19 21  4  0
M  END
$$$$

 Created by Python create_sdf_string function

 23 25  0  0  0  0  0  0  0  0999 V2000
    2.4610   -5.3070   29.1240 C   0  0  0  0  0  0  0  0  0  0  0  0
    4.7710   -4.6952   28.4803 C   0  0  0  0  0  0  0  0  0  0  0  0
    3.4047   -5.1087   28.1314 C   0  0  0  0  0  0  0  0  0  0  0  0
   -0.2234  -11.8615   16.8874 C   0  0  0  0  0  0  0  0  0  0  0  0
    6.4491   -4.1532   30.1213 C   0  0  0  0  0  0  0  0  0  0  0  0
    5.7060   -4.4340   27.4975 C   0  0  0  0  0  0  0  0  0  0  0  0
    1.1818   -5.6612   28.8399 C   0  0  0  0  0  0  0  0  0  0  0  0
   -1.2067   -7.3287   17.7772 C   0  0  0  0  0  0  0  0  0  0  0  0
   -0.0206  -10.5585   16.6210 C   0  0  0  0  0  0  0  0  0  0  0  0
    0.3696  -12.7626   16.2169 O   0  0  0  0  0  0  0  0  0  0  0  0
   -0.6895   -9.5676   17.3297 C   0  0  0  0  0  0  0  0  0  0  0  0
    0.8388   -5.8417   27.5264 C   0  0  0  0  0  0  0  0  0  0  0  0
   -2.0709   -7.6637   18.7817 C   0  0  0  0  0  0  0  0  0  0  0  0
   -0.5279   -8.2168   17.0717 C   0  0  0  0  0  0  0  0  0  0  0  0
    6.9694   -4.0191   27.8190 C   0  0  0  0  0  0  0  0  0  0  0  0
    5.1733   -4.5469   29.8123 C   0  0  0  0  0  0  0  0  0  0  0  0
   -1.7508  -11.3016   18.6072 C   0  0  0  0  0  0  0  0  0  0  0  0
    1.7497   -5.6771   26.4971 C   0  0  0  0  0  0  0  0  0  0  0  0
   -1.5799   -9.9322   18.3468 C   0  0  0  0  0  0  0  0  0  0  0  0
   -1.0871  -12.2214   17.8851 C   0  0  0  0  0  0  0  0  0  0  0  0
   -2.2706   -8.9669   19.0691 C   0  0  0  0  0  0  0  0  0  0  0  0
    3.0279   -5.3073   26.8197 C   0  0  0  0  0  0  0  0  0  0  0  0
    7.3282   -3.8948   29.1186 C   0  0  0  0  0  0  0  0  0  0  0  0
  1  3  4  0
  1  7  4  0
  2  3  1  0
  2  6  4  0
  2 16  4  0
  3 22  4  0
  4  9  4  0
  4 10  1  0
  4 20  4  0
  5 16  4  0
  5 23  4  0
  6 15  4  0
  7 12  4  0
  8 13  4  0
  8 14  4  0
  9 11  4  0
 11 14  4  0
 11 19  4  0
 12 18  4  0
 13 21  4  0
 15 23  4  0
 17 19  4  0
 17 20  4  0
 18 22  4  0
 19 21  4  0
M  END
$$$$

 Created by Python create_sdf_string function

 23 25  0  0  0  0  0  0  0  0999 V2000
    2.4610   -5.3070   29.1240 C   0  0  0  0  0  0  0  0  0  0  0  0
    4.7710   -4.6952   28.4803 C   0  0  0  0  0  0  0  0  0  0  0  0
    3.4047   -5.1087   28.1314 C   0  0  0  0  0  0  0  0  0  0  0  0
   -0.2234  -11.8615   16.8874 C   0  0  0  0  0  0  0  0  0  0  0  0
    6.4491   -4.1532   30.1213 C   0  0  0  0  0  0  0  0  0  0  0  0
    5.7060   -4.4340   27.4975 C   0  0  0  0  0  0  0  0  0  0  0  0
    1.1818   -5.6612   28.8399 C   0  0  0  0  0  0  0  0  0  0  0  0
   -1.2067   -7.3287   17.7772 C   0  0  0  0  0  0  0  0  0  0  0  0
   -0.0206  -10.5585   16.6210 C   0  0  0  0  0  0  0  0  0  0  0  0
    0.3696  -12.7626   16.2169 O   0  0  0  0  0  0  0  0  0  0  0  0
   -0.6895   -9.5676   17.3297 C   0  0  0  0  0  0  0  0  0  0  0  0
    0.8388   -5.8417   27.5264 C   0  0  0  0  0  0  0  0  0  0  0  0
   -2.0709   -7.6637   18.7817 C   0  0  0  0  0  0  0  0  0  0  0  0
   -0.5279   -8.2168   17.0717 C   0  0  0  0  0  0  0  0  0  0  0  0
    6.9694   -4.0191   27.8190 C   0  0  0  0  0  0  0  0  0  0  0  0
    5.1733   -4.5469   29.8123 C   0  0  0  0  0  0  0  0  0  0  0  0
   -1.7508  -11.3016   18.6072 C   0  0  0  0  0  0  0  0  0  0  0  0
    1.7497   -5.6771   26.4971 C   0  0  0  0  0  0  0  0  0  0  0  0
   -1.5799   -9.9322   18.3468 C   0  0  0  0  0  0  0  0  0  0  0  0
   -1.0871  -12.2214   17.8851 C   0  0  0  0  0  0  0  0  0  0  0  0
   -2.2706   -8.9669   19.0691 C   0  0  0  0  0  0  0  0  0  0  0  0
    3.0279   -5.3073   26.8197 C   0  0  0  0  0  0  0  0  0  0  0  0
    7.3282   -3.8948   29.1186 C   0  0  0  0  0  0  0  0  0  0  0  0
  1  3  4  0
  1  7  4  0
  2  3  1  0
  2  6  4  0
  2 16  4  0
  3 22  4  0
  4  9  4  0
  4 10  1  0
  4 20  4  0
  5 16  4  0
  5 23  4  0
  6 15  4  0
  7 12  4  0
  8 13  4  0
  8 14  4  0
  9 11  4  0
 11 14  4  0
 11 19  4  0
 12 18  4  0
 13 21  4  0
 15 23  4  0
 17 19  4  0
 17 20  4  0
 18 22  4  0
 19 21  4  0
M  END
$$$$

 Created by Python create_sdf_string function

 23 25  0  0  0  0  0  0  0  0999 V2000
    2.4610   -5.3070   29.1240 C   0  0  0  0  0  0  0  0  0  0  0  0
    4.7710   -4.6952   28.4803 C   0  0  0  0  0  0  0  0  0  0  0  0
    3.4047   -5.1087   28.1314 C   0  0  0  0  0  0  0  0  0  0  0  0
   -0.2234  -11.8615   16.8874 C   0  0  0  0  0  0  0  0  0  0  0  0
    6.4491   -4.1532   30.1213 C   0  0  0  0  0  0  0  0  0  0  0  0
    5.7060   -4.4340   27.4975 C   0  0  0  0  0  0  0  0  0  0  0  0
    1.1818   -5.6612   28.8399 C   0  0  0  0  0  0  0  0  0  0  0  0
   -1.2067   -7.3287   17.7772 C   0  0  0  0  0  0  0  0  0  0  0  0
   -0.0206  -10.5585   16.6210 C   0  0  0  0  0  0  0  0  0  0  0  0
    0.3696  -12.7626   16.2169 O   0  0  0  0  0  0  0  0  0  0  0  0
   -0.6895   -9.5676   17.3297 C   0  0  0  0  0  0  0  0  0  0  0  0
    0.8388   -5.8417   27.5264 C   0  0  0  0  0  0  0  0  0  0  0  0
   -2.0709   -7.6637   18.7817 C   0  0  0  0  0  0  0  0  0  0  0  0
   -0.5279   -8.2168   17.0717 C   0  0  0  0  0  0  0  0  0  0  0  0
    6.9694   -4.0191   27.8190 C   0  0  0  0  0  0  0  0  0  0  0  0
    5.1733   -4.5469   29.8123 C   0  0  0  0  0  0  0  0  0  0  0  0
   -1.7508  -11.3016   18.6072 C   0  0  0  0  0  0  0  0  0  0  0  0
    1.7497   -5.6771   26.4971 C   0  0  0  0  0  0  0  0  0  0  0  0
   -1.5799   -9.9322   18.3468 C   0  0  0  0  0  0  0  0  0  0  0  0
   -1.0871  -12.2214   17.8851 C   0  0  0  0  0  0  0  0  0  0  0  0
   -2.2706   -8.9669   19.0691 C   0  0  0  0  0  0  0  0  0  0  0  0
    3.0279   -5.3073   26.8197 C   0  0  0  0  0  0  0  0  0  0  0  0
    7.3282   -3.8948   29.1186 C   0  0  0  0  0  0  0  0  0  0  0  0
  1  3  4  0
  1  7  4  0
  2  3  1  0
  2  6  4  0
  2 16  4  0
  3 22  4  0
  4  9  4  0
  4 10  1  0
  4 20  4  0
  5 16  4  0
  5 23  4  0
  6 15  4  0
  7 12  4  0
  8 13  4  0
  8 14  4  0
  9 11  4  0
 11 14  4  0
 11 19  4  0
 12 18  4  0
 13 21  4  0
 15 23  4  0
 17 19  4  0
 17 20  4  0
 18 22  4  0
 19 21  4  0
M  END
$$$$

 Created by Python create_sdf_string function

 23 25  0  0  0  0  0  0  0  0999 V2000
    2.4610   -5.3070   29.1240 C   0  0  0  0  0  0  0  0  0  0  0  0
    4.7710   -4.6952   28.4803 C   0  0  0  0  0  0  0  0  0  0  0  0
    3.4047   -5.1087   28.1314 C   0  0  0  0  0  0  0  0  0  0  0  0
   -0.2234  -11.8615   16.8874 C   0  0  0  0  0  0  0  0  0  0  0  0
    6.4491   -4.1532   30.1213 C   0  0  0  0  0  0  0  0  0  0  0  0
    5.7060   -4.4340   27.4975 C   0  0  0  0  0  0  0  0  0  0  0  0
    1.1818   -5.6612   28.8399 C   0  0  0  0  0  0  0  0  0  0  0  0
   -1.2067   -7.3287   17.7772 C   0  0  0  0  0  0  0  0  0  0  0  0
   -0.0206  -10.5585   16.6210 C   0  0  0  0  0  0  0  0  0  0  0  0
    0.3696  -12.7626   16.2169 O   0  0  0  0  0  0  0  0  0  0  0  0
   -0.6895   -9.5676   17.3297 C   0  0  0  0  0  0  0  0  0  0  0  0
    0.8388   -5.8417   27.5264 C   0  0  0  0  0  0  0  0  0  0  0  0
   -2.0709   -7.6637   18.7817 C   0  0  0  0  0  0  0  0  0  0  0  0
   -0.5279   -8.2168   17.0717 C   0  0  0  0  0  0  0  0  0  0  0  0
    6.9694   -4.0191   27.8190 C   0  0  0  0  0  0  0  0  0  0  0  0
    5.1733   -4.5469   29.8123 C   0  0  0  0  0  0  0  0  0  0  0  0
   -1.7508  -11.3016   18.6072 C   0  0  0  0  0  0  0  0  0  0  0  0
    1.7497   -5.6771   26.4971 C   0  0  0  0  0  0  0  0  0  0  0  0
   -1.5799   -9.9322   18.3468 C   0  0  0  0  0  0  0  0  0  0  0  0
   -1.0871  -12.2214   17.8851 C   0  0  0  0  0  0  0  0  0  0  0  0
   -2.2706   -8.9669   19.0691 C   0  0  0  0  0  0  0  0  0  0  0  0
    3.0279   -5.3073   26.8197 C   0  0  0  0  0  0  0  0  0  0  0  0
    7.3282   -3.8948   29.1186 C   0  0  0  0  0  0  0  0  0  0  0  0
  1  3  4  0
  1  7  4  0
  2  3  1  0
  2  6  4  0
  2 16  4  0
  3 22  4  0
  4  9  4  0
  4 10  1  0
  4 20  4  0
  5 16  4  0
  5 23  4  0
  6 15  4  0
  7 12  4  0
  8 13  4  0
  8 14  4  0
  9 11  4  0
 11 14  4  0
 11 19  4  0
 12 18  4  0
 13 21  4  0
 15 23  4  0
 17 19  4  0
 17 20  4  0
 18 22  4  0
 19 21  4  0
M  END
$$$$

 Created by Python create_sdf_string function

 23 25  0  0  0  0  0  0  0  0999 V2000
    2.4610   -5.3070   29.1240 C   0  0  0  0  0  0  0  0  0  0  0  0
    4.7710   -4.6952   28.4803 C   0  0  0  0  0  0  0  0  0  0  0  0
    3.4047   -5.1087   28.1314 C   0  0  0  0  0  0  0  0  0  0  0  0
   -0.2234  -11.8615   16.8874 C   0  0  0  0  0  0  0  0  0  0  0  0
    6.4491   -4.1532   30.1213 C   0  0  0  0  0  0  0  0  0  0  0  0
    5.7060   -4.4340   27.4975 C   0  0  0  0  0  0  0  0  0  0  0  0
    1.1818   -5.6612   28.8399 C   0  0  0  0  0  0  0  0  0  0  0  0
   -1.2067   -7.3287   17.7772 C   0  0  0  0  0  0  0  0  0  0  0  0
   -0.0206  -10.5585   16.6210 C   0  0  0  0  0  0  0  0  0  0  0  0
    0.3696  -12.7626   16.2169 O   0  0  0  0  0  0  0  0  0  0  0  0
   -0.6895   -9.5676   17.3297 C   0  0  0  0  0  0  0  0  0  0  0  0
    0.8388   -5.8417   27.5264 C   0  0  0  0  0  0  0  0  0  0  0  0
   -2.0709   -7.6637   18.7817 C   0  0  0  0  0  0  0  0  0  0  0  0
   -0.5279   -8.2168   17.0717 C   0  0  0  0  0  0  0  0  0  0  0  0
    6.9694   -4.0191   27.8190 C   0  0  0  0  0  0  0  0  0  0  0  0
    5.1733   -4.5469   29.8123 C   0  0  0  0  0  0  0  0  0  0  0  0
   -1.7508  -11.3016   18.6072 C   0  0  0  0  0  0  0  0  0  0  0  0
    1.7497   -5.6771   26.4971 C   0  0  0  0  0  0  0  0  0  0  0  0
   -1.5799   -9.9322   18.3468 C   0  0  0  0  0  0  0  0  0  0  0  0
   -1.0871  -12.2214   17.8851 C   0  0  0  0  0  0  0  0  0  0  0  0
   -2.2706   -8.9669   19.0691 C   0  0  0  0  0  0  0  0  0  0  0  0
    3.0279   -5.3073   26.8197 C   0  0  0  0  0  0  0  0  0  0  0  0
    7.3282   -3.8948   29.1186 C   0  0  0  0  0  0  0  0  0  0  0  0
  1  3  4  0
  1  7  4  0
  2  3  1  0
  2  6  4  0
  2 16  4  0
  3 22  4  0
  4  9  4  0
  4 10  1  0
  4 20  4  0
  5 16  4  0
  5 23  4  0
  6 15  4  0
  7 12  4  0
  8 13  4  0
  8 14  4  0
  9 11  4  0
 11 14  4  0
 11 19  4  0
 12 18  4  0
 13 21  4  0
 15 23  4  0
 17 19  4  0
 17 20  4  0
 18 22  4  0
 19 21  4  0
M  END
$$$$

 Created by Python create_sdf_string function

 23 25  0  0  0  0  0  0  0  0999 V2000
    2.4610   -5.3070   29.1240 C   0  0  0  0  0  0  0  0  0  0  0  0
    4.7710   -4.6952   28.4803 C   0  0  0  0  0  0  0  0  0  0  0  0
    3.4047   -5.1087   28.1314 C   0  0  0  0  0  0  0  0  0  0  0  0
   -0.2234  -11.8615   16.8874 C   0  0  0  0  0  0  0  0  0  0  0  0
    6.4491   -4.1532   30.1213 C   0  0  0  0  0  0  0  0  0  0  0  0
    5.7060   -4.4340   27.4975 C   0  0  0  0  0  0  0  0  0  0  0  0
    1.1818   -5.6612   28.8399 C   0  0  0  0  0  0  0  0  0  0  0  0
   -1.2067   -7.3287   17.7772 C   0  0  0  0  0  0  0  0  0  0  0  0
   -0.0206  -10.5585   16.6210 C   0  0  0  0  0  0  0  0  0  0  0  0
    0.3696  -12.7626   16.2169 O   0  0  0  0  0  0  0  0  0  0  0  0
   -0.6895   -9.5676   17.3297 C   0  0  0  0  0  0  0  0  0  0  0  0
    0.8388   -5.8417   27.5264 C   0  0  0  0  0  0  0  0  0  0  0  0
   -2.0709   -7.6637   18.7817 C   0  0  0  0  0  0  0  0  0  0  0  0
   -0.5279   -8.2168   17.0717 C   0  0  0  0  0  0  0  0  0  0  0  0
    6.9694   -4.0191   27.8190 C   0  0  0  0  0  0  0  0  0  0  0  0
    5.1733   -4.5469   29.8123 C   0  0  0  0  0  0  0  0  0  0  0  0
   -1.7508  -11.3016   18.6072 C   0  0  0  0  0  0  0  0  0  0  0  0
    1.7497   -5.6771   26.4971 C   0  0  0  0  0  0  0  0  0  0  0  0
   -1.5799   -9.9322   18.3468 C   0  0  0  0  0  0  0  0  0  0  0  0
   -1.0871  -12.2214   17.8851 C   0  0  0  0  0  0  0  0  0  0  0  0
   -2.2706   -8.9669   19.0691 C   0  0  0  0  0  0  0  0  0  0  0  0
    3.0279   -5.3073   26.8197 C   0  0  0  0  0  0  0  0  0  0  0  0
    7.3282   -3.8948   29.1186 C   0  0  0  0  0  0  0  0  0  0  0  0
  1  3  4  0
  1  7  4  0
  2  3  1  0
  2  6  4  0
  2 16  4  0
  3 22  4  0
  4  9  4  0
  4 10  1  0
  4 20  4  0
  5 16  4  0
  5 23  4  0
  6 15  4  0
  7 12  4  0
  8 13  4  0
  8 14  4  0
  9 11  4  0
 11 14  4  0
 11 19  4  0
 12 18  4  0
 13 21  4  0
 15 23  4  0
 17 19  4  0
 17 20  4  0
 18 22  4  0
 19 21  4  0
M  END
$$$$

 Created by Python create_sdf_string function

 23 25  0  0  0  0  0  0  0  0999 V2000
    2.4610   -5.3070   29.1240 C   0  0  0  0  0  0  0  0  0  0  0  0
    4.7710   -4.6952   28.4803 C   0  0  0  0  0  0  0  0  0  0  0  0
    3.4047   -5.1087   28.1314 C   0  0  0  0  0  0  0  0  0  0  0  0
   -0.2234  -11.8615   16.8874 C   0  0  0  0  0  0  0  0  0  0  0  0
    6.4491   -4.1532   30.1213 C   0  0  0  0  0  0  0  0  0  0  0  0
    5.7060   -4.4340   27.4975 C   0  0  0  0  0  0  0  0  0  0  0  0
    1.1818   -5.6612   28.8399 C   0  0  0  0  0  0  0  0  0  0  0  0
   -1.2067   -7.3287   17.7772 C   0  0  0  0  0  0  0  0  0  0  0  0
   -0.0206  -10.5585   16.6210 C   0  0  0  0  0  0  0  0  0  0  0  0
    0.3696  -12.7626   16.2169 O   0  0  0  0  0  0  0  0  0  0  0  0
   -0.6895   -9.5676   17.3297 C   0  0  0  0  0  0  0  0  0  0  0  0
    0.8388   -5.8417   27.5264 C   0  0  0  0  0  0  0  0  0  0  0  0
   -2.0709   -7.6637   18.7817 C   0  0  0  0  0  0  0  0  0  0  0  0
   -0.5279   -8.2168   17.0717 C   0  0  0  0  0  0  0  0  0  0  0  0
    6.9694   -4.0191   27.8190 C   0  0  0  0  0  0  0  0  0  0  0  0
    5.1733   -4.5469   29.8123 C   0  0  0  0  0  0  0  0  0  0  0  0
   -1.7508  -11.3016   18.6072 C   0  0  0  0  0  0  0  0  0  0  0  0
    1.7497   -5.6771   26.4971 C   0  0  0  0  0  0  0  0  0  0  0  0
   -1.5799   -9.9322   18.3468 C   0  0  0  0  0  0  0  0  0  0  0  0
   -1.0871  -12.2214   17.8851 C   0  0  0  0  0  0  0  0  0  0  0  0
   -2.2706   -8.9669   19.0691 C   0  0  0  0  0  0  0  0  0  0  0  0
    3.0279   -5.3073   26.8197 C   0  0  0  0  0  0  0  0  0  0  0  0
    7.3282   -3.8948   29.1186 C   0  0  0  0  0  0  0  0  0  0  0  0
  1  3  4  0
  1  7  4  0
  2  3  1  0
  2  6  4  0
  2 16  4  0
  3 22  4  0
  4  9  4  0
  4 10  1  0
  4 20  4  0
  5 16  4  0
  5 23  4  0
  6 15  4  0
  7 12  4  0
  8 13  4  0
  8 14  4  0
  9 11  4  0
 11 14  4  0
 11 19  4  0
 12 18  4  0
 13 21  4  0
 15 23  4  0
 17 19  4  0
 17 20  4  0
 18 22  4  0
 19 21  4  0
M  END
$$$$

 Created by Python create_sdf_string function

 23 25  0  0  0  0  0  0  0  0999 V2000
    2.4610   -5.3070   29.1240 C   0  0  0  0  0  0  0  0  0  0  0  0
    4.7710   -4.6952   28.4803 C   0  0  0  0  0  0  0  0  0  0  0  0
    3.4047   -5.1087   28.1314 C   0  0  0  0  0  0  0  0  0  0  0  0
   -0.2234  -11.8615   16.8874 C   0  0  0  0  0  0  0  0  0  0  0  0
    6.4491   -4.1532   30.1213 C   0  0  0  0  0  0  0  0  0  0  0  0
    5.7060   -4.4340   27.4975 C   0  0  0  0  0  0  0  0  0  0  0  0
    1.1818   -5.6612   28.8399 C   0  0  0  0  0  0  0  0  0  0  0  0
   -1.2067   -7.3287   17.7772 C   0  0  0  0  0  0  0  0  0  0  0  0
   -0.0206  -10.5585   16.6210 C   0  0  0  0  0  0  0  0  0  0  0  0
    0.3696  -12.7626   16.2169 O   0  0  0  0  0  0  0  0  0  0  0  0
   -0.6895   -9.5676   17.3297 C   0  0  0  0  0  0  0  0  0  0  0  0
    0.8388   -5.8417   27.5264 C   0  0  0  0  0  0  0  0  0  0  0  0
   -2.0709   -7.6637   18.7817 C   0  0  0  0  0  0  0  0  0  0  0  0
   -0.5279   -8.2168   17.0717 C   0  0  0  0  0  0  0  0  0  0  0  0
    6.9694   -4.0191   27.8190 C   0  0  0  0  0  0  0  0  0  0  0  0
    5.1733   -4.5469   29.8123 C   0  0  0  0  0  0  0  0  0  0  0  0
   -1.7508  -11.3016   18.6072 C   0  0  0  0  0  0  0  0  0  0  0  0
    1.7497   -5.6771   26.4971 C   0  0  0  0  0  0  0  0  0  0  0  0
   -1.5799   -9.9322   18.3468 C   0  0  0  0  0  0  0  0  0  0  0  0
   -1.0871  -12.2214   17.8851 C   0  0  0  0  0  0  0  0  0  0  0  0
   -2.2706   -8.9669   19.0691 C   0  0  0  0  0  0  0  0  0  0  0  0
    3.0279   -5.3073   26.8197 C   0  0  0  0  0  0  0  0  0  0  0  0
    7.3282   -3.8948   29.1186 C   0  0  0  0  0  0  0  0  0  0  0  0
  1  3  4  0
  1  7  4  0
  2  3  1  0
  2  6  4  0
  2 16  4  0
  3 22  4  0
  4  9  4  0
  4 10  1  0
  4 20  4  0
  5 16  4  0
  5 23  4  0
  6 15  4  0
  7 12  4  0
  8 13  4  0
  8 14  4  0
  9 11  4  0
 11 14  4  0
 11 19  4  0
 12 18  4  0
 13 21  4  0
 15 23  4  0
 17 19  4  0
 17 20  4  0
 18 22  4  0
 19 21  4  0
M  END
$$$$

 Created by Python create_sdf_string function

 23 25  0  0  0  0  0  0  0  0999 V2000
    2.4610   -5.3070   29.1240 C   0  0  0  0  0  0  0  0  0  0  0  0
    4.7710   -4.6952   28.4803 C   0  0  0  0  0  0  0  0  0  0  0  0
    3.4047   -5.1087   28.1314 C   0  0  0  0  0  0  0  0  0  0  0  0
   -0.2234  -11.8615   16.8874 C   0  0  0  0  0  0  0  0  0  0  0  0
    6.4491   -4.1532   30.1213 C   0  0  0  0  0  0  0  0  0  0  0  0
    5.7060   -4.4340   27.4975 C   0  0  0  0  0  0  0  0  0  0  0  0
    1.1818   -5.6612   28.8399 C   0  0  0  0  0  0  0  0  0  0  0  0
   -1.2067   -7.3287   17.7772 C   0  0  0  0  0  0  0  0  0  0  0  0
   -0.0206  -10.5585   16.6210 C   0  0  0  0  0  0  0  0  0  0  0  0
    0.3696  -12.7626   16.2169 O   0  0  0  0  0  0  0  0  0  0  0  0
   -0.6895   -9.5676   17.3297 C   0  0  0  0  0  0  0  0  0  0  0  0
    0.8388   -5.8417   27.5264 C   0  0  0  0  0  0  0  0  0  0  0  0
   -2.0709   -7.6637   18.7817 C   0  0  0  0  0  0  0  0  0  0  0  0
   -0.5279   -8.2168   17.0717 C   0  0  0  0  0  0  0  0  0  0  0  0
    6.9694   -4.0191   27.8190 C   0  0  0  0  0  0  0  0  0  0  0  0
    5.1733   -4.5469   29.8123 C   0  0  0  0  0  0  0  0  0  0  0  0
   -1.7508  -11.3016   18.6072 C   0  0  0  0  0  0  0  0  0  0  0  0
    1.7497   -5.6771   26.4971 C   0  0  0  0  0  0  0  0  0  0  0  0
   -1.5799   -9.9322   18.3468 C   0  0  0  0  0  0  0  0  0  0  0  0
   -1.0871  -12.2214   17.8851 C   0  0  0  0  0  0  0  0  0  0  0  0
   -2.2706   -8.9669   19.0691 C   0  0  0  0  0  0  0  0  0  0  0  0
    3.0279   -5.3073   26.8197 C   0  0  0  0  0  0  0  0  0  0  0  0
    7.3282   -3.8948   29.1186 C   0  0  0  0  0  0  0  0  0  0  0  0
  1  3  4  0
  1  7  4  0
  2  3  1  0
  2  6  4  0
  2 16  4  0
  3 22  4  0
  4  9  4  0
  4 10  1  0
  4 20  4  0
  5 16  4  0
  5 23  4  0
  6 15  4  0
  7 12  4  0
  8 13  4  0
  8 14  4  0
  9 11  4  0
 11 14  4  0
 11 19  4  0
 12 18  4  0
 13 21  4  0
 15 23  4  0
 17 19  4  0
 17 20  4  0
 18 22  4  0
 19 21  4  0
M  END
$$$$

 Created by Python create_sdf_string function

 23 25  0  0  0  0  0  0  0  0999 V2000
    2.4610   -5.3070   29.1240 C   0  0  0  0  0  0  0  0  0  0  0  0
    4.7710   -4.6952   28.4803 C   0  0  0  0  0  0  0  0  0  0  0  0
    3.4047   -5.1087   28.1314 C   0  0  0  0  0  0  0  0  0  0  0  0
   -0.2234  -11.8615   16.8874 C   0  0  0  0  0  0  0  0  0  0  0  0
    6.4491   -4.1532   30.1213 C   0  0  0  0  0  0  0  0  0  0  0  0
    5.7060   -4.4340   27.4975 C   0  0  0  0  0  0  0  0  0  0  0  0
    1.1818   -5.6612   28.8399 C   0  0  0  0  0  0  0  0  0  0  0  0
   -1.2067   -7.3287   17.7772 C   0  0  0  0  0  0  0  0  0  0  0  0
   -0.0206  -10.5585   16.6210 C   0  0  0  0  0  0  0  0  0  0  0  0
    0.3696  -12.7626   16.2169 O   0  0  0  0  0  0  0  0  0  0  0  0
   -0.6895   -9.5676   17.3297 C   0  0  0  0  0  0  0  0  0  0  0  0
    0.8388   -5.8417   27.5264 C   0  0  0  0  0  0  0  0  0  0  0  0
   -2.0709   -7.6637   18.7817 C   0  0  0  0  0  0  0  0  0  0  0  0
   -0.5279   -8.2168   17.0717 C   0  0  0  0  0  0  0  0  0  0  0  0
    6.9694   -4.0191   27.8190 C   0  0  0  0  0  0  0  0  0  0  0  0
    5.1733   -4.5469   29.8123 C   0  0  0  0  0  0  0  0  0  0  0  0
   -1.7508  -11.3016   18.6072 C   0  0  0  0  0  0  0  0  0  0  0  0
    1.7497   -5.6771   26.4971 C   0  0  0  0  0  0  0  0  0  0  0  0
   -1.5799   -9.9322   18.3468 C   0  0  0  0  0  0  0  0  0  0  0  0
   -1.0871  -12.2214   17.8851 C   0  0  0  0  0  0  0  0  0  0  0  0
   -2.2706   -8.9669   19.0691 C   0  0  0  0  0  0  0  0  0  0  0  0
    3.0279   -5.3073   26.8197 C   0  0  0  0  0  0  0  0  0  0  0  0
    7.3282   -3.8948   29.1186 C   0  0  0  0  0  0  0  0  0  0  0  0
  1  3  4  0
  1  7  4  0
  2  3  1  0
  2  6  4  0
  2 16  4  0
  3 22  4  0
  4  9  4  0
  4 10  1  0
  4 20  4  0
  5 16  4  0
  5 23  4  0
  6 15  4  0
  7 12  4  0
  8 13  4  0
  8 14  4  0
  9 11  4  0
 11 14  4  0
 11 19  4  0
 12 18  4  0
 13 21  4  0
 15 23  4  0
 17 19  4  0
 17 20  4  0
 18 22  4  0
 19 21  4  0
M  END
$$$$

 Created by Python create_sdf_string function

 23 25  0  0  0  0  0  0  0  0999 V2000
    2.4610   -5.3070   29.1240 C   0  0  0  0  0  0  0  0  0  0  0  0
    4.7710   -4.6952   28.4803 C   0  0  0  0  0  0  0  0  0  0  0  0
    3.4047   -5.1087   28.1314 C   0  0  0  0  0  0  0  0  0  0  0  0
   -0.2234  -11.8615   16.8874 C   0  0  0  0  0  0  0  0  0  0  0  0
    6.4491   -4.1532   30.1213 C   0  0  0  0  0  0  0  0  0  0  0  0
    5.7060   -4.4340   27.4975 C   0  0  0  0  0  0  0  0  0  0  0  0
    1.1818   -5.6612   28.8399 C   0  0  0  0  0  0  0  0  0  0  0  0
   -1.2067   -7.3287   17.7772 C   0  0  0  0  0  0  0  0  0  0  0  0
   -0.0206  -10.5585   16.6210 C   0  0  0  0  0  0  0  0  0  0  0  0
    0.3696  -12.7626   16.2169 O   0  0  0  0  0  0  0  0  0  0  0  0
   -0.6895   -9.5676   17.3297 C   0  0  0  0  0  0  0  0  0  0  0  0
    0.8388   -5.8417   27.5264 C   0  0  0  0  0  0  0  0  0  0  0  0
   -2.0709   -7.6637   18.7817 C   0  0  0  0  0  0  0  0  0  0  0  0
   -0.5279   -8.2168   17.0717 C   0  0  0  0  0  0  0  0  0  0  0  0
    6.9694   -4.0191   27.8190 C   0  0  0  0  0  0  0  0  0  0  0  0
    5.1733   -4.5469   29.8123 C   0  0  0  0  0  0  0  0  0  0  0  0
   -1.7508  -11.3016   18.6072 C   0  0  0  0  0  0  0  0  0  0  0  0
    1.7497   -5.6771   26.4971 C   0  0  0  0  0  0  0  0  0  0  0  0
   -1.5799   -9.9322   18.3468 C   0  0  0  0  0  0  0  0  0  0  0  0
   -1.0871  -12.2214   17.8851 C   0  0  0  0  0  0  0  0  0  0  0  0
   -2.2706   -8.9669   19.0691 C   0  0  0  0  0  0  0  0  0  0  0  0
    3.0279   -5.3073   26.8197 C   0  0  0  0  0  0  0  0  0  0  0  0
    7.3282   -3.8948   29.1186 C   0  0  0  0  0  0  0  0  0  0  0  0
  1  3  4  0
  1  7  4  0
  2  3  1  0
  2  6  4  0
  2 16  4  0
  3 22  4  0
  4  9  4  0
  4 10  1  0
  4 20  4  0
  5 16  4  0
  5 23  4  0
  6 15  4  0
  7 12  4  0
  8 13  4  0
  8 14  4  0
  9 11  4  0
 11 14  4  0
 11 19  4  0
 12 18  4  0
 13 21  4  0
 15 23  4  0
 17 19  4  0
 17 20  4  0
 18 22  4  0
 19 21  4  0
M  END
$$$$

 Created by Python create_sdf_string function

 23 25  0  0  0  0  0  0  0  0999 V2000
    2.4610   -5.3070   29.1240 C   0  0  0  0  0  0  0  0  0  0  0  0
    4.7710   -4.6952   28.4803 C   0  0  0  0  0  0  0  0  0  0  0  0
    3.4047   -5.1087   28.1314 C   0  0  0  0  0  0  0  0  0  0  0  0
   -0.2234  -11.8615   16.8874 C   0  0  0  0  0  0  0  0  0  0  0  0
    6.4491   -4.1532   30.1213 C   0  0  0  0  0  0  0  0  0  0  0  0
    5.7060   -4.4340   27.4975 C   0  0  0  0  0  0  0  0  0  0  0  0
    1.1818   -5.6612   28.8399 C   0  0  0  0  0  0  0  0  0  0  0  0
   -1.2067   -7.3287   17.7772 C   0  0  0  0  0  0  0  0  0  0  0  0
   -0.0206  -10.5585   16.6210 C   0  0  0  0  0  0  0  0  0  0  0  0
    0.3696  -12.7626   16.2169 O   0  0  0  0  0  0  0  0  0  0  0  0
   -0.6895   -9.5676   17.3297 C   0  0  0  0  0  0  0  0  0  0  0  0
    0.8388   -5.8417   27.5264 C   0  0  0  0  0  0  0  0  0  0  0  0
   -2.0709   -7.6637   18.7817 C   0  0  0  0  0  0  0  0  0  0  0  0
   -0.5279   -8.2168   17.0717 C   0  0  0  0  0  0  0  0  0  0  0  0
    6.9694   -4.0191   27.8190 C   0  0  0  0  0  0  0  0  0  0  0  0
    5.1733   -4.5469   29.8123 C   0  0  0  0  0  0  0  0  0  0  0  0
   -1.7508  -11.3016   18.6072 C   0  0  0  0  0  0  0  0  0  0  0  0
    1.7497   -5.6771   26.4971 C   0  0  0  0  0  0  0  0  0  0  0  0
   -1.5799   -9.9322   18.3468 C   0  0  0  0  0  0  0  0  0  0  0  0
   -1.0871  -12.2214   17.8851 C   0  0  0  0  0  0  0  0  0  0  0  0
   -2.2706   -8.9669   19.0691 C   0  0  0  0  0  0  0  0  0  0  0  0
    3.0279   -5.3073   26.8197 C   0  0  0  0  0  0  0  0  0  0  0  0
    7.3282   -3.8948   29.1186 C   0  0  0  0  0  0  0  0  0  0  0  0
  1  3  4  0
  1  7  4  0
  2  3  1  0
  2  6  4  0
  2 16  4  0
  3 22  4  0
  4  9  4  0
  4 10  1  0
  4 20  4  0
  5 16  4  0
  5 23  4  0
  6 15  4  0
  7 12  4  0
  8 13  4  0
  8 14  4  0
  9 11  4  0
 11 14  4  0
 11 19  4  0
 12 18  4  0
 13 21  4  0
 15 23  4  0
 17 19  4  0
 17 20  4  0
 18 22  4  0
 19 21  4  0
M  END
$$$$

 Created by Python create_sdf_string function

 23 25  0  0  0  0  0  0  0  0999 V2000
    2.4610   -5.3070   29.1240 C   0  0  0  0  0  0  0  0  0  0  0  0
    4.7710   -4.6952   28.4803 C   0  0  0  0  0  0  0  0  0  0  0  0
    3.4047   -5.1087   28.1314 C   0  0  0  0  0  0  0  0  0  0  0  0
   -0.2234  -11.8615   16.8874 C   0  0  0  0  0  0  0  0  0  0  0  0
    6.4491   -4.1532   30.1213 C   0  0  0  0  0  0  0  0  0  0  0  0
    5.7060   -4.4340   27.4975 C   0  0  0  0  0  0  0  0  0  0  0  0
    1.1818   -5.6612   28.8399 C   0  0  0  0  0  0  0  0  0  0  0  0
   -1.2067   -7.3287   17.7772 C   0  0  0  0  0  0  0  0  0  0  0  0
   -0.0206  -10.5585   16.6210 C   0  0  0  0  0  0  0  0  0  0  0  0
    0.3696  -12.7626   16.2169 O   0  0  0  0  0  0  0  0  0  0  0  0
   -0.6895   -9.5676   17.3297 C   0  0  0  0  0  0  0  0  0  0  0  0
    0.8388   -5.8417   27.5264 C   0  0  0  0  0  0  0  0  0  0  0  0
   -2.0709   -7.6637   18.7817 C   0  0  0  0  0  0  0  0  0  0  0  0
   -0.5279   -8.2168   17.0717 C   0  0  0  0  0  0  0  0  0  0  0  0
    6.9694   -4.0191   27.8190 C   0  0  0  0  0  0  0  0  0  0  0  0
    5.1733   -4.5469   29.8123 C   0  0  0  0  0  0  0  0  0  0  0  0
   -1.7508  -11.3016   18.6072 C   0  0  0  0  0  0  0  0  0  0  0  0
    1.7497   -5.6771   26.4971 C   0  0  0  0  0  0  0  0  0  0  0  0
   -1.5799   -9.9322   18.3468 C   0  0  0  0  0  0  0  0  0  0  0  0
   -1.0871  -12.2214   17.8851 C   0  0  0  0  0  0  0  0  0  0  0  0
   -2.2706   -8.9669   19.0691 C   0  0  0  0  0  0  0  0  0  0  0  0
    3.0279   -5.3073   26.8197 C   0  0  0  0  0  0  0  0  0  0  0  0
    7.3282   -3.8948   29.1186 C   0  0  0  0  0  0  0  0  0  0  0  0
  1  3  4  0
  1  7  4  0
  2  3  1  0
  2  6  4  0
  2 16  4  0
  3 22  4  0
  4  9  4  0
  4 10  1  0
  4 20  4  0
  5 16  4  0
  5 23  4  0
  6 15  4  0
  7 12  4  0
  8 13  4  0
  8 14  4  0
  9 11  4  0
 11 14  4  0
 11 19  4  0
 12 18  4  0
 13 21  4  0
 15 23  4  0
 17 19  4  0
 17 20  4  0
 18 22  4  0
 19 21  4  0
M  END
$$$$

 Created by Python create_sdf_string function

 23 25  0  0  0  0  0  0  0  0999 V2000
    2.4610   -5.3070   29.1240 C   0  0  0  0  0  0  0  0  0  0  0  0
    4.7710   -4.6952   28.4803 C   0  0  0  0  0  0  0  0  0  0  0  0
    3.4047   -5.1087   28.1314 C   0  0  0  0  0  0  0  0  0  0  0  0
   -0.2234  -11.8615   16.8874 C   0  0  0  0  0  0  0  0  0  0  0  0
    6.4491   -4.1532   30.1213 C   0  0  0  0  0  0  0  0  0  0  0  0
    5.7060   -4.4340   27.4975 C   0  0  0  0  0  0  0  0  0  0  0  0
    1.1818   -5.6612   28.8399 C   0  0  0  0  0  0  0  0  0  0  0  0
   -1.2067   -7.3287   17.7772 C   0  0  0  0  0  0  0  0  0  0  0  0
   -0.0206  -10.5585   16.6210 C   0  0  0  0  0  0  0  0  0  0  0  0
    0.3696  -12.7626   16.2169 O   0  0  0  0  0  0  0  0  0  0  0  0
   -0.6895   -9.5676   17.3297 C   0  0  0  0  0  0  0  0  0  0  0  0
    0.8388   -5.8417   27.5264 C   0  0  0  0  0  0  0  0  0  0  0  0
   -2.0709   -7.6637   18.7817 C   0  0  0  0  0  0  0  0  0  0  0  0
   -0.5279   -8.2168   17.0717 C   0  0  0  0  0  0  0  0  0  0  0  0
    6.9694   -4.0191   27.8190 C   0  0  0  0  0  0  0  0  0  0  0  0
    5.1733   -4.5469   29.8123 C   0  0  0  0  0  0  0  0  0  0  0  0
   -1.7508  -11.3016   18.6072 C   0  0  0  0  0  0  0  0  0  0  0  0
    1.7497   -5.6771   26.4971 C   0  0  0  0  0  0  0  0  0  0  0  0
   -1.5799   -9.9322   18.3468 C   0  0  0  0  0  0  0  0  0  0  0  0
   -1.0871  -12.2214   17.8851 C   0  0  0  0  0  0  0  0  0  0  0  0
   -2.2706   -8.9669   19.0691 C   0  0  0  0  0  0  0  0  0  0  0  0
    3.0279   -5.3073   26.8197 C   0  0  0  0  0  0  0  0  0  0  0  0
    7.3282   -3.8948   29.1186 C   0  0  0  0  0  0  0  0  0  0  0  0
  1  3  4  0
  1  7  4  0
  2  3  1  0
  2  6  4  0
  2 16  4  0
  3 22  4  0
  4  9  4  0
  4 10  1  0
  4 20  4  0
  5 16  4  0
  5 23  4  0
  6 15  4  0
  7 12  4  0
  8 13  4  0
  8 14  4  0
  9 11  4  0
 11 14  4  0
 11 19  4  0
 12 18  4  0
 13 21  4  0
 15 23  4  0
 17 19  4  0
 17 20  4  0
 18 22  4  0
 19 21  4  0
M  END
$$$$

 Created by Python create_sdf_string function

 23 25  0  0  0  0  0  0  0  0999 V2000
    2.4610   -5.3070   29.1240 C   0  0  0  0  0  0  0  0  0  0  0  0
    4.7710   -4.6952   28.4803 C   0  0  0  0  0  0  0  0  0  0  0  0
    3.4047   -5.1087   28.1314 C   0  0  0  0  0  0  0  0  0  0  0  0
   -0.2234  -11.8615   16.8874 C   0  0  0  0  0  0  0  0  0  0  0  0
    6.4491   -4.1532   30.1213 C   0  0  0  0  0  0  0  0  0  0  0  0
    5.7060   -4.4340   27.4975 C   0  0  0  0  0  0  0  0  0  0  0  0
    1.1818   -5.6612   28.8399 C   0  0  0  0  0  0  0  0  0  0  0  0
   -1.2067   -7.3287   17.7772 C   0  0  0  0  0  0  0  0  0  0  0  0
   -0.0206  -10.5585   16.6210 C   0  0  0  0  0  0  0  0  0  0  0  0
    0.3696  -12.7626   16.2169 O   0  0  0  0  0  0  0  0  0  0  0  0
   -0.6895   -9.5676   17.3297 C   0  0  0  0  0  0  0  0  0  0  0  0
    0.8388   -5.8417   27.5264 C   0  0  0  0  0  0  0  0  0  0  0  0
   -2.0709   -7.6637   18.7817 C   0  0  0  0  0  0  0  0  0  0  0  0
   -0.5279   -8.2168   17.0717 C   0  0  0  0  0  0  0  0  0  0  0  0
    6.9694   -4.0191   27.8190 C   0  0  0  0  0  0  0  0  0  0  0  0
    5.1733   -4.5469   29.8123 C   0  0  0  0  0  0  0  0  0  0  0  0
   -1.7508  -11.3016   18.6072 C   0  0  0  0  0  0  0  0  0  0  0  0
    1.7497   -5.6771   26.4971 C   0  0  0  0  0  0  0  0  0  0  0  0
   -1.5799   -9.9322   18.3468 C   0  0  0  0  0  0  0  0  0  0  0  0
   -1.0871  -12.2214   17.8851 C   0  0  0  0  0  0  0  0  0  0  0  0
   -2.2706   -8.9669   19.0691 C   0  0  0  0  0  0  0  0  0  0  0  0
    3.0279   -5.3073   26.8197 C   0  0  0  0  0  0  0  0  0  0  0  0
    7.3282   -3.8948   29.1186 C   0  0  0  0  0  0  0  0  0  0  0  0
  1  3  4  0
  1  7  4  0
  2  3  1  0
  2  6  4  0
  2 16  4  0
  3 22  4  0
  4  9  4  0
  4 10  1  0
  4 20  4  0
  5 16  4  0
  5 23  4  0
  6 15  4  0
  7 12  4  0
  8 13  4  0
  8 14  4  0
  9 11  4  0
 11 14  4  0
 11 19  4  0
 12 18  4  0
 13 21  4  0
 15 23  4  0
 17 19  4  0
 17 20  4  0
 18 22  4  0
 19 21  4  0
M  END
$$$$

 Created by Python create_sdf_string function

 23 25  0  0  0  0  0  0  0  0999 V2000
    2.4610   -5.3070   29.1240 C   0  0  0  0  0  0  0  0  0  0  0  0
    4.7710   -4.6952   28.4803 C   0  0  0  0  0  0  0  0  0  0  0  0
    3.4047   -5.1087   28.1314 C   0  0  0  0  0  0  0  0  0  0  0  0
   -0.2234  -11.8615   16.8874 C   0  0  0  0  0  0  0  0  0  0  0  0
    6.4491   -4.1532   30.1213 C   0  0  0  0  0  0  0  0  0  0  0  0
    5.7060   -4.4340   27.4975 C   0  0  0  0  0  0  0  0  0  0  0  0
    1.1818   -5.6612   28.8399 C   0  0  0  0  0  0  0  0  0  0  0  0
   -1.2067   -7.3287   17.7772 C   0  0  0  0  0  0  0  0  0  0  0  0
   -0.0206  -10.5585   16.6210 C   0  0  0  0  0  0  0  0  0  0  0  0
    0.3696  -12.7626   16.2169 O   0  0  0  0  0  0  0  0  0  0  0  0
   -0.6895   -9.5676   17.3297 C   0  0  0  0  0  0  0  0  0  0  0  0
    0.8388   -5.8417   27.5264 C   0  0  0  0  0  0  0  0  0  0  0  0
   -2.0709   -7.6637   18.7817 C   0  0  0  0  0  0  0  0  0  0  0  0
   -0.5279   -8.2168   17.0717 C   0  0  0  0  0  0  0  0  0  0  0  0
    6.9694   -4.0191   27.8190 C   0  0  0  0  0  0  0  0  0  0  0  0
    5.1733   -4.5469   29.8123 C   0  0  0  0  0  0  0  0  0  0  0  0
   -1.7508  -11.3016   18.6072 C   0  0  0  0  0  0  0  0  0  0  0  0
    1.7497   -5.6771   26.4971 C   0  0  0  0  0  0  0  0  0  0  0  0
   -1.5799   -9.9322   18.3468 C   0  0  0  0  0  0  0  0  0  0  0  0
   -1.0871  -12.2214   17.8851 C   0  0  0  0  0  0  0  0  0  0  0  0
   -2.2706   -8.9669   19.0691 C   0  0  0  0  0  0  0  0  0  0  0  0
    3.0279   -5.3073   26.8197 C   0  0  0  0  0  0  0  0  0  0  0  0
    7.3282   -3.8948   29.1186 C   0  0  0  0  0  0  0  0  0  0  0  0
  1  3  4  0
  1  7  4  0
  2  3  1  0
  2  6  4  0
  2 16  4  0
  3 22  4  0
  4  9  4  0
  4 10  1  0
  4 20  4  0
  5 16  4  0
  5 23  4  0
  6 15  4  0
  7 12  4  0
  8 13  4  0
  8 14  4  0
  9 11  4  0
 11 14  4  0
 11 19  4  0
 12 18  4  0
 13 21  4  0
 15 23  4  0
 17 19  4  0
 17 20  4  0
 18 22  4  0
 19 21  4  0
M  END
$$$$

 Created by Python create_sdf_string function

 23 25  0  0  0  0  0  0  0  0999 V2000
    2.4610   -5.3070   29.1240 C   0  0  0  0  0  0  0  0  0  0  0  0
    4.7710   -4.6952   28.4803 C   0  0  0  0  0  0  0  0  0  0  0  0
    3.4047   -5.1087   28.1314 C   0  0  0  0  0  0  0  0  0  0  0  0
   -0.2234  -11.8615   16.8874 C   0  0  0  0  0  0  0  0  0  0  0  0
    6.4491   -4.1532   30.1213 C   0  0  0  0  0  0  0  0  0  0  0  0
    5.7060   -4.4340   27.4975 C   0  0  0  0  0  0  0  0  0  0  0  0
    1.1818   -5.6612   28.8399 C   0  0  0  0  0  0  0  0  0  0  0  0
   -1.2067   -7.3287   17.7772 C   0  0  0  0  0  0  0  0  0  0  0  0
   -0.0206  -10.5585   16.6210 C   0  0  0  0  0  0  0  0  0  0  0  0
    0.3696  -12.7626   16.2169 O   0  0  0  0  0  0  0  0  0  0  0  0
   -0.6895   -9.5676   17.3297 C   0  0  0  0  0  0  0  0  0  0  0  0
    0.8388   -5.8417   27.5264 C   0  0  0  0  0  0  0  0  0  0  0  0
   -2.0709   -7.6637   18.7817 C   0  0  0  0  0  0  0  0  0  0  0  0
   -0.5279   -8.2168   17.0717 C   0  0  0  0  0  0  0  0  0  0  0  0
    6.9694   -4.0191   27.8190 C   0  0  0  0  0  0  0  0  0  0  0  0
    5.1733   -4.5469   29.8123 C   0  0  0  0  0  0  0  0  0  0  0  0
   -1.7508  -11.3016   18.6072 C   0  0  0  0  0  0  0  0  0  0  0  0
    1.7497   -5.6771   26.4971 C   0  0  0  0  0  0  0  0  0  0  0  0
   -1.5799   -9.9322   18.3468 C   0  0  0  0  0  0  0  0  0  0  0  0
   -1.0871  -12.2214   17.8851 C   0  0  0  0  0  0  0  0  0  0  0  0
   -2.2706   -8.9669   19.0691 C   0  0  0  0  0  0  0  0  0  0  0  0
    3.0279   -5.3073   26.8197 C   0  0  0  0  0  0  0  0  0  0  0  0
    7.3282   -3.8948   29.1186 C   0  0  0  0  0  0  0  0  0  0  0  0
  1  3  4  0
  1  7  4  0
  2  3  1  0
  2  6  4  0
  2 16  4  0
  3 22  4  0
  4  9  4  0
  4 10  1  0
  4 20  4  0
  5 16  4  0
  5 23  4  0
  6 15  4  0
  7 12  4  0
  8 13  4  0
  8 14  4  0
  9 11  4  0
 11 14  4  0
 11 19  4  0
 12 18  4  0
 13 21  4  0
 15 23  4  0
 17 19  4  0
 17 20  4  0
 18 22  4  0
 19 21  4  0
M  END
$$$$

 Created by Python create_sdf_string function

 23 25  0  0  0  0  0  0  0  0999 V2000
    2.4610   -5.3070   29.1240 C   0  0  0  0  0  0  0  0  0  0  0  0
    4.7710   -4.6952   28.4803 C   0  0  0  0  0  0  0  0  0  0  0  0
    3.4047   -5.1087   28.1314 C   0  0  0  0  0  0  0  0  0  0  0  0
   -0.2234  -11.8615   16.8874 C   0  0  0  0  0  0  0  0  0  0  0  0
    6.4491   -4.1532   30.1213 C   0  0  0  0  0  0  0  0  0  0  0  0
    5.7060   -4.4340   27.4975 C   0  0  0  0  0  0  0  0  0  0  0  0
    1.1818   -5.6612   28.8399 C   0  0  0  0  0  0  0  0  0  0  0  0
   -1.2067   -7.3287   17.7772 C   0  0  0  0  0  0  0  0  0  0  0  0
   -0.0206  -10.5585   16.6210 C   0  0  0  0  0  0  0  0  0  0  0  0
    0.3696  -12.7626   16.2169 O   0  0  0  0  0  0  0  0  0  0  0  0
   -0.6895   -9.5676   17.3297 C   0  0  0  0  0  0  0  0  0  0  0  0
    0.8388   -5.8417   27.5264 C   0  0  0  0  0  0  0  0  0  0  0  0
   -2.0709   -7.6637   18.7817 C   0  0  0  0  0  0  0  0  0  0  0  0
   -0.5279   -8.2168   17.0717 C   0  0  0  0  0  0  0  0  0  0  0  0
    6.9694   -4.0191   27.8190 C   0  0  0  0  0  0  0  0  0  0  0  0
    5.1733   -4.5469   29.8123 C   0  0  0  0  0  0  0  0  0  0  0  0
   -1.7508  -11.3016   18.6072 C   0  0  0  0  0  0  0  0  0  0  0  0
    1.7497   -5.6771   26.4971 C   0  0  0  0  0  0  0  0  0  0  0  0
   -1.5799   -9.9322   18.3468 C   0  0  0  0  0  0  0  0  0  0  0  0
   -1.0871  -12.2214   17.8851 C   0  0  0  0  0  0  0  0  0  0  0  0
   -2.2706   -8.9669   19.0691 C   0  0  0  0  0  0  0  0  0  0  0  0
    3.0279   -5.3073   26.8197 C   0  0  0  0  0  0  0  0  0  0  0  0
    7.3282   -3.8948   29.1186 C   0  0  0  0  0  0  0  0  0  0  0  0
  1  3  4  0
  1  7  4  0
  2  3  1  0
  2  6  4  0
  2 16  4  0
  3 22  4  0
  4  9  4  0
  4 10  1  0
  4 20  4  0
  5 16  4  0
  5 23  4  0
  6 15  4  0
  7 12  4  0
  8 13  4  0
  8 14  4  0
  9 11  4  0
 11 14  4  0
 11 19  4  0
 12 18  4  0
 13 21  4  0
 15 23  4  0
 17 19  4  0
 17 20  4  0
 18 22  4  0
 19 21  4  0
M  END
$$$$

 Created by Python create_sdf_string function

 23 25  0  0  0  0  0  0  0  0999 V2000
    2.4610   -5.3070   29.1240 C   0  0  0  0  0  0  0  0  0  0  0  0
    4.7710   -4.6952   28.4803 C   0  0  0  0  0  0  0  0  0  0  0  0
    3.4047   -5.1087   28.1314 C   0  0  0  0  0  0  0  0  0  0  0  0
   -0.2234  -11.8615   16.8874 C   0  0  0  0  0  0  0  0  0  0  0  0
    6.4491   -4.1532   30.1213 C   0  0  0  0  0  0  0  0  0  0  0  0
    5.7060   -4.4340   27.4975 C   0  0  0  0  0  0  0  0  0  0  0  0
    1.1818   -5.6612   28.8399 C   0  0  0  0  0  0  0  0  0  0  0  0
   -1.2067   -7.3287   17.7772 C   0  0  0  0  0  0  0  0  0  0  0  0
   -0.0206  -10.5585   16.6210 C   0  0  0  0  0  0  0  0  0  0  0  0
    0.3696  -12.7626   16.2169 O   0  0  0  0  0  0  0  0  0  0  0  0
   -0.6895   -9.5676   17.3297 C   0  0  0  0  0  0  0  0  0  0  0  0
    0.8388   -5.8417   27.5264 C   0  0  0  0  0  0  0  0  0  0  0  0
   -2.0709   -7.6637   18.7817 C   0  0  0  0  0  0  0  0  0  0  0  0
   -0.5279   -8.2168   17.0717 C   0  0  0  0  0  0  0  0  0  0  0  0
    6.9694   -4.0191   27.8190 C   0  0  0  0  0  0  0  0  0  0  0  0
    5.1733   -4.5469   29.8123 C   0  0  0  0  0  0  0  0  0  0  0  0
   -1.7508  -11.3016   18.6072 C   0  0  0  0  0  0  0  0  0  0  0  0
    1.7497   -5.6771   26.4971 C   0  0  0  0  0  0  0  0  0  0  0  0
   -1.5799   -9.9322   18.3468 C   0  0  0  0  0  0  0  0  0  0  0  0
   -1.0871  -12.2214   17.8851 C   0  0  0  0  0  0  0  0  0  0  0  0
   -2.2706   -8.9669   19.0691 C   0  0  0  0  0  0  0  0  0  0  0  0
    3.0279   -5.3073   26.8197 C   0  0  0  0  0  0  0  0  0  0  0  0
    7.3282   -3.8948   29.1186 C   0  0  0  0  0  0  0  0  0  0  0  0
  1  3  4  0
  1  7  4  0
  2  3  1  0
  2  6  4  0
  2 16  4  0
  3 22  4  0
  4  9  4  0
  4 10  1  0
  4 20  4  0
  5 16  4  0
  5 23  4  0
  6 15  4  0
  7 12  4  0
  8 13  4  0
  8 14  4  0
  9 11  4  0
 11 14  4  0
 11 19  4  0
 12 18  4  0
 13 21  4  0
 15 23  4  0
 17 19  4  0
 17 20  4  0
 18 22  4  0
 19 21  4  0
M  END
$$$$

 Created by Python create_sdf_string function

 23 25  0  0  0  0  0  0  0  0999 V2000
    2.4610   -5.3070   29.1240 C   0  0  0  0  0  0  0  0  0  0  0  0
    4.7710   -4.6952   28.4803 C   0  0  0  0  0  0  0  0  0  0  0  0
    3.4047   -5.1087   28.1314 C   0  0  0  0  0  0  0  0  0  0  0  0
   -0.2234  -11.8615   16.8874 C   0  0  0  0  0  0  0  0  0  0  0  0
    6.4491   -4.1532   30.1213 C   0  0  0  0  0  0  0  0  0  0  0  0
    5.7060   -4.4340   27.4975 C   0  0  0  0  0  0  0  0  0  0  0  0
    1.1818   -5.6612   28.8399 C   0  0  0  0  0  0  0  0  0  0  0  0
   -1.2067   -7.3287   17.7772 C   0  0  0  0  0  0  0  0  0  0  0  0
   -0.0206  -10.5585   16.6210 C   0  0  0  0  0  0  0  0  0  0  0  0
    0.3696  -12.7626   16.2169 O   0  0  0  0  0  0  0  0  0  0  0  0
   -0.6895   -9.5676   17.3297 C   0  0  0  0  0  0  0  0  0  0  0  0
    0.8388   -5.8417   27.5264 C   0  0  0  0  0  0  0  0  0  0  0  0
   -2.0709   -7.6637   18.7817 C   0  0  0  0  0  0  0  0  0  0  0  0
   -0.5279   -8.2168   17.0717 C   0  0  0  0  0  0  0  0  0  0  0  0
    6.9694   -4.0191   27.8190 C   0  0  0  0  0  0  0  0  0  0  0  0
    5.1733   -4.5469   29.8123 C   0  0  0  0  0  0  0  0  0  0  0  0
   -1.7508  -11.3016   18.6072 C   0  0  0  0  0  0  0  0  0  0  0  0
    1.7497   -5.6771   26.4971 C   0  0  0  0  0  0  0  0  0  0  0  0
   -1.5799   -9.9322   18.3468 C   0  0  0  0  0  0  0  0  0  0  0  0
   -1.0871  -12.2214   17.8851 C   0  0  0  0  0  0  0  0  0  0  0  0
   -2.2706   -8.9669   19.0691 C   0  0  0  0  0  0  0  0  0  0  0  0
    3.0279   -5.3073   26.8197 C   0  0  0  0  0  0  0  0  0  0  0  0
    7.3282   -3.8948   29.1186 C   0  0  0  0  0  0  0  0  0  0  0  0
  1  3  4  0
  1  7  4  0
  2  3  1  0
  2  6  4  0
  2 16  4  0
  3 22  4  0
  4  9  4  0
  4 10  1  0
  4 20  4  0
  5 16  4  0
  5 23  4  0
  6 15  4  0
  7 12  4  0
  8 13  4  0
  8 14  4  0
  9 11  4  0
 11 14  4  0
 11 19  4  0
 12 18  4  0
 13 21  4  0
 15 23  4  0
 17 19  4  0
 17 20  4  0
 18 22  4  0
 19 21  4  0
M  END
$$$$

 Created by Python create_sdf_string function

 23 25  0  0  0  0  0  0  0  0999 V2000
    2.4610   -5.3070   29.1240 C   0  0  0  0  0  0  0  0  0  0  0  0
    4.7710   -4.6952   28.4803 C   0  0  0  0  0  0  0  0  0  0  0  0
    3.4047   -5.1087   28.1314 C   0  0  0  0  0  0  0  0  0  0  0  0
   -0.2234  -11.8615   16.8874 C   0  0  0  0  0  0  0  0  0  0  0  0
    6.4491   -4.1532   30.1213 C   0  0  0  0  0  0  0  0  0  0  0  0
    5.7060   -4.4340   27.4975 C   0  0  0  0  0  0  0  0  0  0  0  0
    1.1818   -5.6612   28.8399 C   0  0  0  0  0  0  0  0  0  0  0  0
   -1.2067   -7.3287   17.7772 C   0  0  0  0  0  0  0  0  0  0  0  0
   -0.0206  -10.5585   16.6210 C   0  0  0  0  0  0  0  0  0  0  0  0
    0.3696  -12.7626   16.2169 O   0  0  0  0  0  0  0  0  0  0  0  0
   -0.6895   -9.5676   17.3297 C   0  0  0  0  0  0  0  0  0  0  0  0
    0.8388   -5.8417   27.5264 C   0  0  0  0  0  0  0  0  0  0  0  0
   -2.0709   -7.6637   18.7817 C   0  0  0  0  0  0  0  0  0  0  0  0
   -0.5279   -8.2168   17.0717 C   0  0  0  0  0  0  0  0  0  0  0  0
    6.9694   -4.0191   27.8190 C   0  0  0  0  0  0  0  0  0  0  0  0
    5.1733   -4.5469   29.8123 C   0  0  0  0  0  0  0  0  0  0  0  0
   -1.7508  -11.3016   18.6072 C   0  0  0  0  0  0  0  0  0  0  0  0
    1.7497   -5.6771   26.4971 C   0  0  0  0  0  0  0  0  0  0  0  0
   -1.5799   -9.9322   18.3468 C   0  0  0  0  0  0  0  0  0  0  0  0
   -1.0871  -12.2214   17.8851 C   0  0  0  0  0  0  0  0  0  0  0  0
   -2.2706   -8.9669   19.0691 C   0  0  0  0  0  0  0  0  0  0  0  0
    3.0279   -5.3073   26.8197 C   0  0  0  0  0  0  0  0  0  0  0  0
    7.3282   -3.8948   29.1186 C   0  0  0  0  0  0  0  0  0  0  0  0
  1  3  4  0
  1  7  4  0
  2  3  1  0
  2  6  4  0
  2 16  4  0
  3 22  4  0
  4  9  4  0
  4 10  1  0
  4 20  4  0
  5 16  4  0
  5 23  4  0
  6 15  4  0
  7 12  4  0
  8 13  4  0
  8 14  4  0
  9 11  4  0
 11 14  4  0
 11 19  4  0
 12 18  4  0
 13 21  4  0
 15 23  4  0
 17 19  4  0
 17 20  4  0
 18 22  4  0
 19 21  4  0
M  END
$$$$

 Created by Python create_sdf_string function

 23 25  0  0  0  0  0  0  0  0999 V2000
    2.4610   -5.3070   29.1240 C   0  0  0  0  0  0  0  0  0  0  0  0
    4.7710   -4.6952   28.4803 C   0  0  0  0  0  0  0  0  0  0  0  0
    3.4047   -5.1087   28.1314 C   0  0  0  0  0  0  0  0  0  0  0  0
   -0.2234  -11.8615   16.8874 C   0  0  0  0  0  0  0  0  0  0  0  0
    6.4491   -4.1532   30.1213 C   0  0  0  0  0  0  0  0  0  0  0  0
    5.7060   -4.4340   27.4975 C   0  0  0  0  0  0  0  0  0  0  0  0
    1.1818   -5.6612   28.8399 C   0  0  0  0  0  0  0  0  0  0  0  0
   -1.2067   -7.3287   17.7772 C   0  0  0  0  0  0  0  0  0  0  0  0
   -0.0206  -10.5585   16.6210 C   0  0  0  0  0  0  0  0  0  0  0  0
    0.3696  -12.7626   16.2169 O   0  0  0  0  0  0  0  0  0  0  0  0
   -0.6895   -9.5676   17.3297 C   0  0  0  0  0  0  0  0  0  0  0  0
    0.8388   -5.8417   27.5264 C   0  0  0  0  0  0  0  0  0  0  0  0
   -2.0709   -7.6637   18.7817 C   0  0  0  0  0  0  0  0  0  0  0  0
   -0.5279   -8.2168   17.0717 C   0  0  0  0  0  0  0  0  0  0  0  0
    6.9694   -4.0191   27.8190 C   0  0  0  0  0  0  0  0  0  0  0  0
    5.1733   -4.5469   29.8123 C   0  0  0  0  0  0  0  0  0  0  0  0
   -1.7508  -11.3016   18.6072 C   0  0  0  0  0  0  0  0  0  0  0  0
    1.7497   -5.6771   26.4971 C   0  0  0  0  0  0  0  0  0  0  0  0
   -1.5799   -9.9322   18.3468 C   0  0  0  0  0  0  0  0  0  0  0  0
   -1.0871  -12.2214   17.8851 C   0  0  0  0  0  0  0  0  0  0  0  0
   -2.2706   -8.9669   19.0691 C   0  0  0  0  0  0  0  0  0  0  0  0
    3.0279   -5.3073   26.8197 C   0  0  0  0  0  0  0  0  0  0  0  0
    7.3282   -3.8948   29.1186 C   0  0  0  0  0  0  0  0  0  0  0  0
  1  3  4  0
  1  7  4  0
  2  3  1  0
  2  6  4  0
  2 16  4  0
  3 22  4  0
  4  9  4  0
  4 10  1  0
  4 20  4  0
  5 16  4  0
  5 23  4  0
  6 15  4  0
  7 12  4  0
  8 13  4  0
  8 14  4  0
  9 11  4  0
 11 14  4  0
 11 19  4  0
 12 18  4  0
 13 21  4  0
 15 23  4  0
 17 19  4  0
 17 20  4  0
 18 22  4  0
 19 21  4  0
M  END
$$$$

 Created by Python create_sdf_string function

 23 25  0  0  0  0  0  0  0  0999 V2000
    2.4610   -5.3070   29.1240 C   0  0  0  0  0  0  0  0  0  0  0  0
    4.7710   -4.6952   28.4803 C   0  0  0  0  0  0  0  0  0  0  0  0
    3.4047   -5.1087   28.1314 C   0  0  0  0  0  0  0  0  0  0  0  0
   -0.2234  -11.8615   16.8874 C   0  0  0  0  0  0  0  0  0  0  0  0
    6.4491   -4.1532   30.1213 C   0  0  0  0  0  0  0  0  0  0  0  0
    5.7060   -4.4340   27.4975 C   0  0  0  0  0  0  0  0  0  0  0  0
    1.1818   -5.6612   28.8399 C   0  0  0  0  0  0  0  0  0  0  0  0
   -1.2067   -7.3287   17.7772 C   0  0  0  0  0  0  0  0  0  0  0  0
   -0.0206  -10.5585   16.6210 C   0  0  0  0  0  0  0  0  0  0  0  0
    0.3696  -12.7626   16.2169 O   0  0  0  0  0  0  0  0  0  0  0  0
   -0.6895   -9.5676   17.3297 C   0  0  0  0  0  0  0  0  0  0  0  0
    0.8388   -5.8417   27.5264 C   0  0  0  0  0  0  0  0  0  0  0  0
   -2.0709   -7.6637   18.7817 C   0  0  0  0  0  0  0  0  0  0  0  0
   -0.5279   -8.2168   17.0717 C   0  0  0  0  0  0  0  0  0  0  0  0
    6.9694   -4.0191   27.8190 C   0  0  0  0  0  0  0  0  0  0  0  0
    5.1733   -4.5469   29.8123 C   0  0  0  0  0  0  0  0  0  0  0  0
   -1.7508  -11.3016   18.6072 C   0  0  0  0  0  0  0  0  0  0  0  0
    1.7497   -5.6771   26.4971 C   0  0  0  0  0  0  0  0  0  0  0  0
   -1.5799   -9.9322   18.3468 C   0  0  0  0  0  0  0  0  0  0  0  0
   -1.0871  -12.2214   17.8851 C   0  0  0  0  0  0  0  0  0  0  0  0
   -2.2706   -8.9669   19.0691 C   0  0  0  0  0  0  0  0  0  0  0  0
    3.0279   -5.3073   26.8197 C   0  0  0  0  0  0  0  0  0  0  0  0
    7.3282   -3.8948   29.1186 C   0  0  0  0  0  0  0  0  0  0  0  0
  1  3  4  0
  1  7  4  0
  2  3  1  0
  2  6  4  0
  2 16  4  0
  3 22  4  0
  4  9  4  0
  4 10  1  0
  4 20  4  0
  5 16  4  0
  5 23  4  0
  6 15  4  0
  7 12  4  0
  8 13  4  0
  8 14  4  0
  9 11  4  0
 11 14  4  0
 11 19  4  0
 12 18  4  0
 13 21  4  0
 15 23  4  0
 17 19  4  0
 17 20  4  0
 18 22  4  0
 19 21  4  0
M  END
$$$$

 Created by Python create_sdf_string function

 23 25  0  0  0  0  0  0  0  0999 V2000
    2.4610   -5.3070   29.1240 C   0  0  0  0  0  0  0  0  0  0  0  0
    4.7710   -4.6952   28.4803 C   0  0  0  0  0  0  0  0  0  0  0  0
    3.4047   -5.1087   28.1314 C   0  0  0  0  0  0  0  0  0  0  0  0
   -0.2234  -11.8615   16.8874 C   0  0  0  0  0  0  0  0  0  0  0  0
    6.4491   -4.1532   30.1213 C   0  0  0  0  0  0  0  0  0  0  0  0
    5.7060   -4.4340   27.4975 C   0  0  0  0  0  0  0  0  0  0  0  0
    1.1818   -5.6612   28.8399 C   0  0  0  0  0  0  0  0  0  0  0  0
   -1.2067   -7.3287   17.7772 C   0  0  0  0  0  0  0  0  0  0  0  0
   -0.0206  -10.5585   16.6210 C   0  0  0  0  0  0  0  0  0  0  0  0
    0.3696  -12.7626   16.2169 O   0  0  0  0  0  0  0  0  0  0  0  0
   -0.6895   -9.5676   17.3297 C   0  0  0  0  0  0  0  0  0  0  0  0
    0.8388   -5.8417   27.5264 C   0  0  0  0  0  0  0  0  0  0  0  0
   -2.0709   -7.6637   18.7817 C   0  0  0  0  0  0  0  0  0  0  0  0
   -0.5279   -8.2168   17.0717 C   0  0  0  0  0  0  0  0  0  0  0  0
    6.9694   -4.0191   27.8190 C   0  0  0  0  0  0  0  0  0  0  0  0
    5.1733   -4.5469   29.8123 C   0  0  0  0  0  0  0  0  0  0  0  0
   -1.7508  -11.3016   18.6072 C   0  0  0  0  0  0  0  0  0  0  0  0
    1.7497   -5.6771   26.4971 C   0  0  0  0  0  0  0  0  0  0  0  0
   -1.5799   -9.9322   18.3468 C   0  0  0  0  0  0  0  0  0  0  0  0
   -1.0871  -12.2214   17.8851 C   0  0  0  0  0  0  0  0  0  0  0  0
   -2.2706   -8.9669   19.0691 C   0  0  0  0  0  0  0  0  0  0  0  0
    3.0279   -5.3073   26.8197 C   0  0  0  0  0  0  0  0  0  0  0  0
    7.3282   -3.8948   29.1186 C   0  0  0  0  0  0  0  0  0  0  0  0
  1  3  4  0
  1  7  4  0
  2  3  1  0
  2  6  4  0
  2 16  4  0
  3 22  4  0
  4  9  4  0
  4 10  1  0
  4 20  4  0
  5 16  4  0
  5 23  4  0
  6 15  4  0
  7 12  4  0
  8 13  4  0
  8 14  4  0
  9 11  4  0
 11 14  4  0
 11 19  4  0
 12 18  4  0
 13 21  4  0
 15 23  4  0
 17 19  4  0
 17 20  4  0
 18 22  4  0
 19 21  4  0
M  END
$$$$

 Created by Python create_sdf_string function

 23 25  0  0  0  0  0  0  0  0999 V2000
    2.4610   -5.3070   29.1240 C   0  0  0  0  0  0  0  0  0  0  0  0
    4.7710   -4.6952   28.4803 C   0  0  0  0  0  0  0  0  0  0  0  0
    3.4047   -5.1087   28.1314 C   0  0  0  0  0  0  0  0  0  0  0  0
   -0.2234  -11.8615   16.8874 C   0  0  0  0  0  0  0  0  0  0  0  0
    6.4491   -4.1532   30.1213 C   0  0  0  0  0  0  0  0  0  0  0  0
    5.7060   -4.4340   27.4975 C   0  0  0  0  0  0  0  0  0  0  0  0
    1.1818   -5.6612   28.8399 C   0  0  0  0  0  0  0  0  0  0  0  0
   -1.2067   -7.3287   17.7772 C   0  0  0  0  0  0  0  0  0  0  0  0
   -0.0206  -10.5585   16.6210 C   0  0  0  0  0  0  0  0  0  0  0  0
    0.3696  -12.7626   16.2169 O   0  0  0  0  0  0  0  0  0  0  0  0
   -0.6895   -9.5676   17.3297 C   0  0  0  0  0  0  0  0  0  0  0  0
    0.8388   -5.8417   27.5264 C   0  0  0  0  0  0  0  0  0  0  0  0
   -2.0709   -7.6637   18.7817 C   0  0  0  0  0  0  0  0  0  0  0  0
   -0.5279   -8.2168   17.0717 C   0  0  0  0  0  0  0  0  0  0  0  0
    6.9694   -4.0191   27.8190 C   0  0  0  0  0  0  0  0  0  0  0  0
    5.1733   -4.5469   29.8123 C   0  0  0  0  0  0  0  0  0  0  0  0
   -1.7508  -11.3016   18.6072 C   0  0  0  0  0  0  0  0  0  0  0  0
    1.7497   -5.6771   26.4971 C   0  0  0  0  0  0  0  0  0  0  0  0
   -1.5799   -9.9322   18.3468 C   0  0  0  0  0  0  0  0  0  0  0  0
   -1.0871  -12.2214   17.8851 C   0  0  0  0  0  0  0  0  0  0  0  0
   -2.2706   -8.9669   19.0691 C   0  0  0  0  0  0  0  0  0  0  0  0
    3.0279   -5.3073   26.8197 C   0  0  0  0  0  0  0  0  0  0  0  0
    7.3282   -3.8948   29.1186 C   0  0  0  0  0  0  0  0  0  0  0  0
  1  3  4  0
  1  7  4  0
  2  3  1  0
  2  6  4  0
  2 16  4  0
  3 22  4  0
  4  9  4  0
  4 10  1  0
  4 20  4  0
  5 16  4  0
  5 23  4  0
  6 15  4  0
  7 12  4  0
  8 13  4  0
  8 14  4  0
  9 11  4  0
 11 14  4  0
 11 19  4  0
 12 18  4  0
 13 21  4  0
 15 23  4  0
 17 19  4  0
 17 20  4  0
 18 22  4  0
 19 21  4  0
M  END
$$$$

 Created by Python create_sdf_string function

 23 25  0  0  0  0  0  0  0  0999 V2000
    2.4610   -5.3070   29.1240 C   0  0  0  0  0  0  0  0  0  0  0  0
    4.7710   -4.6952   28.4803 C   0  0  0  0  0  0  0  0  0  0  0  0
    3.4047   -5.1087   28.1314 C   0  0  0  0  0  0  0  0  0  0  0  0
   -0.2234  -11.8615   16.8874 C   0  0  0  0  0  0  0  0  0  0  0  0
    6.4491   -4.1532   30.1213 C   0  0  0  0  0  0  0  0  0  0  0  0
    5.7060   -4.4340   27.4975 C   0  0  0  0  0  0  0  0  0  0  0  0
    1.1818   -5.6612   28.8399 C   0  0  0  0  0  0  0  0  0  0  0  0
   -1.2067   -7.3287   17.7772 C   0  0  0  0  0  0  0  0  0  0  0  0
   -0.0206  -10.5585   16.6210 C   0  0  0  0  0  0  0  0  0  0  0  0
    0.3696  -12.7626   16.2169 O   0  0  0  0  0  0  0  0  0  0  0  0
   -0.6895   -9.5676   17.3297 C   0  0  0  0  0  0  0  0  0  0  0  0
    0.8388   -5.8417   27.5264 C   0  0  0  0  0  0  0  0  0  0  0  0
   -2.0709   -7.6637   18.7817 C   0  0  0  0  0  0  0  0  0  0  0  0
   -0.5279   -8.2168   17.0717 C   0  0  0  0  0  0  0  0  0  0  0  0
    6.9694   -4.0191   27.8190 C   0  0  0  0  0  0  0  0  0  0  0  0
    5.1733   -4.5469   29.8123 C   0  0  0  0  0  0  0  0  0  0  0  0
   -1.7508  -11.3016   18.6072 C   0  0  0  0  0  0  0  0  0  0  0  0
    1.7497   -5.6771   26.4971 C   0  0  0  0  0  0  0  0  0  0  0  0
   -1.5799   -9.9322   18.3468 C   0  0  0  0  0  0  0  0  0  0  0  0
   -1.0871  -12.2214   17.8851 C   0  0  0  0  0  0  0  0  0  0  0  0
   -2.2706   -8.9669   19.0691 C   0  0  0  0  0  0  0  0  0  0  0  0
    3.0279   -5.3073   26.8197 C   0  0  0  0  0  0  0  0  0  0  0  0
    7.3282   -3.8948   29.1186 C   0  0  0  0  0  0  0  0  0  0  0  0
  1  3  4  0
  1  7  4  0
  2  3  1  0
  2  6  4  0
  2 16  4  0
  3 22  4  0
  4  9  4  0
  4 10  1  0
  4 20  4  0
  5 16  4  0
  5 23  4  0
  6 15  4  0
  7 12  4  0
  8 13  4  0
  8 14  4  0
  9 11  4  0
 11 14  4  0
 11 19  4  0
 12 18  4  0
 13 21  4  0
 15 23  4  0
 17 19  4  0
 17 20  4  0
 18 22  4  0
 19 21  4  0
M  END
$$$$

 Created by Python create_sdf_string function

 23 25  0  0  0  0  0  0  0  0999 V2000
    2.4610   -5.3070   29.1240 C   0  0  0  0  0  0  0  0  0  0  0  0
    4.7710   -4.6952   28.4803 C   0  0  0  0  0  0  0  0  0  0  0  0
    3.4047   -5.1087   28.1314 C   0  0  0  0  0  0  0  0  0  0  0  0
   -0.2234  -11.8615   16.8874 C   0  0  0  0  0  0  0  0  0  0  0  0
    6.4491   -4.1532   30.1213 C   0  0  0  0  0  0  0  0  0  0  0  0
    5.7060   -4.4340   27.4975 C   0  0  0  0  0  0  0  0  0  0  0  0
    1.1818   -5.6612   28.8399 C   0  0  0  0  0  0  0  0  0  0  0  0
   -1.2067   -7.3287   17.7772 C   0  0  0  0  0  0  0  0  0  0  0  0
   -0.0206  -10.5585   16.6210 C   0  0  0  0  0  0  0  0  0  0  0  0
    0.3696  -12.7626   16.2169 O   0  0  0  0  0  0  0  0  0  0  0  0
   -0.6895   -9.5676   17.3297 C   0  0  0  0  0  0  0  0  0  0  0  0
    0.8388   -5.8417   27.5264 C   0  0  0  0  0  0  0  0  0  0  0  0
   -2.0709   -7.6637   18.7817 C   0  0  0  0  0  0  0  0  0  0  0  0
   -0.5279   -8.2168   17.0717 C   0  0  0  0  0  0  0  0  0  0  0  0
    6.9694   -4.0191   27.8190 C   0  0  0  0  0  0  0  0  0  0  0  0
    5.1733   -4.5469   29.8123 C   0  0  0  0  0  0  0  0  0  0  0  0
   -1.7508  -11.3016   18.6072 C   0  0  0  0  0  0  0  0  0  0  0  0
    1.7497   -5.6771   26.4971 C   0  0  0  0  0  0  0  0  0  0  0  0
   -1.5799   -9.9322   18.3468 C   0  0  0  0  0  0  0  0  0  0  0  0
   -1.0871  -12.2214   17.8851 C   0  0  0  0  0  0  0  0  0  0  0  0
   -2.2706   -8.9669   19.0691 C   0  0  0  0  0  0  0  0  0  0  0  0
    3.0279   -5.3073   26.8197 C   0  0  0  0  0  0  0  0  0  0  0  0
    7.3282   -3.8948   29.1186 C   0  0  0  0  0  0  0  0  0  0  0  0
  1  3  4  0
  1  7  4  0
  2  3  1  0
  2  6  4  0
  2 16  4  0
  3 22  4  0
  4  9  4  0
  4 10  1  0
  4 20  4  0
  5 16  4  0
  5 23  4  0
  6 15  4  0
  7 12  4  0
  8 13  4  0
  8 14  4  0
  9 11  4  0
 11 14  4  0
 11 19  4  0
 12 18  4  0
 13 21  4  0
 15 23  4  0
 17 19  4  0
 17 20  4  0
 18 22  4  0
 19 21  4  0
M  END
$$$$

 Created by Python create_sdf_string function

 23 25  0  0  0  0  0  0  0  0999 V2000
    2.4610   -5.3070   29.1240 C   0  0  0  0  0  0  0  0  0  0  0  0
    4.7710   -4.6952   28.4803 C   0  0  0  0  0  0  0  0  0  0  0  0
    3.4047   -5.1087   28.1314 C   0  0  0  0  0  0  0  0  0  0  0  0
   -0.2234  -11.8615   16.8874 C   0  0  0  0  0  0  0  0  0  0  0  0
    6.4491   -4.1532   30.1213 C   0  0  0  0  0  0  0  0  0  0  0  0
    5.7060   -4.4340   27.4975 C   0  0  0  0  0  0  0  0  0  0  0  0
    1.1818   -5.6612   28.8399 C   0  0  0  0  0  0  0  0  0  0  0  0
   -1.2067   -7.3287   17.7772 C   0  0  0  0  0  0  0  0  0  0  0  0
   -0.0206  -10.5585   16.6210 C   0  0  0  0  0  0  0  0  0  0  0  0
    0.3696  -12.7626   16.2169 O   0  0  0  0  0  0  0  0  0  0  0  0
   -0.6895   -9.5676   17.3297 C   0  0  0  0  0  0  0  0  0  0  0  0
    0.8388   -5.8417   27.5264 C   0  0  0  0  0  0  0  0  0  0  0  0
   -2.0709   -7.6637   18.7817 C   0  0  0  0  0  0  0  0  0  0  0  0
   -0.5279   -8.2168   17.0717 C   0  0  0  0  0  0  0  0  0  0  0  0
    6.9694   -4.0191   27.8190 C   0  0  0  0  0  0  0  0  0  0  0  0
    5.1733   -4.5469   29.8123 C   0  0  0  0  0  0  0  0  0  0  0  0
   -1.7508  -11.3016   18.6072 C   0  0  0  0  0  0  0  0  0  0  0  0
    1.7497   -5.6771   26.4971 C   0  0  0  0  0  0  0  0  0  0  0  0
   -1.5799   -9.9322   18.3468 C   0  0  0  0  0  0  0  0  0  0  0  0
   -1.0871  -12.2214   17.8851 C   0  0  0  0  0  0  0  0  0  0  0  0
   -2.2706   -8.9669   19.0691 C   0  0  0  0  0  0  0  0  0  0  0  0
    3.0279   -5.3073   26.8197 C   0  0  0  0  0  0  0  0  0  0  0  0
    7.3282   -3.8948   29.1186 C   0  0  0  0  0  0  0  0  0  0  0  0
  1  3  4  0
  1  7  4  0
  2  3  1  0
  2  6  4  0
  2 16  4  0
  3 22  4  0
  4  9  4  0
  4 10  1  0
  4 20  4  0
  5 16  4  0
  5 23  4  0
  6 15  4  0
  7 12  4  0
  8 13  4  0
  8 14  4  0
  9 11  4  0
 11 14  4  0
 11 19  4  0
 12 18  4  0
 13 21  4  0
 15 23  4  0
 17 19  4  0
 17 20  4  0
 18 22  4  0
 19 21  4  0
M  END
$$$$

 Created by Python create_sdf_string function

 23 25  0  0  0  0  0  0  0  0999 V2000
    2.4610   -5.3070   29.1240 C   0  0  0  0  0  0  0  0  0  0  0  0
    4.7710   -4.6952   28.4803 C   0  0  0  0  0  0  0  0  0  0  0  0
    3.4047   -5.1087   28.1314 C   0  0  0  0  0  0  0  0  0  0  0  0
   -0.2234  -11.8615   16.8874 C   0  0  0  0  0  0  0  0  0  0  0  0
    6.4491   -4.1532   30.1213 C   0  0  0  0  0  0  0  0  0  0  0  0
    5.7060   -4.4340   27.4975 C   0  0  0  0  0  0  0  0  0  0  0  0
    1.1818   -5.6612   28.8399 C   0  0  0  0  0  0  0  0  0  0  0  0
   -1.2067   -7.3287   17.7772 C   0  0  0  0  0  0  0  0  0  0  0  0
   -0.0206  -10.5585   16.6210 C   0  0  0  0  0  0  0  0  0  0  0  0
    0.3696  -12.7626   16.2169 O   0  0  0  0  0  0  0  0  0  0  0  0
   -0.6895   -9.5676   17.3297 C   0  0  0  0  0  0  0  0  0  0  0  0
    0.8388   -5.8417   27.5264 C   0  0  0  0  0  0  0  0  0  0  0  0
   -2.0709   -7.6637   18.7817 C   0  0  0  0  0  0  0  0  0  0  0  0
   -0.5279   -8.2168   17.0717 C   0  0  0  0  0  0  0  0  0  0  0  0
    6.9694   -4.0191   27.8190 C   0  0  0  0  0  0  0  0  0  0  0  0
    5.1733   -4.5469   29.8123 C   0  0  0  0  0  0  0  0  0  0  0  0
   -1.7508  -11.3016   18.6072 C   0  0  0  0  0  0  0  0  0  0  0  0
    1.7497   -5.6771   26.4971 C   0  0  0  0  0  0  0  0  0  0  0  0
   -1.5799   -9.9322   18.3468 C   0  0  0  0  0  0  0  0  0  0  0  0
   -1.0871  -12.2214   17.8851 C   0  0  0  0  0  0  0  0  0  0  0  0
   -2.2706   -8.9669   19.0691 C   0  0  0  0  0  0  0  0  0  0  0  0
    3.0279   -5.3073   26.8197 C   0  0  0  0  0  0  0  0  0  0  0  0
    7.3282   -3.8948   29.1186 C   0  0  0  0  0  0  0  0  0  0  0  0
  1  3  4  0
  1  7  4  0
  2  3  1  0
  2  6  4  0
  2 16  4  0
  3 22  4  0
  4  9  4  0
  4 10  1  0
  4 20  4  0
  5 16  4  0
  5 23  4  0
  6 15  4  0
  7 12  4  0
  8 13  4  0
  8 14  4  0
  9 11  4  0
 11 14  4  0
 11 19  4  0
 12 18  4  0
 13 21  4  0
 15 23  4  0
 17 19  4  0
 17 20  4  0
 18 22  4  0
 19 21  4  0
M  END
$$$$

 Created by Python create_sdf_string function

 23 25  0  0  0  0  0  0  0  0999 V2000
    2.4610   -5.3070   29.1240 C   0  0  0  0  0  0  0  0  0  0  0  0
    4.7710   -4.6952   28.4803 C   0  0  0  0  0  0  0  0  0  0  0  0
    3.4047   -5.1087   28.1314 C   0  0  0  0  0  0  0  0  0  0  0  0
   -0.2234  -11.8615   16.8874 C   0  0  0  0  0  0  0  0  0  0  0  0
    6.4491   -4.1532   30.1213 C   0  0  0  0  0  0  0  0  0  0  0  0
    5.7060   -4.4340   27.4975 C   0  0  0  0  0  0  0  0  0  0  0  0
    1.1818   -5.6612   28.8399 C   0  0  0  0  0  0  0  0  0  0  0  0
   -1.2067   -7.3287   17.7772 C   0  0  0  0  0  0  0  0  0  0  0  0
   -0.0206  -10.5585   16.6210 C   0  0  0  0  0  0  0  0  0  0  0  0
    0.3696  -12.7626   16.2169 O   0  0  0  0  0  0  0  0  0  0  0  0
   -0.6895   -9.5676   17.3297 C   0  0  0  0  0  0  0  0  0  0  0  0
    0.8388   -5.8417   27.5264 C   0  0  0  0  0  0  0  0  0  0  0  0
   -2.0709   -7.6637   18.7817 C   0  0  0  0  0  0  0  0  0  0  0  0
   -0.5279   -8.2168   17.0717 C   0  0  0  0  0  0  0  0  0  0  0  0
    6.9694   -4.0191   27.8190 C   0  0  0  0  0  0  0  0  0  0  0  0
    5.1733   -4.5469   29.8123 C   0  0  0  0  0  0  0  0  0  0  0  0
   -1.7508  -11.3016   18.6072 C   0  0  0  0  0  0  0  0  0  0  0  0
    1.7497   -5.6771   26.4971 C   0  0  0  0  0  0  0  0  0  0  0  0
   -1.5799   -9.9322   18.3468 C   0  0  0  0  0  0  0  0  0  0  0  0
   -1.0871  -12.2214   17.8851 C   0  0  0  0  0  0  0  0  0  0  0  0
   -2.2706   -8.9669   19.0691 C   0  0  0  0  0  0  0  0  0  0  0  0
    3.0279   -5.3073   26.8197 C   0  0  0  0  0  0  0  0  0  0  0  0
    7.3282   -3.8948   29.1186 C   0  0  0  0  0  0  0  0  0  0  0  0
  1  3  4  0
  1  7  4  0
  2  3  1  0
  2  6  4  0
  2 16  4  0
  3 22  4  0
  4  9  4  0
  4 10  1  0
  4 20  4  0
  5 16  4  0
  5 23  4  0
  6 15  4  0
  7 12  4  0
  8 13  4  0
  8 14  4  0
  9 11  4  0
 11 14  4  0
 11 19  4  0
 12 18  4  0
 13 21  4  0
 15 23  4  0
 17 19  4  0
 17 20  4  0
 18 22  4  0
 19 21  4  0
M  END
$$$$

 Created by Python create_sdf_string function

 23 25  0  0  0  0  0  0  0  0999 V2000
    2.4610   -5.3070   29.1240 C   0  0  0  0  0  0  0  0  0  0  0  0
    4.7710   -4.6952   28.4803 C   0  0  0  0  0  0  0  0  0  0  0  0
    3.4047   -5.1087   28.1314 C   0  0  0  0  0  0  0  0  0  0  0  0
   -0.2234  -11.8615   16.8874 C   0  0  0  0  0  0  0  0  0  0  0  0
    6.4491   -4.1532   30.1213 C   0  0  0  0  0  0  0  0  0  0  0  0
    5.7060   -4.4340   27.4975 C   0  0  0  0  0  0  0  0  0  0  0  0
    1.1818   -5.6612   28.8399 C   0  0  0  0  0  0  0  0  0  0  0  0
   -1.2067   -7.3287   17.7772 C   0  0  0  0  0  0  0  0  0  0  0  0
   -0.0206  -10.5585   16.6210 C   0  0  0  0  0  0  0  0  0  0  0  0
    0.3696  -12.7626   16.2169 O   0  0  0  0  0  0  0  0  0  0  0  0
   -0.6895   -9.5676   17.3297 C   0  0  0  0  0  0  0  0  0  0  0  0
    0.8388   -5.8417   27.5264 C   0  0  0  0  0  0  0  0  0  0  0  0
   -2.0709   -7.6637   18.7817 C   0  0  0  0  0  0  0  0  0  0  0  0
   -0.5279   -8.2168   17.0717 C   0  0  0  0  0  0  0  0  0  0  0  0
    6.9694   -4.0191   27.8190 C   0  0  0  0  0  0  0  0  0  0  0  0
    5.1733   -4.5469   29.8123 C   0  0  0  0  0  0  0  0  0  0  0  0
   -1.7508  -11.3016   18.6072 C   0  0  0  0  0  0  0  0  0  0  0  0
    1.7497   -5.6771   26.4971 C   0  0  0  0  0  0  0  0  0  0  0  0
   -1.5799   -9.9322   18.3468 C   0  0  0  0  0  0  0  0  0  0  0  0
   -1.0871  -12.2214   17.8851 C   0  0  0  0  0  0  0  0  0  0  0  0
   -2.2706   -8.9669   19.0691 C   0  0  0  0  0  0  0  0  0  0  0  0
    3.0279   -5.3073   26.8197 C   0  0  0  0  0  0  0  0  0  0  0  0
    7.3282   -3.8948   29.1186 C   0  0  0  0  0  0  0  0  0  0  0  0
  1  3  4  0
  1  7  4  0
  2  3  1  0
  2  6  4  0
  2 16  4  0
  3 22  4  0
  4  9  4  0
  4 10  1  0
  4 20  4  0
  5 16  4  0
  5 23  4  0
  6 15  4  0
  7 12  4  0
  8 13  4  0
  8 14  4  0
  9 11  4  0
 11 14  4  0
 11 19  4  0
 12 18  4  0
 13 21  4  0
 15 23  4  0
 17 19  4  0
 17 20  4  0
 18 22  4  0
 19 21  4  0
M  END
$$$$

 Created by Python create_sdf_string function

 23 25  0  0  0  0  0  0  0  0999 V2000
    2.4610   -5.3070   29.1240 C   0  0  0  0  0  0  0  0  0  0  0  0
    4.7710   -4.6952   28.4803 C   0  0  0  0  0  0  0  0  0  0  0  0
    3.4047   -5.1087   28.1314 C   0  0  0  0  0  0  0  0  0  0  0  0
   -0.2234  -11.8615   16.8874 C   0  0  0  0  0  0  0  0  0  0  0  0
    6.4491   -4.1532   30.1213 C   0  0  0  0  0  0  0  0  0  0  0  0
    5.7060   -4.4340   27.4975 C   0  0  0  0  0  0  0  0  0  0  0  0
    1.1818   -5.6612   28.8399 C   0  0  0  0  0  0  0  0  0  0  0  0
   -1.2067   -7.3287   17.7772 C   0  0  0  0  0  0  0  0  0  0  0  0
   -0.0206  -10.5585   16.6210 C   0  0  0  0  0  0  0  0  0  0  0  0
    0.3696  -12.7626   16.2169 O   0  0  0  0  0  0  0  0  0  0  0  0
   -0.6895   -9.5676   17.3297 C   0  0  0  0  0  0  0  0  0  0  0  0
    0.8388   -5.8417   27.5264 C   0  0  0  0  0  0  0  0  0  0  0  0
   -2.0709   -7.6637   18.7817 C   0  0  0  0  0  0  0  0  0  0  0  0
   -0.5279   -8.2168   17.0717 C   0  0  0  0  0  0  0  0  0  0  0  0
    6.9694   -4.0191   27.8190 C   0  0  0  0  0  0  0  0  0  0  0  0
    5.1733   -4.5469   29.8123 C   0  0  0  0  0  0  0  0  0  0  0  0
   -1.7508  -11.3016   18.6072 C   0  0  0  0  0  0  0  0  0  0  0  0
    1.7497   -5.6771   26.4971 C   0  0  0  0  0  0  0  0  0  0  0  0
   -1.5799   -9.9322   18.3468 C   0  0  0  0  0  0  0  0  0  0  0  0
   -1.0871  -12.2214   17.8851 C   0  0  0  0  0  0  0  0  0  0  0  0
   -2.2706   -8.9669   19.0691 C   0  0  0  0  0  0  0  0  0  0  0  0
    3.0279   -5.3073   26.8197 C   0  0  0  0  0  0  0  0  0  0  0  0
    7.3282   -3.8948   29.1186 C   0  0  0  0  0  0  0  0  0  0  0  0
  1  3  4  0
  1  7  4  0
  2  3  1  0
  2  6  4  0
  2 16  4  0
  3 22  4  0
  4  9  4  0
  4 10  1  0
  4 20  4  0
  5 16  4  0
  5 23  4  0
  6 15  4  0
  7 12  4  0
  8 13  4  0
  8 14  4  0
  9 11  4  0
 11 14  4  0
 11 19  4  0
 12 18  4  0
 13 21  4  0
 15 23  4  0
 17 19  4  0
 17 20  4  0
 18 22  4  0
 19 21  4  0
M  END
$$$$

 Created by Python create_sdf_string function

 23 25  0  0  0  0  0  0  0  0999 V2000
    2.4610   -5.3070   29.1240 C   0  0  0  0  0  0  0  0  0  0  0  0
    4.7710   -4.6952   28.4803 C   0  0  0  0  0  0  0  0  0  0  0  0
    3.4047   -5.1087   28.1314 C   0  0  0  0  0  0  0  0  0  0  0  0
   -0.2234  -11.8615   16.8874 C   0  0  0  0  0  0  0  0  0  0  0  0
    6.4491   -4.1532   30.1213 C   0  0  0  0  0  0  0  0  0  0  0  0
    5.7060   -4.4340   27.4975 C   0  0  0  0  0  0  0  0  0  0  0  0
    1.1818   -5.6612   28.8399 C   0  0  0  0  0  0  0  0  0  0  0  0
   -1.2067   -7.3287   17.7772 C   0  0  0  0  0  0  0  0  0  0  0  0
   -0.0206  -10.5585   16.6210 C   0  0  0  0  0  0  0  0  0  0  0  0
    0.3696  -12.7626   16.2169 O   0  0  0  0  0  0  0  0  0  0  0  0
   -0.6895   -9.5676   17.3297 C   0  0  0  0  0  0  0  0  0  0  0  0
    0.8388   -5.8417   27.5264 C   0  0  0  0  0  0  0  0  0  0  0  0
   -2.0709   -7.6637   18.7817 C   0  0  0  0  0  0  0  0  0  0  0  0
   -0.5279   -8.2168   17.0717 C   0  0  0  0  0  0  0  0  0  0  0  0
    6.9694   -4.0191   27.8190 C   0  0  0  0  0  0  0  0  0  0  0  0
    5.1733   -4.5469   29.8123 C   0  0  0  0  0  0  0  0  0  0  0  0
   -1.7508  -11.3016   18.6072 C   0  0  0  0  0  0  0  0  0  0  0  0
    1.7497   -5.6771   26.4971 C   0  0  0  0  0  0  0  0  0  0  0  0
   -1.5799   -9.9322   18.3468 C   0  0  0  0  0  0  0  0  0  0  0  0
   -1.0871  -12.2214   17.8851 C   0  0  0  0  0  0  0  0  0  0  0  0
   -2.2706   -8.9669   19.0691 C   0  0  0  0  0  0  0  0  0  0  0  0
    3.0279   -5.3073   26.8197 C   0  0  0  0  0  0  0  0  0  0  0  0
    7.3282   -3.8948   29.1186 C   0  0  0  0  0  0  0  0  0  0  0  0
  1  3  4  0
  1  7  4  0
  2  3  1  0
  2  6  4  0
  2 16  4  0
  3 22  4  0
  4  9  4  0
  4 10  1  0
  4 20  4  0
  5 16  4  0
  5 23  4  0
  6 15  4  0
  7 12  4  0
  8 13  4  0
  8 14  4  0
  9 11  4  0
 11 14  4  0
 11 19  4  0
 12 18  4  0
 13 21  4  0
 15 23  4  0
 17 19  4  0
 17 20  4  0
 18 22  4  0
 19 21  4  0
M  END
$$$$

 Created by Python create_sdf_string function

 23 25  0  0  0  0  0  0  0  0999 V2000
    2.4610   -5.3070   29.1240 C   0  0  0  0  0  0  0  0  0  0  0  0
    4.7710   -4.6952   28.4803 C   0  0  0  0  0  0  0  0  0  0  0  0
    3.4047   -5.1087   28.1314 C   0  0  0  0  0  0  0  0  0  0  0  0
   -0.2234  -11.8615   16.8874 C   0  0  0  0  0  0  0  0  0  0  0  0
    6.4491   -4.1532   30.1213 C   0  0  0  0  0  0  0  0  0  0  0  0
    5.7060   -4.4340   27.4975 C   0  0  0  0  0  0  0  0  0  0  0  0
    1.1818   -5.6612   28.8399 C   0  0  0  0  0  0  0  0  0  0  0  0
   -1.2067   -7.3287   17.7772 C   0  0  0  0  0  0  0  0  0  0  0  0
   -0.0206  -10.5585   16.6210 C   0  0  0  0  0  0  0  0  0  0  0  0
    0.3696  -12.7626   16.2169 O   0  0  0  0  0  0  0  0  0  0  0  0
   -0.6895   -9.5676   17.3297 C   0  0  0  0  0  0  0  0  0  0  0  0
    0.8388   -5.8417   27.5264 C   0  0  0  0  0  0  0  0  0  0  0  0
   -2.0709   -7.6637   18.7817 C   0  0  0  0  0  0  0  0  0  0  0  0
   -0.5279   -8.2168   17.0717 C   0  0  0  0  0  0  0  0  0  0  0  0
    6.9694   -4.0191   27.8190 C   0  0  0  0  0  0  0  0  0  0  0  0
    5.1733   -4.5469   29.8123 C   0  0  0  0  0  0  0  0  0  0  0  0
   -1.7508  -11.3016   18.6072 C   0  0  0  0  0  0  0  0  0  0  0  0
    1.7497   -5.6771   26.4971 C   0  0  0  0  0  0  0  0  0  0  0  0
   -1.5799   -9.9322   18.3468 C   0  0  0  0  0  0  0  0  0  0  0  0
   -1.0871  -12.2214   17.8851 C   0  0  0  0  0  0  0  0  0  0  0  0
   -2.2706   -8.9669   19.0691 C   0  0  0  0  0  0  0  0  0  0  0  0
    3.0279   -5.3073   26.8197 C   0  0  0  0  0  0  0  0  0  0  0  0
    7.3282   -3.8948   29.1186 C   0  0  0  0  0  0  0  0  0  0  0  0
  1  3  4  0
  1  7  4  0
  2  3  1  0
  2  6  4  0
  2 16  4  0
  3 22  4  0
  4  9  4  0
  4 10  1  0
  4 20  4  0
  5 16  4  0
  5 23  4  0
  6 15  4  0
  7 12  4  0
  8 13  4  0
  8 14  4  0
  9 11  4  0
 11 14  4  0
 11 19  4  0
 12 18  4  0
 13 21  4  0
 15 23  4  0
 17 19  4  0
 17 20  4  0
 18 22  4  0
 19 21  4  0
M  END
$$$$

 Created by Python create_sdf_string function

 23 25  0  0  0  0  0  0  0  0999 V2000
    2.4610   -5.3070   29.1240 C   0  0  0  0  0  0  0  0  0  0  0  0
    4.7710   -4.6952   28.4803 C   0  0  0  0  0  0  0  0  0  0  0  0
    3.4047   -5.1087   28.1314 C   0  0  0  0  0  0  0  0  0  0  0  0
   -0.2234  -11.8615   16.8874 C   0  0  0  0  0  0  0  0  0  0  0  0
    6.4491   -4.1532   30.1213 C   0  0  0  0  0  0  0  0  0  0  0  0
    5.7060   -4.4340   27.4975 C   0  0  0  0  0  0  0  0  0  0  0  0
    1.1818   -5.6612   28.8399 C   0  0  0  0  0  0  0  0  0  0  0  0
   -1.2067   -7.3287   17.7772 C   0  0  0  0  0  0  0  0  0  0  0  0
   -0.0206  -10.5585   16.6210 C   0  0  0  0  0  0  0  0  0  0  0  0
    0.3696  -12.7626   16.2169 O   0  0  0  0  0  0  0  0  0  0  0  0
   -0.6895   -9.5676   17.3297 C   0  0  0  0  0  0  0  0  0  0  0  0
    0.8388   -5.8417   27.5264 C   0  0  0  0  0  0  0  0  0  0  0  0
   -2.0709   -7.6637   18.7817 C   0  0  0  0  0  0  0  0  0  0  0  0
   -0.5279   -8.2168   17.0717 C   0  0  0  0  0  0  0  0  0  0  0  0
    6.9694   -4.0191   27.8190 C   0  0  0  0  0  0  0  0  0  0  0  0
    5.1733   -4.5469   29.8123 C   0  0  0  0  0  0  0  0  0  0  0  0
   -1.7508  -11.3016   18.6072 C   0  0  0  0  0  0  0  0  0  0  0  0
    1.7497   -5.6771   26.4971 C   0  0  0  0  0  0  0  0  0  0  0  0
   -1.5799   -9.9322   18.3468 C   0  0  0  0  0  0  0  0  0  0  0  0
   -1.0871  -12.2214   17.8851 C   0  0  0  0  0  0  0  0  0  0  0  0
   -2.2706   -8.9669   19.0691 C   0  0  0  0  0  0  0  0  0  0  0  0
    3.0279   -5.3073   26.8197 C   0  0  0  0  0  0  0  0  0  0  0  0
    7.3282   -3.8948   29.1186 C   0  0  0  0  0  0  0  0  0  0  0  0
  1  3  4  0
  1  7  4  0
  2  3  1  0
  2  6  4  0
  2 16  4  0
  3 22  4  0
  4  9  4  0
  4 10  1  0
  4 20  4  0
  5 16  4  0
  5 23  4  0
  6 15  4  0
  7 12  4  0
  8 13  4  0
  8 14  4  0
  9 11  4  0
 11 14  4  0
 11 19  4  0
 12 18  4  0
 13 21  4  0
 15 23  4  0
 17 19  4  0
 17 20  4  0
 18 22  4  0
 19 21  4  0
M  END
$$$$

 Created by Python create_sdf_string function

 23 25  0  0  0  0  0  0  0  0999 V2000
    2.4610   -5.3070   29.1240 C   0  0  0  0  0  0  0  0  0  0  0  0
    4.7710   -4.6952   28.4803 C   0  0  0  0  0  0  0  0  0  0  0  0
    3.4047   -5.1087   28.1314 C   0  0  0  0  0  0  0  0  0  0  0  0
   -0.2234  -11.8615   16.8874 C   0  0  0  0  0  0  0  0  0  0  0  0
    6.4491   -4.1532   30.1213 C   0  0  0  0  0  0  0  0  0  0  0  0
    5.7060   -4.4340   27.4975 C   0  0  0  0  0  0  0  0  0  0  0  0
    1.1818   -5.6612   28.8399 C   0  0  0  0  0  0  0  0  0  0  0  0
   -1.2067   -7.3287   17.7772 C   0  0  0  0  0  0  0  0  0  0  0  0
   -0.0206  -10.5585   16.6210 C   0  0  0  0  0  0  0  0  0  0  0  0
    0.3696  -12.7626   16.2169 O   0  0  0  0  0  0  0  0  0  0  0  0
   -0.6895   -9.5676   17.3297 C   0  0  0  0  0  0  0  0  0  0  0  0
    0.8388   -5.8417   27.5264 C   0  0  0  0  0  0  0  0  0  0  0  0
   -2.0709   -7.6637   18.7817 C   0  0  0  0  0  0  0  0  0  0  0  0
   -0.5279   -8.2168   17.0717 C   0  0  0  0  0  0  0  0  0  0  0  0
    6.9694   -4.0191   27.8190 C   0  0  0  0  0  0  0  0  0  0  0  0
    5.1733   -4.5469   29.8123 C   0  0  0  0  0  0  0  0  0  0  0  0
   -1.7508  -11.3016   18.6072 C   0  0  0  0  0  0  0  0  0  0  0  0
    1.7497   -5.6771   26.4971 C   0  0  0  0  0  0  0  0  0  0  0  0
   -1.5799   -9.9322   18.3468 C   0  0  0  0  0  0  0  0  0  0  0  0
   -1.0871  -12.2214   17.8851 C   0  0  0  0  0  0  0  0  0  0  0  0
   -2.2706   -8.9669   19.0691 C   0  0  0  0  0  0  0  0  0  0  0  0
    3.0279   -5.3073   26.8197 C   0  0  0  0  0  0  0  0  0  0  0  0
    7.3282   -3.8948   29.1186 C   0  0  0  0  0  0  0  0  0  0  0  0
  1  3  4  0
  1  7  4  0
  2  3  1  0
  2  6  4  0
  2 16  4  0
  3 22  4  0
  4  9  4  0
  4 10  1  0
  4 20  4  0
  5 16  4  0
  5 23  4  0
  6 15  4  0
  7 12  4  0
  8 13  4  0
  8 14  4  0
  9 11  4  0
 11 14  4  0
 11 19  4  0
 12 18  4  0
 13 21  4  0
 15 23  4  0
 17 19  4  0
 17 20  4  0
 18 22  4  0
 19 21  4  0
M  END
$$$$

 Created by Python create_sdf_string function

 23 25  0  0  0  0  0  0  0  0999 V2000
    2.4610   -5.3070   29.1240 C   0  0  0  0  0  0  0  0  0  0  0  0
    4.7710   -4.6952   28.4803 C   0  0  0  0  0  0  0  0  0  0  0  0
    3.4047   -5.1087   28.1314 C   0  0  0  0  0  0  0  0  0  0  0  0
   -0.2234  -11.8615   16.8874 C   0  0  0  0  0  0  0  0  0  0  0  0
    6.4491   -4.1532   30.1213 C   0  0  0  0  0  0  0  0  0  0  0  0
    5.7060   -4.4340   27.4975 C   0  0  0  0  0  0  0  0  0  0  0  0
    1.1818   -5.6612   28.8399 C   0  0  0  0  0  0  0  0  0  0  0  0
   -1.2067   -7.3287   17.7772 C   0  0  0  0  0  0  0  0  0  0  0  0
   -0.0206  -10.5585   16.6210 C   0  0  0  0  0  0  0  0  0  0  0  0
    0.3696  -12.7626   16.2169 O   0  0  0  0  0  0  0  0  0  0  0  0
   -0.6895   -9.5676   17.3297 C   0  0  0  0  0  0  0  0  0  0  0  0
    0.8388   -5.8417   27.5264 C   0  0  0  0  0  0  0  0  0  0  0  0
   -2.0709   -7.6637   18.7817 C   0  0  0  0  0  0  0  0  0  0  0  0
   -0.5279   -8.2168   17.0717 C   0  0  0  0  0  0  0  0  0  0  0  0
    6.9694   -4.0191   27.8190 C   0  0  0  0  0  0  0  0  0  0  0  0
    5.1733   -4.5469   29.8123 C   0  0  0  0  0  0  0  0  0  0  0  0
   -1.7508  -11.3016   18.6072 C   0  0  0  0  0  0  0  0  0  0  0  0
    1.7497   -5.6771   26.4971 C   0  0  0  0  0  0  0  0  0  0  0  0
   -1.5799   -9.9322   18.3468 C   0  0  0  0  0  0  0  0  0  0  0  0
   -1.0871  -12.2214   17.8851 C   0  0  0  0  0  0  0  0  0  0  0  0
   -2.2706   -8.9669   19.0691 C   0  0  0  0  0  0  0  0  0  0  0  0
    3.0279   -5.3073   26.8197 C   0  0  0  0  0  0  0  0  0  0  0  0
    7.3282   -3.8948   29.1186 C   0  0  0  0  0  0  0  0  0  0  0  0
  1  3  4  0
  1  7  4  0
  2  3  1  0
  2  6  4  0
  2 16  4  0
  3 22  4  0
  4  9  4  0
  4 10  1  0
  4 20  4  0
  5 16  4  0
  5 23  4  0
  6 15  4  0
  7 12  4  0
  8 13  4  0
  8 14  4  0
  9 11  4  0
 11 14  4  0
 11 19  4  0
 12 18  4  0
 13 21  4  0
 15 23  4  0
 17 19  4  0
 17 20  4  0
 18 22  4  0
 19 21  4  0
M  END
$$$$

 Created by Python create_sdf_string function

 23 25  0  0  0  0  0  0  0  0999 V2000
    2.4610   -5.3070   29.1240 C   0  0  0  0  0  0  0  0  0  0  0  0
    4.7710   -4.6952   28.4803 C   0  0  0  0  0  0  0  0  0  0  0  0
    3.4047   -5.1087   28.1314 C   0  0  0  0  0  0  0  0  0  0  0  0
   -0.2234  -11.8615   16.8874 C   0  0  0  0  0  0  0  0  0  0  0  0
    6.4491   -4.1532   30.1213 C   0  0  0  0  0  0  0  0  0  0  0  0
    5.7060   -4.4340   27.4975 C   0  0  0  0  0  0  0  0  0  0  0  0
    1.1818   -5.6612   28.8399 C   0  0  0  0  0  0  0  0  0  0  0  0
   -1.2067   -7.3287   17.7772 C   0  0  0  0  0  0  0  0  0  0  0  0
   -0.0206  -10.5585   16.6210 C   0  0  0  0  0  0  0  0  0  0  0  0
    0.3696  -12.7626   16.2169 O   0  0  0  0  0  0  0  0  0  0  0  0
   -0.6895   -9.5676   17.3297 C   0  0  0  0  0  0  0  0  0  0  0  0
    0.8388   -5.8417   27.5264 C   0  0  0  0  0  0  0  0  0  0  0  0
   -2.0709   -7.6637   18.7817 C   0  0  0  0  0  0  0  0  0  0  0  0
   -0.5279   -8.2168   17.0717 C   0  0  0  0  0  0  0  0  0  0  0  0
    6.9694   -4.0191   27.8190 C   0  0  0  0  0  0  0  0  0  0  0  0
    5.1733   -4.5469   29.8123 C   0  0  0  0  0  0  0  0  0  0  0  0
   -1.7508  -11.3016   18.6072 C   0  0  0  0  0  0  0  0  0  0  0  0
    1.7497   -5.6771   26.4971 C   0  0  0  0  0  0  0  0  0  0  0  0
   -1.5799   -9.9322   18.3468 C   0  0  0  0  0  0  0  0  0  0  0  0
   -1.0871  -12.2214   17.8851 C   0  0  0  0  0  0  0  0  0  0  0  0
   -2.2706   -8.9669   19.0691 C   0  0  0  0  0  0  0  0  0  0  0  0
    3.0279   -5.3073   26.8197 C   0  0  0  0  0  0  0  0  0  0  0  0
    7.3282   -3.8948   29.1186 C   0  0  0  0  0  0  0  0  0  0  0  0
  1  3  4  0
  1  7  4  0
  2  3  1  0
  2  6  4  0
  2 16  4  0
  3 22  4  0
  4  9  4  0
  4 10  1  0
  4 20  4  0
  5 16  4  0
  5 23  4  0
  6 15  4  0
  7 12  4  0
  8 13  4  0
  8 14  4  0
  9 11  4  0
 11 14  4  0
 11 19  4  0
 12 18  4  0
 13 21  4  0
 15 23  4  0
 17 19  4  0
 17 20  4  0
 18 22  4  0
 19 21  4  0
M  END
$$$$

 Created by Python create_sdf_string function

 23 25  0  0  0  0  0  0  0  0999 V2000
    2.4610   -5.3070   29.1240 C   0  0  0  0  0  0  0  0  0  0  0  0
    4.7710   -4.6952   28.4803 C   0  0  0  0  0  0  0  0  0  0  0  0
    3.4047   -5.1087   28.1314 C   0  0  0  0  0  0  0  0  0  0  0  0
   -0.2234  -11.8615   16.8874 C   0  0  0  0  0  0  0  0  0  0  0  0
    6.4491   -4.1532   30.1213 C   0  0  0  0  0  0  0  0  0  0  0  0
    5.7060   -4.4340   27.4975 C   0  0  0  0  0  0  0  0  0  0  0  0
    1.1818   -5.6612   28.8399 C   0  0  0  0  0  0  0  0  0  0  0  0
   -1.2067   -7.3287   17.7772 C   0  0  0  0  0  0  0  0  0  0  0  0
   -0.0206  -10.5585   16.6210 C   0  0  0  0  0  0  0  0  0  0  0  0
    0.3696  -12.7626   16.2169 O   0  0  0  0  0  0  0  0  0  0  0  0
   -0.6895   -9.5676   17.3297 C   0  0  0  0  0  0  0  0  0  0  0  0
    0.8388   -5.8417   27.5264 C   0  0  0  0  0  0  0  0  0  0  0  0
   -2.0709   -7.6637   18.7817 C   0  0  0  0  0  0  0  0  0  0  0  0
   -0.5279   -8.2168   17.0717 C   0  0  0  0  0  0  0  0  0  0  0  0
    6.9694   -4.0191   27.8190 C   0  0  0  0  0  0  0  0  0  0  0  0
    5.1733   -4.5469   29.8123 C   0  0  0  0  0  0  0  0  0  0  0  0
   -1.7508  -11.3016   18.6072 C   0  0  0  0  0  0  0  0  0  0  0  0
    1.7497   -5.6771   26.4971 C   0  0  0  0  0  0  0  0  0  0  0  0
   -1.5799   -9.9322   18.3468 C   0  0  0  0  0  0  0  0  0  0  0  0
   -1.0871  -12.2214   17.8851 C   0  0  0  0  0  0  0  0  0  0  0  0
   -2.2706   -8.9669   19.0691 C   0  0  0  0  0  0  0  0  0  0  0  0
    3.0279   -5.3073   26.8197 C   0  0  0  0  0  0  0  0  0  0  0  0
    7.3282   -3.8948   29.1186 C   0  0  0  0  0  0  0  0  0  0  0  0
  1  3  4  0
  1  7  4  0
  2  3  1  0
  2  6  4  0
  2 16  4  0
  3 22  4  0
  4  9  4  0
  4 10  1  0
  4 20  4  0
  5 16  4  0
  5 23  4  0
  6 15  4  0
  7 12  4  0
  8 13  4  0
  8 14  4  0
  9 11  4  0
 11 14  4  0
 11 19  4  0
 12 18  4  0
 13 21  4  0
 15 23  4  0
 17 19  4  0
 17 20  4  0
 18 22  4  0
 19 21  4  0
M  END
$$$$

 Created by Python create_sdf_string function

 23 25  0  0  0  0  0  0  0  0999 V2000
    2.4610   -5.3070   29.1240 C   0  0  0  0  0  0  0  0  0  0  0  0
    4.7710   -4.6952   28.4803 C   0  0  0  0  0  0  0  0  0  0  0  0
    3.4047   -5.1087   28.1314 C   0  0  0  0  0  0  0  0  0  0  0  0
   -0.2234  -11.8615   16.8874 C   0  0  0  0  0  0  0  0  0  0  0  0
    6.4491   -4.1532   30.1213 C   0  0  0  0  0  0  0  0  0  0  0  0
    5.7060   -4.4340   27.4975 C   0  0  0  0  0  0  0  0  0  0  0  0
    1.1818   -5.6612   28.8399 C   0  0  0  0  0  0  0  0  0  0  0  0
   -1.2067   -7.3287   17.7772 C   0  0  0  0  0  0  0  0  0  0  0  0
   -0.0206  -10.5585   16.6210 C   0  0  0  0  0  0  0  0  0  0  0  0
    0.3696  -12.7626   16.2169 O   0  0  0  0  0  0  0  0  0  0  0  0
   -0.6895   -9.5676   17.3297 C   0  0  0  0  0  0  0  0  0  0  0  0
    0.8388   -5.8417   27.5264 C   0  0  0  0  0  0  0  0  0  0  0  0
   -2.0709   -7.6637   18.7817 C   0  0  0  0  0  0  0  0  0  0  0  0
   -0.5279   -8.2168   17.0717 C   0  0  0  0  0  0  0  0  0  0  0  0
    6.9694   -4.0191   27.8190 C   0  0  0  0  0  0  0  0  0  0  0  0
    5.1733   -4.5469   29.8123 C   0  0  0  0  0  0  0  0  0  0  0  0
   -1.7508  -11.3016   18.6072 C   0  0  0  0  0  0  0  0  0  0  0  0
    1.7497   -5.6771   26.4971 C   0  0  0  0  0  0  0  0  0  0  0  0
   -1.5799   -9.9322   18.3468 C   0  0  0  0  0  0  0  0  0  0  0  0
   -1.0871  -12.2214   17.8851 C   0  0  0  0  0  0  0  0  0  0  0  0
   -2.2706   -8.9669   19.0691 C   0  0  0  0  0  0  0  0  0  0  0  0
    3.0279   -5.3073   26.8197 C   0  0  0  0  0  0  0  0  0  0  0  0
    7.3282   -3.8948   29.1186 C   0  0  0  0  0  0  0  0  0  0  0  0
  1  3  4  0
  1  7  4  0
  2  3  1  0
  2  6  4  0
  2 16  4  0
  3 22  4  0
  4  9  4  0
  4 10  1  0
  4 20  4  0
  5 16  4  0
  5 23  4  0
  6 15  4  0
  7 12  4  0
  8 13  4  0
  8 14  4  0
  9 11  4  0
 11 14  4  0
 11 19  4  0
 12 18  4  0
 13 21  4  0
 15 23  4  0
 17 19  4  0
 17 20  4  0
 18 22  4  0
 19 21  4  0
M  END
$$$$

 Created by Python create_sdf_string function

 23 25  0  0  0  0  0  0  0  0999 V2000
    2.4610   -5.3070   29.1240 C   0  0  0  0  0  0  0  0  0  0  0  0
    4.7710   -4.6952   28.4803 C   0  0  0  0  0  0  0  0  0  0  0  0
    3.4047   -5.1087   28.1314 C   0  0  0  0  0  0  0  0  0  0  0  0
   -0.2234  -11.8615   16.8874 C   0  0  0  0  0  0  0  0  0  0  0  0
    6.4491   -4.1532   30.1213 C   0  0  0  0  0  0  0  0  0  0  0  0
    5.7060   -4.4340   27.4975 C   0  0  0  0  0  0  0  0  0  0  0  0
    1.1818   -5.6612   28.8399 C   0  0  0  0  0  0  0  0  0  0  0  0
   -1.2067   -7.3287   17.7772 C   0  0  0  0  0  0  0  0  0  0  0  0
   -0.0206  -10.5585   16.6210 C   0  0  0  0  0  0  0  0  0  0  0  0
    0.3696  -12.7626   16.2169 O   0  0  0  0  0  0  0  0  0  0  0  0
   -0.6895   -9.5676   17.3297 C   0  0  0  0  0  0  0  0  0  0  0  0
    0.8388   -5.8417   27.5264 C   0  0  0  0  0  0  0  0  0  0  0  0
   -2.0709   -7.6637   18.7817 C   0  0  0  0  0  0  0  0  0  0  0  0
   -0.5279   -8.2168   17.0717 C   0  0  0  0  0  0  0  0  0  0  0  0
    6.9694   -4.0191   27.8190 C   0  0  0  0  0  0  0  0  0  0  0  0
    5.1733   -4.5469   29.8123 C   0  0  0  0  0  0  0  0  0  0  0  0
   -1.7508  -11.3016   18.6072 C   0  0  0  0  0  0  0  0  0  0  0  0
    1.7497   -5.6771   26.4971 C   0  0  0  0  0  0  0  0  0  0  0  0
   -1.5799   -9.9322   18.3468 C   0  0  0  0  0  0  0  0  0  0  0  0
   -1.0871  -12.2214   17.8851 C   0  0  0  0  0  0  0  0  0  0  0  0
   -2.2706   -8.9669   19.0691 C   0  0  0  0  0  0  0  0  0  0  0  0
    3.0279   -5.3073   26.8197 C   0  0  0  0  0  0  0  0  0  0  0  0
    7.3282   -3.8948   29.1186 C   0  0  0  0  0  0  0  0  0  0  0  0
  1  3  4  0
  1  7  4  0
  2  3  1  0
  2  6  4  0
  2 16  4  0
  3 22  4  0
  4  9  4  0
  4 10  1  0
  4 20  4  0
  5 16  4  0
  5 23  4  0
  6 15  4  0
  7 12  4  0
  8 13  4  0
  8 14  4  0
  9 11  4  0
 11 14  4  0
 11 19  4  0
 12 18  4  0
 13 21  4  0
 15 23  4  0
 17 19  4  0
 17 20  4  0
 18 22  4  0
 19 21  4  0
M  END
$$$$

 Created by Python create_sdf_string function

 23 25  0  0  0  0  0  0  0  0999 V2000
    2.4610   -5.3070   29.1240 C   0  0  0  0  0  0  0  0  0  0  0  0
    4.7710   -4.6952   28.4803 C   0  0  0  0  0  0  0  0  0  0  0  0
    3.4047   -5.1087   28.1314 C   0  0  0  0  0  0  0  0  0  0  0  0
   -0.2234  -11.8615   16.8874 C   0  0  0  0  0  0  0  0  0  0  0  0
    6.4491   -4.1532   30.1213 C   0  0  0  0  0  0  0  0  0  0  0  0
    5.7060   -4.4340   27.4975 C   0  0  0  0  0  0  0  0  0  0  0  0
    1.1818   -5.6612   28.8399 C   0  0  0  0  0  0  0  0  0  0  0  0
   -1.2067   -7.3287   17.7772 C   0  0  0  0  0  0  0  0  0  0  0  0
   -0.0206  -10.5585   16.6210 C   0  0  0  0  0  0  0  0  0  0  0  0
    0.3696  -12.7626   16.2169 O   0  0  0  0  0  0  0  0  0  0  0  0
   -0.6895   -9.5676   17.3297 C   0  0  0  0  0  0  0  0  0  0  0  0
    0.8388   -5.8417   27.5264 C   0  0  0  0  0  0  0  0  0  0  0  0
   -2.0709   -7.6637   18.7817 C   0  0  0  0  0  0  0  0  0  0  0  0
   -0.5279   -8.2168   17.0717 C   0  0  0  0  0  0  0  0  0  0  0  0
    6.9694   -4.0191   27.8190 C   0  0  0  0  0  0  0  0  0  0  0  0
    5.1733   -4.5469   29.8123 C   0  0  0  0  0  0  0  0  0  0  0  0
   -1.7508  -11.3016   18.6072 C   0  0  0  0  0  0  0  0  0  0  0  0
    1.7497   -5.6771   26.4971 C   0  0  0  0  0  0  0  0  0  0  0  0
   -1.5799   -9.9322   18.3468 C   0  0  0  0  0  0  0  0  0  0  0  0
   -1.0871  -12.2214   17.8851 C   0  0  0  0  0  0  0  0  0  0  0  0
   -2.2706   -8.9669   19.0691 C   0  0  0  0  0  0  0  0  0  0  0  0
    3.0279   -5.3073   26.8197 C   0  0  0  0  0  0  0  0  0  0  0  0
    7.3282   -3.8948   29.1186 C   0  0  0  0  0  0  0  0  0  0  0  0
  1  3  4  0
  1  7  4  0
  2  3  1  0
  2  6  4  0
  2 16  4  0
  3 22  4  0
  4  9  4  0
  4 10  1  0
  4 20  4  0
  5 16  4  0
  5 23  4  0
  6 15  4  0
  7 12  4  0
  8 13  4  0
  8 14  4  0
  9 11  4  0
 11 14  4  0
 11 19  4  0
 12 18  4  0
 13 21  4  0
 15 23  4  0
 17 19  4  0
 17 20  4  0
 18 22  4  0
 19 21  4  0
M  END
$$$$

 Created by Python create_sdf_string function

 23 25  0  0  0  0  0  0  0  0999 V2000
    2.4610   -5.3070   29.1240 C   0  0  0  0  0  0  0  0  0  0  0  0
    4.7710   -4.6952   28.4803 C   0  0  0  0  0  0  0  0  0  0  0  0
    3.4047   -5.1087   28.1314 C   0  0  0  0  0  0  0  0  0  0  0  0
   -0.2234  -11.8615   16.8874 C   0  0  0  0  0  0  0  0  0  0  0  0
    6.4491   -4.1532   30.1213 C   0  0  0  0  0  0  0  0  0  0  0  0
    5.7060   -4.4340   27.4975 C   0  0  0  0  0  0  0  0  0  0  0  0
    1.1818   -5.6612   28.8399 C   0  0  0  0  0  0  0  0  0  0  0  0
   -1.2067   -7.3287   17.7772 C   0  0  0  0  0  0  0  0  0  0  0  0
   -0.0206  -10.5585   16.6210 C   0  0  0  0  0  0  0  0  0  0  0  0
    0.3696  -12.7626   16.2169 O   0  0  0  0  0  0  0  0  0  0  0  0
   -0.6895   -9.5676   17.3297 C   0  0  0  0  0  0  0  0  0  0  0  0
    0.8388   -5.8417   27.5264 C   0  0  0  0  0  0  0  0  0  0  0  0
   -2.0709   -7.6637   18.7817 C   0  0  0  0  0  0  0  0  0  0  0  0
   -0.5279   -8.2168   17.0717 C   0  0  0  0  0  0  0  0  0  0  0  0
    6.9694   -4.0191   27.8190 C   0  0  0  0  0  0  0  0  0  0  0  0
    5.1733   -4.5469   29.8123 C   0  0  0  0  0  0  0  0  0  0  0  0
   -1.7508  -11.3016   18.6072 C   0  0  0  0  0  0  0  0  0  0  0  0
    1.7497   -5.6771   26.4971 C   0  0  0  0  0  0  0  0  0  0  0  0
   -1.5799   -9.9322   18.3468 C   0  0  0  0  0  0  0  0  0  0  0  0
   -1.0871  -12.2214   17.8851 C   0  0  0  0  0  0  0  0  0  0  0  0
   -2.2706   -8.9669   19.0691 C   0  0  0  0  0  0  0  0  0  0  0  0
    3.0279   -5.3073   26.8197 C   0  0  0  0  0  0  0  0  0  0  0  0
    7.3282   -3.8948   29.1186 C   0  0  0  0  0  0  0  0  0  0  0  0
  1  3  4  0
  1  7  4  0
  2  3  1  0
  2  6  4  0
  2 16  4  0
  3 22  4  0
  4  9  4  0
  4 10  1  0
  4 20  4  0
  5 16  4  0
  5 23  4  0
  6 15  4  0
  7 12  4  0
  8 13  4  0
  8 14  4  0
  9 11  4  0
 11 14  4  0
 11 19  4  0
 12 18  4  0
 13 21  4  0
 15 23  4  0
 17 19  4  0
 17 20  4  0
 18 22  4  0
 19 21  4  0
M  END
$$$$

 Created by Python create_sdf_string function

 23 25  0  0  0  0  0  0  0  0999 V2000
    2.4610   -5.3070   29.1240 C   0  0  0  0  0  0  0  0  0  0  0  0
    4.7710   -4.6952   28.4803 C   0  0  0  0  0  0  0  0  0  0  0  0
    3.4047   -5.1087   28.1314 C   0  0  0  0  0  0  0  0  0  0  0  0
   -0.2234  -11.8615   16.8874 C   0  0  0  0  0  0  0  0  0  0  0  0
    6.4491   -4.1532   30.1213 C   0  0  0  0  0  0  0  0  0  0  0  0
    5.7060   -4.4340   27.4975 C   0  0  0  0  0  0  0  0  0  0  0  0
    1.1818   -5.6612   28.8399 C   0  0  0  0  0  0  0  0  0  0  0  0
   -1.2067   -7.3287   17.7772 C   0  0  0  0  0  0  0  0  0  0  0  0
   -0.0206  -10.5585   16.6210 C   0  0  0  0  0  0  0  0  0  0  0  0
    0.3696  -12.7626   16.2169 O   0  0  0  0  0  0  0  0  0  0  0  0
   -0.6895   -9.5676   17.3297 C   0  0  0  0  0  0  0  0  0  0  0  0
    0.8388   -5.8417   27.5264 C   0  0  0  0  0  0  0  0  0  0  0  0
   -2.0709   -7.6637   18.7817 C   0  0  0  0  0  0  0  0  0  0  0  0
   -0.5279   -8.2168   17.0717 C   0  0  0  0  0  0  0  0  0  0  0  0
    6.9694   -4.0191   27.8190 C   0  0  0  0  0  0  0  0  0  0  0  0
    5.1733   -4.5469   29.8123 C   0  0  0  0  0  0  0  0  0  0  0  0
   -1.7508  -11.3016   18.6072 C   0  0  0  0  0  0  0  0  0  0  0  0
    1.7497   -5.6771   26.4971 C   0  0  0  0  0  0  0  0  0  0  0  0
   -1.5799   -9.9322   18.3468 C   0  0  0  0  0  0  0  0  0  0  0  0
   -1.0871  -12.2214   17.8851 C   0  0  0  0  0  0  0  0  0  0  0  0
   -2.2706   -8.9669   19.0691 C   0  0  0  0  0  0  0  0  0  0  0  0
    3.0279   -5.3073   26.8197 C   0  0  0  0  0  0  0  0  0  0  0  0
    7.3282   -3.8948   29.1186 C   0  0  0  0  0  0  0  0  0  0  0  0
  1  3  4  0
  1  7  4  0
  2  3  1  0
  2  6  4  0
  2 16  4  0
  3 22  4  0
  4  9  4  0
  4 10  1  0
  4 20  4  0
  5 16  4  0
  5 23  4  0
  6 15  4  0
  7 12  4  0
  8 13  4  0
  8 14  4  0
  9 11  4  0
 11 14  4  0
 11 19  4  0
 12 18  4  0
 13 21  4  0
 15 23  4  0
 17 19  4  0
 17 20  4  0
 18 22  4  0
 19 21  4  0
M  END
$$$$

 Created by Python create_sdf_string function

 23 25  0  0  0  0  0  0  0  0999 V2000
    2.4610   -5.3070   29.1240 C   0  0  0  0  0  0  0  0  0  0  0  0
    4.7710   -4.6952   28.4803 C   0  0  0  0  0  0  0  0  0  0  0  0
    3.4047   -5.1087   28.1314 C   0  0  0  0  0  0  0  0  0  0  0  0
   -0.2234  -11.8615   16.8874 C   0  0  0  0  0  0  0  0  0  0  0  0
    6.4491   -4.1532   30.1213 C   0  0  0  0  0  0  0  0  0  0  0  0
    5.7060   -4.4340   27.4975 C   0  0  0  0  0  0  0  0  0  0  0  0
    1.1818   -5.6612   28.8399 C   0  0  0  0  0  0  0  0  0  0  0  0
   -1.2067   -7.3287   17.7772 C   0  0  0  0  0  0  0  0  0  0  0  0
   -0.0206  -10.5585   16.6210 C   0  0  0  0  0  0  0  0  0  0  0  0
    0.3696  -12.7626   16.2169 O   0  0  0  0  0  0  0  0  0  0  0  0
   -0.6895   -9.5676   17.3297 C   0  0  0  0  0  0  0  0  0  0  0  0
    0.8388   -5.8417   27.5264 C   0  0  0  0  0  0  0  0  0  0  0  0
   -2.0709   -7.6637   18.7817 C   0  0  0  0  0  0  0  0  0  0  0  0
   -0.5279   -8.2168   17.0717 C   0  0  0  0  0  0  0  0  0  0  0  0
    6.9694   -4.0191   27.8190 C   0  0  0  0  0  0  0  0  0  0  0  0
    5.1733   -4.5469   29.8123 C   0  0  0  0  0  0  0  0  0  0  0  0
   -1.7508  -11.3016   18.6072 C   0  0  0  0  0  0  0  0  0  0  0  0
    1.7497   -5.6771   26.4971 C   0  0  0  0  0  0  0  0  0  0  0  0
   -1.5799   -9.9322   18.3468 C   0  0  0  0  0  0  0  0  0  0  0  0
   -1.0871  -12.2214   17.8851 C   0  0  0  0  0  0  0  0  0  0  0  0
   -2.2706   -8.9669   19.0691 C   0  0  0  0  0  0  0  0  0  0  0  0
    3.0279   -5.3073   26.8197 C   0  0  0  0  0  0  0  0  0  0  0  0
    7.3282   -3.8948   29.1186 C   0  0  0  0  0  0  0  0  0  0  0  0
  1  3  4  0
  1  7  4  0
  2  3  1  0
  2  6  4  0
  2 16  4  0
  3 22  4  0
  4  9  4  0
  4 10  1  0
  4 20  4  0
  5 16  4  0
  5 23  4  0
  6 15  4  0
  7 12  4  0
  8 13  4  0
  8 14  4  0
  9 11  4  0
 11 14  4  0
 11 19  4  0
 12 18  4  0
 13 21  4  0
 15 23  4  0
 17 19  4  0
 17 20  4  0
 18 22  4  0
 19 21  4  0
M  END
$$$$

 Created by Python create_sdf_string function

 23 25  0  0  0  0  0  0  0  0999 V2000
    2.4610   -5.3070   29.1240 C   0  0  0  0  0  0  0  0  0  0  0  0
    4.7710   -4.6952   28.4803 C   0  0  0  0  0  0  0  0  0  0  0  0
    3.4047   -5.1087   28.1314 C   0  0  0  0  0  0  0  0  0  0  0  0
   -0.2234  -11.8615   16.8874 C   0  0  0  0  0  0  0  0  0  0  0  0
    6.4491   -4.1532   30.1213 C   0  0  0  0  0  0  0  0  0  0  0  0
    5.7060   -4.4340   27.4975 C   0  0  0  0  0  0  0  0  0  0  0  0
    1.1818   -5.6612   28.8399 C   0  0  0  0  0  0  0  0  0  0  0  0
   -1.2067   -7.3287   17.7772 C   0  0  0  0  0  0  0  0  0  0  0  0
   -0.0206  -10.5585   16.6210 C   0  0  0  0  0  0  0  0  0  0  0  0
    0.3696  -12.7626   16.2169 O   0  0  0  0  0  0  0  0  0  0  0  0
   -0.6895   -9.5676   17.3297 C   0  0  0  0  0  0  0  0  0  0  0  0
    0.8388   -5.8417   27.5264 C   0  0  0  0  0  0  0  0  0  0  0  0
   -2.0709   -7.6637   18.7817 C   0  0  0  0  0  0  0  0  0  0  0  0
   -0.5279   -8.2168   17.0717 C   0  0  0  0  0  0  0  0  0  0  0  0
    6.9694   -4.0191   27.8190 C   0  0  0  0  0  0  0  0  0  0  0  0
    5.1733   -4.5469   29.8123 C   0  0  0  0  0  0  0  0  0  0  0  0
   -1.7508  -11.3016   18.6072 C   0  0  0  0  0  0  0  0  0  0  0  0
    1.7497   -5.6771   26.4971 C   0  0  0  0  0  0  0  0  0  0  0  0
   -1.5799   -9.9322   18.3468 C   0  0  0  0  0  0  0  0  0  0  0  0
   -1.0871  -12.2214   17.8851 C   0  0  0  0  0  0  0  0  0  0  0  0
   -2.2706   -8.9669   19.0691 C   0  0  0  0  0  0  0  0  0  0  0  0
    3.0279   -5.3073   26.8197 C   0  0  0  0  0  0  0  0  0  0  0  0
    7.3282   -3.8948   29.1186 C   0  0  0  0  0  0  0  0  0  0  0  0
  1  3  4  0
  1  7  4  0
  2  3  1  0
  2  6  4  0
  2 16  4  0
  3 22  4  0
  4  9  4  0
  4 10  1  0
  4 20  4  0
  5 16  4  0
  5 23  4  0
  6 15  4  0
  7 12  4  0
  8 13  4  0
  8 14  4  0
  9 11  4  0
 11 14  4  0
 11 19  4  0
 12 18  4  0
 13 21  4  0
 15 23  4  0
 17 19  4  0
 17 20  4  0
 18 22  4  0
 19 21  4  0
M  END
$$$$

 Created by Python create_sdf_string function

 23 25  0  0  0  0  0  0  0  0999 V2000
    2.4610   -5.3070   29.1240 C   0  0  0  0  0  0  0  0  0  0  0  0
    4.7710   -4.6952   28.4803 C   0  0  0  0  0  0  0  0  0  0  0  0
    3.4047   -5.1087   28.1314 C   0  0  0  0  0  0  0  0  0  0  0  0
   -0.2234  -11.8615   16.8874 C   0  0  0  0  0  0  0  0  0  0  0  0
    6.4491   -4.1532   30.1213 C   0  0  0  0  0  0  0  0  0  0  0  0
    5.7060   -4.4340   27.4975 C   0  0  0  0  0  0  0  0  0  0  0  0
    1.1818   -5.6612   28.8399 C   0  0  0  0  0  0  0  0  0  0  0  0
   -1.2067   -7.3287   17.7772 C   0  0  0  0  0  0  0  0  0  0  0  0
   -0.0206  -10.5585   16.6210 C   0  0  0  0  0  0  0  0  0  0  0  0
    0.3696  -12.7626   16.2169 O   0  0  0  0  0  0  0  0  0  0  0  0
   -0.6895   -9.5676   17.3297 C   0  0  0  0  0  0  0  0  0  0  0  0
    0.8388   -5.8417   27.5264 C   0  0  0  0  0  0  0  0  0  0  0  0
   -2.0709   -7.6637   18.7817 C   0  0  0  0  0  0  0  0  0  0  0  0
   -0.5279   -8.2168   17.0717 C   0  0  0  0  0  0  0  0  0  0  0  0
    6.9694   -4.0191   27.8190 C   0  0  0  0  0  0  0  0  0  0  0  0
    5.1733   -4.5469   29.8123 C   0  0  0  0  0  0  0  0  0  0  0  0
   -1.7508  -11.3016   18.6072 C   0  0  0  0  0  0  0  0  0  0  0  0
    1.7497   -5.6771   26.4971 C   0  0  0  0  0  0  0  0  0  0  0  0
   -1.5799   -9.9322   18.3468 C   0  0  0  0  0  0  0  0  0  0  0  0
   -1.0871  -12.2214   17.8851 C   0  0  0  0  0  0  0  0  0  0  0  0
   -2.2706   -8.9669   19.0691 C   0  0  0  0  0  0  0  0  0  0  0  0
    3.0279   -5.3073   26.8197 C   0  0  0  0  0  0  0  0  0  0  0  0
    7.3282   -3.8948   29.1186 C   0  0  0  0  0  0  0  0  0  0  0  0
  1  3  4  0
  1  7  4  0
  2  3  1  0
  2  6  4  0
  2 16  4  0
  3 22  4  0
  4  9  4  0
  4 10  1  0
  4 20  4  0
  5 16  4  0
  5 23  4  0
  6 15  4  0
  7 12  4  0
  8 13  4  0
  8 14  4  0
  9 11  4  0
 11 14  4  0
 11 19  4  0
 12 18  4  0
 13 21  4  0
 15 23  4  0
 17 19  4  0
 17 20  4  0
 18 22  4  0
 19 21  4  0
M  END
$$$$

 Created by Python create_sdf_string function

 23 25  0  0  0  0  0  0  0  0999 V2000
    2.4610   -5.3070   29.1240 C   0  0  0  0  0  0  0  0  0  0  0  0
    4.7710   -4.6952   28.4803 C   0  0  0  0  0  0  0  0  0  0  0  0
    3.4047   -5.1087   28.1314 C   0  0  0  0  0  0  0  0  0  0  0  0
   -0.2234  -11.8615   16.8874 C   0  0  0  0  0  0  0  0  0  0  0  0
    6.4491   -4.1532   30.1213 C   0  0  0  0  0  0  0  0  0  0  0  0
    5.7060   -4.4340   27.4975 C   0  0  0  0  0  0  0  0  0  0  0  0
    1.1818   -5.6612   28.8399 C   0  0  0  0  0  0  0  0  0  0  0  0
   -1.2067   -7.3287   17.7772 C   0  0  0  0  0  0  0  0  0  0  0  0
   -0.0206  -10.5585   16.6210 C   0  0  0  0  0  0  0  0  0  0  0  0
    0.3696  -12.7626   16.2169 O   0  0  0  0  0  0  0  0  0  0  0  0
   -0.6895   -9.5676   17.3297 C   0  0  0  0  0  0  0  0  0  0  0  0
    0.8388   -5.8417   27.5264 C   0  0  0  0  0  0  0  0  0  0  0  0
   -2.0709   -7.6637   18.7817 C   0  0  0  0  0  0  0  0  0  0  0  0
   -0.5279   -8.2168   17.0717 C   0  0  0  0  0  0  0  0  0  0  0  0
    6.9694   -4.0191   27.8190 C   0  0  0  0  0  0  0  0  0  0  0  0
    5.1733   -4.5469   29.8123 C   0  0  0  0  0  0  0  0  0  0  0  0
   -1.7508  -11.3016   18.6072 C   0  0  0  0  0  0  0  0  0  0  0  0
    1.7497   -5.6771   26.4971 C   0  0  0  0  0  0  0  0  0  0  0  0
   -1.5799   -9.9322   18.3468 C   0  0  0  0  0  0  0  0  0  0  0  0
   -1.0871  -12.2214   17.8851 C   0  0  0  0  0  0  0  0  0  0  0  0
   -2.2706   -8.9669   19.0691 C   0  0  0  0  0  0  0  0  0  0  0  0
    3.0279   -5.3073   26.8197 C   0  0  0  0  0  0  0  0  0  0  0  0
    7.3282   -3.8948   29.1186 C   0  0  0  0  0  0  0  0  0  0  0  0
  1  3  4  0
  1  7  4  0
  2  3  1  0
  2  6  4  0
  2 16  4  0
  3 22  4  0
  4  9  4  0
  4 10  1  0
  4 20  4  0
  5 16  4  0
  5 23  4  0
  6 15  4  0
  7 12  4  0
  8 13  4  0
  8 14  4  0
  9 11  4  0
 11 14  4  0
 11 19  4  0
 12 18  4  0
 13 21  4  0
 15 23  4  0
 17 19  4  0
 17 20  4  0
 18 22  4  0
 19 21  4  0
M  END
$$$$

 Created by Python create_sdf_string function

 23 25  0  0  0  0  0  0  0  0999 V2000
    2.4610   -5.3070   29.1240 C   0  0  0  0  0  0  0  0  0  0  0  0
    4.7710   -4.6952   28.4803 C   0  0  0  0  0  0  0  0  0  0  0  0
    3.4047   -5.1087   28.1314 C   0  0  0  0  0  0  0  0  0  0  0  0
   -0.2234  -11.8615   16.8874 C   0  0  0  0  0  0  0  0  0  0  0  0
    6.4491   -4.1532   30.1213 C   0  0  0  0  0  0  0  0  0  0  0  0
    5.7060   -4.4340   27.4975 C   0  0  0  0  0  0  0  0  0  0  0  0
    1.1818   -5.6612   28.8399 C   0  0  0  0  0  0  0  0  0  0  0  0
   -1.2067   -7.3287   17.7772 C   0  0  0  0  0  0  0  0  0  0  0  0
   -0.0206  -10.5585   16.6210 C   0  0  0  0  0  0  0  0  0  0  0  0
    0.3696  -12.7626   16.2169 O   0  0  0  0  0  0  0  0  0  0  0  0
   -0.6895   -9.5676   17.3297 C   0  0  0  0  0  0  0  0  0  0  0  0
    0.8388   -5.8417   27.5264 C   0  0  0  0  0  0  0  0  0  0  0  0
   -2.0709   -7.6637   18.7817 C   0  0  0  0  0  0  0  0  0  0  0  0
   -0.5279   -8.2168   17.0717 C   0  0  0  0  0  0  0  0  0  0  0  0
    6.9694   -4.0191   27.8190 C   0  0  0  0  0  0  0  0  0  0  0  0
    5.1733   -4.5469   29.8123 C   0  0  0  0  0  0  0  0  0  0  0  0
   -1.7508  -11.3016   18.6072 C   0  0  0  0  0  0  0  0  0  0  0  0
    1.7497   -5.6771   26.4971 C   0  0  0  0  0  0  0  0  0  0  0  0
   -1.5799   -9.9322   18.3468 C   0  0  0  0  0  0  0  0  0  0  0  0
   -1.0871  -12.2214   17.8851 C   0  0  0  0  0  0  0  0  0  0  0  0
   -2.2706   -8.9669   19.0691 C   0  0  0  0  0  0  0  0  0  0  0  0
    3.0279   -5.3073   26.8197 C   0  0  0  0  0  0  0  0  0  0  0  0
    7.3282   -3.8948   29.1186 C   0  0  0  0  0  0  0  0  0  0  0  0
  1  3  4  0
  1  7  4  0
  2  3  1  0
  2  6  4  0
  2 16  4  0
  3 22  4  0
  4  9  4  0
  4 10  1  0
  4 20  4  0
  5 16  4  0
  5 23  4  0
  6 15  4  0
  7 12  4  0
  8 13  4  0
  8 14  4  0
  9 11  4  0
 11 14  4  0
 11 19  4  0
 12 18  4  0
 13 21  4  0
 15 23  4  0
 17 19  4  0
 17 20  4  0
 18 22  4  0
 19 21  4  0
M  END
$$$$

 Created by Python create_sdf_string function

 23 25  0  0  0  0  0  0  0  0999 V2000
    2.4610   -5.3070   29.1240 C   0  0  0  0  0  0  0  0  0  0  0  0
    4.7710   -4.6952   28.4803 C   0  0  0  0  0  0  0  0  0  0  0  0
    3.4047   -5.1087   28.1314 C   0  0  0  0  0  0  0  0  0  0  0  0
   -0.2234  -11.8615   16.8874 C   0  0  0  0  0  0  0  0  0  0  0  0
    6.4491   -4.1532   30.1213 C   0  0  0  0  0  0  0  0  0  0  0  0
    5.7060   -4.4340   27.4975 C   0  0  0  0  0  0  0  0  0  0  0  0
    1.1818   -5.6612   28.8399 C   0  0  0  0  0  0  0  0  0  0  0  0
   -1.2067   -7.3287   17.7772 C   0  0  0  0  0  0  0  0  0  0  0  0
   -0.0206  -10.5585   16.6210 C   0  0  0  0  0  0  0  0  0  0  0  0
    0.3696  -12.7626   16.2169 O   0  0  0  0  0  0  0  0  0  0  0  0
   -0.6895   -9.5676   17.3297 C   0  0  0  0  0  0  0  0  0  0  0  0
    0.8388   -5.8417   27.5264 C   0  0  0  0  0  0  0  0  0  0  0  0
   -2.0709   -7.6637   18.7817 C   0  0  0  0  0  0  0  0  0  0  0  0
   -0.5279   -8.2168   17.0717 C   0  0  0  0  0  0  0  0  0  0  0  0
    6.9694   -4.0191   27.8190 C   0  0  0  0  0  0  0  0  0  0  0  0
    5.1733   -4.5469   29.8123 C   0  0  0  0  0  0  0  0  0  0  0  0
   -1.7508  -11.3016   18.6072 C   0  0  0  0  0  0  0  0  0  0  0  0
    1.7497   -5.6771   26.4971 C   0  0  0  0  0  0  0  0  0  0  0  0
   -1.5799   -9.9322   18.3468 C   0  0  0  0  0  0  0  0  0  0  0  0
   -1.0871  -12.2214   17.8851 C   0  0  0  0  0  0  0  0  0  0  0  0
   -2.2706   -8.9669   19.0691 C   0  0  0  0  0  0  0  0  0  0  0  0
    3.0279   -5.3073   26.8197 C   0  0  0  0  0  0  0  0  0  0  0  0
    7.3282   -3.8948   29.1186 C   0  0  0  0  0  0  0  0  0  0  0  0
  1  3  4  0
  1  7  4  0
  2  3  1  0
  2  6  4  0
  2 16  4  0
  3 22  4  0
  4  9  4  0
  4 10  1  0
  4 20  4  0
  5 16  4  0
  5 23  4  0
  6 15  4  0
  7 12  4  0
  8 13  4  0
  8 14  4  0
  9 11  4  0
 11 14  4  0
 11 19  4  0
 12 18  4  0
 13 21  4  0
 15 23  4  0
 17 19  4  0
 17 20  4  0
 18 22  4  0
 19 21  4  0
M  END
$$$$

 Created by Python create_sdf_string function

 23 25  0  0  0  0  0  0  0  0999 V2000
    2.4610   -5.3070   29.1240 C   0  0  0  0  0  0  0  0  0  0  0  0
    4.7710   -4.6952   28.4803 C   0  0  0  0  0  0  0  0  0  0  0  0
    3.4047   -5.1087   28.1314 C   0  0  0  0  0  0  0  0  0  0  0  0
   -0.2234  -11.8615   16.8874 C   0  0  0  0  0  0  0  0  0  0  0  0
    6.4491   -4.1532   30.1213 C   0  0  0  0  0  0  0  0  0  0  0  0
    5.7060   -4.4340   27.4975 C   0  0  0  0  0  0  0  0  0  0  0  0
    1.1818   -5.6612   28.8399 C   0  0  0  0  0  0  0  0  0  0  0  0
   -1.2067   -7.3287   17.7772 C   0  0  0  0  0  0  0  0  0  0  0  0
   -0.0206  -10.5585   16.6210 C   0  0  0  0  0  0  0  0  0  0  0  0
    0.3696  -12.7626   16.2169 O   0  0  0  0  0  0  0  0  0  0  0  0
   -0.6895   -9.5676   17.3297 C   0  0  0  0  0  0  0  0  0  0  0  0
    0.8388   -5.8417   27.5264 C   0  0  0  0  0  0  0  0  0  0  0  0
   -2.0709   -7.6637   18.7817 C   0  0  0  0  0  0  0  0  0  0  0  0
   -0.5279   -8.2168   17.0717 C   0  0  0  0  0  0  0  0  0  0  0  0
    6.9694   -4.0191   27.8190 C   0  0  0  0  0  0  0  0  0  0  0  0
    5.1733   -4.5469   29.8123 C   0  0  0  0  0  0  0  0  0  0  0  0
   -1.7508  -11.3016   18.6072 C   0  0  0  0  0  0  0  0  0  0  0  0
    1.7497   -5.6771   26.4971 C   0  0  0  0  0  0  0  0  0  0  0  0
   -1.5799   -9.9322   18.3468 C   0  0  0  0  0  0  0  0  0  0  0  0
   -1.0871  -12.2214   17.8851 C   0  0  0  0  0  0  0  0  0  0  0  0
   -2.2706   -8.9669   19.0691 C   0  0  0  0  0  0  0  0  0  0  0  0
    3.0279   -5.3073   26.8197 C   0  0  0  0  0  0  0  0  0  0  0  0
    7.3282   -3.8948   29.1186 C   0  0  0  0  0  0  0  0  0  0  0  0
  1  3  4  0
  1  7  4  0
  2  3  1  0
  2  6  4  0
  2 16  4  0
  3 22  4  0
  4  9  4  0
  4 10  1  0
  4 20  4  0
  5 16  4  0
  5 23  4  0
  6 15  4  0
  7 12  4  0
  8 13  4  0
  8 14  4  0
  9 11  4  0
 11 14  4  0
 11 19  4  0
 12 18  4  0
 13 21  4  0
 15 23  4  0
 17 19  4  0
 17 20  4  0
 18 22  4  0
 19 21  4  0
M  END
$$$$

 Created by Python create_sdf_string function

 23 25  0  0  0  0  0  0  0  0999 V2000
    2.4610   -5.3070   29.1240 C   0  0  0  0  0  0  0  0  0  0  0  0
    4.7710   -4.6952   28.4803 C   0  0  0  0  0  0  0  0  0  0  0  0
    3.4047   -5.1087   28.1314 C   0  0  0  0  0  0  0  0  0  0  0  0
   -0.2234  -11.8615   16.8874 C   0  0  0  0  0  0  0  0  0  0  0  0
    6.4491   -4.1532   30.1213 C   0  0  0  0  0  0  0  0  0  0  0  0
    5.7060   -4.4340   27.4975 C   0  0  0  0  0  0  0  0  0  0  0  0
    1.1818   -5.6612   28.8399 C   0  0  0  0  0  0  0  0  0  0  0  0
   -1.2067   -7.3287   17.7772 C   0  0  0  0  0  0  0  0  0  0  0  0
   -0.0206  -10.5585   16.6210 C   0  0  0  0  0  0  0  0  0  0  0  0
    0.3696  -12.7626   16.2169 O   0  0  0  0  0  0  0  0  0  0  0  0
   -0.6895   -9.5676   17.3297 C   0  0  0  0  0  0  0  0  0  0  0  0
    0.8388   -5.8417   27.5264 C   0  0  0  0  0  0  0  0  0  0  0  0
   -2.0709   -7.6637   18.7817 C   0  0  0  0  0  0  0  0  0  0  0  0
   -0.5279   -8.2168   17.0717 C   0  0  0  0  0  0  0  0  0  0  0  0
    6.9694   -4.0191   27.8190 C   0  0  0  0  0  0  0  0  0  0  0  0
    5.1733   -4.5469   29.8123 C   0  0  0  0  0  0  0  0  0  0  0  0
   -1.7508  -11.3016   18.6072 C   0  0  0  0  0  0  0  0  0  0  0  0
    1.7497   -5.6771   26.4971 C   0  0  0  0  0  0  0  0  0  0  0  0
   -1.5799   -9.9322   18.3468 C   0  0  0  0  0  0  0  0  0  0  0  0
   -1.0871  -12.2214   17.8851 C   0  0  0  0  0  0  0  0  0  0  0  0
   -2.2706   -8.9669   19.0691 C   0  0  0  0  0  0  0  0  0  0  0  0
    3.0279   -5.3073   26.8197 C   0  0  0  0  0  0  0  0  0  0  0  0
    7.3282   -3.8948   29.1186 C   0  0  0  0  0  0  0  0  0  0  0  0
  1  3  4  0
  1  7  4  0
  2  3  1  0
  2  6  4  0
  2 16  4  0
  3 22  4  0
  4  9  4  0
  4 10  1  0
  4 20  4  0
  5 16  4  0
  5 23  4  0
  6 15  4  0
  7 12  4  0
  8 13  4  0
  8 14  4  0
  9 11  4  0
 11 14  4  0
 11 19  4  0
 12 18  4  0
 13 21  4  0
 15 23  4  0
 17 19  4  0
 17 20  4  0
 18 22  4  0
 19 21  4  0
M  END
$$$$

 Created by Python create_sdf_string function

 23 25  0  0  0  0  0  0  0  0999 V2000
    2.4610   -5.3070   29.1240 C   0  0  0  0  0  0  0  0  0  0  0  0
    4.7710   -4.6952   28.4803 C   0  0  0  0  0  0  0  0  0  0  0  0
    3.4047   -5.1087   28.1314 C   0  0  0  0  0  0  0  0  0  0  0  0
   -0.2234  -11.8615   16.8874 C   0  0  0  0  0  0  0  0  0  0  0  0
    6.4491   -4.1532   30.1213 C   0  0  0  0  0  0  0  0  0  0  0  0
    5.7060   -4.4340   27.4975 C   0  0  0  0  0  0  0  0  0  0  0  0
    1.1818   -5.6612   28.8399 C   0  0  0  0  0  0  0  0  0  0  0  0
   -1.2067   -7.3287   17.7772 C   0  0  0  0  0  0  0  0  0  0  0  0
   -0.0206  -10.5585   16.6210 C   0  0  0  0  0  0  0  0  0  0  0  0
    0.3696  -12.7626   16.2169 O   0  0  0  0  0  0  0  0  0  0  0  0
   -0.6895   -9.5676   17.3297 C   0  0  0  0  0  0  0  0  0  0  0  0
    0.8388   -5.8417   27.5264 C   0  0  0  0  0  0  0  0  0  0  0  0
   -2.0709   -7.6637   18.7817 C   0  0  0  0  0  0  0  0  0  0  0  0
   -0.5279   -8.2168   17.0717 C   0  0  0  0  0  0  0  0  0  0  0  0
    6.9694   -4.0191   27.8190 C   0  0  0  0  0  0  0  0  0  0  0  0
    5.1733   -4.5469   29.8123 C   0  0  0  0  0  0  0  0  0  0  0  0
   -1.7508  -11.3016   18.6072 C   0  0  0  0  0  0  0  0  0  0  0  0
    1.7497   -5.6771   26.4971 C   0  0  0  0  0  0  0  0  0  0  0  0
   -1.5799   -9.9322   18.3468 C   0  0  0  0  0  0  0  0  0  0  0  0
   -1.0871  -12.2214   17.8851 C   0  0  0  0  0  0  0  0  0  0  0  0
   -2.2706   -8.9669   19.0691 C   0  0  0  0  0  0  0  0  0  0  0  0
    3.0279   -5.3073   26.8197 C   0  0  0  0  0  0  0  0  0  0  0  0
    7.3282   -3.8948   29.1186 C   0  0  0  0  0  0  0  0  0  0  0  0
  1  3  4  0
  1  7  4  0
  2  3  1  0
  2  6  4  0
  2 16  4  0
  3 22  4  0
  4  9  4  0
  4 10  1  0
  4 20  4  0
  5 16  4  0
  5 23  4  0
  6 15  4  0
  7 12  4  0
  8 13  4  0
  8 14  4  0
  9 11  4  0
 11 14  4  0
 11 19  4  0
 12 18  4  0
 13 21  4  0
 15 23  4  0
 17 19  4  0
 17 20  4  0
 18 22  4  0
 19 21  4  0
M  END
$$$$

 Created by Python create_sdf_string function

 23 25  0  0  0  0  0  0  0  0999 V2000
    2.4610   -5.3070   29.1240 C   0  0  0  0  0  0  0  0  0  0  0  0
    4.7710   -4.6952   28.4803 C   0  0  0  0  0  0  0  0  0  0  0  0
    3.4047   -5.1087   28.1314 C   0  0  0  0  0  0  0  0  0  0  0  0
   -0.2234  -11.8615   16.8874 C   0  0  0  0  0  0  0  0  0  0  0  0
    6.4491   -4.1532   30.1213 C   0  0  0  0  0  0  0  0  0  0  0  0
    5.7060   -4.4340   27.4975 C   0  0  0  0  0  0  0  0  0  0  0  0
    1.1818   -5.6612   28.8399 C   0  0  0  0  0  0  0  0  0  0  0  0
   -1.2067   -7.3287   17.7772 C   0  0  0  0  0  0  0  0  0  0  0  0
   -0.0206  -10.5585   16.6210 C   0  0  0  0  0  0  0  0  0  0  0  0
    0.3696  -12.7626   16.2169 O   0  0  0  0  0  0  0  0  0  0  0  0
   -0.6895   -9.5676   17.3297 C   0  0  0  0  0  0  0  0  0  0  0  0
    0.8388   -5.8417   27.5264 C   0  0  0  0  0  0  0  0  0  0  0  0
   -2.0709   -7.6637   18.7817 C   0  0  0  0  0  0  0  0  0  0  0  0
   -0.5279   -8.2168   17.0717 C   0  0  0  0  0  0  0  0  0  0  0  0
    6.9694   -4.0191   27.8190 C   0  0  0  0  0  0  0  0  0  0  0  0
    5.1733   -4.5469   29.8123 C   0  0  0  0  0  0  0  0  0  0  0  0
   -1.7508  -11.3016   18.6072 C   0  0  0  0  0  0  0  0  0  0  0  0
    1.7497   -5.6771   26.4971 C   0  0  0  0  0  0  0  0  0  0  0  0
   -1.5799   -9.9322   18.3468 C   0  0  0  0  0  0  0  0  0  0  0  0
   -1.0871  -12.2214   17.8851 C   0  0  0  0  0  0  0  0  0  0  0  0
   -2.2706   -8.9669   19.0691 C   0  0  0  0  0  0  0  0  0  0  0  0
    3.0279   -5.3073   26.8197 C   0  0  0  0  0  0  0  0  0  0  0  0
    7.3282   -3.8948   29.1186 C   0  0  0  0  0  0  0  0  0  0  0  0
  1  3  4  0
  1  7  4  0
  2  3  1  0
  2  6  4  0
  2 16  4  0
  3 22  4  0
  4  9  4  0
  4 10  1  0
  4 20  4  0
  5 16  4  0
  5 23  4  0
  6 15  4  0
  7 12  4  0
  8 13  4  0
  8 14  4  0
  9 11  4  0
 11 14  4  0
 11 19  4  0
 12 18  4  0
 13 21  4  0
 15 23  4  0
 17 19  4  0
 17 20  4  0
 18 22  4  0
 19 21  4  0
M  END
$$$$

 Created by Python create_sdf_string function

 23 25  0  0  0  0  0  0  0  0999 V2000
    2.4610   -5.3070   29.1240 C   0  0  0  0  0  0  0  0  0  0  0  0
    4.7710   -4.6952   28.4803 C   0  0  0  0  0  0  0  0  0  0  0  0
    3.4047   -5.1087   28.1314 C   0  0  0  0  0  0  0  0  0  0  0  0
   -0.2234  -11.8615   16.8874 C   0  0  0  0  0  0  0  0  0  0  0  0
    6.4491   -4.1532   30.1213 C   0  0  0  0  0  0  0  0  0  0  0  0
    5.7060   -4.4340   27.4975 C   0  0  0  0  0  0  0  0  0  0  0  0
    1.1818   -5.6612   28.8399 C   0  0  0  0  0  0  0  0  0  0  0  0
   -1.2067   -7.3287   17.7772 C   0  0  0  0  0  0  0  0  0  0  0  0
   -0.0206  -10.5585   16.6210 C   0  0  0  0  0  0  0  0  0  0  0  0
    0.3696  -12.7626   16.2169 O   0  0  0  0  0  0  0  0  0  0  0  0
   -0.6895   -9.5676   17.3297 C   0  0  0  0  0  0  0  0  0  0  0  0
    0.8388   -5.8417   27.5264 C   0  0  0  0  0  0  0  0  0  0  0  0
   -2.0709   -7.6637   18.7817 C   0  0  0  0  0  0  0  0  0  0  0  0
   -0.5279   -8.2168   17.0717 C   0  0  0  0  0  0  0  0  0  0  0  0
    6.9694   -4.0191   27.8190 C   0  0  0  0  0  0  0  0  0  0  0  0
    5.1733   -4.5469   29.8123 C   0  0  0  0  0  0  0  0  0  0  0  0
   -1.7508  -11.3016   18.6072 C   0  0  0  0  0  0  0  0  0  0  0  0
    1.7497   -5.6771   26.4971 C   0  0  0  0  0  0  0  0  0  0  0  0
   -1.5799   -9.9322   18.3468 C   0  0  0  0  0  0  0  0  0  0  0  0
   -1.0871  -12.2214   17.8851 C   0  0  0  0  0  0  0  0  0  0  0  0
   -2.2706   -8.9669   19.0691 C   0  0  0  0  0  0  0  0  0  0  0  0
    3.0279   -5.3073   26.8197 C   0  0  0  0  0  0  0  0  0  0  0  0
    7.3282   -3.8948   29.1186 C   0  0  0  0  0  0  0  0  0  0  0  0
  1  3  4  0
  1  7  4  0
  2  3  1  0
  2  6  4  0
  2 16  4  0
  3 22  4  0
  4  9  4  0
  4 10  1  0
  4 20  4  0
  5 16  4  0
  5 23  4  0
  6 15  4  0
  7 12  4  0
  8 13  4  0
  8 14  4  0
  9 11  4  0
 11 14  4  0
 11 19  4  0
 12 18  4  0
 13 21  4  0
 15 23  4  0
 17 19  4  0
 17 20  4  0
 18 22  4  0
 19 21  4  0
M  END
$$$$

 Created by Python create_sdf_string function

 23 25  0  0  0  0  0  0  0  0999 V2000
    2.4610   -5.3070   29.1240 C   0  0  0  0  0  0  0  0  0  0  0  0
    4.7710   -4.6952   28.4803 C   0  0  0  0  0  0  0  0  0  0  0  0
    3.4047   -5.1087   28.1314 C   0  0  0  0  0  0  0  0  0  0  0  0
   -0.2234  -11.8615   16.8874 C   0  0  0  0  0  0  0  0  0  0  0  0
    6.4491   -4.1532   30.1213 C   0  0  0  0  0  0  0  0  0  0  0  0
    5.7060   -4.4340   27.4975 C   0  0  0  0  0  0  0  0  0  0  0  0
    1.1818   -5.6612   28.8399 C   0  0  0  0  0  0  0  0  0  0  0  0
   -1.2067   -7.3287   17.7772 C   0  0  0  0  0  0  0  0  0  0  0  0
   -0.0206  -10.5585   16.6210 C   0  0  0  0  0  0  0  0  0  0  0  0
    0.3696  -12.7626   16.2169 O   0  0  0  0  0  0  0  0  0  0  0  0
   -0.6895   -9.5676   17.3297 C   0  0  0  0  0  0  0  0  0  0  0  0
    0.8388   -5.8417   27.5264 C   0  0  0  0  0  0  0  0  0  0  0  0
   -2.0709   -7.6637   18.7817 C   0  0  0  0  0  0  0  0  0  0  0  0
   -0.5279   -8.2168   17.0717 C   0  0  0  0  0  0  0  0  0  0  0  0
    6.9694   -4.0191   27.8190 C   0  0  0  0  0  0  0  0  0  0  0  0
    5.1733   -4.5469   29.8123 C   0  0  0  0  0  0  0  0  0  0  0  0
   -1.7508  -11.3016   18.6072 C   0  0  0  0  0  0  0  0  0  0  0  0
    1.7497   -5.6771   26.4971 C   0  0  0  0  0  0  0  0  0  0  0  0
   -1.5799   -9.9322   18.3468 C   0  0  0  0  0  0  0  0  0  0  0  0
   -1.0871  -12.2214   17.8851 C   0  0  0  0  0  0  0  0  0  0  0  0
   -2.2706   -8.9669   19.0691 C   0  0  0  0  0  0  0  0  0  0  0  0
    3.0279   -5.3073   26.8197 C   0  0  0  0  0  0  0  0  0  0  0  0
    7.3282   -3.8948   29.1186 C   0  0  0  0  0  0  0  0  0  0  0  0
  1  3  4  0
  1  7  4  0
  2  3  1  0
  2  6  4  0
  2 16  4  0
  3 22  4  0
  4  9  4  0
  4 10  1  0
  4 20  4  0
  5 16  4  0
  5 23  4  0
  6 15  4  0
  7 12  4  0
  8 13  4  0
  8 14  4  0
  9 11  4  0
 11 14  4  0
 11 19  4  0
 12 18  4  0
 13 21  4  0
 15 23  4  0
 17 19  4  0
 17 20  4  0
 18 22  4  0
 19 21  4  0
M  END
$$$$

 Created by Python create_sdf_string function

 23 25  0  0  0  0  0  0  0  0999 V2000
    2.4610   -5.3070   29.1240 C   0  0  0  0  0  0  0  0  0  0  0  0
    4.7710   -4.6952   28.4803 C   0  0  0  0  0  0  0  0  0  0  0  0
    3.4047   -5.1087   28.1314 C   0  0  0  0  0  0  0  0  0  0  0  0
   -0.2234  -11.8615   16.8874 C   0  0  0  0  0  0  0  0  0  0  0  0
    6.4491   -4.1532   30.1213 C   0  0  0  0  0  0  0  0  0  0  0  0
    5.7060   -4.4340   27.4975 C   0  0  0  0  0  0  0  0  0  0  0  0
    1.1818   -5.6612   28.8399 C   0  0  0  0  0  0  0  0  0  0  0  0
   -1.2067   -7.3287   17.7772 C   0  0  0  0  0  0  0  0  0  0  0  0
   -0.0206  -10.5585   16.6210 C   0  0  0  0  0  0  0  0  0  0  0  0
    0.3696  -12.7626   16.2169 O   0  0  0  0  0  0  0  0  0  0  0  0
   -0.6895   -9.5676   17.3297 C   0  0  0  0  0  0  0  0  0  0  0  0
    0.8388   -5.8417   27.5264 C   0  0  0  0  0  0  0  0  0  0  0  0
   -2.0709   -7.6637   18.7817 C   0  0  0  0  0  0  0  0  0  0  0  0
   -0.5279   -8.2168   17.0717 C   0  0  0  0  0  0  0  0  0  0  0  0
    6.9694   -4.0191   27.8190 C   0  0  0  0  0  0  0  0  0  0  0  0
    5.1733   -4.5469   29.8123 C   0  0  0  0  0  0  0  0  0  0  0  0
   -1.7508  -11.3016   18.6072 C   0  0  0  0  0  0  0  0  0  0  0  0
    1.7497   -5.6771   26.4971 C   0  0  0  0  0  0  0  0  0  0  0  0
   -1.5799   -9.9322   18.3468 C   0  0  0  0  0  0  0  0  0  0  0  0
   -1.0871  -12.2214   17.8851 C   0  0  0  0  0  0  0  0  0  0  0  0
   -2.2706   -8.9669   19.0691 C   0  0  0  0  0  0  0  0  0  0  0  0
    3.0279   -5.3073   26.8197 C   0  0  0  0  0  0  0  0  0  0  0  0
    7.3282   -3.8948   29.1186 C   0  0  0  0  0  0  0  0  0  0  0  0
  1  3  4  0
  1  7  4  0
  2  3  1  0
  2  6  4  0
  2 16  4  0
  3 22  4  0
  4  9  4  0
  4 10  1  0
  4 20  4  0
  5 16  4  0
  5 23  4  0
  6 15  4  0
  7 12  4  0
  8 13  4  0
  8 14  4  0
  9 11  4  0
 11 14  4  0
 11 19  4  0
 12 18  4  0
 13 21  4  0
 15 23  4  0
 17 19  4  0
 17 20  4  0
 18 22  4  0
 19 21  4  0
M  END
$$$$

 Created by Python create_sdf_string function

 23 25  0  0  0  0  0  0  0  0999 V2000
    2.4610   -5.3070   29.1240 C   0  0  0  0  0  0  0  0  0  0  0  0
    4.7710   -4.6952   28.4803 C   0  0  0  0  0  0  0  0  0  0  0  0
    3.4047   -5.1087   28.1314 C   0  0  0  0  0  0  0  0  0  0  0  0
   -0.2234  -11.8615   16.8874 C   0  0  0  0  0  0  0  0  0  0  0  0
    6.4491   -4.1532   30.1213 C   0  0  0  0  0  0  0  0  0  0  0  0
    5.7060   -4.4340   27.4975 C   0  0  0  0  0  0  0  0  0  0  0  0
    1.1818   -5.6612   28.8399 C   0  0  0  0  0  0  0  0  0  0  0  0
   -1.2067   -7.3287   17.7772 C   0  0  0  0  0  0  0  0  0  0  0  0
   -0.0206  -10.5585   16.6210 C   0  0  0  0  0  0  0  0  0  0  0  0
    0.3696  -12.7626   16.2169 O   0  0  0  0  0  0  0  0  0  0  0  0
   -0.6895   -9.5676   17.3297 C   0  0  0  0  0  0  0  0  0  0  0  0
    0.8388   -5.8417   27.5264 C   0  0  0  0  0  0  0  0  0  0  0  0
   -2.0709   -7.6637   18.7817 C   0  0  0  0  0  0  0  0  0  0  0  0
   -0.5279   -8.2168   17.0717 C   0  0  0  0  0  0  0  0  0  0  0  0
    6.9694   -4.0191   27.8190 C   0  0  0  0  0  0  0  0  0  0  0  0
    5.1733   -4.5469   29.8123 C   0  0  0  0  0  0  0  0  0  0  0  0
   -1.7508  -11.3016   18.6072 C   0  0  0  0  0  0  0  0  0  0  0  0
    1.7497   -5.6771   26.4971 C   0  0  0  0  0  0  0  0  0  0  0  0
   -1.5799   -9.9322   18.3468 C   0  0  0  0  0  0  0  0  0  0  0  0
   -1.0871  -12.2214   17.8851 C   0  0  0  0  0  0  0  0  0  0  0  0
   -2.2706   -8.9669   19.0691 C   0  0  0  0  0  0  0  0  0  0  0  0
    3.0279   -5.3073   26.8197 C   0  0  0  0  0  0  0  0  0  0  0  0
    7.3282   -3.8948   29.1186 C   0  0  0  0  0  0  0  0  0  0  0  0
  1  3  4  0
  1  7  4  0
  2  3  1  0
  2  6  4  0
  2 16  4  0
  3 22  4  0
  4  9  4  0
  4 10  1  0
  4 20  4  0
  5 16  4  0
  5 23  4  0
  6 15  4  0
  7 12  4  0
  8 13  4  0
  8 14  4  0
  9 11  4  0
 11 14  4  0
 11 19  4  0
 12 18  4  0
 13 21  4  0
 15 23  4  0
 17 19  4  0
 17 20  4  0
 18 22  4  0
 19 21  4  0
M  END
$$$$

 Created by Python create_sdf_string function

 23 25  0  0  0  0  0  0  0  0999 V2000
    2.4610   -5.3070   29.1240 C   0  0  0  0  0  0  0  0  0  0  0  0
    4.7710   -4.6952   28.4803 C   0  0  0  0  0  0  0  0  0  0  0  0
    3.4047   -5.1087   28.1314 C   0  0  0  0  0  0  0  0  0  0  0  0
   -0.2234  -11.8615   16.8874 C   0  0  0  0  0  0  0  0  0  0  0  0
    6.4491   -4.1532   30.1213 C   0  0  0  0  0  0  0  0  0  0  0  0
    5.7060   -4.4340   27.4975 C   0  0  0  0  0  0  0  0  0  0  0  0
    1.1818   -5.6612   28.8399 C   0  0  0  0  0  0  0  0  0  0  0  0
   -1.2067   -7.3287   17.7772 C   0  0  0  0  0  0  0  0  0  0  0  0
   -0.0206  -10.5585   16.6210 C   0  0  0  0  0  0  0  0  0  0  0  0
    0.3696  -12.7626   16.2169 O   0  0  0  0  0  0  0  0  0  0  0  0
   -0.6895   -9.5676   17.3297 C   0  0  0  0  0  0  0  0  0  0  0  0
    0.8388   -5.8417   27.5264 C   0  0  0  0  0  0  0  0  0  0  0  0
   -2.0709   -7.6637   18.7817 C   0  0  0  0  0  0  0  0  0  0  0  0
   -0.5279   -8.2168   17.0717 C   0  0  0  0  0  0  0  0  0  0  0  0
    6.9694   -4.0191   27.8190 C   0  0  0  0  0  0  0  0  0  0  0  0
    5.1733   -4.5469   29.8123 C   0  0  0  0  0  0  0  0  0  0  0  0
   -1.7508  -11.3016   18.6072 C   0  0  0  0  0  0  0  0  0  0  0  0
    1.7497   -5.6771   26.4971 C   0  0  0  0  0  0  0  0  0  0  0  0
   -1.5799   -9.9322   18.3468 C   0  0  0  0  0  0  0  0  0  0  0  0
   -1.0871  -12.2214   17.8851 C   0  0  0  0  0  0  0  0  0  0  0  0
   -2.2706   -8.9669   19.0691 C   0  0  0  0  0  0  0  0  0  0  0  0
    3.0279   -5.3073   26.8197 C   0  0  0  0  0  0  0  0  0  0  0  0
    7.3282   -3.8948   29.1186 C   0  0  0  0  0  0  0  0  0  0  0  0
  1  3  4  0
  1  7  4  0
  2  3  1  0
  2  6  4  0
  2 16  4  0
  3 22  4  0
  4  9  4  0
  4 10  1  0
  4 20  4  0
  5 16  4  0
  5 23  4  0
  6 15  4  0
  7 12  4  0
  8 13  4  0
  8 14  4  0
  9 11  4  0
 11 14  4  0
 11 19  4  0
 12 18  4  0
 13 21  4  0
 15 23  4  0
 17 19  4  0
 17 20  4  0
 18 22  4  0
 19 21  4  0
M  END
$$$$

 Created by Python create_sdf_string function

 23 25  0  0  0  0  0  0  0  0999 V2000
    2.4610   -5.3070   29.1240 C   0  0  0  0  0  0  0  0  0  0  0  0
    4.7710   -4.6952   28.4803 C   0  0  0  0  0  0  0  0  0  0  0  0
    3.4047   -5.1087   28.1314 C   0  0  0  0  0  0  0  0  0  0  0  0
   -0.2234  -11.8615   16.8874 C   0  0  0  0  0  0  0  0  0  0  0  0
    6.4491   -4.1532   30.1213 C   0  0  0  0  0  0  0  0  0  0  0  0
    5.7060   -4.4340   27.4975 C   0  0  0  0  0  0  0  0  0  0  0  0
    1.1818   -5.6612   28.8399 C   0  0  0  0  0  0  0  0  0  0  0  0
   -1.2067   -7.3287   17.7772 C   0  0  0  0  0  0  0  0  0  0  0  0
   -0.0206  -10.5585   16.6210 C   0  0  0  0  0  0  0  0  0  0  0  0
    0.3696  -12.7626   16.2169 O   0  0  0  0  0  0  0  0  0  0  0  0
   -0.6895   -9.5676   17.3297 C   0  0  0  0  0  0  0  0  0  0  0  0
    0.8388   -5.8417   27.5264 C   0  0  0  0  0  0  0  0  0  0  0  0
   -2.0709   -7.6637   18.7817 C   0  0  0  0  0  0  0  0  0  0  0  0
   -0.5279   -8.2168   17.0717 C   0  0  0  0  0  0  0  0  0  0  0  0
    6.9694   -4.0191   27.8190 C   0  0  0  0  0  0  0  0  0  0  0  0
    5.1733   -4.5469   29.8123 C   0  0  0  0  0  0  0  0  0  0  0  0
   -1.7508  -11.3016   18.6072 C   0  0  0  0  0  0  0  0  0  0  0  0
    1.7497   -5.6771   26.4971 C   0  0  0  0  0  0  0  0  0  0  0  0
   -1.5799   -9.9322   18.3468 C   0  0  0  0  0  0  0  0  0  0  0  0
   -1.0871  -12.2214   17.8851 C   0  0  0  0  0  0  0  0  0  0  0  0
   -2.2706   -8.9669   19.0691 C   0  0  0  0  0  0  0  0  0  0  0  0
    3.0279   -5.3073   26.8197 C   0  0  0  0  0  0  0  0  0  0  0  0
    7.3282   -3.8948   29.1186 C   0  0  0  0  0  0  0  0  0  0  0  0
  1  3  4  0
  1  7  4  0
  2  3  1  0
  2  6  4  0
  2 16  4  0
  3 22  4  0
  4  9  4  0
  4 10  1  0
  4 20  4  0
  5 16  4  0
  5 23  4  0
  6 15  4  0
  7 12  4  0
  8 13  4  0
  8 14  4  0
  9 11  4  0
 11 14  4  0
 11 19  4  0
 12 18  4  0
 13 21  4  0
 15 23  4  0
 17 19  4  0
 17 20  4  0
 18 22  4  0
 19 21  4  0
M  END
$$$$

 Created by Python create_sdf_string function

 23 25  0  0  0  0  0  0  0  0999 V2000
    2.4610   -5.3070   29.1240 C   0  0  0  0  0  0  0  0  0  0  0  0
    4.7710   -4.6952   28.4803 C   0  0  0  0  0  0  0  0  0  0  0  0
    3.4047   -5.1087   28.1314 C   0  0  0  0  0  0  0  0  0  0  0  0
   -0.2234  -11.8615   16.8874 C   0  0  0  0  0  0  0  0  0  0  0  0
    6.4491   -4.1532   30.1213 C   0  0  0  0  0  0  0  0  0  0  0  0
    5.7060   -4.4340   27.4975 C   0  0  0  0  0  0  0  0  0  0  0  0
    1.1818   -5.6612   28.8399 C   0  0  0  0  0  0  0  0  0  0  0  0
   -1.2067   -7.3287   17.7772 C   0  0  0  0  0  0  0  0  0  0  0  0
   -0.0206  -10.5585   16.6210 C   0  0  0  0  0  0  0  0  0  0  0  0
    0.3696  -12.7626   16.2169 O   0  0  0  0  0  0  0  0  0  0  0  0
   -0.6895   -9.5676   17.3297 C   0  0  0  0  0  0  0  0  0  0  0  0
    0.8388   -5.8417   27.5264 C   0  0  0  0  0  0  0  0  0  0  0  0
   -2.0709   -7.6637   18.7817 C   0  0  0  0  0  0  0  0  0  0  0  0
   -0.5279   -8.2168   17.0717 C   0  0  0  0  0  0  0  0  0  0  0  0
    6.9694   -4.0191   27.8190 C   0  0  0  0  0  0  0  0  0  0  0  0
    5.1733   -4.5469   29.8123 C   0  0  0  0  0  0  0  0  0  0  0  0
   -1.7508  -11.3016   18.6072 C   0  0  0  0  0  0  0  0  0  0  0  0
    1.7497   -5.6771   26.4971 C   0  0  0  0  0  0  0  0  0  0  0  0
   -1.5799   -9.9322   18.3468 C   0  0  0  0  0  0  0  0  0  0  0  0
   -1.0871  -12.2214   17.8851 C   0  0  0  0  0  0  0  0  0  0  0  0
   -2.2706   -8.9669   19.0691 C   0  0  0  0  0  0  0  0  0  0  0  0
    3.0279   -5.3073   26.8197 C   0  0  0  0  0  0  0  0  0  0  0  0
    7.3282   -3.8948   29.1186 C   0  0  0  0  0  0  0  0  0  0  0  0
  1  3  4  0
  1  7  4  0
  2  3  1  0
  2  6  4  0
  2 16  4  0
  3 22  4  0
  4  9  4  0
  4 10  1  0
  4 20  4  0
  5 16  4  0
  5 23  4  0
  6 15  4  0
  7 12  4  0
  8 13  4  0
  8 14  4  0
  9 11  4  0
 11 14  4  0
 11 19  4  0
 12 18  4  0
 13 21  4  0
 15 23  4  0
 17 19  4  0
 17 20  4  0
 18 22  4  0
 19 21  4  0
M  END
$$$$

 Created by Python create_sdf_string function

 23 25  0  0  0  0  0  0  0  0999 V2000
    2.4610   -5.3070   29.1240 C   0  0  0  0  0  0  0  0  0  0  0  0
    4.7710   -4.6952   28.4803 C   0  0  0  0  0  0  0  0  0  0  0  0
    3.4047   -5.1087   28.1314 C   0  0  0  0  0  0  0  0  0  0  0  0
   -0.2234  -11.8615   16.8874 C   0  0  0  0  0  0  0  0  0  0  0  0
    6.4491   -4.1532   30.1213 C   0  0  0  0  0  0  0  0  0  0  0  0
    5.7060   -4.4340   27.4975 C   0  0  0  0  0  0  0  0  0  0  0  0
    1.1818   -5.6612   28.8399 C   0  0  0  0  0  0  0  0  0  0  0  0
   -1.2067   -7.3287   17.7772 C   0  0  0  0  0  0  0  0  0  0  0  0
   -0.0206  -10.5585   16.6210 C   0  0  0  0  0  0  0  0  0  0  0  0
    0.3696  -12.7626   16.2169 O   0  0  0  0  0  0  0  0  0  0  0  0
   -0.6895   -9.5676   17.3297 C   0  0  0  0  0  0  0  0  0  0  0  0
    0.8388   -5.8417   27.5264 C   0  0  0  0  0  0  0  0  0  0  0  0
   -2.0709   -7.6637   18.7817 C   0  0  0  0  0  0  0  0  0  0  0  0
   -0.5279   -8.2168   17.0717 C   0  0  0  0  0  0  0  0  0  0  0  0
    6.9694   -4.0191   27.8190 C   0  0  0  0  0  0  0  0  0  0  0  0
    5.1733   -4.5469   29.8123 C   0  0  0  0  0  0  0  0  0  0  0  0
   -1.7508  -11.3016   18.6072 C   0  0  0  0  0  0  0  0  0  0  0  0
    1.7497   -5.6771   26.4971 C   0  0  0  0  0  0  0  0  0  0  0  0
   -1.5799   -9.9322   18.3468 C   0  0  0  0  0  0  0  0  0  0  0  0
   -1.0871  -12.2214   17.8851 C   0  0  0  0  0  0  0  0  0  0  0  0
   -2.2706   -8.9669   19.0691 C   0  0  0  0  0  0  0  0  0  0  0  0
    3.0279   -5.3073   26.8197 C   0  0  0  0  0  0  0  0  0  0  0  0
    7.3282   -3.8948   29.1186 C   0  0  0  0  0  0  0  0  0  0  0  0
  1  3  4  0
  1  7  4  0
  2  3  1  0
  2  6  4  0
  2 16  4  0
  3 22  4  0
  4  9  4  0
  4 10  1  0
  4 20  4  0
  5 16  4  0
  5 23  4  0
  6 15  4  0
  7 12  4  0
  8 13  4  0
  8 14  4  0
  9 11  4  0
 11 14  4  0
 11 19  4  0
 12 18  4  0
 13 21  4  0
 15 23  4  0
 17 19  4  0
 17 20  4  0
 18 22  4  0
 19 21  4  0
M  END
$$$$

 Created by Python create_sdf_string function

 23 25  0  0  0  0  0  0  0  0999 V2000
    2.4610   -5.3070   29.1240 C   0  0  0  0  0  0  0  0  0  0  0  0
    4.7710   -4.6952   28.4803 C   0  0  0  0  0  0  0  0  0  0  0  0
    3.4047   -5.1087   28.1314 C   0  0  0  0  0  0  0  0  0  0  0  0
   -0.2234  -11.8615   16.8874 C   0  0  0  0  0  0  0  0  0  0  0  0
    6.4491   -4.1532   30.1213 C   0  0  0  0  0  0  0  0  0  0  0  0
    5.7060   -4.4340   27.4975 C   0  0  0  0  0  0  0  0  0  0  0  0
    1.1818   -5.6612   28.8399 C   0  0  0  0  0  0  0  0  0  0  0  0
   -1.2067   -7.3287   17.7772 C   0  0  0  0  0  0  0  0  0  0  0  0
   -0.0206  -10.5585   16.6210 C   0  0  0  0  0  0  0  0  0  0  0  0
    0.3696  -12.7626   16.2169 O   0  0  0  0  0  0  0  0  0  0  0  0
   -0.6895   -9.5676   17.3297 C   0  0  0  0  0  0  0  0  0  0  0  0
    0.8388   -5.8417   27.5264 C   0  0  0  0  0  0  0  0  0  0  0  0
   -2.0709   -7.6637   18.7817 C   0  0  0  0  0  0  0  0  0  0  0  0
   -0.5279   -8.2168   17.0717 C   0  0  0  0  0  0  0  0  0  0  0  0
    6.9694   -4.0191   27.8190 C   0  0  0  0  0  0  0  0  0  0  0  0
    5.1733   -4.5469   29.8123 C   0  0  0  0  0  0  0  0  0  0  0  0
   -1.7508  -11.3016   18.6072 C   0  0  0  0  0  0  0  0  0  0  0  0
    1.7497   -5.6771   26.4971 C   0  0  0  0  0  0  0  0  0  0  0  0
   -1.5799   -9.9322   18.3468 C   0  0  0  0  0  0  0  0  0  0  0  0
   -1.0871  -12.2214   17.8851 C   0  0  0  0  0  0  0  0  0  0  0  0
   -2.2706   -8.9669   19.0691 C   0  0  0  0  0  0  0  0  0  0  0  0
    3.0279   -5.3073   26.8197 C   0  0  0  0  0  0  0  0  0  0  0  0
    7.3282   -3.8948   29.1186 C   0  0  0  0  0  0  0  0  0  0  0  0
  1  3  4  0
  1  7  4  0
  2  3  1  0
  2  6  4  0
  2 16  4  0
  3 22  4  0
  4  9  4  0
  4 10  1  0
  4 20  4  0
  5 16  4  0
  5 23  4  0
  6 15  4  0
  7 12  4  0
  8 13  4  0
  8 14  4  0
  9 11  4  0
 11 14  4  0
 11 19  4  0
 12 18  4  0
 13 21  4  0
 15 23  4  0
 17 19  4  0
 17 20  4  0
 18 22  4  0
 19 21  4  0
M  END
$$$$

 Created by Python create_sdf_string function

 23 25  0  0  0  0  0  0  0  0999 V2000
    2.4610   -5.3070   29.1240 C   0  0  0  0  0  0  0  0  0  0  0  0
    4.7710   -4.6952   28.4803 C   0  0  0  0  0  0  0  0  0  0  0  0
    3.4047   -5.1087   28.1314 C   0  0  0  0  0  0  0  0  0  0  0  0
   -0.2234  -11.8615   16.8874 C   0  0  0  0  0  0  0  0  0  0  0  0
    6.4491   -4.1532   30.1213 C   0  0  0  0  0  0  0  0  0  0  0  0
    5.7060   -4.4340   27.4975 C   0  0  0  0  0  0  0  0  0  0  0  0
    1.1818   -5.6612   28.8399 C   0  0  0  0  0  0  0  0  0  0  0  0
   -1.2067   -7.3287   17.7772 C   0  0  0  0  0  0  0  0  0  0  0  0
   -0.0206  -10.5585   16.6210 C   0  0  0  0  0  0  0  0  0  0  0  0
    0.3696  -12.7626   16.2169 O   0  0  0  0  0  0  0  0  0  0  0  0
   -0.6895   -9.5676   17.3297 C   0  0  0  0  0  0  0  0  0  0  0  0
    0.8388   -5.8417   27.5264 C   0  0  0  0  0  0  0  0  0  0  0  0
   -2.0709   -7.6637   18.7817 C   0  0  0  0  0  0  0  0  0  0  0  0
   -0.5279   -8.2168   17.0717 C   0  0  0  0  0  0  0  0  0  0  0  0
    6.9694   -4.0191   27.8190 C   0  0  0  0  0  0  0  0  0  0  0  0
    5.1733   -4.5469   29.8123 C   0  0  0  0  0  0  0  0  0  0  0  0
   -1.7508  -11.3016   18.6072 C   0  0  0  0  0  0  0  0  0  0  0  0
    1.7497   -5.6771   26.4971 C   0  0  0  0  0  0  0  0  0  0  0  0
   -1.5799   -9.9322   18.3468 C   0  0  0  0  0  0  0  0  0  0  0  0
   -1.0871  -12.2214   17.8851 C   0  0  0  0  0  0  0  0  0  0  0  0
   -2.2706   -8.9669   19.0691 C   0  0  0  0  0  0  0  0  0  0  0  0
    3.0279   -5.3073   26.8197 C   0  0  0  0  0  0  0  0  0  0  0  0
    7.3282   -3.8948   29.1186 C   0  0  0  0  0  0  0  0  0  0  0  0
  1  3  4  0
  1  7  4  0
  2  3  1  0
  2  6  4  0
  2 16  4  0
  3 22  4  0
  4  9  4  0
  4 10  1  0
  4 20  4  0
  5 16  4  0
  5 23  4  0
  6 15  4  0
  7 12  4  0
  8 13  4  0
  8 14  4  0
  9 11  4  0
 11 14  4  0
 11 19  4  0
 12 18  4  0
 13 21  4  0
 15 23  4  0
 17 19  4  0
 17 20  4  0
 18 22  4  0
 19 21  4  0
M  END
$$$$

 Created by Python create_sdf_string function

 23 25  0  0  0  0  0  0  0  0999 V2000
    2.4610   -5.3070   29.1240 C   0  0  0  0  0  0  0  0  0  0  0  0
    4.7710   -4.6952   28.4803 C   0  0  0  0  0  0  0  0  0  0  0  0
    3.4047   -5.1087   28.1314 C   0  0  0  0  0  0  0  0  0  0  0  0
   -0.2234  -11.8615   16.8874 C   0  0  0  0  0  0  0  0  0  0  0  0
    6.4491   -4.1532   30.1213 C   0  0  0  0  0  0  0  0  0  0  0  0
    5.7060   -4.4340   27.4975 C   0  0  0  0  0  0  0  0  0  0  0  0
    1.1818   -5.6612   28.8399 C   0  0  0  0  0  0  0  0  0  0  0  0
   -1.2067   -7.3287   17.7772 C   0  0  0  0  0  0  0  0  0  0  0  0
   -0.0206  -10.5585   16.6210 C   0  0  0  0  0  0  0  0  0  0  0  0
    0.3696  -12.7626   16.2169 O   0  0  0  0  0  0  0  0  0  0  0  0
   -0.6895   -9.5676   17.3297 C   0  0  0  0  0  0  0  0  0  0  0  0
    0.8388   -5.8417   27.5264 C   0  0  0  0  0  0  0  0  0  0  0  0
   -2.0709   -7.6637   18.7817 C   0  0  0  0  0  0  0  0  0  0  0  0
   -0.5279   -8.2168   17.0717 C   0  0  0  0  0  0  0  0  0  0  0  0
    6.9694   -4.0191   27.8190 C   0  0  0  0  0  0  0  0  0  0  0  0
    5.1733   -4.5469   29.8123 C   0  0  0  0  0  0  0  0  0  0  0  0
   -1.7508  -11.3016   18.6072 C   0  0  0  0  0  0  0  0  0  0  0  0
    1.7497   -5.6771   26.4971 C   0  0  0  0  0  0  0  0  0  0  0  0
   -1.5799   -9.9322   18.3468 C   0  0  0  0  0  0  0  0  0  0  0  0
   -1.0871  -12.2214   17.8851 C   0  0  0  0  0  0  0  0  0  0  0  0
   -2.2706   -8.9669   19.0691 C   0  0  0  0  0  0  0  0  0  0  0  0
    3.0279   -5.3073   26.8197 C   0  0  0  0  0  0  0  0  0  0  0  0
    7.3282   -3.8948   29.1186 C   0  0  0  0  0  0  0  0  0  0  0  0
  1  3  4  0
  1  7  4  0
  2  3  1  0
  2  6  4  0
  2 16  4  0
  3 22  4  0
  4  9  4  0
  4 10  1  0
  4 20  4  0
  5 16  4  0
  5 23  4  0
  6 15  4  0
  7 12  4  0
  8 13  4  0
  8 14  4  0
  9 11  4  0
 11 14  4  0
 11 19  4  0
 12 18  4  0
 13 21  4  0
 15 23  4  0
 17 19  4  0
 17 20  4  0
 18 22  4  0
 19 21  4  0
M  END
$$$$

 Created by Python create_sdf_string function

 23 25  0  0  0  0  0  0  0  0999 V2000
    2.4610   -5.3070   29.1240 C   0  0  0  0  0  0  0  0  0  0  0  0
    4.7710   -4.6952   28.4803 C   0  0  0  0  0  0  0  0  0  0  0  0
    3.4047   -5.1087   28.1314 C   0  0  0  0  0  0  0  0  0  0  0  0
   -0.2234  -11.8615   16.8874 C   0  0  0  0  0  0  0  0  0  0  0  0
    6.4491   -4.1532   30.1213 C   0  0  0  0  0  0  0  0  0  0  0  0
    5.7060   -4.4340   27.4975 C   0  0  0  0  0  0  0  0  0  0  0  0
    1.1818   -5.6612   28.8399 C   0  0  0  0  0  0  0  0  0  0  0  0
   -1.2067   -7.3287   17.7772 C   0  0  0  0  0  0  0  0  0  0  0  0
   -0.0206  -10.5585   16.6210 C   0  0  0  0  0  0  0  0  0  0  0  0
    0.3696  -12.7626   16.2169 O   0  0  0  0  0  0  0  0  0  0  0  0
   -0.6895   -9.5676   17.3297 C   0  0  0  0  0  0  0  0  0  0  0  0
    0.8388   -5.8417   27.5264 C   0  0  0  0  0  0  0  0  0  0  0  0
   -2.0709   -7.6637   18.7817 C   0  0  0  0  0  0  0  0  0  0  0  0
   -0.5279   -8.2168   17.0717 C   0  0  0  0  0  0  0  0  0  0  0  0
    6.9694   -4.0191   27.8190 C   0  0  0  0  0  0  0  0  0  0  0  0
    5.1733   -4.5469   29.8123 C   0  0  0  0  0  0  0  0  0  0  0  0
   -1.7508  -11.3016   18.6072 C   0  0  0  0  0  0  0  0  0  0  0  0
    1.7497   -5.6771   26.4971 C   0  0  0  0  0  0  0  0  0  0  0  0
   -1.5799   -9.9322   18.3468 C   0  0  0  0  0  0  0  0  0  0  0  0
   -1.0871  -12.2214   17.8851 C   0  0  0  0  0  0  0  0  0  0  0  0
   -2.2706   -8.9669   19.0691 C   0  0  0  0  0  0  0  0  0  0  0  0
    3.0279   -5.3073   26.8197 C   0  0  0  0  0  0  0  0  0  0  0  0
    7.3282   -3.8948   29.1186 C   0  0  0  0  0  0  0  0  0  0  0  0
  1  3  4  0
  1  7  4  0
  2  3  1  0
  2  6  4  0
  2 16  4  0
  3 22  4  0
  4  9  4  0
  4 10  1  0
  4 20  4  0
  5 16  4  0
  5 23  4  0
  6 15  4  0
  7 12  4  0
  8 13  4  0
  8 14  4  0
  9 11  4  0
 11 14  4  0
 11 19  4  0
 12 18  4  0
 13 21  4  0
 15 23  4  0
 17 19  4  0
 17 20  4  0
 18 22  4  0
 19 21  4  0
M  END
$$$$

 Created by Python create_sdf_string function

 23 25  0  0  0  0  0  0  0  0999 V2000
    2.4610   -5.3070   29.1240 C   0  0  0  0  0  0  0  0  0  0  0  0
    4.7710   -4.6952   28.4803 C   0  0  0  0  0  0  0  0  0  0  0  0
    3.4047   -5.1087   28.1314 C   0  0  0  0  0  0  0  0  0  0  0  0
   -0.2234  -11.8615   16.8874 C   0  0  0  0  0  0  0  0  0  0  0  0
    6.4491   -4.1532   30.1213 C   0  0  0  0  0  0  0  0  0  0  0  0
    5.7060   -4.4340   27.4975 C   0  0  0  0  0  0  0  0  0  0  0  0
    1.1818   -5.6612   28.8399 C   0  0  0  0  0  0  0  0  0  0  0  0
   -1.2067   -7.3287   17.7772 C   0  0  0  0  0  0  0  0  0  0  0  0
   -0.0206  -10.5585   16.6210 C   0  0  0  0  0  0  0  0  0  0  0  0
    0.3696  -12.7626   16.2169 O   0  0  0  0  0  0  0  0  0  0  0  0
   -0.6895   -9.5676   17.3297 C   0  0  0  0  0  0  0  0  0  0  0  0
    0.8388   -5.8417   27.5264 C   0  0  0  0  0  0  0  0  0  0  0  0
   -2.0709   -7.6637   18.7817 C   0  0  0  0  0  0  0  0  0  0  0  0
   -0.5279   -8.2168   17.0717 C   0  0  0  0  0  0  0  0  0  0  0  0
    6.9694   -4.0191   27.8190 C   0  0  0  0  0  0  0  0  0  0  0  0
    5.1733   -4.5469   29.8123 C   0  0  0  0  0  0  0  0  0  0  0  0
   -1.7508  -11.3016   18.6072 C   0  0  0  0  0  0  0  0  0  0  0  0
    1.7497   -5.6771   26.4971 C   0  0  0  0  0  0  0  0  0  0  0  0
   -1.5799   -9.9322   18.3468 C   0  0  0  0  0  0  0  0  0  0  0  0
   -1.0871  -12.2214   17.8851 C   0  0  0  0  0  0  0  0  0  0  0  0
   -2.2706   -8.9669   19.0691 C   0  0  0  0  0  0  0  0  0  0  0  0
    3.0279   -5.3073   26.8197 C   0  0  0  0  0  0  0  0  0  0  0  0
    7.3282   -3.8948   29.1186 C   0  0  0  0  0  0  0  0  0  0  0  0
  1  3  4  0
  1  7  4  0
  2  3  1  0
  2  6  4  0
  2 16  4  0
  3 22  4  0
  4  9  4  0
  4 10  1  0
  4 20  4  0
  5 16  4  0
  5 23  4  0
  6 15  4  0
  7 12  4  0
  8 13  4  0
  8 14  4  0
  9 11  4  0
 11 14  4  0
 11 19  4  0
 12 18  4  0
 13 21  4  0
 15 23  4  0
 17 19  4  0
 17 20  4  0
 18 22  4  0
 19 21  4  0
M  END
$$$$

 Created by Python create_sdf_string function

 23 25  0  0  0  0  0  0  0  0999 V2000
    2.4610   -5.3070   29.1240 C   0  0  0  0  0  0  0  0  0  0  0  0
    4.7710   -4.6952   28.4803 C   0  0  0  0  0  0  0  0  0  0  0  0
    3.4047   -5.1087   28.1314 C   0  0  0  0  0  0  0  0  0  0  0  0
   -0.2234  -11.8615   16.8874 C   0  0  0  0  0  0  0  0  0  0  0  0
    6.4491   -4.1532   30.1213 C   0  0  0  0  0  0  0  0  0  0  0  0
    5.7060   -4.4340   27.4975 C   0  0  0  0  0  0  0  0  0  0  0  0
    1.1818   -5.6612   28.8399 C   0  0  0  0  0  0  0  0  0  0  0  0
   -1.2067   -7.3287   17.7772 C   0  0  0  0  0  0  0  0  0  0  0  0
   -0.0206  -10.5585   16.6210 C   0  0  0  0  0  0  0  0  0  0  0  0
    0.3696  -12.7626   16.2169 O   0  0  0  0  0  0  0  0  0  0  0  0
   -0.6895   -9.5676   17.3297 C   0  0  0  0  0  0  0  0  0  0  0  0
    0.8388   -5.8417   27.5264 C   0  0  0  0  0  0  0  0  0  0  0  0
   -2.0709   -7.6637   18.7817 C   0  0  0  0  0  0  0  0  0  0  0  0
   -0.5279   -8.2168   17.0717 C   0  0  0  0  0  0  0  0  0  0  0  0
    6.9694   -4.0191   27.8190 C   0  0  0  0  0  0  0  0  0  0  0  0
    5.1733   -4.5469   29.8123 C   0  0  0  0  0  0  0  0  0  0  0  0
   -1.7508  -11.3016   18.6072 C   0  0  0  0  0  0  0  0  0  0  0  0
    1.7497   -5.6771   26.4971 C   0  0  0  0  0  0  0  0  0  0  0  0
   -1.5799   -9.9322   18.3468 C   0  0  0  0  0  0  0  0  0  0  0  0
   -1.0871  -12.2214   17.8851 C   0  0  0  0  0  0  0  0  0  0  0  0
   -2.2706   -8.9669   19.0691 C   0  0  0  0  0  0  0  0  0  0  0  0
    3.0279   -5.3073   26.8197 C   0  0  0  0  0  0  0  0  0  0  0  0
    7.3282   -3.8948   29.1186 C   0  0  0  0  0  0  0  0  0  0  0  0
  1  3  4  0
  1  7  4  0
  2  3  1  0
  2  6  4  0
  2 16  4  0
  3 22  4  0
  4  9  4  0
  4 10  1  0
  4 20  4  0
  5 16  4  0
  5 23  4  0
  6 15  4  0
  7 12  4  0
  8 13  4  0
  8 14  4  0
  9 11  4  0
 11 14  4  0
 11 19  4  0
 12 18  4  0
 13 21  4  0
 15 23  4  0
 17 19  4  0
 17 20  4  0
 18 22  4  0
 19 21  4  0
M  END
$$$$

 Created by Python create_sdf_string function

 23 25  0  0  0  0  0  0  0  0999 V2000
    2.4610   -5.3070   29.1240 C   0  0  0  0  0  0  0  0  0  0  0  0
    4.7710   -4.6952   28.4803 C   0  0  0  0  0  0  0  0  0  0  0  0
    3.4047   -5.1087   28.1314 C   0  0  0  0  0  0  0  0  0  0  0  0
   -0.2234  -11.8615   16.8874 C   0  0  0  0  0  0  0  0  0  0  0  0
    6.4491   -4.1532   30.1213 C   0  0  0  0  0  0  0  0  0  0  0  0
    5.7060   -4.4340   27.4975 C   0  0  0  0  0  0  0  0  0  0  0  0
    1.1818   -5.6612   28.8399 C   0  0  0  0  0  0  0  0  0  0  0  0
   -1.2067   -7.3287   17.7772 C   0  0  0  0  0  0  0  0  0  0  0  0
   -0.0206  -10.5585   16.6210 C   0  0  0  0  0  0  0  0  0  0  0  0
    0.3696  -12.7626   16.2169 O   0  0  0  0  0  0  0  0  0  0  0  0
   -0.6895   -9.5676   17.3297 C   0  0  0  0  0  0  0  0  0  0  0  0
    0.8388   -5.8417   27.5264 C   0  0  0  0  0  0  0  0  0  0  0  0
   -2.0709   -7.6637   18.7817 C   0  0  0  0  0  0  0  0  0  0  0  0
   -0.5279   -8.2168   17.0717 C   0  0  0  0  0  0  0  0  0  0  0  0
    6.9694   -4.0191   27.8190 C   0  0  0  0  0  0  0  0  0  0  0  0
    5.1733   -4.5469   29.8123 C   0  0  0  0  0  0  0  0  0  0  0  0
   -1.7508  -11.3016   18.6072 C   0  0  0  0  0  0  0  0  0  0  0  0
    1.7497   -5.6771   26.4971 C   0  0  0  0  0  0  0  0  0  0  0  0
   -1.5799   -9.9322   18.3468 C   0  0  0  0  0  0  0  0  0  0  0  0
   -1.0871  -12.2214   17.8851 C   0  0  0  0  0  0  0  0  0  0  0  0
   -2.2706   -8.9669   19.0691 C   0  0  0  0  0  0  0  0  0  0  0  0
    3.0279   -5.3073   26.8197 C   0  0  0  0  0  0  0  0  0  0  0  0
    7.3282   -3.8948   29.1186 C   0  0  0  0  0  0  0  0  0  0  0  0
  1  3  4  0
  1  7  4  0
  2  3  1  0
  2  6  4  0
  2 16  4  0
  3 22  4  0
  4  9  4  0
  4 10  1  0
  4 20  4  0
  5 16  4  0
  5 23  4  0
  6 15  4  0
  7 12  4  0
  8 13  4  0
  8 14  4  0
  9 11  4  0
 11 14  4  0
 11 19  4  0
 12 18  4  0
 13 21  4  0
 15 23  4  0
 17 19  4  0
 17 20  4  0
 18 22  4  0
 19 21  4  0
M  END
$$$$

 Created by Python create_sdf_string function

 23 25  0  0  0  0  0  0  0  0999 V2000
    2.4610   -5.3070   29.1240 C   0  0  0  0  0  0  0  0  0  0  0  0
    4.7710   -4.6952   28.4803 C   0  0  0  0  0  0  0  0  0  0  0  0
    3.4047   -5.1087   28.1314 C   0  0  0  0  0  0  0  0  0  0  0  0
   -0.2234  -11.8615   16.8874 C   0  0  0  0  0  0  0  0  0  0  0  0
    6.4491   -4.1532   30.1213 C   0  0  0  0  0  0  0  0  0  0  0  0
    5.7060   -4.4340   27.4975 C   0  0  0  0  0  0  0  0  0  0  0  0
    1.1818   -5.6612   28.8399 C   0  0  0  0  0  0  0  0  0  0  0  0
   -1.2067   -7.3287   17.7772 C   0  0  0  0  0  0  0  0  0  0  0  0
   -0.0206  -10.5585   16.6210 C   0  0  0  0  0  0  0  0  0  0  0  0
    0.3696  -12.7626   16.2169 O   0  0  0  0  0  0  0  0  0  0  0  0
   -0.6895   -9.5676   17.3297 C   0  0  0  0  0  0  0  0  0  0  0  0
    0.8388   -5.8417   27.5264 C   0  0  0  0  0  0  0  0  0  0  0  0
   -2.0709   -7.6637   18.7817 C   0  0  0  0  0  0  0  0  0  0  0  0
   -0.5279   -8.2168   17.0717 C   0  0  0  0  0  0  0  0  0  0  0  0
    6.9694   -4.0191   27.8190 C   0  0  0  0  0  0  0  0  0  0  0  0
    5.1733   -4.5469   29.8123 C   0  0  0  0  0  0  0  0  0  0  0  0
   -1.7508  -11.3016   18.6072 C   0  0  0  0  0  0  0  0  0  0  0  0
    1.7497   -5.6771   26.4971 C   0  0  0  0  0  0  0  0  0  0  0  0
   -1.5799   -9.9322   18.3468 C   0  0  0  0  0  0  0  0  0  0  0  0
   -1.0871  -12.2214   17.8851 C   0  0  0  0  0  0  0  0  0  0  0  0
   -2.2706   -8.9669   19.0691 C   0  0  0  0  0  0  0  0  0  0  0  0
    3.0279   -5.3073   26.8197 C   0  0  0  0  0  0  0  0  0  0  0  0
    7.3282   -3.8948   29.1186 C   0  0  0  0  0  0  0  0  0  0  0  0
  1  3  4  0
  1  7  4  0
  2  3  1  0
  2  6  4  0
  2 16  4  0
  3 22  4  0
  4  9  4  0
  4 10  1  0
  4 20  4  0
  5 16  4  0
  5 23  4  0
  6 15  4  0
  7 12  4  0
  8 13  4  0
  8 14  4  0
  9 11  4  0
 11 14  4  0
 11 19  4  0
 12 18  4  0
 13 21  4  0
 15 23  4  0
 17 19  4  0
 17 20  4  0
 18 22  4  0
 19 21  4  0
M  END
$$$$

 Created by Python create_sdf_string function

 23 25  0  0  0  0  0  0  0  0999 V2000
    2.4610   -5.3070   29.1240 C   0  0  0  0  0  0  0  0  0  0  0  0
    4.7710   -4.6952   28.4803 C   0  0  0  0  0  0  0  0  0  0  0  0
    3.4047   -5.1087   28.1314 C   0  0  0  0  0  0  0  0  0  0  0  0
   -0.2234  -11.8615   16.8874 C   0  0  0  0  0  0  0  0  0  0  0  0
    6.4491   -4.1532   30.1213 C   0  0  0  0  0  0  0  0  0  0  0  0
    5.7060   -4.4340   27.4975 C   0  0  0  0  0  0  0  0  0  0  0  0
    1.1818   -5.6612   28.8399 C   0  0  0  0  0  0  0  0  0  0  0  0
   -1.2067   -7.3287   17.7772 C   0  0  0  0  0  0  0  0  0  0  0  0
   -0.0206  -10.5585   16.6210 C   0  0  0  0  0  0  0  0  0  0  0  0
    0.3696  -12.7626   16.2169 O   0  0  0  0  0  0  0  0  0  0  0  0
   -0.6895   -9.5676   17.3297 C   0  0  0  0  0  0  0  0  0  0  0  0
    0.8388   -5.8417   27.5264 C   0  0  0  0  0  0  0  0  0  0  0  0
   -2.0709   -7.6637   18.7817 C   0  0  0  0  0  0  0  0  0  0  0  0
   -0.5279   -8.2168   17.0717 C   0  0  0  0  0  0  0  0  0  0  0  0
    6.9694   -4.0191   27.8190 C   0  0  0  0  0  0  0  0  0  0  0  0
    5.1733   -4.5469   29.8123 C   0  0  0  0  0  0  0  0  0  0  0  0
   -1.7508  -11.3016   18.6072 C   0  0  0  0  0  0  0  0  0  0  0  0
    1.7497   -5.6771   26.4971 C   0  0  0  0  0  0  0  0  0  0  0  0
   -1.5799   -9.9322   18.3468 C   0  0  0  0  0  0  0  0  0  0  0  0
   -1.0871  -12.2214   17.8851 C   0  0  0  0  0  0  0  0  0  0  0  0
   -2.2706   -8.9669   19.0691 C   0  0  0  0  0  0  0  0  0  0  0  0
    3.0279   -5.3073   26.8197 C   0  0  0  0  0  0  0  0  0  0  0  0
    7.3282   -3.8948   29.1186 C   0  0  0  0  0  0  0  0  0  0  0  0
  1  3  4  0
  1  7  4  0
  2  3  1  0
  2  6  4  0
  2 16  4  0
  3 22  4  0
  4  9  4  0
  4 10  1  0
  4 20  4  0
  5 16  4  0
  5 23  4  0
  6 15  4  0
  7 12  4  0
  8 13  4  0
  8 14  4  0
  9 11  4  0
 11 14  4  0
 11 19  4  0
 12 18  4  0
 13 21  4  0
 15 23  4  0
 17 19  4  0
 17 20  4  0
 18 22  4  0
 19 21  4  0
M  END
$$$$

 Created by Python create_sdf_string function

 23 25  0  0  0  0  0  0  0  0999 V2000
    2.4610   -5.3070   29.1240 C   0  0  0  0  0  0  0  0  0  0  0  0
    4.7710   -4.6952   28.4803 C   0  0  0  0  0  0  0  0  0  0  0  0
    3.4047   -5.1087   28.1314 C   0  0  0  0  0  0  0  0  0  0  0  0
   -0.2234  -11.8615   16.8874 C   0  0  0  0  0  0  0  0  0  0  0  0
    6.4491   -4.1532   30.1213 C   0  0  0  0  0  0  0  0  0  0  0  0
    5.7060   -4.4340   27.4975 C   0  0  0  0  0  0  0  0  0  0  0  0
    1.1818   -5.6612   28.8399 C   0  0  0  0  0  0  0  0  0  0  0  0
   -1.2067   -7.3287   17.7772 C   0  0  0  0  0  0  0  0  0  0  0  0
   -0.0206  -10.5585   16.6210 C   0  0  0  0  0  0  0  0  0  0  0  0
    0.3696  -12.7626   16.2169 O   0  0  0  0  0  0  0  0  0  0  0  0
   -0.6895   -9.5676   17.3297 C   0  0  0  0  0  0  0  0  0  0  0  0
    0.8388   -5.8417   27.5264 C   0  0  0  0  0  0  0  0  0  0  0  0
   -2.0709   -7.6637   18.7817 C   0  0  0  0  0  0  0  0  0  0  0  0
   -0.5279   -8.2168   17.0717 C   0  0  0  0  0  0  0  0  0  0  0  0
    6.9694   -4.0191   27.8190 C   0  0  0  0  0  0  0  0  0  0  0  0
    5.1733   -4.5469   29.8123 C   0  0  0  0  0  0  0  0  0  0  0  0
   -1.7508  -11.3016   18.6072 C   0  0  0  0  0  0  0  0  0  0  0  0
    1.7497   -5.6771   26.4971 C   0  0  0  0  0  0  0  0  0  0  0  0
   -1.5799   -9.9322   18.3468 C   0  0  0  0  0  0  0  0  0  0  0  0
   -1.0871  -12.2214   17.8851 C   0  0  0  0  0  0  0  0  0  0  0  0
   -2.2706   -8.9669   19.0691 C   0  0  0  0  0  0  0  0  0  0  0  0
    3.0279   -5.3073   26.8197 C   0  0  0  0  0  0  0  0  0  0  0  0
    7.3282   -3.8948   29.1186 C   0  0  0  0  0  0  0  0  0  0  0  0
  1  3  4  0
  1  7  4  0
  2  3  1  0
  2  6  4  0
  2 16  4  0
  3 22  4  0
  4  9  4  0
  4 10  1  0
  4 20  4  0
  5 16  4  0
  5 23  4  0
  6 15  4  0
  7 12  4  0
  8 13  4  0
  8 14  4  0
  9 11  4  0
 11 14  4  0
 11 19  4  0
 12 18  4  0
 13 21  4  0
 15 23  4  0
 17 19  4  0
 17 20  4  0
 18 22  4  0
 19 21  4  0
M  END
$$$$

 Created by Python create_sdf_string function

 23 25  0  0  0  0  0  0  0  0999 V2000
    2.4610   -5.3070   29.1240 C   0  0  0  0  0  0  0  0  0  0  0  0
    4.7710   -4.6952   28.4803 C   0  0  0  0  0  0  0  0  0  0  0  0
    3.4047   -5.1087   28.1314 C   0  0  0  0  0  0  0  0  0  0  0  0
   -0.2234  -11.8615   16.8874 C   0  0  0  0  0  0  0  0  0  0  0  0
    6.4491   -4.1532   30.1213 C   0  0  0  0  0  0  0  0  0  0  0  0
    5.7060   -4.4340   27.4975 C   0  0  0  0  0  0  0  0  0  0  0  0
    1.1818   -5.6612   28.8399 C   0  0  0  0  0  0  0  0  0  0  0  0
   -1.2067   -7.3287   17.7772 C   0  0  0  0  0  0  0  0  0  0  0  0
   -0.0206  -10.5585   16.6210 C   0  0  0  0  0  0  0  0  0  0  0  0
    0.3696  -12.7626   16.2169 O   0  0  0  0  0  0  0  0  0  0  0  0
   -0.6895   -9.5676   17.3297 C   0  0  0  0  0  0  0  0  0  0  0  0
    0.8388   -5.8417   27.5264 C   0  0  0  0  0  0  0  0  0  0  0  0
   -2.0709   -7.6637   18.7817 C   0  0  0  0  0  0  0  0  0  0  0  0
   -0.5279   -8.2168   17.0717 C   0  0  0  0  0  0  0  0  0  0  0  0
    6.9694   -4.0191   27.8190 C   0  0  0  0  0  0  0  0  0  0  0  0
    5.1733   -4.5469   29.8123 C   0  0  0  0  0  0  0  0  0  0  0  0
   -1.7508  -11.3016   18.6072 C   0  0  0  0  0  0  0  0  0  0  0  0
    1.7497   -5.6771   26.4971 C   0  0  0  0  0  0  0  0  0  0  0  0
   -1.5799   -9.9322   18.3468 C   0  0  0  0  0  0  0  0  0  0  0  0
   -1.0871  -12.2214   17.8851 C   0  0  0  0  0  0  0  0  0  0  0  0
   -2.2706   -8.9669   19.0691 C   0  0  0  0  0  0  0  0  0  0  0  0
    3.0279   -5.3073   26.8197 C   0  0  0  0  0  0  0  0  0  0  0  0
    7.3282   -3.8948   29.1186 C   0  0  0  0  0  0  0  0  0  0  0  0
  1  3  4  0
  1  7  4  0
  2  3  1  0
  2  6  4  0
  2 16  4  0
  3 22  4  0
  4  9  4  0
  4 10  1  0
  4 20  4  0
  5 16  4  0
  5 23  4  0
  6 15  4  0
  7 12  4  0
  8 13  4  0
  8 14  4  0
  9 11  4  0
 11 14  4  0
 11 19  4  0
 12 18  4  0
 13 21  4  0
 15 23  4  0
 17 19  4  0
 17 20  4  0
 18 22  4  0
 19 21  4  0
M  END
$$$$

 Created by Python create_sdf_string function

 23 25  0  0  0  0  0  0  0  0999 V2000
    2.4610   -5.3070   29.1240 C   0  0  0  0  0  0  0  0  0  0  0  0
    4.7710   -4.6952   28.4803 C   0  0  0  0  0  0  0  0  0  0  0  0
    3.4047   -5.1087   28.1314 C   0  0  0  0  0  0  0  0  0  0  0  0
   -0.2234  -11.8615   16.8874 C   0  0  0  0  0  0  0  0  0  0  0  0
    6.4491   -4.1532   30.1213 C   0  0  0  0  0  0  0  0  0  0  0  0
    5.7060   -4.4340   27.4975 C   0  0  0  0  0  0  0  0  0  0  0  0
    1.1818   -5.6612   28.8399 C   0  0  0  0  0  0  0  0  0  0  0  0
   -1.2067   -7.3287   17.7772 C   0  0  0  0  0  0  0  0  0  0  0  0
   -0.0206  -10.5585   16.6210 C   0  0  0  0  0  0  0  0  0  0  0  0
    0.3696  -12.7626   16.2169 O   0  0  0  0  0  0  0  0  0  0  0  0
   -0.6895   -9.5676   17.3297 C   0  0  0  0  0  0  0  0  0  0  0  0
    0.8388   -5.8417   27.5264 C   0  0  0  0  0  0  0  0  0  0  0  0
   -2.0709   -7.6637   18.7817 C   0  0  0  0  0  0  0  0  0  0  0  0
   -0.5279   -8.2168   17.0717 C   0  0  0  0  0  0  0  0  0  0  0  0
    6.9694   -4.0191   27.8190 C   0  0  0  0  0  0  0  0  0  0  0  0
    5.1733   -4.5469   29.8123 C   0  0  0  0  0  0  0  0  0  0  0  0
   -1.7508  -11.3016   18.6072 C   0  0  0  0  0  0  0  0  0  0  0  0
    1.7497   -5.6771   26.4971 C   0  0  0  0  0  0  0  0  0  0  0  0
   -1.5799   -9.9322   18.3468 C   0  0  0  0  0  0  0  0  0  0  0  0
   -1.0871  -12.2214   17.8851 C   0  0  0  0  0  0  0  0  0  0  0  0
   -2.2706   -8.9669   19.0691 C   0  0  0  0  0  0  0  0  0  0  0  0
    3.0279   -5.3073   26.8197 C   0  0  0  0  0  0  0  0  0  0  0  0
    7.3282   -3.8948   29.1186 C   0  0  0  0  0  0  0  0  0  0  0  0
  1  3  4  0
  1  7  4  0
  2  3  1  0
  2  6  4  0
  2 16  4  0
  3 22  4  0
  4  9  4  0
  4 10  1  0
  4 20  4  0
  5 16  4  0
  5 23  4  0
  6 15  4  0
  7 12  4  0
  8 13  4  0
  8 14  4  0
  9 11  4  0
 11 14  4  0
 11 19  4  0
 12 18  4  0
 13 21  4  0
 15 23  4  0
 17 19  4  0
 17 20  4  0
 18 22  4  0
 19 21  4  0
M  END
$$$$

 Created by Python create_sdf_string function

 23 25  0  0  0  0  0  0  0  0999 V2000
    2.4610   -5.3070   29.1240 C   0  0  0  0  0  0  0  0  0  0  0  0
    4.7710   -4.6952   28.4803 C   0  0  0  0  0  0  0  0  0  0  0  0
    3.4047   -5.1087   28.1314 C   0  0  0  0  0  0  0  0  0  0  0  0
   -0.2234  -11.8615   16.8874 C   0  0  0  0  0  0  0  0  0  0  0  0
    6.4491   -4.1532   30.1213 C   0  0  0  0  0  0  0  0  0  0  0  0
    5.7060   -4.4340   27.4975 C   0  0  0  0  0  0  0  0  0  0  0  0
    1.1818   -5.6612   28.8399 C   0  0  0  0  0  0  0  0  0  0  0  0
   -1.2067   -7.3287   17.7772 C   0  0  0  0  0  0  0  0  0  0  0  0
   -0.0206  -10.5585   16.6210 C   0  0  0  0  0  0  0  0  0  0  0  0
    0.3696  -12.7626   16.2169 O   0  0  0  0  0  0  0  0  0  0  0  0
   -0.6895   -9.5676   17.3297 C   0  0  0  0  0  0  0  0  0  0  0  0
    0.8388   -5.8417   27.5264 C   0  0  0  0  0  0  0  0  0  0  0  0
   -2.0709   -7.6637   18.7817 C   0  0  0  0  0  0  0  0  0  0  0  0
   -0.5279   -8.2168   17.0717 C   0  0  0  0  0  0  0  0  0  0  0  0
    6.9694   -4.0191   27.8190 C   0  0  0  0  0  0  0  0  0  0  0  0
    5.1733   -4.5469   29.8123 C   0  0  0  0  0  0  0  0  0  0  0  0
   -1.7508  -11.3016   18.6072 C   0  0  0  0  0  0  0  0  0  0  0  0
    1.7497   -5.6771   26.4971 C   0  0  0  0  0  0  0  0  0  0  0  0
   -1.5799   -9.9322   18.3468 C   0  0  0  0  0  0  0  0  0  0  0  0
   -1.0871  -12.2214   17.8851 C   0  0  0  0  0  0  0  0  0  0  0  0
   -2.2706   -8.9669   19.0691 C   0  0  0  0  0  0  0  0  0  0  0  0
    3.0279   -5.3073   26.8197 C   0  0  0  0  0  0  0  0  0  0  0  0
    7.3282   -3.8948   29.1186 C   0  0  0  0  0  0  0  0  0  0  0  0
  1  3  4  0
  1  7  4  0
  2  3  1  0
  2  6  4  0
  2 16  4  0
  3 22  4  0
  4  9  4  0
  4 10  1  0
  4 20  4  0
  5 16  4  0
  5 23  4  0
  6 15  4  0
  7 12  4  0
  8 13  4  0
  8 14  4  0
  9 11  4  0
 11 14  4  0
 11 19  4  0
 12 18  4  0
 13 21  4  0
 15 23  4  0
 17 19  4  0
 17 20  4  0
 18 22  4  0
 19 21  4  0
M  END
$$$$

 Created by Python create_sdf_string function

 23 25  0  0  0  0  0  0  0  0999 V2000
    2.4610   -5.3070   29.1240 C   0  0  0  0  0  0  0  0  0  0  0  0
    4.7710   -4.6952   28.4803 C   0  0  0  0  0  0  0  0  0  0  0  0
    3.4047   -5.1087   28.1314 C   0  0  0  0  0  0  0  0  0  0  0  0
   -0.2234  -11.8615   16.8874 C   0  0  0  0  0  0  0  0  0  0  0  0
    6.4491   -4.1532   30.1213 C   0  0  0  0  0  0  0  0  0  0  0  0
    5.7060   -4.4340   27.4975 C   0  0  0  0  0  0  0  0  0  0  0  0
    1.1818   -5.6612   28.8399 C   0  0  0  0  0  0  0  0  0  0  0  0
   -1.2067   -7.3287   17.7772 C   0  0  0  0  0  0  0  0  0  0  0  0
   -0.0206  -10.5585   16.6210 C   0  0  0  0  0  0  0  0  0  0  0  0
    0.3696  -12.7626   16.2169 O   0  0  0  0  0  0  0  0  0  0  0  0
   -0.6895   -9.5676   17.3297 C   0  0  0  0  0  0  0  0  0  0  0  0
    0.8388   -5.8417   27.5264 C   0  0  0  0  0  0  0  0  0  0  0  0
   -2.0709   -7.6637   18.7817 C   0  0  0  0  0  0  0  0  0  0  0  0
   -0.5279   -8.2168   17.0717 C   0  0  0  0  0  0  0  0  0  0  0  0
    6.9694   -4.0191   27.8190 C   0  0  0  0  0  0  0  0  0  0  0  0
    5.1733   -4.5469   29.8123 C   0  0  0  0  0  0  0  0  0  0  0  0
   -1.7508  -11.3016   18.6072 C   0  0  0  0  0  0  0  0  0  0  0  0
    1.7497   -5.6771   26.4971 C   0  0  0  0  0  0  0  0  0  0  0  0
   -1.5799   -9.9322   18.3468 C   0  0  0  0  0  0  0  0  0  0  0  0
   -1.0871  -12.2214   17.8851 C   0  0  0  0  0  0  0  0  0  0  0  0
   -2.2706   -8.9669   19.0691 C   0  0  0  0  0  0  0  0  0  0  0  0
    3.0279   -5.3073   26.8197 C   0  0  0  0  0  0  0  0  0  0  0  0
    7.3282   -3.8948   29.1186 C   0  0  0  0  0  0  0  0  0  0  0  0
  1  3  4  0
  1  7  4  0
  2  3  1  0
  2  6  4  0
  2 16  4  0
  3 22  4  0
  4  9  4  0
  4 10  1  0
  4 20  4  0
  5 16  4  0
  5 23  4  0
  6 15  4  0
  7 12  4  0
  8 13  4  0
  8 14  4  0
  9 11  4  0
 11 14  4  0
 11 19  4  0
 12 18  4  0
 13 21  4  0
 15 23  4  0
 17 19  4  0
 17 20  4  0
 18 22  4  0
 19 21  4  0
M  END
$$$$

 Created by Python create_sdf_string function

 23 25  0  0  0  0  0  0  0  0999 V2000
    2.4610   -5.3070   29.1240 C   0  0  0  0  0  0  0  0  0  0  0  0
    4.7710   -4.6952   28.4803 C   0  0  0  0  0  0  0  0  0  0  0  0
    3.4047   -5.1087   28.1314 C   0  0  0  0  0  0  0  0  0  0  0  0
   -0.2234  -11.8615   16.8874 C   0  0  0  0  0  0  0  0  0  0  0  0
    6.4491   -4.1532   30.1213 C   0  0  0  0  0  0  0  0  0  0  0  0
    5.7060   -4.4340   27.4975 C   0  0  0  0  0  0  0  0  0  0  0  0
    1.1818   -5.6612   28.8399 C   0  0  0  0  0  0  0  0  0  0  0  0
   -1.2067   -7.3287   17.7772 C   0  0  0  0  0  0  0  0  0  0  0  0
   -0.0206  -10.5585   16.6210 C   0  0  0  0  0  0  0  0  0  0  0  0
    0.3696  -12.7626   16.2169 O   0  0  0  0  0  0  0  0  0  0  0  0
   -0.6895   -9.5676   17.3297 C   0  0  0  0  0  0  0  0  0  0  0  0
    0.8388   -5.8417   27.5264 C   0  0  0  0  0  0  0  0  0  0  0  0
   -2.0709   -7.6637   18.7817 C   0  0  0  0  0  0  0  0  0  0  0  0
   -0.5279   -8.2168   17.0717 C   0  0  0  0  0  0  0  0  0  0  0  0
    6.9694   -4.0191   27.8190 C   0  0  0  0  0  0  0  0  0  0  0  0
    5.1733   -4.5469   29.8123 C   0  0  0  0  0  0  0  0  0  0  0  0
   -1.7508  -11.3016   18.6072 C   0  0  0  0  0  0  0  0  0  0  0  0
    1.7497   -5.6771   26.4971 C   0  0  0  0  0  0  0  0  0  0  0  0
   -1.5799   -9.9322   18.3468 C   0  0  0  0  0  0  0  0  0  0  0  0
   -1.0871  -12.2214   17.8851 C   0  0  0  0  0  0  0  0  0  0  0  0
   -2.2706   -8.9669   19.0691 C   0  0  0  0  0  0  0  0  0  0  0  0
    3.0279   -5.3073   26.8197 C   0  0  0  0  0  0  0  0  0  0  0  0
    7.3282   -3.8948   29.1186 C   0  0  0  0  0  0  0  0  0  0  0  0
  1  3  4  0
  1  7  4  0
  2  3  1  0
  2  6  4  0
  2 16  4  0
  3 22  4  0
  4  9  4  0
  4 10  1  0
  4 20  4  0
  5 16  4  0
  5 23  4  0
  6 15  4  0
  7 12  4  0
  8 13  4  0
  8 14  4  0
  9 11  4  0
 11 14  4  0
 11 19  4  0
 12 18  4  0
 13 21  4  0
 15 23  4  0
 17 19  4  0
 17 20  4  0
 18 22  4  0
 19 21  4  0
M  END
$$$$

 Created by Python create_sdf_string function

 23 25  0  0  0  0  0  0  0  0999 V2000
    2.4610   -5.3070   29.1240 C   0  0  0  0  0  0  0  0  0  0  0  0
    4.7710   -4.6952   28.4803 C   0  0  0  0  0  0  0  0  0  0  0  0
    3.4047   -5.1087   28.1314 C   0  0  0  0  0  0  0  0  0  0  0  0
   -0.2234  -11.8615   16.8874 C   0  0  0  0  0  0  0  0  0  0  0  0
    6.4491   -4.1532   30.1213 C   0  0  0  0  0  0  0  0  0  0  0  0
    5.7060   -4.4340   27.4975 C   0  0  0  0  0  0  0  0  0  0  0  0
    1.1818   -5.6612   28.8399 C   0  0  0  0  0  0  0  0  0  0  0  0
   -1.2067   -7.3287   17.7772 C   0  0  0  0  0  0  0  0  0  0  0  0
   -0.0206  -10.5585   16.6210 C   0  0  0  0  0  0  0  0  0  0  0  0
    0.3696  -12.7626   16.2169 O   0  0  0  0  0  0  0  0  0  0  0  0
   -0.6895   -9.5676   17.3297 C   0  0  0  0  0  0  0  0  0  0  0  0
    0.8388   -5.8417   27.5264 C   0  0  0  0  0  0  0  0  0  0  0  0
   -2.0709   -7.6637   18.7817 C   0  0  0  0  0  0  0  0  0  0  0  0
   -0.5279   -8.2168   17.0717 C   0  0  0  0  0  0  0  0  0  0  0  0
    6.9694   -4.0191   27.8190 C   0  0  0  0  0  0  0  0  0  0  0  0
    5.1733   -4.5469   29.8123 C   0  0  0  0  0  0  0  0  0  0  0  0
   -1.7508  -11.3016   18.6072 C   0  0  0  0  0  0  0  0  0  0  0  0
    1.7497   -5.6771   26.4971 C   0  0  0  0  0  0  0  0  0  0  0  0
   -1.5799   -9.9322   18.3468 C   0  0  0  0  0  0  0  0  0  0  0  0
   -1.0871  -12.2214   17.8851 C   0  0  0  0  0  0  0  0  0  0  0  0
   -2.2706   -8.9669   19.0691 C   0  0  0  0  0  0  0  0  0  0  0  0
    3.0279   -5.3073   26.8197 C   0  0  0  0  0  0  0  0  0  0  0  0
    7.3282   -3.8948   29.1186 C   0  0  0  0  0  0  0  0  0  0  0  0
  1  3  4  0
  1  7  4  0
  2  3  1  0
  2  6  4  0
  2 16  4  0
  3 22  4  0
  4  9  4  0
  4 10  1  0
  4 20  4  0
  5 16  4  0
  5 23  4  0
  6 15  4  0
  7 12  4  0
  8 13  4  0
  8 14  4  0
  9 11  4  0
 11 14  4  0
 11 19  4  0
 12 18  4  0
 13 21  4  0
 15 23  4  0
 17 19  4  0
 17 20  4  0
 18 22  4  0
 19 21  4  0
M  END
$$$$

 Created by Python create_sdf_string function

 23 25  0  0  0  0  0  0  0  0999 V2000
    2.4610   -5.3070   29.1240 C   0  0  0  0  0  0  0  0  0  0  0  0
    4.7710   -4.6952   28.4803 C   0  0  0  0  0  0  0  0  0  0  0  0
    3.4047   -5.1087   28.1314 C   0  0  0  0  0  0  0  0  0  0  0  0
   -0.2234  -11.8615   16.8874 C   0  0  0  0  0  0  0  0  0  0  0  0
    6.4491   -4.1532   30.1213 C   0  0  0  0  0  0  0  0  0  0  0  0
    5.7060   -4.4340   27.4975 C   0  0  0  0  0  0  0  0  0  0  0  0
    1.1818   -5.6612   28.8399 C   0  0  0  0  0  0  0  0  0  0  0  0
   -1.2067   -7.3287   17.7772 C   0  0  0  0  0  0  0  0  0  0  0  0
   -0.0206  -10.5585   16.6210 C   0  0  0  0  0  0  0  0  0  0  0  0
    0.3696  -12.7626   16.2169 O   0  0  0  0  0  0  0  0  0  0  0  0
   -0.6895   -9.5676   17.3297 C   0  0  0  0  0  0  0  0  0  0  0  0
    0.8388   -5.8417   27.5264 C   0  0  0  0  0  0  0  0  0  0  0  0
   -2.0709   -7.6637   18.7817 C   0  0  0  0  0  0  0  0  0  0  0  0
   -0.5279   -8.2168   17.0717 C   0  0  0  0  0  0  0  0  0  0  0  0
    6.9694   -4.0191   27.8190 C   0  0  0  0  0  0  0  0  0  0  0  0
    5.1733   -4.5469   29.8123 C   0  0  0  0  0  0  0  0  0  0  0  0
   -1.7508  -11.3016   18.6072 C   0  0  0  0  0  0  0  0  0  0  0  0
    1.7497   -5.6771   26.4971 C   0  0  0  0  0  0  0  0  0  0  0  0
   -1.5799   -9.9322   18.3468 C   0  0  0  0  0  0  0  0  0  0  0  0
   -1.0871  -12.2214   17.8851 C   0  0  0  0  0  0  0  0  0  0  0  0
   -2.2706   -8.9669   19.0691 C   0  0  0  0  0  0  0  0  0  0  0  0
    3.0279   -5.3073   26.8197 C   0  0  0  0  0  0  0  0  0  0  0  0
    7.3282   -3.8948   29.1186 C   0  0  0  0  0  0  0  0  0  0  0  0
  1  3  4  0
  1  7  4  0
  2  3  1  0
  2  6  4  0
  2 16  4  0
  3 22  4  0
  4  9  4  0
  4 10  1  0
  4 20  4  0
  5 16  4  0
  5 23  4  0
  6 15  4  0
  7 12  4  0
  8 13  4  0
  8 14  4  0
  9 11  4  0
 11 14  4  0
 11 19  4  0
 12 18  4  0
 13 21  4  0
 15 23  4  0
 17 19  4  0
 17 20  4  0
 18 22  4  0
 19 21  4  0
M  END
$$$$

 Created by Python create_sdf_string function

 23 25  0  0  0  0  0  0  0  0999 V2000
    2.4610   -5.3070   29.1240 C   0  0  0  0  0  0  0  0  0  0  0  0
    4.7710   -4.6952   28.4803 C   0  0  0  0  0  0  0  0  0  0  0  0
    3.4047   -5.1087   28.1314 C   0  0  0  0  0  0  0  0  0  0  0  0
   -0.2234  -11.8615   16.8874 C   0  0  0  0  0  0  0  0  0  0  0  0
    6.4491   -4.1532   30.1213 C   0  0  0  0  0  0  0  0  0  0  0  0
    5.7060   -4.4340   27.4975 C   0  0  0  0  0  0  0  0  0  0  0  0
    1.1818   -5.6612   28.8399 C   0  0  0  0  0  0  0  0  0  0  0  0
   -1.2067   -7.3287   17.7772 C   0  0  0  0  0  0  0  0  0  0  0  0
   -0.0206  -10.5585   16.6210 C   0  0  0  0  0  0  0  0  0  0  0  0
    0.3696  -12.7626   16.2169 O   0  0  0  0  0  0  0  0  0  0  0  0
   -0.6895   -9.5676   17.3297 C   0  0  0  0  0  0  0  0  0  0  0  0
    0.8388   -5.8417   27.5264 C   0  0  0  0  0  0  0  0  0  0  0  0
   -2.0709   -7.6637   18.7817 C   0  0  0  0  0  0  0  0  0  0  0  0
   -0.5279   -8.2168   17.0717 C   0  0  0  0  0  0  0  0  0  0  0  0
    6.9694   -4.0191   27.8190 C   0  0  0  0  0  0  0  0  0  0  0  0
    5.1733   -4.5469   29.8123 C   0  0  0  0  0  0  0  0  0  0  0  0
   -1.7508  -11.3016   18.6072 C   0  0  0  0  0  0  0  0  0  0  0  0
    1.7497   -5.6771   26.4971 C   0  0  0  0  0  0  0  0  0  0  0  0
   -1.5799   -9.9322   18.3468 C   0  0  0  0  0  0  0  0  0  0  0  0
   -1.0871  -12.2214   17.8851 C   0  0  0  0  0  0  0  0  0  0  0  0
   -2.2706   -8.9669   19.0691 C   0  0  0  0  0  0  0  0  0  0  0  0
    3.0279   -5.3073   26.8197 C   0  0  0  0  0  0  0  0  0  0  0  0
    7.3282   -3.8948   29.1186 C   0  0  0  0  0  0  0  0  0  0  0  0
  1  3  4  0
  1  7  4  0
  2  3  1  0
  2  6  4  0
  2 16  4  0
  3 22  4  0
  4  9  4  0
  4 10  1  0
  4 20  4  0
  5 16  4  0
  5 23  4  0
  6 15  4  0
  7 12  4  0
  8 13  4  0
  8 14  4  0
  9 11  4  0
 11 14  4  0
 11 19  4  0
 12 18  4  0
 13 21  4  0
 15 23  4  0
 17 19  4  0
 17 20  4  0
 18 22  4  0
 19 21  4  0
M  END
$$$$

 Created by Python create_sdf_string function

 23 25  0  0  0  0  0  0  0  0999 V2000
    2.4610   -5.3070   29.1240 C   0  0  0  0  0  0  0  0  0  0  0  0
    4.7710   -4.6952   28.4803 C   0  0  0  0  0  0  0  0  0  0  0  0
    3.4047   -5.1087   28.1314 C   0  0  0  0  0  0  0  0  0  0  0  0
   -0.2234  -11.8615   16.8874 C   0  0  0  0  0  0  0  0  0  0  0  0
    6.4491   -4.1532   30.1213 C   0  0  0  0  0  0  0  0  0  0  0  0
    5.7060   -4.4340   27.4975 C   0  0  0  0  0  0  0  0  0  0  0  0
    1.1818   -5.6612   28.8399 C   0  0  0  0  0  0  0  0  0  0  0  0
   -1.2067   -7.3287   17.7772 C   0  0  0  0  0  0  0  0  0  0  0  0
   -0.0206  -10.5585   16.6210 C   0  0  0  0  0  0  0  0  0  0  0  0
    0.3696  -12.7626   16.2169 O   0  0  0  0  0  0  0  0  0  0  0  0
   -0.6895   -9.5676   17.3297 C   0  0  0  0  0  0  0  0  0  0  0  0
    0.8388   -5.8417   27.5264 C   0  0  0  0  0  0  0  0  0  0  0  0
   -2.0709   -7.6637   18.7817 C   0  0  0  0  0  0  0  0  0  0  0  0
   -0.5279   -8.2168   17.0717 C   0  0  0  0  0  0  0  0  0  0  0  0
    6.9694   -4.0191   27.8190 C   0  0  0  0  0  0  0  0  0  0  0  0
    5.1733   -4.5469   29.8123 C   0  0  0  0  0  0  0  0  0  0  0  0
   -1.7508  -11.3016   18.6072 C   0  0  0  0  0  0  0  0  0  0  0  0
    1.7497   -5.6771   26.4971 C   0  0  0  0  0  0  0  0  0  0  0  0
   -1.5799   -9.9322   18.3468 C   0  0  0  0  0  0  0  0  0  0  0  0
   -1.0871  -12.2214   17.8851 C   0  0  0  0  0  0  0  0  0  0  0  0
   -2.2706   -8.9669   19.0691 C   0  0  0  0  0  0  0  0  0  0  0  0
    3.0279   -5.3073   26.8197 C   0  0  0  0  0  0  0  0  0  0  0  0
    7.3282   -3.8948   29.1186 C   0  0  0  0  0  0  0  0  0  0  0  0
  1  3  4  0
  1  7  4  0
  2  3  1  0
  2  6  4  0
  2 16  4  0
  3 22  4  0
  4  9  4  0
  4 10  1  0
  4 20  4  0
  5 16  4  0
  5 23  4  0
  6 15  4  0
  7 12  4  0
  8 13  4  0
  8 14  4  0
  9 11  4  0
 11 14  4  0
 11 19  4  0
 12 18  4  0
 13 21  4  0
 15 23  4  0
 17 19  4  0
 17 20  4  0
 18 22  4  0
 19 21  4  0
M  END
$$$$

 Created by Python create_sdf_string function

 23 25  0  0  0  0  0  0  0  0999 V2000
    2.4610   -5.3070   29.1240 C   0  0  0  0  0  0  0  0  0  0  0  0
    4.7710   -4.6952   28.4803 C   0  0  0  0  0  0  0  0  0  0  0  0
    3.4047   -5.1087   28.1314 C   0  0  0  0  0  0  0  0  0  0  0  0
   -0.2234  -11.8615   16.8874 C   0  0  0  0  0  0  0  0  0  0  0  0
    6.4491   -4.1532   30.1213 C   0  0  0  0  0  0  0  0  0  0  0  0
    5.7060   -4.4340   27.4975 C   0  0  0  0  0  0  0  0  0  0  0  0
    1.1818   -5.6612   28.8399 C   0  0  0  0  0  0  0  0  0  0  0  0
   -1.2067   -7.3287   17.7772 C   0  0  0  0  0  0  0  0  0  0  0  0
   -0.0206  -10.5585   16.6210 C   0  0  0  0  0  0  0  0  0  0  0  0
    0.3696  -12.7626   16.2169 O   0  0  0  0  0  0  0  0  0  0  0  0
   -0.6895   -9.5676   17.3297 C   0  0  0  0  0  0  0  0  0  0  0  0
    0.8388   -5.8417   27.5264 C   0  0  0  0  0  0  0  0  0  0  0  0
   -2.0709   -7.6637   18.7817 C   0  0  0  0  0  0  0  0  0  0  0  0
   -0.5279   -8.2168   17.0717 C   0  0  0  0  0  0  0  0  0  0  0  0
    6.9694   -4.0191   27.8190 C   0  0  0  0  0  0  0  0  0  0  0  0
    5.1733   -4.5469   29.8123 C   0  0  0  0  0  0  0  0  0  0  0  0
   -1.7508  -11.3016   18.6072 C   0  0  0  0  0  0  0  0  0  0  0  0
    1.7497   -5.6771   26.4971 C   0  0  0  0  0  0  0  0  0  0  0  0
   -1.5799   -9.9322   18.3468 C   0  0  0  0  0  0  0  0  0  0  0  0
   -1.0871  -12.2214   17.8851 C   0  0  0  0  0  0  0  0  0  0  0  0
   -2.2706   -8.9669   19.0691 C   0  0  0  0  0  0  0  0  0  0  0  0
    3.0279   -5.3073   26.8197 C   0  0  0  0  0  0  0  0  0  0  0  0
    7.3282   -3.8948   29.1186 C   0  0  0  0  0  0  0  0  0  0  0  0
  1  3  4  0
  1  7  4  0
  2  3  1  0
  2  6  4  0
  2 16  4  0
  3 22  4  0
  4  9  4  0
  4 10  1  0
  4 20  4  0
  5 16  4  0
  5 23  4  0
  6 15  4  0
  7 12  4  0
  8 13  4  0
  8 14  4  0
  9 11  4  0
 11 14  4  0
 11 19  4  0
 12 18  4  0
 13 21  4  0
 15 23  4  0
 17 19  4  0
 17 20  4  0
 18 22  4  0
 19 21  4  0
M  END
$$$$

 Created by Python create_sdf_string function

 23 25  0  0  0  0  0  0  0  0999 V2000
    2.4610   -5.3070   29.1240 C   0  0  0  0  0  0  0  0  0  0  0  0
    4.7710   -4.6952   28.4803 C   0  0  0  0  0  0  0  0  0  0  0  0
    3.4047   -5.1087   28.1314 C   0  0  0  0  0  0  0  0  0  0  0  0
   -0.2234  -11.8615   16.8874 C   0  0  0  0  0  0  0  0  0  0  0  0
    6.4491   -4.1532   30.1213 C   0  0  0  0  0  0  0  0  0  0  0  0
    5.7060   -4.4340   27.4975 C   0  0  0  0  0  0  0  0  0  0  0  0
    1.1818   -5.6612   28.8399 C   0  0  0  0  0  0  0  0  0  0  0  0
   -1.2067   -7.3287   17.7772 C   0  0  0  0  0  0  0  0  0  0  0  0
   -0.0206  -10.5585   16.6210 C   0  0  0  0  0  0  0  0  0  0  0  0
    0.3696  -12.7626   16.2169 O   0  0  0  0  0  0  0  0  0  0  0  0
   -0.6895   -9.5676   17.3297 C   0  0  0  0  0  0  0  0  0  0  0  0
    0.8388   -5.8417   27.5264 C   0  0  0  0  0  0  0  0  0  0  0  0
   -2.0709   -7.6637   18.7817 C   0  0  0  0  0  0  0  0  0  0  0  0
   -0.5279   -8.2168   17.0717 C   0  0  0  0  0  0  0  0  0  0  0  0
    6.9694   -4.0191   27.8190 C   0  0  0  0  0  0  0  0  0  0  0  0
    5.1733   -4.5469   29.8123 C   0  0  0  0  0  0  0  0  0  0  0  0
   -1.7508  -11.3016   18.6072 C   0  0  0  0  0  0  0  0  0  0  0  0
    1.7497   -5.6771   26.4971 C   0  0  0  0  0  0  0  0  0  0  0  0
   -1.5799   -9.9322   18.3468 C   0  0  0  0  0  0  0  0  0  0  0  0
   -1.0871  -12.2214   17.8851 C   0  0  0  0  0  0  0  0  0  0  0  0
   -2.2706   -8.9669   19.0691 C   0  0  0  0  0  0  0  0  0  0  0  0
    3.0279   -5.3073   26.8197 C   0  0  0  0  0  0  0  0  0  0  0  0
    7.3282   -3.8948   29.1186 C   0  0  0  0  0  0  0  0  0  0  0  0
  1  3  4  0
  1  7  4  0
  2  3  1  0
  2  6  4  0
  2 16  4  0
  3 22  4  0
  4  9  4  0
  4 10  1  0
  4 20  4  0
  5 16  4  0
  5 23  4  0
  6 15  4  0
  7 12  4  0
  8 13  4  0
  8 14  4  0
  9 11  4  0
 11 14  4  0
 11 19  4  0
 12 18  4  0
 13 21  4  0
 15 23  4  0
 17 19  4  0
 17 20  4  0
 18 22  4  0
 19 21  4  0
M  END
$$$$

 Created by Python create_sdf_string function

 23 25  0  0  0  0  0  0  0  0999 V2000
    2.4610   -5.3070   29.1240 C   0  0  0  0  0  0  0  0  0  0  0  0
    4.7710   -4.6952   28.4803 C   0  0  0  0  0  0  0  0  0  0  0  0
    3.4047   -5.1087   28.1314 C   0  0  0  0  0  0  0  0  0  0  0  0
   -0.2234  -11.8615   16.8874 C   0  0  0  0  0  0  0  0  0  0  0  0
    6.4491   -4.1532   30.1213 C   0  0  0  0  0  0  0  0  0  0  0  0
    5.7060   -4.4340   27.4975 C   0  0  0  0  0  0  0  0  0  0  0  0
    1.1818   -5.6612   28.8399 C   0  0  0  0  0  0  0  0  0  0  0  0
   -1.2067   -7.3287   17.7772 C   0  0  0  0  0  0  0  0  0  0  0  0
   -0.0206  -10.5585   16.6210 C   0  0  0  0  0  0  0  0  0  0  0  0
    0.3696  -12.7626   16.2169 O   0  0  0  0  0  0  0  0  0  0  0  0
   -0.6895   -9.5676   17.3297 C   0  0  0  0  0  0  0  0  0  0  0  0
    0.8388   -5.8417   27.5264 C   0  0  0  0  0  0  0  0  0  0  0  0
   -2.0709   -7.6637   18.7817 C   0  0  0  0  0  0  0  0  0  0  0  0
   -0.5279   -8.2168   17.0717 C   0  0  0  0  0  0  0  0  0  0  0  0
    6.9694   -4.0191   27.8190 C   0  0  0  0  0  0  0  0  0  0  0  0
    5.1733   -4.5469   29.8123 C   0  0  0  0  0  0  0  0  0  0  0  0
   -1.7508  -11.3016   18.6072 C   0  0  0  0  0  0  0  0  0  0  0  0
    1.7497   -5.6771   26.4971 C   0  0  0  0  0  0  0  0  0  0  0  0
   -1.5799   -9.9322   18.3468 C   0  0  0  0  0  0  0  0  0  0  0  0
   -1.0871  -12.2214   17.8851 C   0  0  0  0  0  0  0  0  0  0  0  0
   -2.2706   -8.9669   19.0691 C   0  0  0  0  0  0  0  0  0  0  0  0
    3.0279   -5.3073   26.8197 C   0  0  0  0  0  0  0  0  0  0  0  0
    7.3282   -3.8948   29.1186 C   0  0  0  0  0  0  0  0  0  0  0  0
  1  3  4  0
  1  7  4  0
  2  3  1  0
  2  6  4  0
  2 16  4  0
  3 22  4  0
  4  9  4  0
  4 10  1  0
  4 20  4  0
  5 16  4  0
  5 23  4  0
  6 15  4  0
  7 12  4  0
  8 13  4  0
  8 14  4  0
  9 11  4  0
 11 14  4  0
 11 19  4  0
 12 18  4  0
 13 21  4  0
 15 23  4  0
 17 19  4  0
 17 20  4  0
 18 22  4  0
 19 21  4  0
M  END
$$$$

 Created by Python create_sdf_string function

 23 25  0  0  0  0  0  0  0  0999 V2000
    2.4610   -5.3070   29.1240 C   0  0  0  0  0  0  0  0  0  0  0  0
    4.7710   -4.6952   28.4803 C   0  0  0  0  0  0  0  0  0  0  0  0
    3.4047   -5.1087   28.1314 C   0  0  0  0  0  0  0  0  0  0  0  0
   -0.2234  -11.8615   16.8874 C   0  0  0  0  0  0  0  0  0  0  0  0
    6.4491   -4.1532   30.1213 C   0  0  0  0  0  0  0  0  0  0  0  0
    5.7060   -4.4340   27.4975 C   0  0  0  0  0  0  0  0  0  0  0  0
    1.1818   -5.6612   28.8399 C   0  0  0  0  0  0  0  0  0  0  0  0
   -1.2067   -7.3287   17.7772 C   0  0  0  0  0  0  0  0  0  0  0  0
   -0.0206  -10.5585   16.6210 C   0  0  0  0  0  0  0  0  0  0  0  0
    0.3696  -12.7626   16.2169 O   0  0  0  0  0  0  0  0  0  0  0  0
   -0.6895   -9.5676   17.3297 C   0  0  0  0  0  0  0  0  0  0  0  0
    0.8388   -5.8417   27.5264 C   0  0  0  0  0  0  0  0  0  0  0  0
   -2.0709   -7.6637   18.7817 C   0  0  0  0  0  0  0  0  0  0  0  0
   -0.5279   -8.2168   17.0717 C   0  0  0  0  0  0  0  0  0  0  0  0
    6.9694   -4.0191   27.8190 C   0  0  0  0  0  0  0  0  0  0  0  0
    5.1733   -4.5469   29.8123 C   0  0  0  0  0  0  0  0  0  0  0  0
   -1.7508  -11.3016   18.6072 C   0  0  0  0  0  0  0  0  0  0  0  0
    1.7497   -5.6771   26.4971 C   0  0  0  0  0  0  0  0  0  0  0  0
   -1.5799   -9.9322   18.3468 C   0  0  0  0  0  0  0  0  0  0  0  0
   -1.0871  -12.2214   17.8851 C   0  0  0  0  0  0  0  0  0  0  0  0
   -2.2706   -8.9669   19.0691 C   0  0  0  0  0  0  0  0  0  0  0  0
    3.0279   -5.3073   26.8197 C   0  0  0  0  0  0  0  0  0  0  0  0
    7.3282   -3.8948   29.1186 C   0  0  0  0  0  0  0  0  0  0  0  0
  1  3  4  0
  1  7  4  0
  2  3  1  0
  2  6  4  0
  2 16  4  0
  3 22  4  0
  4  9  4  0
  4 10  1  0
  4 20  4  0
  5 16  4  0
  5 23  4  0
  6 15  4  0
  7 12  4  0
  8 13  4  0
  8 14  4  0
  9 11  4  0
 11 14  4  0
 11 19  4  0
 12 18  4  0
 13 21  4  0
 15 23  4  0
 17 19  4  0
 17 20  4  0
 18 22  4  0
 19 21  4  0
M  END
$$$$

 Created by Python create_sdf_string function

 23 25  0  0  0  0  0  0  0  0999 V2000
    2.4610   -5.3070   29.1240 C   0  0  0  0  0  0  0  0  0  0  0  0
    4.7710   -4.6952   28.4803 C   0  0  0  0  0  0  0  0  0  0  0  0
    3.4047   -5.1087   28.1314 C   0  0  0  0  0  0  0  0  0  0  0  0
   -0.2234  -11.8615   16.8874 C   0  0  0  0  0  0  0  0  0  0  0  0
    6.4491   -4.1532   30.1213 C   0  0  0  0  0  0  0  0  0  0  0  0
    5.7060   -4.4340   27.4975 C   0  0  0  0  0  0  0  0  0  0  0  0
    1.1818   -5.6612   28.8399 C   0  0  0  0  0  0  0  0  0  0  0  0
   -1.2067   -7.3287   17.7772 C   0  0  0  0  0  0  0  0  0  0  0  0
   -0.0206  -10.5585   16.6210 C   0  0  0  0  0  0  0  0  0  0  0  0
    0.3696  -12.7626   16.2169 O   0  0  0  0  0  0  0  0  0  0  0  0
   -0.6895   -9.5676   17.3297 C   0  0  0  0  0  0  0  0  0  0  0  0
    0.8388   -5.8417   27.5264 C   0  0  0  0  0  0  0  0  0  0  0  0
   -2.0709   -7.6637   18.7817 C   0  0  0  0  0  0  0  0  0  0  0  0
   -0.5279   -8.2168   17.0717 C   0  0  0  0  0  0  0  0  0  0  0  0
    6.9694   -4.0191   27.8190 C   0  0  0  0  0  0  0  0  0  0  0  0
    5.1733   -4.5469   29.8123 C   0  0  0  0  0  0  0  0  0  0  0  0
   -1.7508  -11.3016   18.6072 C   0  0  0  0  0  0  0  0  0  0  0  0
    1.7497   -5.6771   26.4971 C   0  0  0  0  0  0  0  0  0  0  0  0
   -1.5799   -9.9322   18.3468 C   0  0  0  0  0  0  0  0  0  0  0  0
   -1.0871  -12.2214   17.8851 C   0  0  0  0  0  0  0  0  0  0  0  0
   -2.2706   -8.9669   19.0691 C   0  0  0  0  0  0  0  0  0  0  0  0
    3.0279   -5.3073   26.8197 C   0  0  0  0  0  0  0  0  0  0  0  0
    7.3282   -3.8948   29.1186 C   0  0  0  0  0  0  0  0  0  0  0  0
  1  3  4  0
  1  7  4  0
  2  3  1  0
  2  6  4  0
  2 16  4  0
  3 22  4  0
  4  9  4  0
  4 10  1  0
  4 20  4  0
  5 16  4  0
  5 23  4  0
  6 15  4  0
  7 12  4  0
  8 13  4  0
  8 14  4  0
  9 11  4  0
 11 14  4  0
 11 19  4  0
 12 18  4  0
 13 21  4  0
 15 23  4  0
 17 19  4  0
 17 20  4  0
 18 22  4  0
 19 21  4  0
M  END
$$$$

 Created by Python create_sdf_string function

 23 25  0  0  0  0  0  0  0  0999 V2000
    2.4610   -5.3070   29.1240 C   0  0  0  0  0  0  0  0  0  0  0  0
    4.7710   -4.6952   28.4803 C   0  0  0  0  0  0  0  0  0  0  0  0
    3.4047   -5.1087   28.1314 C   0  0  0  0  0  0  0  0  0  0  0  0
   -0.2234  -11.8615   16.8874 C   0  0  0  0  0  0  0  0  0  0  0  0
    6.4491   -4.1532   30.1213 C   0  0  0  0  0  0  0  0  0  0  0  0
    5.7060   -4.4340   27.4975 C   0  0  0  0  0  0  0  0  0  0  0  0
    1.1818   -5.6612   28.8399 C   0  0  0  0  0  0  0  0  0  0  0  0
   -1.2067   -7.3287   17.7772 C   0  0  0  0  0  0  0  0  0  0  0  0
   -0.0206  -10.5585   16.6210 C   0  0  0  0  0  0  0  0  0  0  0  0
    0.3696  -12.7626   16.2169 O   0  0  0  0  0  0  0  0  0  0  0  0
   -0.6895   -9.5676   17.3297 C   0  0  0  0  0  0  0  0  0  0  0  0
    0.8388   -5.8417   27.5264 C   0  0  0  0  0  0  0  0  0  0  0  0
   -2.0709   -7.6637   18.7817 C   0  0  0  0  0  0  0  0  0  0  0  0
   -0.5279   -8.2168   17.0717 C   0  0  0  0  0  0  0  0  0  0  0  0
    6.9694   -4.0191   27.8190 C   0  0  0  0  0  0  0  0  0  0  0  0
    5.1733   -4.5469   29.8123 C   0  0  0  0  0  0  0  0  0  0  0  0
   -1.7508  -11.3016   18.6072 C   0  0  0  0  0  0  0  0  0  0  0  0
    1.7497   -5.6771   26.4971 C   0  0  0  0  0  0  0  0  0  0  0  0
   -1.5799   -9.9322   18.3468 C   0  0  0  0  0  0  0  0  0  0  0  0
   -1.0871  -12.2214   17.8851 C   0  0  0  0  0  0  0  0  0  0  0  0
   -2.2706   -8.9669   19.0691 C   0  0  0  0  0  0  0  0  0  0  0  0
    3.0279   -5.3073   26.8197 C   0  0  0  0  0  0  0  0  0  0  0  0
    7.3282   -3.8948   29.1186 C   0  0  0  0  0  0  0  0  0  0  0  0
  1  3  4  0
  1  7  4  0
  2  3  1  0
  2  6  4  0
  2 16  4  0
  3 22  4  0
  4  9  4  0
  4 10  1  0
  4 20  4  0
  5 16  4  0
  5 23  4  0
  6 15  4  0
  7 12  4  0
  8 13  4  0
  8 14  4  0
  9 11  4  0
 11 14  4  0
 11 19  4  0
 12 18  4  0
 13 21  4  0
 15 23  4  0
 17 19  4  0
 17 20  4  0
 18 22  4  0
 19 21  4  0
M  END
$$$$

 Created by Python create_sdf_string function

 23 25  0  0  0  0  0  0  0  0999 V2000
    2.4610   -5.3070   29.1240 C   0  0  0  0  0  0  0  0  0  0  0  0
    4.7710   -4.6952   28.4803 C   0  0  0  0  0  0  0  0  0  0  0  0
    3.4047   -5.1087   28.1314 C   0  0  0  0  0  0  0  0  0  0  0  0
   -0.2234  -11.8615   16.8874 C   0  0  0  0  0  0  0  0  0  0  0  0
    6.4491   -4.1532   30.1213 C   0  0  0  0  0  0  0  0  0  0  0  0
    5.7060   -4.4340   27.4975 C   0  0  0  0  0  0  0  0  0  0  0  0
    1.1818   -5.6612   28.8399 C   0  0  0  0  0  0  0  0  0  0  0  0
   -1.2067   -7.3287   17.7772 C   0  0  0  0  0  0  0  0  0  0  0  0
   -0.0206  -10.5585   16.6210 C   0  0  0  0  0  0  0  0  0  0  0  0
    0.3696  -12.7626   16.2169 O   0  0  0  0  0  0  0  0  0  0  0  0
   -0.6895   -9.5676   17.3297 C   0  0  0  0  0  0  0  0  0  0  0  0
    0.8388   -5.8417   27.5264 C   0  0  0  0  0  0  0  0  0  0  0  0
   -2.0709   -7.6637   18.7817 C   0  0  0  0  0  0  0  0  0  0  0  0
   -0.5279   -8.2168   17.0717 C   0  0  0  0  0  0  0  0  0  0  0  0
    6.9694   -4.0191   27.8190 C   0  0  0  0  0  0  0  0  0  0  0  0
    5.1733   -4.5469   29.8123 C   0  0  0  0  0  0  0  0  0  0  0  0
   -1.7508  -11.3016   18.6072 C   0  0  0  0  0  0  0  0  0  0  0  0
    1.7497   -5.6771   26.4971 C   0  0  0  0  0  0  0  0  0  0  0  0
   -1.5799   -9.9322   18.3468 C   0  0  0  0  0  0  0  0  0  0  0  0
   -1.0871  -12.2214   17.8851 C   0  0  0  0  0  0  0  0  0  0  0  0
   -2.2706   -8.9669   19.0691 C   0  0  0  0  0  0  0  0  0  0  0  0
    3.0279   -5.3073   26.8197 C   0  0  0  0  0  0  0  0  0  0  0  0
    7.3282   -3.8948   29.1186 C   0  0  0  0  0  0  0  0  0  0  0  0
  1  3  4  0
  1  7  4  0
  2  3  1  0
  2  6  4  0
  2 16  4  0
  3 22  4  0
  4  9  4  0
  4 10  1  0
  4 20  4  0
  5 16  4  0
  5 23  4  0
  6 15  4  0
  7 12  4  0
  8 13  4  0
  8 14  4  0
  9 11  4  0
 11 14  4  0
 11 19  4  0
 12 18  4  0
 13 21  4  0
 15 23  4  0
 17 19  4  0
 17 20  4  0
 18 22  4  0
 19 21  4  0
M  END
$$$$

 Created by Python create_sdf_string function

 23 25  0  0  0  0  0  0  0  0999 V2000
    2.4610   -5.3070   29.1240 C   0  0  0  0  0  0  0  0  0  0  0  0
    4.7710   -4.6952   28.4803 C   0  0  0  0  0  0  0  0  0  0  0  0
    3.4047   -5.1087   28.1314 C   0  0  0  0  0  0  0  0  0  0  0  0
   -0.2234  -11.8615   16.8874 C   0  0  0  0  0  0  0  0  0  0  0  0
    6.4491   -4.1532   30.1213 C   0  0  0  0  0  0  0  0  0  0  0  0
    5.7060   -4.4340   27.4975 C   0  0  0  0  0  0  0  0  0  0  0  0
    1.1818   -5.6612   28.8399 C   0  0  0  0  0  0  0  0  0  0  0  0
   -1.2067   -7.3287   17.7772 C   0  0  0  0  0  0  0  0  0  0  0  0
   -0.0206  -10.5585   16.6210 C   0  0  0  0  0  0  0  0  0  0  0  0
    0.3696  -12.7626   16.2169 O   0  0  0  0  0  0  0  0  0  0  0  0
   -0.6895   -9.5676   17.3297 C   0  0  0  0  0  0  0  0  0  0  0  0
    0.8388   -5.8417   27.5264 C   0  0  0  0  0  0  0  0  0  0  0  0
   -2.0709   -7.6637   18.7817 C   0  0  0  0  0  0  0  0  0  0  0  0
   -0.5279   -8.2168   17.0717 C   0  0  0  0  0  0  0  0  0  0  0  0
    6.9694   -4.0191   27.8190 C   0  0  0  0  0  0  0  0  0  0  0  0
    5.1733   -4.5469   29.8123 C   0  0  0  0  0  0  0  0  0  0  0  0
   -1.7508  -11.3016   18.6072 C   0  0  0  0  0  0  0  0  0  0  0  0
    1.7497   -5.6771   26.4971 C   0  0  0  0  0  0  0  0  0  0  0  0
   -1.5799   -9.9322   18.3468 C   0  0  0  0  0  0  0  0  0  0  0  0
   -1.0871  -12.2214   17.8851 C   0  0  0  0  0  0  0  0  0  0  0  0
   -2.2706   -8.9669   19.0691 C   0  0  0  0  0  0  0  0  0  0  0  0
    3.0279   -5.3073   26.8197 C   0  0  0  0  0  0  0  0  0  0  0  0
    7.3282   -3.8948   29.1186 C   0  0  0  0  0  0  0  0  0  0  0  0
  1  3  4  0
  1  7  4  0
  2  3  1  0
  2  6  4  0
  2 16  4  0
  3 22  4  0
  4  9  4  0
  4 10  1  0
  4 20  4  0
  5 16  4  0
  5 23  4  0
  6 15  4  0
  7 12  4  0
  8 13  4  0
  8 14  4  0
  9 11  4  0
 11 14  4  0
 11 19  4  0
 12 18  4  0
 13 21  4  0
 15 23  4  0
 17 19  4  0
 17 20  4  0
 18 22  4  0
 19 21  4  0
M  END
$$$$

 Created by Python create_sdf_string function

 23 25  0  0  0  0  0  0  0  0999 V2000
    2.4610   -5.3070   29.1240 C   0  0  0  0  0  0  0  0  0  0  0  0
    4.7710   -4.6952   28.4803 C   0  0  0  0  0  0  0  0  0  0  0  0
    3.4047   -5.1087   28.1314 C   0  0  0  0  0  0  0  0  0  0  0  0
   -0.2234  -11.8615   16.8874 C   0  0  0  0  0  0  0  0  0  0  0  0
    6.4491   -4.1532   30.1213 C   0  0  0  0  0  0  0  0  0  0  0  0
    5.7060   -4.4340   27.4975 C   0  0  0  0  0  0  0  0  0  0  0  0
    1.1818   -5.6612   28.8399 C   0  0  0  0  0  0  0  0  0  0  0  0
   -1.2067   -7.3287   17.7772 C   0  0  0  0  0  0  0  0  0  0  0  0
   -0.0206  -10.5585   16.6210 C   0  0  0  0  0  0  0  0  0  0  0  0
    0.3696  -12.7626   16.2169 O   0  0  0  0  0  0  0  0  0  0  0  0
   -0.6895   -9.5676   17.3297 C   0  0  0  0  0  0  0  0  0  0  0  0
    0.8388   -5.8417   27.5264 C   0  0  0  0  0  0  0  0  0  0  0  0
   -2.0709   -7.6637   18.7817 C   0  0  0  0  0  0  0  0  0  0  0  0
   -0.5279   -8.2168   17.0717 C   0  0  0  0  0  0  0  0  0  0  0  0
    6.9694   -4.0191   27.8190 C   0  0  0  0  0  0  0  0  0  0  0  0
    5.1733   -4.5469   29.8123 C   0  0  0  0  0  0  0  0  0  0  0  0
   -1.7508  -11.3016   18.6072 C   0  0  0  0  0  0  0  0  0  0  0  0
    1.7497   -5.6771   26.4971 C   0  0  0  0  0  0  0  0  0  0  0  0
   -1.5799   -9.9322   18.3468 C   0  0  0  0  0  0  0  0  0  0  0  0
   -1.0871  -12.2214   17.8851 C   0  0  0  0  0  0  0  0  0  0  0  0
   -2.2706   -8.9669   19.0691 C   0  0  0  0  0  0  0  0  0  0  0  0
    3.0279   -5.3073   26.8197 C   0  0  0  0  0  0  0  0  0  0  0  0
    7.3282   -3.8948   29.1186 C   0  0  0  0  0  0  0  0  0  0  0  0
  1  3  4  0
  1  7  4  0
  2  3  1  0
  2  6  4  0
  2 16  4  0
  3 22  4  0
  4  9  4  0
  4 10  1  0
  4 20  4  0
  5 16  4  0
  5 23  4  0
  6 15  4  0
  7 12  4  0
  8 13  4  0
  8 14  4  0
  9 11  4  0
 11 14  4  0
 11 19  4  0
 12 18  4  0
 13 21  4  0
 15 23  4  0
 17 19  4  0
 17 20  4  0
 18 22  4  0
 19 21  4  0
M  END
$$$$

 Created by Python create_sdf_string function

 23 25  0  0  0  0  0  0  0  0999 V2000
    2.4610   -5.3070   29.1240 C   0  0  0  0  0  0  0  0  0  0  0  0
    4.7710   -4.6952   28.4803 C   0  0  0  0  0  0  0  0  0  0  0  0
    3.4047   -5.1087   28.1314 C   0  0  0  0  0  0  0  0  0  0  0  0
   -0.2234  -11.8615   16.8874 C   0  0  0  0  0  0  0  0  0  0  0  0
    6.4491   -4.1532   30.1213 C   0  0  0  0  0  0  0  0  0  0  0  0
    5.7060   -4.4340   27.4975 C   0  0  0  0  0  0  0  0  0  0  0  0
    1.1818   -5.6612   28.8399 C   0  0  0  0  0  0  0  0  0  0  0  0
   -1.2067   -7.3287   17.7772 C   0  0  0  0  0  0  0  0  0  0  0  0
   -0.0206  -10.5585   16.6210 C   0  0  0  0  0  0  0  0  0  0  0  0
    0.3696  -12.7626   16.2169 O   0  0  0  0  0  0  0  0  0  0  0  0
   -0.6895   -9.5676   17.3297 C   0  0  0  0  0  0  0  0  0  0  0  0
    0.8388   -5.8417   27.5264 C   0  0  0  0  0  0  0  0  0  0  0  0
   -2.0709   -7.6637   18.7817 C   0  0  0  0  0  0  0  0  0  0  0  0
   -0.5279   -8.2168   17.0717 C   0  0  0  0  0  0  0  0  0  0  0  0
    6.9694   -4.0191   27.8190 C   0  0  0  0  0  0  0  0  0  0  0  0
    5.1733   -4.5469   29.8123 C   0  0  0  0  0  0  0  0  0  0  0  0
   -1.7508  -11.3016   18.6072 C   0  0  0  0  0  0  0  0  0  0  0  0
    1.7497   -5.6771   26.4971 C   0  0  0  0  0  0  0  0  0  0  0  0
   -1.5799   -9.9322   18.3468 C   0  0  0  0  0  0  0  0  0  0  0  0
   -1.0871  -12.2214   17.8851 C   0  0  0  0  0  0  0  0  0  0  0  0
   -2.2706   -8.9669   19.0691 C   0  0  0  0  0  0  0  0  0  0  0  0
    3.0279   -5.3073   26.8197 C   0  0  0  0  0  0  0  0  0  0  0  0
    7.3282   -3.8948   29.1186 C   0  0  0  0  0  0  0  0  0  0  0  0
  1  3  4  0
  1  7  4  0
  2  3  1  0
  2  6  4  0
  2 16  4  0
  3 22  4  0
  4  9  4  0
  4 10  1  0
  4 20  4  0
  5 16  4  0
  5 23  4  0
  6 15  4  0
  7 12  4  0
  8 13  4  0
  8 14  4  0
  9 11  4  0
 11 14  4  0
 11 19  4  0
 12 18  4  0
 13 21  4  0
 15 23  4  0
 17 19  4  0
 17 20  4  0
 18 22  4  0
 19 21  4  0
M  END
$$$$

 Created by Python create_sdf_string function

 23 25  0  0  0  0  0  0  0  0999 V2000
    2.4610   -5.3070   29.1240 C   0  0  0  0  0  0  0  0  0  0  0  0
    4.7710   -4.6952   28.4803 C   0  0  0  0  0  0  0  0  0  0  0  0
    3.4047   -5.1087   28.1314 C   0  0  0  0  0  0  0  0  0  0  0  0
   -0.2234  -11.8615   16.8874 C   0  0  0  0  0  0  0  0  0  0  0  0
    6.4491   -4.1532   30.1213 C   0  0  0  0  0  0  0  0  0  0  0  0
    5.7060   -4.4340   27.4975 C   0  0  0  0  0  0  0  0  0  0  0  0
    1.1818   -5.6612   28.8399 C   0  0  0  0  0  0  0  0  0  0  0  0
   -1.2067   -7.3287   17.7772 C   0  0  0  0  0  0  0  0  0  0  0  0
   -0.0206  -10.5585   16.6210 C   0  0  0  0  0  0  0  0  0  0  0  0
    0.3696  -12.7626   16.2169 O   0  0  0  0  0  0  0  0  0  0  0  0
   -0.6895   -9.5676   17.3297 C   0  0  0  0  0  0  0  0  0  0  0  0
    0.8388   -5.8417   27.5264 C   0  0  0  0  0  0  0  0  0  0  0  0
   -2.0709   -7.6637   18.7817 C   0  0  0  0  0  0  0  0  0  0  0  0
   -0.5279   -8.2168   17.0717 C   0  0  0  0  0  0  0  0  0  0  0  0
    6.9694   -4.0191   27.8190 C   0  0  0  0  0  0  0  0  0  0  0  0
    5.1733   -4.5469   29.8123 C   0  0  0  0  0  0  0  0  0  0  0  0
   -1.7508  -11.3016   18.6072 C   0  0  0  0  0  0  0  0  0  0  0  0
    1.7497   -5.6771   26.4971 C   0  0  0  0  0  0  0  0  0  0  0  0
   -1.5799   -9.9322   18.3468 C   0  0  0  0  0  0  0  0  0  0  0  0
   -1.0871  -12.2214   17.8851 C   0  0  0  0  0  0  0  0  0  0  0  0
   -2.2706   -8.9669   19.0691 C   0  0  0  0  0  0  0  0  0  0  0  0
    3.0279   -5.3073   26.8197 C   0  0  0  0  0  0  0  0  0  0  0  0
    7.3282   -3.8948   29.1186 C   0  0  0  0  0  0  0  0  0  0  0  0
  1  3  4  0
  1  7  4  0
  2  3  1  0
  2  6  4  0
  2 16  4  0
  3 22  4  0
  4  9  4  0
  4 10  1  0
  4 20  4  0
  5 16  4  0
  5 23  4  0
  6 15  4  0
  7 12  4  0
  8 13  4  0
  8 14  4  0
  9 11  4  0
 11 14  4  0
 11 19  4  0
 12 18  4  0
 13 21  4  0
 15 23  4  0
 17 19  4  0
 17 20  4  0
 18 22  4  0
 19 21  4  0
M  END
$$$$

 Created by Python create_sdf_string function

 23 25  0  0  0  0  0  0  0  0999 V2000
    2.4610   -5.3070   29.1240 C   0  0  0  0  0  0  0  0  0  0  0  0
    4.7710   -4.6952   28.4803 C   0  0  0  0  0  0  0  0  0  0  0  0
    3.4047   -5.1087   28.1314 C   0  0  0  0  0  0  0  0  0  0  0  0
   -0.2234  -11.8615   16.8874 C   0  0  0  0  0  0  0  0  0  0  0  0
    6.4491   -4.1532   30.1213 C   0  0  0  0  0  0  0  0  0  0  0  0
    5.7060   -4.4340   27.4975 C   0  0  0  0  0  0  0  0  0  0  0  0
    1.1818   -5.6612   28.8399 C   0  0  0  0  0  0  0  0  0  0  0  0
   -1.2067   -7.3287   17.7772 C   0  0  0  0  0  0  0  0  0  0  0  0
   -0.0206  -10.5585   16.6210 C   0  0  0  0  0  0  0  0  0  0  0  0
    0.3696  -12.7626   16.2169 O   0  0  0  0  0  0  0  0  0  0  0  0
   -0.6895   -9.5676   17.3297 C   0  0  0  0  0  0  0  0  0  0  0  0
    0.8388   -5.8417   27.5264 C   0  0  0  0  0  0  0  0  0  0  0  0
   -2.0709   -7.6637   18.7817 C   0  0  0  0  0  0  0  0  0  0  0  0
   -0.5279   -8.2168   17.0717 C   0  0  0  0  0  0  0  0  0  0  0  0
    6.9694   -4.0191   27.8190 C   0  0  0  0  0  0  0  0  0  0  0  0
    5.1733   -4.5469   29.8123 C   0  0  0  0  0  0  0  0  0  0  0  0
   -1.7508  -11.3016   18.6072 C   0  0  0  0  0  0  0  0  0  0  0  0
    1.7497   -5.6771   26.4971 C   0  0  0  0  0  0  0  0  0  0  0  0
   -1.5799   -9.9322   18.3468 C   0  0  0  0  0  0  0  0  0  0  0  0
   -1.0871  -12.2214   17.8851 C   0  0  0  0  0  0  0  0  0  0  0  0
   -2.2706   -8.9669   19.0691 C   0  0  0  0  0  0  0  0  0  0  0  0
    3.0279   -5.3073   26.8197 C   0  0  0  0  0  0  0  0  0  0  0  0
    7.3282   -3.8948   29.1186 C   0  0  0  0  0  0  0  0  0  0  0  0
  1  3  4  0
  1  7  4  0
  2  3  1  0
  2  6  4  0
  2 16  4  0
  3 22  4  0
  4  9  4  0
  4 10  1  0
  4 20  4  0
  5 16  4  0
  5 23  4  0
  6 15  4  0
  7 12  4  0
  8 13  4  0
  8 14  4  0
  9 11  4  0
 11 14  4  0
 11 19  4  0
 12 18  4  0
 13 21  4  0
 15 23  4  0
 17 19  4  0
 17 20  4  0
 18 22  4  0
 19 21  4  0
M  END
$$$$

 Created by Python create_sdf_string function

 23 25  0  0  0  0  0  0  0  0999 V2000
    2.4610   -5.3070   29.1240 C   0  0  0  0  0  0  0  0  0  0  0  0
    4.7710   -4.6952   28.4803 C   0  0  0  0  0  0  0  0  0  0  0  0
    3.4047   -5.1087   28.1314 C   0  0  0  0  0  0  0  0  0  0  0  0
   -0.2234  -11.8615   16.8874 C   0  0  0  0  0  0  0  0  0  0  0  0
    6.4491   -4.1532   30.1213 C   0  0  0  0  0  0  0  0  0  0  0  0
    5.7060   -4.4340   27.4975 C   0  0  0  0  0  0  0  0  0  0  0  0
    1.1818   -5.6612   28.8399 C   0  0  0  0  0  0  0  0  0  0  0  0
   -1.2067   -7.3287   17.7772 C   0  0  0  0  0  0  0  0  0  0  0  0
   -0.0206  -10.5585   16.6210 C   0  0  0  0  0  0  0  0  0  0  0  0
    0.3696  -12.7626   16.2169 O   0  0  0  0  0  0  0  0  0  0  0  0
   -0.6895   -9.5676   17.3297 C   0  0  0  0  0  0  0  0  0  0  0  0
    0.8388   -5.8417   27.5264 C   0  0  0  0  0  0  0  0  0  0  0  0
   -2.0709   -7.6637   18.7817 C   0  0  0  0  0  0  0  0  0  0  0  0
   -0.5279   -8.2168   17.0717 C   0  0  0  0  0  0  0  0  0  0  0  0
    6.9694   -4.0191   27.8190 C   0  0  0  0  0  0  0  0  0  0  0  0
    5.1733   -4.5469   29.8123 C   0  0  0  0  0  0  0  0  0  0  0  0
   -1.7508  -11.3016   18.6072 C   0  0  0  0  0  0  0  0  0  0  0  0
    1.7497   -5.6771   26.4971 C   0  0  0  0  0  0  0  0  0  0  0  0
   -1.5799   -9.9322   18.3468 C   0  0  0  0  0  0  0  0  0  0  0  0
   -1.0871  -12.2214   17.8851 C   0  0  0  0  0  0  0  0  0  0  0  0
   -2.2706   -8.9669   19.0691 C   0  0  0  0  0  0  0  0  0  0  0  0
    3.0279   -5.3073   26.8197 C   0  0  0  0  0  0  0  0  0  0  0  0
    7.3282   -3.8948   29.1186 C   0  0  0  0  0  0  0  0  0  0  0  0
  1  3  4  0
  1  7  4  0
  2  3  1  0
  2  6  4  0
  2 16  4  0
  3 22  4  0
  4  9  4  0
  4 10  1  0
  4 20  4  0
  5 16  4  0
  5 23  4  0
  6 15  4  0
  7 12  4  0
  8 13  4  0
  8 14  4  0
  9 11  4  0
 11 14  4  0
 11 19  4  0
 12 18  4  0
 13 21  4  0
 15 23  4  0
 17 19  4  0
 17 20  4  0
 18 22  4  0
 19 21  4  0
M  END
$$$$

 Created by Python create_sdf_string function

 23 25  0  0  0  0  0  0  0  0999 V2000
    2.4610   -5.3070   29.1240 C   0  0  0  0  0  0  0  0  0  0  0  0
    4.7710   -4.6952   28.4803 C   0  0  0  0  0  0  0  0  0  0  0  0
    3.4047   -5.1087   28.1314 C   0  0  0  0  0  0  0  0  0  0  0  0
   -0.2234  -11.8615   16.8874 C   0  0  0  0  0  0  0  0  0  0  0  0
    6.4491   -4.1532   30.1213 C   0  0  0  0  0  0  0  0  0  0  0  0
    5.7060   -4.4340   27.4975 C   0  0  0  0  0  0  0  0  0  0  0  0
    1.1818   -5.6612   28.8399 C   0  0  0  0  0  0  0  0  0  0  0  0
   -1.2067   -7.3287   17.7772 C   0  0  0  0  0  0  0  0  0  0  0  0
   -0.0206  -10.5585   16.6210 C   0  0  0  0  0  0  0  0  0  0  0  0
    0.3696  -12.7626   16.2169 O   0  0  0  0  0  0  0  0  0  0  0  0
   -0.6895   -9.5676   17.3297 C   0  0  0  0  0  0  0  0  0  0  0  0
    0.8388   -5.8417   27.5264 C   0  0  0  0  0  0  0  0  0  0  0  0
   -2.0709   -7.6637   18.7817 C   0  0  0  0  0  0  0  0  0  0  0  0
   -0.5279   -8.2168   17.0717 C   0  0  0  0  0  0  0  0  0  0  0  0
    6.9694   -4.0191   27.8190 C   0  0  0  0  0  0  0  0  0  0  0  0
    5.1733   -4.5469   29.8123 C   0  0  0  0  0  0  0  0  0  0  0  0
   -1.7508  -11.3016   18.6072 C   0  0  0  0  0  0  0  0  0  0  0  0
    1.7497   -5.6771   26.4971 C   0  0  0  0  0  0  0  0  0  0  0  0
   -1.5799   -9.9322   18.3468 C   0  0  0  0  0  0  0  0  0  0  0  0
   -1.0871  -12.2214   17.8851 C   0  0  0  0  0  0  0  0  0  0  0  0
   -2.2706   -8.9669   19.0691 C   0  0  0  0  0  0  0  0  0  0  0  0
    3.0279   -5.3073   26.8197 C   0  0  0  0  0  0  0  0  0  0  0  0
    7.3282   -3.8948   29.1186 C   0  0  0  0  0  0  0  0  0  0  0  0
  1  3  4  0
  1  7  4  0
  2  3  1  0
  2  6  4  0
  2 16  4  0
  3 22  4  0
  4  9  4  0
  4 10  1  0
  4 20  4  0
  5 16  4  0
  5 23  4  0
  6 15  4  0
  7 12  4  0
  8 13  4  0
  8 14  4  0
  9 11  4  0
 11 14  4  0
 11 19  4  0
 12 18  4  0
 13 21  4  0
 15 23  4  0
 17 19  4  0
 17 20  4  0
 18 22  4  0
 19 21  4  0
M  END
$$$$

 Created by Python create_sdf_string function

 23 25  0  0  0  0  0  0  0  0999 V2000
    2.4610   -5.3070   29.1240 C   0  0  0  0  0  0  0  0  0  0  0  0
    4.7710   -4.6952   28.4803 C   0  0  0  0  0  0  0  0  0  0  0  0
    3.4047   -5.1087   28.1314 C   0  0  0  0  0  0  0  0  0  0  0  0
   -0.2234  -11.8615   16.8874 C   0  0  0  0  0  0  0  0  0  0  0  0
    6.4491   -4.1532   30.1213 C   0  0  0  0  0  0  0  0  0  0  0  0
    5.7060   -4.4340   27.4975 C   0  0  0  0  0  0  0  0  0  0  0  0
    1.1818   -5.6612   28.8399 C   0  0  0  0  0  0  0  0  0  0  0  0
   -1.2067   -7.3287   17.7772 C   0  0  0  0  0  0  0  0  0  0  0  0
   -0.0206  -10.5585   16.6210 C   0  0  0  0  0  0  0  0  0  0  0  0
    0.3696  -12.7626   16.2169 O   0  0  0  0  0  0  0  0  0  0  0  0
   -0.6895   -9.5676   17.3297 C   0  0  0  0  0  0  0  0  0  0  0  0
    0.8388   -5.8417   27.5264 C   0  0  0  0  0  0  0  0  0  0  0  0
   -2.0709   -7.6637   18.7817 C   0  0  0  0  0  0  0  0  0  0  0  0
   -0.5279   -8.2168   17.0717 C   0  0  0  0  0  0  0  0  0  0  0  0
    6.9694   -4.0191   27.8190 C   0  0  0  0  0  0  0  0  0  0  0  0
    5.1733   -4.5469   29.8123 C   0  0  0  0  0  0  0  0  0  0  0  0
   -1.7508  -11.3016   18.6072 C   0  0  0  0  0  0  0  0  0  0  0  0
    1.7497   -5.6771   26.4971 C   0  0  0  0  0  0  0  0  0  0  0  0
   -1.5799   -9.9322   18.3468 C   0  0  0  0  0  0  0  0  0  0  0  0
   -1.0871  -12.2214   17.8851 C   0  0  0  0  0  0  0  0  0  0  0  0
   -2.2706   -8.9669   19.0691 C   0  0  0  0  0  0  0  0  0  0  0  0
    3.0279   -5.3073   26.8197 C   0  0  0  0  0  0  0  0  0  0  0  0
    7.3282   -3.8948   29.1186 C   0  0  0  0  0  0  0  0  0  0  0  0
  1  3  4  0
  1  7  4  0
  2  3  1  0
  2  6  4  0
  2 16  4  0
  3 22  4  0
  4  9  4  0
  4 10  1  0
  4 20  4  0
  5 16  4  0
  5 23  4  0
  6 15  4  0
  7 12  4  0
  8 13  4  0
  8 14  4  0
  9 11  4  0
 11 14  4  0
 11 19  4  0
 12 18  4  0
 13 21  4  0
 15 23  4  0
 17 19  4  0
 17 20  4  0
 18 22  4  0
 19 21  4  0
M  END
$$$$

 Created by Python create_sdf_string function

 23 25  0  0  0  0  0  0  0  0999 V2000
    2.4610   -5.3070   29.1240 C   0  0  0  0  0  0  0  0  0  0  0  0
    4.7710   -4.6952   28.4803 C   0  0  0  0  0  0  0  0  0  0  0  0
    3.4047   -5.1087   28.1314 C   0  0  0  0  0  0  0  0  0  0  0  0
   -0.2234  -11.8615   16.8874 C   0  0  0  0  0  0  0  0  0  0  0  0
    6.4491   -4.1532   30.1213 C   0  0  0  0  0  0  0  0  0  0  0  0
    5.7060   -4.4340   27.4975 C   0  0  0  0  0  0  0  0  0  0  0  0
    1.1818   -5.6612   28.8399 C   0  0  0  0  0  0  0  0  0  0  0  0
   -1.2067   -7.3287   17.7772 C   0  0  0  0  0  0  0  0  0  0  0  0
   -0.0206  -10.5585   16.6210 C   0  0  0  0  0  0  0  0  0  0  0  0
    0.3696  -12.7626   16.2169 O   0  0  0  0  0  0  0  0  0  0  0  0
   -0.6895   -9.5676   17.3297 C   0  0  0  0  0  0  0  0  0  0  0  0
    0.8388   -5.8417   27.5264 C   0  0  0  0  0  0  0  0  0  0  0  0
   -2.0709   -7.6637   18.7817 C   0  0  0  0  0  0  0  0  0  0  0  0
   -0.5279   -8.2168   17.0717 C   0  0  0  0  0  0  0  0  0  0  0  0
    6.9694   -4.0191   27.8190 C   0  0  0  0  0  0  0  0  0  0  0  0
    5.1733   -4.5469   29.8123 C   0  0  0  0  0  0  0  0  0  0  0  0
   -1.7508  -11.3016   18.6072 C   0  0  0  0  0  0  0  0  0  0  0  0
    1.7497   -5.6771   26.4971 C   0  0  0  0  0  0  0  0  0  0  0  0
   -1.5799   -9.9322   18.3468 C   0  0  0  0  0  0  0  0  0  0  0  0
   -1.0871  -12.2214   17.8851 C   0  0  0  0  0  0  0  0  0  0  0  0
   -2.2706   -8.9669   19.0691 C   0  0  0  0  0  0  0  0  0  0  0  0
    3.0279   -5.3073   26.8197 C   0  0  0  0  0  0  0  0  0  0  0  0
    7.3282   -3.8948   29.1186 C   0  0  0  0  0  0  0  0  0  0  0  0
  1  3  4  0
  1  7  4  0
  2  3  1  0
  2  6  4  0
  2 16  4  0
  3 22  4  0
  4  9  4  0
  4 10  1  0
  4 20  4  0
  5 16  4  0
  5 23  4  0
  6 15  4  0
  7 12  4  0
  8 13  4  0
  8 14  4  0
  9 11  4  0
 11 14  4  0
 11 19  4  0
 12 18  4  0
 13 21  4  0
 15 23  4  0
 17 19  4  0
 17 20  4  0
 18 22  4  0
 19 21  4  0
M  END
$$$$

 Created by Python create_sdf_string function

 23 25  0  0  0  0  0  0  0  0999 V2000
    2.4610   -5.3070   29.1240 C   0  0  0  0  0  0  0  0  0  0  0  0
    4.7710   -4.6952   28.4803 C   0  0  0  0  0  0  0  0  0  0  0  0
    3.4047   -5.1087   28.1314 C   0  0  0  0  0  0  0  0  0  0  0  0
   -0.2234  -11.8615   16.8874 C   0  0  0  0  0  0  0  0  0  0  0  0
    6.4491   -4.1532   30.1213 C   0  0  0  0  0  0  0  0  0  0  0  0
    5.7060   -4.4340   27.4975 C   0  0  0  0  0  0  0  0  0  0  0  0
    1.1818   -5.6612   28.8399 C   0  0  0  0  0  0  0  0  0  0  0  0
   -1.2067   -7.3287   17.7772 C   0  0  0  0  0  0  0  0  0  0  0  0
   -0.0206  -10.5585   16.6210 C   0  0  0  0  0  0  0  0  0  0  0  0
    0.3696  -12.7626   16.2169 O   0  0  0  0  0  0  0  0  0  0  0  0
   -0.6895   -9.5676   17.3297 C   0  0  0  0  0  0  0  0  0  0  0  0
    0.8388   -5.8417   27.5264 C   0  0  0  0  0  0  0  0  0  0  0  0
   -2.0709   -7.6637   18.7817 C   0  0  0  0  0  0  0  0  0  0  0  0
   -0.5279   -8.2168   17.0717 C   0  0  0  0  0  0  0  0  0  0  0  0
    6.9694   -4.0191   27.8190 C   0  0  0  0  0  0  0  0  0  0  0  0
    5.1733   -4.5469   29.8123 C   0  0  0  0  0  0  0  0  0  0  0  0
   -1.7508  -11.3016   18.6072 C   0  0  0  0  0  0  0  0  0  0  0  0
    1.7497   -5.6771   26.4971 C   0  0  0  0  0  0  0  0  0  0  0  0
   -1.5799   -9.9322   18.3468 C   0  0  0  0  0  0  0  0  0  0  0  0
   -1.0871  -12.2214   17.8851 C   0  0  0  0  0  0  0  0  0  0  0  0
   -2.2706   -8.9669   19.0691 C   0  0  0  0  0  0  0  0  0  0  0  0
    3.0279   -5.3073   26.8197 C   0  0  0  0  0  0  0  0  0  0  0  0
    7.3282   -3.8948   29.1186 C   0  0  0  0  0  0  0  0  0  0  0  0
  1  3  4  0
  1  7  4  0
  2  3  1  0
  2  6  4  0
  2 16  4  0
  3 22  4  0
  4  9  4  0
  4 10  1  0
  4 20  4  0
  5 16  4  0
  5 23  4  0
  6 15  4  0
  7 12  4  0
  8 13  4  0
  8 14  4  0
  9 11  4  0
 11 14  4  0
 11 19  4  0
 12 18  4  0
 13 21  4  0
 15 23  4  0
 17 19  4  0
 17 20  4  0
 18 22  4  0
 19 21  4  0
M  END
$$$$

 Created by Python create_sdf_string function

 23 25  0  0  0  0  0  0  0  0999 V2000
    2.4610   -5.3070   29.1240 C   0  0  0  0  0  0  0  0  0  0  0  0
    4.7710   -4.6952   28.4803 C   0  0  0  0  0  0  0  0  0  0  0  0
    3.4047   -5.1087   28.1314 C   0  0  0  0  0  0  0  0  0  0  0  0
   -0.2234  -11.8615   16.8874 C   0  0  0  0  0  0  0  0  0  0  0  0
    6.4491   -4.1532   30.1213 C   0  0  0  0  0  0  0  0  0  0  0  0
    5.7060   -4.4340   27.4975 C   0  0  0  0  0  0  0  0  0  0  0  0
    1.1818   -5.6612   28.8399 C   0  0  0  0  0  0  0  0  0  0  0  0
   -1.2067   -7.3287   17.7772 C   0  0  0  0  0  0  0  0  0  0  0  0
   -0.0206  -10.5585   16.6210 C   0  0  0  0  0  0  0  0  0  0  0  0
    0.3696  -12.7626   16.2169 O   0  0  0  0  0  0  0  0  0  0  0  0
   -0.6895   -9.5676   17.3297 C   0  0  0  0  0  0  0  0  0  0  0  0
    0.8388   -5.8417   27.5264 C   0  0  0  0  0  0  0  0  0  0  0  0
   -2.0709   -7.6637   18.7817 C   0  0  0  0  0  0  0  0  0  0  0  0
   -0.5279   -8.2168   17.0717 C   0  0  0  0  0  0  0  0  0  0  0  0
    6.9694   -4.0191   27.8190 C   0  0  0  0  0  0  0  0  0  0  0  0
    5.1733   -4.5469   29.8123 C   0  0  0  0  0  0  0  0  0  0  0  0
   -1.7508  -11.3016   18.6072 C   0  0  0  0  0  0  0  0  0  0  0  0
    1.7497   -5.6771   26.4971 C   0  0  0  0  0  0  0  0  0  0  0  0
   -1.5799   -9.9322   18.3468 C   0  0  0  0  0  0  0  0  0  0  0  0
   -1.0871  -12.2214   17.8851 C   0  0  0  0  0  0  0  0  0  0  0  0
   -2.2706   -8.9669   19.0691 C   0  0  0  0  0  0  0  0  0  0  0  0
    3.0279   -5.3073   26.8197 C   0  0  0  0  0  0  0  0  0  0  0  0
    7.3282   -3.8948   29.1186 C   0  0  0  0  0  0  0  0  0  0  0  0
  1  3  4  0
  1  7  4  0
  2  3  1  0
  2  6  4  0
  2 16  4  0
  3 22  4  0
  4  9  4  0
  4 10  1  0
  4 20  4  0
  5 16  4  0
  5 23  4  0
  6 15  4  0
  7 12  4  0
  8 13  4  0
  8 14  4  0
  9 11  4  0
 11 14  4  0
 11 19  4  0
 12 18  4  0
 13 21  4  0
 15 23  4  0
 17 19  4  0
 17 20  4  0
 18 22  4  0
 19 21  4  0
M  END
$$$$

 Created by Python create_sdf_string function

 23 25  0  0  0  0  0  0  0  0999 V2000
    2.4610   -5.3070   29.1240 C   0  0  0  0  0  0  0  0  0  0  0  0
    4.7710   -4.6952   28.4803 C   0  0  0  0  0  0  0  0  0  0  0  0
    3.4047   -5.1087   28.1314 C   0  0  0  0  0  0  0  0  0  0  0  0
   -0.2234  -11.8615   16.8874 C   0  0  0  0  0  0  0  0  0  0  0  0
    6.4491   -4.1532   30.1213 C   0  0  0  0  0  0  0  0  0  0  0  0
    5.7060   -4.4340   27.4975 C   0  0  0  0  0  0  0  0  0  0  0  0
    1.1818   -5.6612   28.8399 C   0  0  0  0  0  0  0  0  0  0  0  0
   -1.2067   -7.3287   17.7772 C   0  0  0  0  0  0  0  0  0  0  0  0
   -0.0206  -10.5585   16.6210 C   0  0  0  0  0  0  0  0  0  0  0  0
    0.3696  -12.7626   16.2169 O   0  0  0  0  0  0  0  0  0  0  0  0
   -0.6895   -9.5676   17.3297 C   0  0  0  0  0  0  0  0  0  0  0  0
    0.8388   -5.8417   27.5264 C   0  0  0  0  0  0  0  0  0  0  0  0
   -2.0709   -7.6637   18.7817 C   0  0  0  0  0  0  0  0  0  0  0  0
   -0.5279   -8.2168   17.0717 C   0  0  0  0  0  0  0  0  0  0  0  0
    6.9694   -4.0191   27.8190 C   0  0  0  0  0  0  0  0  0  0  0  0
    5.1733   -4.5469   29.8123 C   0  0  0  0  0  0  0  0  0  0  0  0
   -1.7508  -11.3016   18.6072 C   0  0  0  0  0  0  0  0  0  0  0  0
    1.7497   -5.6771   26.4971 C   0  0  0  0  0  0  0  0  0  0  0  0
   -1.5799   -9.9322   18.3468 C   0  0  0  0  0  0  0  0  0  0  0  0
   -1.0871  -12.2214   17.8851 C   0  0  0  0  0  0  0  0  0  0  0  0
   -2.2706   -8.9669   19.0691 C   0  0  0  0  0  0  0  0  0  0  0  0
    3.0279   -5.3073   26.8197 C   0  0  0  0  0  0  0  0  0  0  0  0
    7.3282   -3.8948   29.1186 C   0  0  0  0  0  0  0  0  0  0  0  0
  1  3  4  0
  1  7  4  0
  2  3  1  0
  2  6  4  0
  2 16  4  0
  3 22  4  0
  4  9  4  0
  4 10  1  0
  4 20  4  0
  5 16  4  0
  5 23  4  0
  6 15  4  0
  7 12  4  0
  8 13  4  0
  8 14  4  0
  9 11  4  0
 11 14  4  0
 11 19  4  0
 12 18  4  0
 13 21  4  0
 15 23  4  0
 17 19  4  0
 17 20  4  0
 18 22  4  0
 19 21  4  0
M  END
$$$$

 Created by Python create_sdf_string function

 23 25  0  0  0  0  0  0  0  0999 V2000
    2.4610   -5.3070   29.1240 C   0  0  0  0  0  0  0  0  0  0  0  0
    4.7710   -4.6952   28.4803 C   0  0  0  0  0  0  0  0  0  0  0  0
    3.4047   -5.1087   28.1314 C   0  0  0  0  0  0  0  0  0  0  0  0
   -0.2234  -11.8615   16.8874 C   0  0  0  0  0  0  0  0  0  0  0  0
    6.4491   -4.1532   30.1213 C   0  0  0  0  0  0  0  0  0  0  0  0
    5.7060   -4.4340   27.4975 C   0  0  0  0  0  0  0  0  0  0  0  0
    1.1818   -5.6612   28.8399 C   0  0  0  0  0  0  0  0  0  0  0  0
   -1.2067   -7.3287   17.7772 C   0  0  0  0  0  0  0  0  0  0  0  0
   -0.0206  -10.5585   16.6210 C   0  0  0  0  0  0  0  0  0  0  0  0
    0.3696  -12.7626   16.2169 O   0  0  0  0  0  0  0  0  0  0  0  0
   -0.6895   -9.5676   17.3297 C   0  0  0  0  0  0  0  0  0  0  0  0
    0.8388   -5.8417   27.5264 C   0  0  0  0  0  0  0  0  0  0  0  0
   -2.0709   -7.6637   18.7817 C   0  0  0  0  0  0  0  0  0  0  0  0
   -0.5279   -8.2168   17.0717 C   0  0  0  0  0  0  0  0  0  0  0  0
    6.9694   -4.0191   27.8190 C   0  0  0  0  0  0  0  0  0  0  0  0
    5.1733   -4.5469   29.8123 C   0  0  0  0  0  0  0  0  0  0  0  0
   -1.7508  -11.3016   18.6072 C   0  0  0  0  0  0  0  0  0  0  0  0
    1.7497   -5.6771   26.4971 C   0  0  0  0  0  0  0  0  0  0  0  0
   -1.5799   -9.9322   18.3468 C   0  0  0  0  0  0  0  0  0  0  0  0
   -1.0871  -12.2214   17.8851 C   0  0  0  0  0  0  0  0  0  0  0  0
   -2.2706   -8.9669   19.0691 C   0  0  0  0  0  0  0  0  0  0  0  0
    3.0279   -5.3073   26.8197 C   0  0  0  0  0  0  0  0  0  0  0  0
    7.3282   -3.8948   29.1186 C   0  0  0  0  0  0  0  0  0  0  0  0
  1  3  4  0
  1  7  4  0
  2  3  1  0
  2  6  4  0
  2 16  4  0
  3 22  4  0
  4  9  4  0
  4 10  1  0
  4 20  4  0
  5 16  4  0
  5 23  4  0
  6 15  4  0
  7 12  4  0
  8 13  4  0
  8 14  4  0
  9 11  4  0
 11 14  4  0
 11 19  4  0
 12 18  4  0
 13 21  4  0
 15 23  4  0
 17 19  4  0
 17 20  4  0
 18 22  4  0
 19 21  4  0
M  END
$$$$

 Created by Python create_sdf_string function

 23 25  0  0  0  0  0  0  0  0999 V2000
    2.4610   -5.3070   29.1240 C   0  0  0  0  0  0  0  0  0  0  0  0
    4.7710   -4.6952   28.4803 C   0  0  0  0  0  0  0  0  0  0  0  0
    3.4047   -5.1087   28.1314 C   0  0  0  0  0  0  0  0  0  0  0  0
   -0.2234  -11.8615   16.8874 C   0  0  0  0  0  0  0  0  0  0  0  0
    6.4491   -4.1532   30.1213 C   0  0  0  0  0  0  0  0  0  0  0  0
    5.7060   -4.4340   27.4975 C   0  0  0  0  0  0  0  0  0  0  0  0
    1.1818   -5.6612   28.8399 C   0  0  0  0  0  0  0  0  0  0  0  0
   -1.2067   -7.3287   17.7772 C   0  0  0  0  0  0  0  0  0  0  0  0
   -0.0206  -10.5585   16.6210 C   0  0  0  0  0  0  0  0  0  0  0  0
    0.3696  -12.7626   16.2169 O   0  0  0  0  0  0  0  0  0  0  0  0
   -0.6895   -9.5676   17.3297 C   0  0  0  0  0  0  0  0  0  0  0  0
    0.8388   -5.8417   27.5264 C   0  0  0  0  0  0  0  0  0  0  0  0
   -2.0709   -7.6637   18.7817 C   0  0  0  0  0  0  0  0  0  0  0  0
   -0.5279   -8.2168   17.0717 C   0  0  0  0  0  0  0  0  0  0  0  0
    6.9694   -4.0191   27.8190 C   0  0  0  0  0  0  0  0  0  0  0  0
    5.1733   -4.5469   29.8123 C   0  0  0  0  0  0  0  0  0  0  0  0
   -1.7508  -11.3016   18.6072 C   0  0  0  0  0  0  0  0  0  0  0  0
    1.7497   -5.6771   26.4971 C   0  0  0  0  0  0  0  0  0  0  0  0
   -1.5799   -9.9322   18.3468 C   0  0  0  0  0  0  0  0  0  0  0  0
   -1.0871  -12.2214   17.8851 C   0  0  0  0  0  0  0  0  0  0  0  0
   -2.2706   -8.9669   19.0691 C   0  0  0  0  0  0  0  0  0  0  0  0
    3.0279   -5.3073   26.8197 C   0  0  0  0  0  0  0  0  0  0  0  0
    7.3282   -3.8948   29.1186 C   0  0  0  0  0  0  0  0  0  0  0  0
  1  3  4  0
  1  7  4  0
  2  3  1  0
  2  6  4  0
  2 16  4  0
  3 22  4  0
  4  9  4  0
  4 10  1  0
  4 20  4  0
  5 16  4  0
  5 23  4  0
  6 15  4  0
  7 12  4  0
  8 13  4  0
  8 14  4  0
  9 11  4  0
 11 14  4  0
 11 19  4  0
 12 18  4  0
 13 21  4  0
 15 23  4  0
 17 19  4  0
 17 20  4  0
 18 22  4  0
 19 21  4  0
M  END
$$$$

 Created by Python create_sdf_string function

 23 25  0  0  0  0  0  0  0  0999 V2000
    2.4610   -5.3070   29.1240 C   0  0  0  0  0  0  0  0  0  0  0  0
    4.7710   -4.6952   28.4803 C   0  0  0  0  0  0  0  0  0  0  0  0
    3.4047   -5.1087   28.1314 C   0  0  0  0  0  0  0  0  0  0  0  0
   -0.2234  -11.8615   16.8874 C   0  0  0  0  0  0  0  0  0  0  0  0
    6.4491   -4.1532   30.1213 C   0  0  0  0  0  0  0  0  0  0  0  0
    5.7060   -4.4340   27.4975 C   0  0  0  0  0  0  0  0  0  0  0  0
    1.1818   -5.6612   28.8399 C   0  0  0  0  0  0  0  0  0  0  0  0
   -1.2067   -7.3287   17.7772 C   0  0  0  0  0  0  0  0  0  0  0  0
   -0.0206  -10.5585   16.6210 C   0  0  0  0  0  0  0  0  0  0  0  0
    0.3696  -12.7626   16.2169 O   0  0  0  0  0  0  0  0  0  0  0  0
   -0.6895   -9.5676   17.3297 C   0  0  0  0  0  0  0  0  0  0  0  0
    0.8388   -5.8417   27.5264 C   0  0  0  0  0  0  0  0  0  0  0  0
   -2.0709   -7.6637   18.7817 C   0  0  0  0  0  0  0  0  0  0  0  0
   -0.5279   -8.2168   17.0717 C   0  0  0  0  0  0  0  0  0  0  0  0
    6.9694   -4.0191   27.8190 C   0  0  0  0  0  0  0  0  0  0  0  0
    5.1733   -4.5469   29.8123 C   0  0  0  0  0  0  0  0  0  0  0  0
   -1.7508  -11.3016   18.6072 C   0  0  0  0  0  0  0  0  0  0  0  0
    1.7497   -5.6771   26.4971 C   0  0  0  0  0  0  0  0  0  0  0  0
   -1.5799   -9.9322   18.3468 C   0  0  0  0  0  0  0  0  0  0  0  0
   -1.0871  -12.2214   17.8851 C   0  0  0  0  0  0  0  0  0  0  0  0
   -2.2706   -8.9669   19.0691 C   0  0  0  0  0  0  0  0  0  0  0  0
    3.0279   -5.3073   26.8197 C   0  0  0  0  0  0  0  0  0  0  0  0
    7.3282   -3.8948   29.1186 C   0  0  0  0  0  0  0  0  0  0  0  0
  1  3  4  0
  1  7  4  0
  2  3  1  0
  2  6  4  0
  2 16  4  0
  3 22  4  0
  4  9  4  0
  4 10  1  0
  4 20  4  0
  5 16  4  0
  5 23  4  0
  6 15  4  0
  7 12  4  0
  8 13  4  0
  8 14  4  0
  9 11  4  0
 11 14  4  0
 11 19  4  0
 12 18  4  0
 13 21  4  0
 15 23  4  0
 17 19  4  0
 17 20  4  0
 18 22  4  0
 19 21  4  0
M  END
$$$$

 Created by Python create_sdf_string function

 23 25  0  0  0  0  0  0  0  0999 V2000
    2.4610   -5.3070   29.1240 C   0  0  0  0  0  0  0  0  0  0  0  0
    4.7710   -4.6952   28.4803 C   0  0  0  0  0  0  0  0  0  0  0  0
    3.4047   -5.1087   28.1314 C   0  0  0  0  0  0  0  0  0  0  0  0
   -0.2234  -11.8615   16.8874 C   0  0  0  0  0  0  0  0  0  0  0  0
    6.4491   -4.1532   30.1213 C   0  0  0  0  0  0  0  0  0  0  0  0
    5.7060   -4.4340   27.4975 C   0  0  0  0  0  0  0  0  0  0  0  0
    1.1818   -5.6612   28.8399 C   0  0  0  0  0  0  0  0  0  0  0  0
   -1.2067   -7.3287   17.7772 C   0  0  0  0  0  0  0  0  0  0  0  0
   -0.0206  -10.5585   16.6210 C   0  0  0  0  0  0  0  0  0  0  0  0
    0.3696  -12.7626   16.2169 O   0  0  0  0  0  0  0  0  0  0  0  0
   -0.6895   -9.5676   17.3297 C   0  0  0  0  0  0  0  0  0  0  0  0
    0.8388   -5.8417   27.5264 C   0  0  0  0  0  0  0  0  0  0  0  0
   -2.0709   -7.6637   18.7817 C   0  0  0  0  0  0  0  0  0  0  0  0
   -0.5279   -8.2168   17.0717 C   0  0  0  0  0  0  0  0  0  0  0  0
    6.9694   -4.0191   27.8190 C   0  0  0  0  0  0  0  0  0  0  0  0
    5.1733   -4.5469   29.8123 C   0  0  0  0  0  0  0  0  0  0  0  0
   -1.7508  -11.3016   18.6072 C   0  0  0  0  0  0  0  0  0  0  0  0
    1.7497   -5.6771   26.4971 C   0  0  0  0  0  0  0  0  0  0  0  0
   -1.5799   -9.9322   18.3468 C   0  0  0  0  0  0  0  0  0  0  0  0
   -1.0871  -12.2214   17.8851 C   0  0  0  0  0  0  0  0  0  0  0  0
   -2.2706   -8.9669   19.0691 C   0  0  0  0  0  0  0  0  0  0  0  0
    3.0279   -5.3073   26.8197 C   0  0  0  0  0  0  0  0  0  0  0  0
    7.3282   -3.8948   29.1186 C   0  0  0  0  0  0  0  0  0  0  0  0
  1  3  4  0
  1  7  4  0
  2  3  1  0
  2  6  4  0
  2 16  4  0
  3 22  4  0
  4  9  4  0
  4 10  1  0
  4 20  4  0
  5 16  4  0
  5 23  4  0
  6 15  4  0
  7 12  4  0
  8 13  4  0
  8 14  4  0
  9 11  4  0
 11 14  4  0
 11 19  4  0
 12 18  4  0
 13 21  4  0
 15 23  4  0
 17 19  4  0
 17 20  4  0
 18 22  4  0
 19 21  4  0
M  END
$$$$

 Created by Python create_sdf_string function

 23 25  0  0  0  0  0  0  0  0999 V2000
    2.4610   -5.3070   29.1240 C   0  0  0  0  0  0  0  0  0  0  0  0
    4.7710   -4.6952   28.4803 C   0  0  0  0  0  0  0  0  0  0  0  0
    3.4047   -5.1087   28.1314 C   0  0  0  0  0  0  0  0  0  0  0  0
   -0.2234  -11.8615   16.8874 C   0  0  0  0  0  0  0  0  0  0  0  0
    6.4491   -4.1532   30.1213 C   0  0  0  0  0  0  0  0  0  0  0  0
    5.7060   -4.4340   27.4975 C   0  0  0  0  0  0  0  0  0  0  0  0
    1.1818   -5.6612   28.8399 C   0  0  0  0  0  0  0  0  0  0  0  0
   -1.2067   -7.3287   17.7772 C   0  0  0  0  0  0  0  0  0  0  0  0
   -0.0206  -10.5585   16.6210 C   0  0  0  0  0  0  0  0  0  0  0  0
    0.3696  -12.7626   16.2169 O   0  0  0  0  0  0  0  0  0  0  0  0
   -0.6895   -9.5676   17.3297 C   0  0  0  0  0  0  0  0  0  0  0  0
    0.8388   -5.8417   27.5264 C   0  0  0  0  0  0  0  0  0  0  0  0
   -2.0709   -7.6637   18.7817 C   0  0  0  0  0  0  0  0  0  0  0  0
   -0.5279   -8.2168   17.0717 C   0  0  0  0  0  0  0  0  0  0  0  0
    6.9694   -4.0191   27.8190 C   0  0  0  0  0  0  0  0  0  0  0  0
    5.1733   -4.5469   29.8123 C   0  0  0  0  0  0  0  0  0  0  0  0
   -1.7508  -11.3016   18.6072 C   0  0  0  0  0  0  0  0  0  0  0  0
    1.7497   -5.6771   26.4971 C   0  0  0  0  0  0  0  0  0  0  0  0
   -1.5799   -9.9322   18.3468 C   0  0  0  0  0  0  0  0  0  0  0  0
   -1.0871  -12.2214   17.8851 C   0  0  0  0  0  0  0  0  0  0  0  0
   -2.2706   -8.9669   19.0691 C   0  0  0  0  0  0  0  0  0  0  0  0
    3.0279   -5.3073   26.8197 C   0  0  0  0  0  0  0  0  0  0  0  0
    7.3282   -3.8948   29.1186 C   0  0  0  0  0  0  0  0  0  0  0  0
  1  3  4  0
  1  7  4  0
  2  3  1  0
  2  6  4  0
  2 16  4  0
  3 22  4  0
  4  9  4  0
  4 10  1  0
  4 20  4  0
  5 16  4  0
  5 23  4  0
  6 15  4  0
  7 12  4  0
  8 13  4  0
  8 14  4  0
  9 11  4  0
 11 14  4  0
 11 19  4  0
 12 18  4  0
 13 21  4  0
 15 23  4  0
 17 19  4  0
 17 20  4  0
 18 22  4  0
 19 21  4  0
M  END
$$$$

 Created by Python create_sdf_string function

 23 25  0  0  0  0  0  0  0  0999 V2000
    2.4610   -5.3070   29.1240 C   0  0  0  0  0  0  0  0  0  0  0  0
    4.7710   -4.6952   28.4803 C   0  0  0  0  0  0  0  0  0  0  0  0
    3.4047   -5.1087   28.1314 C   0  0  0  0  0  0  0  0  0  0  0  0
   -0.2234  -11.8615   16.8874 C   0  0  0  0  0  0  0  0  0  0  0  0
    6.4491   -4.1532   30.1213 C   0  0  0  0  0  0  0  0  0  0  0  0
    5.7060   -4.4340   27.4975 C   0  0  0  0  0  0  0  0  0  0  0  0
    1.1818   -5.6612   28.8399 C   0  0  0  0  0  0  0  0  0  0  0  0
   -1.2067   -7.3287   17.7772 C   0  0  0  0  0  0  0  0  0  0  0  0
   -0.0206  -10.5585   16.6210 C   0  0  0  0  0  0  0  0  0  0  0  0
    0.3696  -12.7626   16.2169 O   0  0  0  0  0  0  0  0  0  0  0  0
   -0.6895   -9.5676   17.3297 C   0  0  0  0  0  0  0  0  0  0  0  0
    0.8388   -5.8417   27.5264 C   0  0  0  0  0  0  0  0  0  0  0  0
   -2.0709   -7.6637   18.7817 C   0  0  0  0  0  0  0  0  0  0  0  0
   -0.5279   -8.2168   17.0717 C   0  0  0  0  0  0  0  0  0  0  0  0
    6.9694   -4.0191   27.8190 C   0  0  0  0  0  0  0  0  0  0  0  0
    5.1733   -4.5469   29.8123 C   0  0  0  0  0  0  0  0  0  0  0  0
   -1.7508  -11.3016   18.6072 C   0  0  0  0  0  0  0  0  0  0  0  0
    1.7497   -5.6771   26.4971 C   0  0  0  0  0  0  0  0  0  0  0  0
   -1.5799   -9.9322   18.3468 C   0  0  0  0  0  0  0  0  0  0  0  0
   -1.0871  -12.2214   17.8851 C   0  0  0  0  0  0  0  0  0  0  0  0
   -2.2706   -8.9669   19.0691 C   0  0  0  0  0  0  0  0  0  0  0  0
    3.0279   -5.3073   26.8197 C   0  0  0  0  0  0  0  0  0  0  0  0
    7.3282   -3.8948   29.1186 C   0  0  0  0  0  0  0  0  0  0  0  0
  1  3  4  0
  1  7  4  0
  2  3  1  0
  2  6  4  0
  2 16  4  0
  3 22  4  0
  4  9  4  0
  4 10  1  0
  4 20  4  0
  5 16  4  0
  5 23  4  0
  6 15  4  0
  7 12  4  0
  8 13  4  0
  8 14  4  0
  9 11  4  0
 11 14  4  0
 11 19  4  0
 12 18  4  0
 13 21  4  0
 15 23  4  0
 17 19  4  0
 17 20  4  0
 18 22  4  0
 19 21  4  0
M  END
$$$$

 Created by Python create_sdf_string function

 23 25  0  0  0  0  0  0  0  0999 V2000
    2.4610   -5.3070   29.1240 C   0  0  0  0  0  0  0  0  0  0  0  0
    4.7710   -4.6952   28.4803 C   0  0  0  0  0  0  0  0  0  0  0  0
    3.4047   -5.1087   28.1314 C   0  0  0  0  0  0  0  0  0  0  0  0
   -0.2234  -11.8615   16.8874 C   0  0  0  0  0  0  0  0  0  0  0  0
    6.4491   -4.1532   30.1213 C   0  0  0  0  0  0  0  0  0  0  0  0
    5.7060   -4.4340   27.4975 C   0  0  0  0  0  0  0  0  0  0  0  0
    1.1818   -5.6612   28.8399 C   0  0  0  0  0  0  0  0  0  0  0  0
   -1.2067   -7.3287   17.7772 C   0  0  0  0  0  0  0  0  0  0  0  0
   -0.0206  -10.5585   16.6210 C   0  0  0  0  0  0  0  0  0  0  0  0
    0.3696  -12.7626   16.2169 O   0  0  0  0  0  0  0  0  0  0  0  0
   -0.6895   -9.5676   17.3297 C   0  0  0  0  0  0  0  0  0  0  0  0
    0.8388   -5.8417   27.5264 C   0  0  0  0  0  0  0  0  0  0  0  0
   -2.0709   -7.6637   18.7817 C   0  0  0  0  0  0  0  0  0  0  0  0
   -0.5279   -8.2168   17.0717 C   0  0  0  0  0  0  0  0  0  0  0  0
    6.9694   -4.0191   27.8190 C   0  0  0  0  0  0  0  0  0  0  0  0
    5.1733   -4.5469   29.8123 C   0  0  0  0  0  0  0  0  0  0  0  0
   -1.7508  -11.3016   18.6072 C   0  0  0  0  0  0  0  0  0  0  0  0
    1.7497   -5.6771   26.4971 C   0  0  0  0  0  0  0  0  0  0  0  0
   -1.5799   -9.9322   18.3468 C   0  0  0  0  0  0  0  0  0  0  0  0
   -1.0871  -12.2214   17.8851 C   0  0  0  0  0  0  0  0  0  0  0  0
   -2.2706   -8.9669   19.0691 C   0  0  0  0  0  0  0  0  0  0  0  0
    3.0279   -5.3073   26.8197 C   0  0  0  0  0  0  0  0  0  0  0  0
    7.3282   -3.8948   29.1186 C   0  0  0  0  0  0  0  0  0  0  0  0
  1  3  4  0
  1  7  4  0
  2  3  1  0
  2  6  4  0
  2 16  4  0
  3 22  4  0
  4  9  4  0
  4 10  1  0
  4 20  4  0
  5 16  4  0
  5 23  4  0
  6 15  4  0
  7 12  4  0
  8 13  4  0
  8 14  4  0
  9 11  4  0
 11 14  4  0
 11 19  4  0
 12 18  4  0
 13 21  4  0
 15 23  4  0
 17 19  4  0
 17 20  4  0
 18 22  4  0
 19 21  4  0
M  END
$$$$

 Created by Python create_sdf_string function

 23 25  0  0  0  0  0  0  0  0999 V2000
    2.4610   -5.3070   29.1240 C   0  0  0  0  0  0  0  0  0  0  0  0
    4.7710   -4.6952   28.4803 C   0  0  0  0  0  0  0  0  0  0  0  0
    3.4047   -5.1087   28.1314 C   0  0  0  0  0  0  0  0  0  0  0  0
   -0.2234  -11.8615   16.8874 C   0  0  0  0  0  0  0  0  0  0  0  0
    6.4491   -4.1532   30.1213 C   0  0  0  0  0  0  0  0  0  0  0  0
    5.7060   -4.4340   27.4975 C   0  0  0  0  0  0  0  0  0  0  0  0
    1.1818   -5.6612   28.8399 C   0  0  0  0  0  0  0  0  0  0  0  0
   -1.2067   -7.3287   17.7772 C   0  0  0  0  0  0  0  0  0  0  0  0
   -0.0206  -10.5585   16.6210 C   0  0  0  0  0  0  0  0  0  0  0  0
    0.3696  -12.7626   16.2169 O   0  0  0  0  0  0  0  0  0  0  0  0
   -0.6895   -9.5676   17.3297 C   0  0  0  0  0  0  0  0  0  0  0  0
    0.8388   -5.8417   27.5264 C   0  0  0  0  0  0  0  0  0  0  0  0
   -2.0709   -7.6637   18.7817 C   0  0  0  0  0  0  0  0  0  0  0  0
   -0.5279   -8.2168   17.0717 C   0  0  0  0  0  0  0  0  0  0  0  0
    6.9694   -4.0191   27.8190 C   0  0  0  0  0  0  0  0  0  0  0  0
    5.1733   -4.5469   29.8123 C   0  0  0  0  0  0  0  0  0  0  0  0
   -1.7508  -11.3016   18.6072 C   0  0  0  0  0  0  0  0  0  0  0  0
    1.7497   -5.6771   26.4971 C   0  0  0  0  0  0  0  0  0  0  0  0
   -1.5799   -9.9322   18.3468 C   0  0  0  0  0  0  0  0  0  0  0  0
   -1.0871  -12.2214   17.8851 C   0  0  0  0  0  0  0  0  0  0  0  0
   -2.2706   -8.9669   19.0691 C   0  0  0  0  0  0  0  0  0  0  0  0
    3.0279   -5.3073   26.8197 C   0  0  0  0  0  0  0  0  0  0  0  0
    7.3282   -3.8948   29.1186 C   0  0  0  0  0  0  0  0  0  0  0  0
  1  3  4  0
  1  7  4  0
  2  3  1  0
  2  6  4  0
  2 16  4  0
  3 22  4  0
  4  9  4  0
  4 10  1  0
  4 20  4  0
  5 16  4  0
  5 23  4  0
  6 15  4  0
  7 12  4  0
  8 13  4  0
  8 14  4  0
  9 11  4  0
 11 14  4  0
 11 19  4  0
 12 18  4  0
 13 21  4  0
 15 23  4  0
 17 19  4  0
 17 20  4  0
 18 22  4  0
 19 21  4  0
M  END
$$$$

 Created by Python create_sdf_string function

 23 25  0  0  0  0  0  0  0  0999 V2000
    2.4610   -5.3070   29.1240 C   0  0  0  0  0  0  0  0  0  0  0  0
    4.7710   -4.6952   28.4803 C   0  0  0  0  0  0  0  0  0  0  0  0
    3.4047   -5.1087   28.1314 C   0  0  0  0  0  0  0  0  0  0  0  0
   -0.2234  -11.8615   16.8874 C   0  0  0  0  0  0  0  0  0  0  0  0
    6.4491   -4.1532   30.1213 C   0  0  0  0  0  0  0  0  0  0  0  0
    5.7060   -4.4340   27.4975 C   0  0  0  0  0  0  0  0  0  0  0  0
    1.1818   -5.6612   28.8399 C   0  0  0  0  0  0  0  0  0  0  0  0
   -1.2067   -7.3287   17.7772 C   0  0  0  0  0  0  0  0  0  0  0  0
   -0.0206  -10.5585   16.6210 C   0  0  0  0  0  0  0  0  0  0  0  0
    0.3696  -12.7626   16.2169 O   0  0  0  0  0  0  0  0  0  0  0  0
   -0.6895   -9.5676   17.3297 C   0  0  0  0  0  0  0  0  0  0  0  0
    0.8388   -5.8417   27.5264 C   0  0  0  0  0  0  0  0  0  0  0  0
   -2.0709   -7.6637   18.7817 C   0  0  0  0  0  0  0  0  0  0  0  0
   -0.5279   -8.2168   17.0717 C   0  0  0  0  0  0  0  0  0  0  0  0
    6.9694   -4.0191   27.8190 C   0  0  0  0  0  0  0  0  0  0  0  0
    5.1733   -4.5469   29.8123 C   0  0  0  0  0  0  0  0  0  0  0  0
   -1.7508  -11.3016   18.6072 C   0  0  0  0  0  0  0  0  0  0  0  0
    1.7497   -5.6771   26.4971 C   0  0  0  0  0  0  0  0  0  0  0  0
   -1.5799   -9.9322   18.3468 C   0  0  0  0  0  0  0  0  0  0  0  0
   -1.0871  -12.2214   17.8851 C   0  0  0  0  0  0  0  0  0  0  0  0
   -2.2706   -8.9669   19.0691 C   0  0  0  0  0  0  0  0  0  0  0  0
    3.0279   -5.3073   26.8197 C   0  0  0  0  0  0  0  0  0  0  0  0
    7.3282   -3.8948   29.1186 C   0  0  0  0  0  0  0  0  0  0  0  0
  1  3  4  0
  1  7  4  0
  2  3  1  0
  2  6  4  0
  2 16  4  0
  3 22  4  0
  4  9  4  0
  4 10  1  0
  4 20  4  0
  5 16  4  0
  5 23  4  0
  6 15  4  0
  7 12  4  0
  8 13  4  0
  8 14  4  0
  9 11  4  0
 11 14  4  0
 11 19  4  0
 12 18  4  0
 13 21  4  0
 15 23  4  0
 17 19  4  0
 17 20  4  0
 18 22  4  0
 19 21  4  0
M  END
$$$$

 Created by Python create_sdf_string function

 23 25  0  0  0  0  0  0  0  0999 V2000
    2.4610   -5.3070   29.1240 C   0  0  0  0  0  0  0  0  0  0  0  0
    4.7710   -4.6952   28.4803 C   0  0  0  0  0  0  0  0  0  0  0  0
    3.4047   -5.1087   28.1314 C   0  0  0  0  0  0  0  0  0  0  0  0
   -0.2234  -11.8615   16.8874 C   0  0  0  0  0  0  0  0  0  0  0  0
    6.4491   -4.1532   30.1213 C   0  0  0  0  0  0  0  0  0  0  0  0
    5.7060   -4.4340   27.4975 C   0  0  0  0  0  0  0  0  0  0  0  0
    1.1818   -5.6612   28.8399 C   0  0  0  0  0  0  0  0  0  0  0  0
   -1.2067   -7.3287   17.7772 C   0  0  0  0  0  0  0  0  0  0  0  0
   -0.0206  -10.5585   16.6210 C   0  0  0  0  0  0  0  0  0  0  0  0
    0.3696  -12.7626   16.2169 O   0  0  0  0  0  0  0  0  0  0  0  0
   -0.6895   -9.5676   17.3297 C   0  0  0  0  0  0  0  0  0  0  0  0
    0.8388   -5.8417   27.5264 C   0  0  0  0  0  0  0  0  0  0  0  0
   -2.0709   -7.6637   18.7817 C   0  0  0  0  0  0  0  0  0  0  0  0
   -0.5279   -8.2168   17.0717 C   0  0  0  0  0  0  0  0  0  0  0  0
    6.9694   -4.0191   27.8190 C   0  0  0  0  0  0  0  0  0  0  0  0
    5.1733   -4.5469   29.8123 C   0  0  0  0  0  0  0  0  0  0  0  0
   -1.7508  -11.3016   18.6072 C   0  0  0  0  0  0  0  0  0  0  0  0
    1.7497   -5.6771   26.4971 C   0  0  0  0  0  0  0  0  0  0  0  0
   -1.5799   -9.9322   18.3468 C   0  0  0  0  0  0  0  0  0  0  0  0
   -1.0871  -12.2214   17.8851 C   0  0  0  0  0  0  0  0  0  0  0  0
   -2.2706   -8.9669   19.0691 C   0  0  0  0  0  0  0  0  0  0  0  0
    3.0279   -5.3073   26.8197 C   0  0  0  0  0  0  0  0  0  0  0  0
    7.3282   -3.8948   29.1186 C   0  0  0  0  0  0  0  0  0  0  0  0
  1  3  4  0
  1  7  4  0
  2  3  1  0
  2  6  4  0
  2 16  4  0
  3 22  4  0
  4  9  4  0
  4 10  1  0
  4 20  4  0
  5 16  4  0
  5 23  4  0
  6 15  4  0
  7 12  4  0
  8 13  4  0
  8 14  4  0
  9 11  4  0
 11 14  4  0
 11 19  4  0
 12 18  4  0
 13 21  4  0
 15 23  4  0
 17 19  4  0
 17 20  4  0
 18 22  4  0
 19 21  4  0
M  END
$$$$

 Created by Python create_sdf_string function

 23 25  0  0  0  0  0  0  0  0999 V2000
    2.4610   -5.3070   29.1240 C   0  0  0  0  0  0  0  0  0  0  0  0
    4.7710   -4.6952   28.4803 C   0  0  0  0  0  0  0  0  0  0  0  0
    3.4047   -5.1087   28.1314 C   0  0  0  0  0  0  0  0  0  0  0  0
   -0.2234  -11.8615   16.8874 C   0  0  0  0  0  0  0  0  0  0  0  0
    6.4491   -4.1532   30.1213 C   0  0  0  0  0  0  0  0  0  0  0  0
    5.7060   -4.4340   27.4975 C   0  0  0  0  0  0  0  0  0  0  0  0
    1.1818   -5.6612   28.8399 C   0  0  0  0  0  0  0  0  0  0  0  0
   -1.2067   -7.3287   17.7772 C   0  0  0  0  0  0  0  0  0  0  0  0
   -0.0206  -10.5585   16.6210 C   0  0  0  0  0  0  0  0  0  0  0  0
    0.3696  -12.7626   16.2169 O   0  0  0  0  0  0  0  0  0  0  0  0
   -0.6895   -9.5676   17.3297 C   0  0  0  0  0  0  0  0  0  0  0  0
    0.8388   -5.8417   27.5264 C   0  0  0  0  0  0  0  0  0  0  0  0
   -2.0709   -7.6637   18.7817 C   0  0  0  0  0  0  0  0  0  0  0  0
   -0.5279   -8.2168   17.0717 C   0  0  0  0  0  0  0  0  0  0  0  0
    6.9694   -4.0191   27.8190 C   0  0  0  0  0  0  0  0  0  0  0  0
    5.1733   -4.5469   29.8123 C   0  0  0  0  0  0  0  0  0  0  0  0
   -1.7508  -11.3016   18.6072 C   0  0  0  0  0  0  0  0  0  0  0  0
    1.7497   -5.6771   26.4971 C   0  0  0  0  0  0  0  0  0  0  0  0
   -1.5799   -9.9322   18.3468 C   0  0  0  0  0  0  0  0  0  0  0  0
   -1.0871  -12.2214   17.8851 C   0  0  0  0  0  0  0  0  0  0  0  0
   -2.2706   -8.9669   19.0691 C   0  0  0  0  0  0  0  0  0  0  0  0
    3.0279   -5.3073   26.8197 C   0  0  0  0  0  0  0  0  0  0  0  0
    7.3282   -3.8948   29.1186 C   0  0  0  0  0  0  0  0  0  0  0  0
  1  3  4  0
  1  7  4  0
  2  3  1  0
  2  6  4  0
  2 16  4  0
  3 22  4  0
  4  9  4  0
  4 10  1  0
  4 20  4  0
  5 16  4  0
  5 23  4  0
  6 15  4  0
  7 12  4  0
  8 13  4  0
  8 14  4  0
  9 11  4  0
 11 14  4  0
 11 19  4  0
 12 18  4  0
 13 21  4  0
 15 23  4  0
 17 19  4  0
 17 20  4  0
 18 22  4  0
 19 21  4  0
M  END
$$$$

 Created by Python create_sdf_string function

 23 25  0  0  0  0  0  0  0  0999 V2000
    2.4610   -5.3070   29.1240 C   0  0  0  0  0  0  0  0  0  0  0  0
    4.7710   -4.6952   28.4803 C   0  0  0  0  0  0  0  0  0  0  0  0
    3.4047   -5.1087   28.1314 C   0  0  0  0  0  0  0  0  0  0  0  0
   -0.2234  -11.8615   16.8874 C   0  0  0  0  0  0  0  0  0  0  0  0
    6.4491   -4.1532   30.1213 C   0  0  0  0  0  0  0  0  0  0  0  0
    5.7060   -4.4340   27.4975 C   0  0  0  0  0  0  0  0  0  0  0  0
    1.1818   -5.6612   28.8399 C   0  0  0  0  0  0  0  0  0  0  0  0
   -1.2067   -7.3287   17.7772 C   0  0  0  0  0  0  0  0  0  0  0  0
   -0.0206  -10.5585   16.6210 C   0  0  0  0  0  0  0  0  0  0  0  0
    0.3696  -12.7626   16.2169 O   0  0  0  0  0  0  0  0  0  0  0  0
   -0.6895   -9.5676   17.3297 C   0  0  0  0  0  0  0  0  0  0  0  0
    0.8388   -5.8417   27.5264 C   0  0  0  0  0  0  0  0  0  0  0  0
   -2.0709   -7.6637   18.7817 C   0  0  0  0  0  0  0  0  0  0  0  0
   -0.5279   -8.2168   17.0717 C   0  0  0  0  0  0  0  0  0  0  0  0
    6.9694   -4.0191   27.8190 C   0  0  0  0  0  0  0  0  0  0  0  0
    5.1733   -4.5469   29.8123 C   0  0  0  0  0  0  0  0  0  0  0  0
   -1.7508  -11.3016   18.6072 C   0  0  0  0  0  0  0  0  0  0  0  0
    1.7497   -5.6771   26.4971 C   0  0  0  0  0  0  0  0  0  0  0  0
   -1.5799   -9.9322   18.3468 C   0  0  0  0  0  0  0  0  0  0  0  0
   -1.0871  -12.2214   17.8851 C   0  0  0  0  0  0  0  0  0  0  0  0
   -2.2706   -8.9669   19.0691 C   0  0  0  0  0  0  0  0  0  0  0  0
    3.0279   -5.3073   26.8197 C   0  0  0  0  0  0  0  0  0  0  0  0
    7.3282   -3.8948   29.1186 C   0  0  0  0  0  0  0  0  0  0  0  0
  1  3  4  0
  1  7  4  0
  2  3  1  0
  2  6  4  0
  2 16  4  0
  3 22  4  0
  4  9  4  0
  4 10  1  0
  4 20  4  0
  5 16  4  0
  5 23  4  0
  6 15  4  0
  7 12  4  0
  8 13  4  0
  8 14  4  0
  9 11  4  0
 11 14  4  0
 11 19  4  0
 12 18  4  0
 13 21  4  0
 15 23  4  0
 17 19  4  0
 17 20  4  0
 18 22  4  0
 19 21  4  0
M  END
$$$$

 Created by Python create_sdf_string function

 23 25  0  0  0  0  0  0  0  0999 V2000
    2.4610   -5.3070   29.1240 C   0  0  0  0  0  0  0  0  0  0  0  0
    4.7710   -4.6952   28.4803 C   0  0  0  0  0  0  0  0  0  0  0  0
    3.4047   -5.1087   28.1314 C   0  0  0  0  0  0  0  0  0  0  0  0
   -0.2234  -11.8615   16.8874 C   0  0  0  0  0  0  0  0  0  0  0  0
    6.4491   -4.1532   30.1213 C   0  0  0  0  0  0  0  0  0  0  0  0
    5.7060   -4.4340   27.4975 C   0  0  0  0  0  0  0  0  0  0  0  0
    1.1818   -5.6612   28.8399 C   0  0  0  0  0  0  0  0  0  0  0  0
   -1.2067   -7.3287   17.7772 C   0  0  0  0  0  0  0  0  0  0  0  0
   -0.0206  -10.5585   16.6210 C   0  0  0  0  0  0  0  0  0  0  0  0
    0.3696  -12.7626   16.2169 O   0  0  0  0  0  0  0  0  0  0  0  0
   -0.6895   -9.5676   17.3297 C   0  0  0  0  0  0  0  0  0  0  0  0
    0.8388   -5.8417   27.5264 C   0  0  0  0  0  0  0  0  0  0  0  0
   -2.0709   -7.6637   18.7817 C   0  0  0  0  0  0  0  0  0  0  0  0
   -0.5279   -8.2168   17.0717 C   0  0  0  0  0  0  0  0  0  0  0  0
    6.9694   -4.0191   27.8190 C   0  0  0  0  0  0  0  0  0  0  0  0
    5.1733   -4.5469   29.8123 C   0  0  0  0  0  0  0  0  0  0  0  0
   -1.7508  -11.3016   18.6072 C   0  0  0  0  0  0  0  0  0  0  0  0
    1.7497   -5.6771   26.4971 C   0  0  0  0  0  0  0  0  0  0  0  0
   -1.5799   -9.9322   18.3468 C   0  0  0  0  0  0  0  0  0  0  0  0
   -1.0871  -12.2214   17.8851 C   0  0  0  0  0  0  0  0  0  0  0  0
   -2.2706   -8.9669   19.0691 C   0  0  0  0  0  0  0  0  0  0  0  0
    3.0279   -5.3073   26.8197 C   0  0  0  0  0  0  0  0  0  0  0  0
    7.3282   -3.8948   29.1186 C   0  0  0  0  0  0  0  0  0  0  0  0
  1  3  4  0
  1  7  4  0
  2  3  1  0
  2  6  4  0
  2 16  4  0
  3 22  4  0
  4  9  4  0
  4 10  1  0
  4 20  4  0
  5 16  4  0
  5 23  4  0
  6 15  4  0
  7 12  4  0
  8 13  4  0
  8 14  4  0
  9 11  4  0
 11 14  4  0
 11 19  4  0
 12 18  4  0
 13 21  4  0
 15 23  4  0
 17 19  4  0
 17 20  4  0
 18 22  4  0
 19 21  4  0
M  END
$$$$

 Created by Python create_sdf_string function

 23 25  0  0  0  0  0  0  0  0999 V2000
    2.4610   -5.3070   29.1240 C   0  0  0  0  0  0  0  0  0  0  0  0
    4.7710   -4.6952   28.4803 C   0  0  0  0  0  0  0  0  0  0  0  0
    3.4047   -5.1087   28.1314 C   0  0  0  0  0  0  0  0  0  0  0  0
   -0.2234  -11.8615   16.8874 C   0  0  0  0  0  0  0  0  0  0  0  0
    6.4491   -4.1532   30.1213 C   0  0  0  0  0  0  0  0  0  0  0  0
    5.7060   -4.4340   27.4975 C   0  0  0  0  0  0  0  0  0  0  0  0
    1.1818   -5.6612   28.8399 C   0  0  0  0  0  0  0  0  0  0  0  0
   -1.2067   -7.3287   17.7772 C   0  0  0  0  0  0  0  0  0  0  0  0
   -0.0206  -10.5585   16.6210 C   0  0  0  0  0  0  0  0  0  0  0  0
    0.3696  -12.7626   16.2169 O   0  0  0  0  0  0  0  0  0  0  0  0
   -0.6895   -9.5676   17.3297 C   0  0  0  0  0  0  0  0  0  0  0  0
    0.8388   -5.8417   27.5264 C   0  0  0  0  0  0  0  0  0  0  0  0
   -2.0709   -7.6637   18.7817 C   0  0  0  0  0  0  0  0  0  0  0  0
   -0.5279   -8.2168   17.0717 C   0  0  0  0  0  0  0  0  0  0  0  0
    6.9694   -4.0191   27.8190 C   0  0  0  0  0  0  0  0  0  0  0  0
    5.1733   -4.5469   29.8123 C   0  0  0  0  0  0  0  0  0  0  0  0
   -1.7508  -11.3016   18.6072 C   0  0  0  0  0  0  0  0  0  0  0  0
    1.7497   -5.6771   26.4971 C   0  0  0  0  0  0  0  0  0  0  0  0
   -1.5799   -9.9322   18.3468 C   0  0  0  0  0  0  0  0  0  0  0  0
   -1.0871  -12.2214   17.8851 C   0  0  0  0  0  0  0  0  0  0  0  0
   -2.2706   -8.9669   19.0691 C   0  0  0  0  0  0  0  0  0  0  0  0
    3.0279   -5.3073   26.8197 C   0  0  0  0  0  0  0  0  0  0  0  0
    7.3282   -3.8948   29.1186 C   0  0  0  0  0  0  0  0  0  0  0  0
  1  3  4  0
  1  7  4  0
  2  3  1  0
  2  6  4  0
  2 16  4  0
  3 22  4  0
  4  9  4  0
  4 10  1  0
  4 20  4  0
  5 16  4  0
  5 23  4  0
  6 15  4  0
  7 12  4  0
  8 13  4  0
  8 14  4  0
  9 11  4  0
 11 14  4  0
 11 19  4  0
 12 18  4  0
 13 21  4  0
 15 23  4  0
 17 19  4  0
 17 20  4  0
 18 22  4  0
 19 21  4  0
M  END
$$$$

 Created by Python create_sdf_string function

 23 25  0  0  0  0  0  0  0  0999 V2000
    2.4610   -5.3070   29.1240 C   0  0  0  0  0  0  0  0  0  0  0  0
    4.7710   -4.6952   28.4803 C   0  0  0  0  0  0  0  0  0  0  0  0
    3.4047   -5.1087   28.1314 C   0  0  0  0  0  0  0  0  0  0  0  0
   -0.2234  -11.8615   16.8874 C   0  0  0  0  0  0  0  0  0  0  0  0
    6.4491   -4.1532   30.1213 C   0  0  0  0  0  0  0  0  0  0  0  0
    5.7060   -4.4340   27.4975 C   0  0  0  0  0  0  0  0  0  0  0  0
    1.1818   -5.6612   28.8399 C   0  0  0  0  0  0  0  0  0  0  0  0
   -1.2067   -7.3287   17.7772 C   0  0  0  0  0  0  0  0  0  0  0  0
   -0.0206  -10.5585   16.6210 C   0  0  0  0  0  0  0  0  0  0  0  0
    0.3696  -12.7626   16.2169 O   0  0  0  0  0  0  0  0  0  0  0  0
   -0.6895   -9.5676   17.3297 C   0  0  0  0  0  0  0  0  0  0  0  0
    0.8388   -5.8417   27.5264 C   0  0  0  0  0  0  0  0  0  0  0  0
   -2.0709   -7.6637   18.7817 C   0  0  0  0  0  0  0  0  0  0  0  0
   -0.5279   -8.2168   17.0717 C   0  0  0  0  0  0  0  0  0  0  0  0
    6.9694   -4.0191   27.8190 C   0  0  0  0  0  0  0  0  0  0  0  0
    5.1733   -4.5469   29.8123 C   0  0  0  0  0  0  0  0  0  0  0  0
   -1.7508  -11.3016   18.6072 C   0  0  0  0  0  0  0  0  0  0  0  0
    1.7497   -5.6771   26.4971 C   0  0  0  0  0  0  0  0  0  0  0  0
   -1.5799   -9.9322   18.3468 C   0  0  0  0  0  0  0  0  0  0  0  0
   -1.0871  -12.2214   17.8851 C   0  0  0  0  0  0  0  0  0  0  0  0
   -2.2706   -8.9669   19.0691 C   0  0  0  0  0  0  0  0  0  0  0  0
    3.0279   -5.3073   26.8197 C   0  0  0  0  0  0  0  0  0  0  0  0
    7.3282   -3.8948   29.1186 C   0  0  0  0  0  0  0  0  0  0  0  0
  1  3  4  0
  1  7  4  0
  2  3  1  0
  2  6  4  0
  2 16  4  0
  3 22  4  0
  4  9  4  0
  4 10  1  0
  4 20  4  0
  5 16  4  0
  5 23  4  0
  6 15  4  0
  7 12  4  0
  8 13  4  0
  8 14  4  0
  9 11  4  0
 11 14  4  0
 11 19  4  0
 12 18  4  0
 13 21  4  0
 15 23  4  0
 17 19  4  0
 17 20  4  0
 18 22  4  0
 19 21  4  0
M  END
$$$$

 Created by Python create_sdf_string function

 23 25  0  0  0  0  0  0  0  0999 V2000
    2.4610   -5.3070   29.1240 C   0  0  0  0  0  0  0  0  0  0  0  0
    4.7710   -4.6952   28.4803 C   0  0  0  0  0  0  0  0  0  0  0  0
    3.4047   -5.1087   28.1314 C   0  0  0  0  0  0  0  0  0  0  0  0
   -0.2234  -11.8615   16.8874 C   0  0  0  0  0  0  0  0  0  0  0  0
    6.4491   -4.1532   30.1213 C   0  0  0  0  0  0  0  0  0  0  0  0
    5.7060   -4.4340   27.4975 C   0  0  0  0  0  0  0  0  0  0  0  0
    1.1818   -5.6612   28.8399 C   0  0  0  0  0  0  0  0  0  0  0  0
   -1.2067   -7.3287   17.7772 C   0  0  0  0  0  0  0  0  0  0  0  0
   -0.0206  -10.5585   16.6210 C   0  0  0  0  0  0  0  0  0  0  0  0
    0.3696  -12.7626   16.2169 O   0  0  0  0  0  0  0  0  0  0  0  0
   -0.6895   -9.5676   17.3297 C   0  0  0  0  0  0  0  0  0  0  0  0
    0.8388   -5.8417   27.5264 C   0  0  0  0  0  0  0  0  0  0  0  0
   -2.0709   -7.6637   18.7817 C   0  0  0  0  0  0  0  0  0  0  0  0
   -0.5279   -8.2168   17.0717 C   0  0  0  0  0  0  0  0  0  0  0  0
    6.9694   -4.0191   27.8190 C   0  0  0  0  0  0  0  0  0  0  0  0
    5.1733   -4.5469   29.8123 C   0  0  0  0  0  0  0  0  0  0  0  0
   -1.7508  -11.3016   18.6072 C   0  0  0  0  0  0  0  0  0  0  0  0
    1.7497   -5.6771   26.4971 C   0  0  0  0  0  0  0  0  0  0  0  0
   -1.5799   -9.9322   18.3468 C   0  0  0  0  0  0  0  0  0  0  0  0
   -1.0871  -12.2214   17.8851 C   0  0  0  0  0  0  0  0  0  0  0  0
   -2.2706   -8.9669   19.0691 C   0  0  0  0  0  0  0  0  0  0  0  0
    3.0279   -5.3073   26.8197 C   0  0  0  0  0  0  0  0  0  0  0  0
    7.3282   -3.8948   29.1186 C   0  0  0  0  0  0  0  0  0  0  0  0
  1  3  4  0
  1  7  4  0
  2  3  1  0
  2  6  4  0
  2 16  4  0
  3 22  4  0
  4  9  4  0
  4 10  1  0
  4 20  4  0
  5 16  4  0
  5 23  4  0
  6 15  4  0
  7 12  4  0
  8 13  4  0
  8 14  4  0
  9 11  4  0
 11 14  4  0
 11 19  4  0
 12 18  4  0
 13 21  4  0
 15 23  4  0
 17 19  4  0
 17 20  4  0
 18 22  4  0
 19 21  4  0
M  END
$$$$

 Created by Python create_sdf_string function

 23 25  0  0  0  0  0  0  0  0999 V2000
    2.4610   -5.3070   29.1240 C   0  0  0  0  0  0  0  0  0  0  0  0
    4.7710   -4.6952   28.4803 C   0  0  0  0  0  0  0  0  0  0  0  0
    3.4047   -5.1087   28.1314 C   0  0  0  0  0  0  0  0  0  0  0  0
   -0.2234  -11.8615   16.8874 C   0  0  0  0  0  0  0  0  0  0  0  0
    6.4491   -4.1532   30.1213 C   0  0  0  0  0  0  0  0  0  0  0  0
    5.7060   -4.4340   27.4975 C   0  0  0  0  0  0  0  0  0  0  0  0
    1.1818   -5.6612   28.8399 C   0  0  0  0  0  0  0  0  0  0  0  0
   -1.2067   -7.3287   17.7772 C   0  0  0  0  0  0  0  0  0  0  0  0
   -0.0206  -10.5585   16.6210 C   0  0  0  0  0  0  0  0  0  0  0  0
    0.3696  -12.7626   16.2169 O   0  0  0  0  0  0  0  0  0  0  0  0
   -0.6895   -9.5676   17.3297 C   0  0  0  0  0  0  0  0  0  0  0  0
    0.8388   -5.8417   27.5264 C   0  0  0  0  0  0  0  0  0  0  0  0
   -2.0709   -7.6637   18.7817 C   0  0  0  0  0  0  0  0  0  0  0  0
   -0.5279   -8.2168   17.0717 C   0  0  0  0  0  0  0  0  0  0  0  0
    6.9694   -4.0191   27.8190 C   0  0  0  0  0  0  0  0  0  0  0  0
    5.1733   -4.5469   29.8123 C   0  0  0  0  0  0  0  0  0  0  0  0
   -1.7508  -11.3016   18.6072 C   0  0  0  0  0  0  0  0  0  0  0  0
    1.7497   -5.6771   26.4971 C   0  0  0  0  0  0  0  0  0  0  0  0
   -1.5799   -9.9322   18.3468 C   0  0  0  0  0  0  0  0  0  0  0  0
   -1.0871  -12.2214   17.8851 C   0  0  0  0  0  0  0  0  0  0  0  0
   -2.2706   -8.9669   19.0691 C   0  0  0  0  0  0  0  0  0  0  0  0
    3.0279   -5.3073   26.8197 C   0  0  0  0  0  0  0  0  0  0  0  0
    7.3282   -3.8948   29.1186 C   0  0  0  0  0  0  0  0  0  0  0  0
  1  3  4  0
  1  7  4  0
  2  3  1  0
  2  6  4  0
  2 16  4  0
  3 22  4  0
  4  9  4  0
  4 10  1  0
  4 20  4  0
  5 16  4  0
  5 23  4  0
  6 15  4  0
  7 12  4  0
  8 13  4  0
  8 14  4  0
  9 11  4  0
 11 14  4  0
 11 19  4  0
 12 18  4  0
 13 21  4  0
 15 23  4  0
 17 19  4  0
 17 20  4  0
 18 22  4  0
 19 21  4  0
M  END
$$$$

 Created by Python create_sdf_string function

 23 25  0  0  0  0  0  0  0  0999 V2000
    2.4610   -5.3070   29.1240 C   0  0  0  0  0  0  0  0  0  0  0  0
    4.7710   -4.6952   28.4803 C   0  0  0  0  0  0  0  0  0  0  0  0
    3.4047   -5.1087   28.1314 C   0  0  0  0  0  0  0  0  0  0  0  0
   -0.2234  -11.8615   16.8874 C   0  0  0  0  0  0  0  0  0  0  0  0
    6.4491   -4.1532   30.1213 C   0  0  0  0  0  0  0  0  0  0  0  0
    5.7060   -4.4340   27.4975 C   0  0  0  0  0  0  0  0  0  0  0  0
    1.1818   -5.6612   28.8399 C   0  0  0  0  0  0  0  0  0  0  0  0
   -1.2067   -7.3287   17.7772 C   0  0  0  0  0  0  0  0  0  0  0  0
   -0.0206  -10.5585   16.6210 C   0  0  0  0  0  0  0  0  0  0  0  0
    0.3696  -12.7626   16.2169 O   0  0  0  0  0  0  0  0  0  0  0  0
   -0.6895   -9.5676   17.3297 C   0  0  0  0  0  0  0  0  0  0  0  0
    0.8388   -5.8417   27.5264 C   0  0  0  0  0  0  0  0  0  0  0  0
   -2.0709   -7.6637   18.7817 C   0  0  0  0  0  0  0  0  0  0  0  0
   -0.5279   -8.2168   17.0717 C   0  0  0  0  0  0  0  0  0  0  0  0
    6.9694   -4.0191   27.8190 C   0  0  0  0  0  0  0  0  0  0  0  0
    5.1733   -4.5469   29.8123 C   0  0  0  0  0  0  0  0  0  0  0  0
   -1.7508  -11.3016   18.6072 C   0  0  0  0  0  0  0  0  0  0  0  0
    1.7497   -5.6771   26.4971 C   0  0  0  0  0  0  0  0  0  0  0  0
   -1.5799   -9.9322   18.3468 C   0  0  0  0  0  0  0  0  0  0  0  0
   -1.0871  -12.2214   17.8851 C   0  0  0  0  0  0  0  0  0  0  0  0
   -2.2706   -8.9669   19.0691 C   0  0  0  0  0  0  0  0  0  0  0  0
    3.0279   -5.3073   26.8197 C   0  0  0  0  0  0  0  0  0  0  0  0
    7.3282   -3.8948   29.1186 C   0  0  0  0  0  0  0  0  0  0  0  0
  1  3  4  0
  1  7  4  0
  2  3  1  0
  2  6  4  0
  2 16  4  0
  3 22  4  0
  4  9  4  0
  4 10  1  0
  4 20  4  0
  5 16  4  0
  5 23  4  0
  6 15  4  0
  7 12  4  0
  8 13  4  0
  8 14  4  0
  9 11  4  0
 11 14  4  0
 11 19  4  0
 12 18  4  0
 13 21  4  0
 15 23  4  0
 17 19  4  0
 17 20  4  0
 18 22  4  0
 19 21  4  0
M  END
$$$$

 Created by Python create_sdf_string function

 23 25  0  0  0  0  0  0  0  0999 V2000
    2.4610   -5.3070   29.1240 C   0  0  0  0  0  0  0  0  0  0  0  0
    4.7710   -4.6952   28.4803 C   0  0  0  0  0  0  0  0  0  0  0  0
    3.4047   -5.1087   28.1314 C   0  0  0  0  0  0  0  0  0  0  0  0
   -0.2234  -11.8615   16.8874 C   0  0  0  0  0  0  0  0  0  0  0  0
    6.4491   -4.1532   30.1213 C   0  0  0  0  0  0  0  0  0  0  0  0
    5.7060   -4.4340   27.4975 C   0  0  0  0  0  0  0  0  0  0  0  0
    1.1818   -5.6612   28.8399 C   0  0  0  0  0  0  0  0  0  0  0  0
   -1.2067   -7.3287   17.7772 C   0  0  0  0  0  0  0  0  0  0  0  0
   -0.0206  -10.5585   16.6210 C   0  0  0  0  0  0  0  0  0  0  0  0
    0.3696  -12.7626   16.2169 O   0  0  0  0  0  0  0  0  0  0  0  0
   -0.6895   -9.5676   17.3297 C   0  0  0  0  0  0  0  0  0  0  0  0
    0.8388   -5.8417   27.5264 C   0  0  0  0  0  0  0  0  0  0  0  0
   -2.0709   -7.6637   18.7817 C   0  0  0  0  0  0  0  0  0  0  0  0
   -0.5279   -8.2168   17.0717 C   0  0  0  0  0  0  0  0  0  0  0  0
    6.9694   -4.0191   27.8190 C   0  0  0  0  0  0  0  0  0  0  0  0
    5.1733   -4.5469   29.8123 C   0  0  0  0  0  0  0  0  0  0  0  0
   -1.7508  -11.3016   18.6072 C   0  0  0  0  0  0  0  0  0  0  0  0
    1.7497   -5.6771   26.4971 C   0  0  0  0  0  0  0  0  0  0  0  0
   -1.5799   -9.9322   18.3468 C   0  0  0  0  0  0  0  0  0  0  0  0
   -1.0871  -12.2214   17.8851 C   0  0  0  0  0  0  0  0  0  0  0  0
   -2.2706   -8.9669   19.0691 C   0  0  0  0  0  0  0  0  0  0  0  0
    3.0279   -5.3073   26.8197 C   0  0  0  0  0  0  0  0  0  0  0  0
    7.3282   -3.8948   29.1186 C   0  0  0  0  0  0  0  0  0  0  0  0
  1  3  4  0
  1  7  4  0
  2  3  1  0
  2  6  4  0
  2 16  4  0
  3 22  4  0
  4  9  4  0
  4 10  1  0
  4 20  4  0
  5 16  4  0
  5 23  4  0
  6 15  4  0
  7 12  4  0
  8 13  4  0
  8 14  4  0
  9 11  4  0
 11 14  4  0
 11 19  4  0
 12 18  4  0
 13 21  4  0
 15 23  4  0
 17 19  4  0
 17 20  4  0
 18 22  4  0
 19 21  4  0
M  END
$$$$

 Created by Python create_sdf_string function

 23 25  0  0  0  0  0  0  0  0999 V2000
    2.4610   -5.3070   29.1240 C   0  0  0  0  0  0  0  0  0  0  0  0
    4.7710   -4.6952   28.4803 C   0  0  0  0  0  0  0  0  0  0  0  0
    3.4047   -5.1087   28.1314 C   0  0  0  0  0  0  0  0  0  0  0  0
   -0.2234  -11.8615   16.8874 C   0  0  0  0  0  0  0  0  0  0  0  0
    6.4491   -4.1532   30.1213 C   0  0  0  0  0  0  0  0  0  0  0  0
    5.7060   -4.4340   27.4975 C   0  0  0  0  0  0  0  0  0  0  0  0
    1.1818   -5.6612   28.8399 C   0  0  0  0  0  0  0  0  0  0  0  0
   -1.2067   -7.3287   17.7772 C   0  0  0  0  0  0  0  0  0  0  0  0
   -0.0206  -10.5585   16.6210 C   0  0  0  0  0  0  0  0  0  0  0  0
    0.3696  -12.7626   16.2169 O   0  0  0  0  0  0  0  0  0  0  0  0
   -0.6895   -9.5676   17.3297 C   0  0  0  0  0  0  0  0  0  0  0  0
    0.8388   -5.8417   27.5264 C   0  0  0  0  0  0  0  0  0  0  0  0
   -2.0709   -7.6637   18.7817 C   0  0  0  0  0  0  0  0  0  0  0  0
   -0.5279   -8.2168   17.0717 C   0  0  0  0  0  0  0  0  0  0  0  0
    6.9694   -4.0191   27.8190 C   0  0  0  0  0  0  0  0  0  0  0  0
    5.1733   -4.5469   29.8123 C   0  0  0  0  0  0  0  0  0  0  0  0
   -1.7508  -11.3016   18.6072 C   0  0  0  0  0  0  0  0  0  0  0  0
    1.7497   -5.6771   26.4971 C   0  0  0  0  0  0  0  0  0  0  0  0
   -1.5799   -9.9322   18.3468 C   0  0  0  0  0  0  0  0  0  0  0  0
   -1.0871  -12.2214   17.8851 C   0  0  0  0  0  0  0  0  0  0  0  0
   -2.2706   -8.9669   19.0691 C   0  0  0  0  0  0  0  0  0  0  0  0
    3.0279   -5.3073   26.8197 C   0  0  0  0  0  0  0  0  0  0  0  0
    7.3282   -3.8948   29.1186 C   0  0  0  0  0  0  0  0  0  0  0  0
  1  3  4  0
  1  7  4  0
  2  3  1  0
  2  6  4  0
  2 16  4  0
  3 22  4  0
  4  9  4  0
  4 10  1  0
  4 20  4  0
  5 16  4  0
  5 23  4  0
  6 15  4  0
  7 12  4  0
  8 13  4  0
  8 14  4  0
  9 11  4  0
 11 14  4  0
 11 19  4  0
 12 18  4  0
 13 21  4  0
 15 23  4  0
 17 19  4  0
 17 20  4  0
 18 22  4  0
 19 21  4  0
M  END
$$$$

 Created by Python create_sdf_string function

 23 25  0  0  0  0  0  0  0  0999 V2000
    2.4610   -5.3070   29.1240 C   0  0  0  0  0  0  0  0  0  0  0  0
    4.7710   -4.6952   28.4803 C   0  0  0  0  0  0  0  0  0  0  0  0
    3.4047   -5.1087   28.1314 C   0  0  0  0  0  0  0  0  0  0  0  0
   -0.2234  -11.8615   16.8874 C   0  0  0  0  0  0  0  0  0  0  0  0
    6.4491   -4.1532   30.1213 C   0  0  0  0  0  0  0  0  0  0  0  0
    5.7060   -4.4340   27.4975 C   0  0  0  0  0  0  0  0  0  0  0  0
    1.1818   -5.6612   28.8399 C   0  0  0  0  0  0  0  0  0  0  0  0
   -1.2067   -7.3287   17.7772 C   0  0  0  0  0  0  0  0  0  0  0  0
   -0.0206  -10.5585   16.6210 C   0  0  0  0  0  0  0  0  0  0  0  0
    0.3696  -12.7626   16.2169 O   0  0  0  0  0  0  0  0  0  0  0  0
   -0.6895   -9.5676   17.3297 C   0  0  0  0  0  0  0  0  0  0  0  0
    0.8388   -5.8417   27.5264 C   0  0  0  0  0  0  0  0  0  0  0  0
   -2.0709   -7.6637   18.7817 C   0  0  0  0  0  0  0  0  0  0  0  0
   -0.5279   -8.2168   17.0717 C   0  0  0  0  0  0  0  0  0  0  0  0
    6.9694   -4.0191   27.8190 C   0  0  0  0  0  0  0  0  0  0  0  0
    5.1733   -4.5469   29.8123 C   0  0  0  0  0  0  0  0  0  0  0  0
   -1.7508  -11.3016   18.6072 C   0  0  0  0  0  0  0  0  0  0  0  0
    1.7497   -5.6771   26.4971 C   0  0  0  0  0  0  0  0  0  0  0  0
   -1.5799   -9.9322   18.3468 C   0  0  0  0  0  0  0  0  0  0  0  0
   -1.0871  -12.2214   17.8851 C   0  0  0  0  0  0  0  0  0  0  0  0
   -2.2706   -8.9669   19.0691 C   0  0  0  0  0  0  0  0  0  0  0  0
    3.0279   -5.3073   26.8197 C   0  0  0  0  0  0  0  0  0  0  0  0
    7.3282   -3.8948   29.1186 C   0  0  0  0  0  0  0  0  0  0  0  0
  1  3  4  0
  1  7  4  0
  2  3  1  0
  2  6  4  0
  2 16  4  0
  3 22  4  0
  4  9  4  0
  4 10  1  0
  4 20  4  0
  5 16  4  0
  5 23  4  0
  6 15  4  0
  7 12  4  0
  8 13  4  0
  8 14  4  0
  9 11  4  0
 11 14  4  0
 11 19  4  0
 12 18  4  0
 13 21  4  0
 15 23  4  0
 17 19  4  0
 17 20  4  0
 18 22  4  0
 19 21  4  0
M  END
$$$$

 Created by Python create_sdf_string function

 23 25  0  0  0  0  0  0  0  0999 V2000
    2.4610   -5.3070   29.1240 C   0  0  0  0  0  0  0  0  0  0  0  0
    4.7710   -4.6952   28.4803 C   0  0  0  0  0  0  0  0  0  0  0  0
    3.4047   -5.1087   28.1314 C   0  0  0  0  0  0  0  0  0  0  0  0
   -0.2234  -11.8615   16.8874 C   0  0  0  0  0  0  0  0  0  0  0  0
    6.4491   -4.1532   30.1213 C   0  0  0  0  0  0  0  0  0  0  0  0
    5.7060   -4.4340   27.4975 C   0  0  0  0  0  0  0  0  0  0  0  0
    1.1818   -5.6612   28.8399 C   0  0  0  0  0  0  0  0  0  0  0  0
   -1.2067   -7.3287   17.7772 C   0  0  0  0  0  0  0  0  0  0  0  0
   -0.0206  -10.5585   16.6210 C   0  0  0  0  0  0  0  0  0  0  0  0
    0.3696  -12.7626   16.2169 O   0  0  0  0  0  0  0  0  0  0  0  0
   -0.6895   -9.5676   17.3297 C   0  0  0  0  0  0  0  0  0  0  0  0
    0.8388   -5.8417   27.5264 C   0  0  0  0  0  0  0  0  0  0  0  0
   -2.0709   -7.6637   18.7817 C   0  0  0  0  0  0  0  0  0  0  0  0
   -0.5279   -8.2168   17.0717 C   0  0  0  0  0  0  0  0  0  0  0  0
    6.9694   -4.0191   27.8190 C   0  0  0  0  0  0  0  0  0  0  0  0
    5.1733   -4.5469   29.8123 C   0  0  0  0  0  0  0  0  0  0  0  0
   -1.7508  -11.3016   18.6072 C   0  0  0  0  0  0  0  0  0  0  0  0
    1.7497   -5.6771   26.4971 C   0  0  0  0  0  0  0  0  0  0  0  0
   -1.5799   -9.9322   18.3468 C   0  0  0  0  0  0  0  0  0  0  0  0
   -1.0871  -12.2214   17.8851 C   0  0  0  0  0  0  0  0  0  0  0  0
   -2.2706   -8.9669   19.0691 C   0  0  0  0  0  0  0  0  0  0  0  0
    3.0279   -5.3073   26.8197 C   0  0  0  0  0  0  0  0  0  0  0  0
    7.3282   -3.8948   29.1186 C   0  0  0  0  0  0  0  0  0  0  0  0
  1  3  4  0
  1  7  4  0
  2  3  1  0
  2  6  4  0
  2 16  4  0
  3 22  4  0
  4  9  4  0
  4 10  1  0
  4 20  4  0
  5 16  4  0
  5 23  4  0
  6 15  4  0
  7 12  4  0
  8 13  4  0
  8 14  4  0
  9 11  4  0
 11 14  4  0
 11 19  4  0
 12 18  4  0
 13 21  4  0
 15 23  4  0
 17 19  4  0
 17 20  4  0
 18 22  4  0
 19 21  4  0
M  END
$$$$

 Created by Python create_sdf_string function

 23 25  0  0  0  0  0  0  0  0999 V2000
    2.4610   -5.3070   29.1240 C   0  0  0  0  0  0  0  0  0  0  0  0
    4.7710   -4.6952   28.4803 C   0  0  0  0  0  0  0  0  0  0  0  0
    3.4047   -5.1087   28.1314 C   0  0  0  0  0  0  0  0  0  0  0  0
   -0.2234  -11.8615   16.8874 C   0  0  0  0  0  0  0  0  0  0  0  0
    6.4491   -4.1532   30.1213 C   0  0  0  0  0  0  0  0  0  0  0  0
    5.7060   -4.4340   27.4975 C   0  0  0  0  0  0  0  0  0  0  0  0
    1.1818   -5.6612   28.8399 C   0  0  0  0  0  0  0  0  0  0  0  0
   -1.2067   -7.3287   17.7772 C   0  0  0  0  0  0  0  0  0  0  0  0
   -0.0206  -10.5585   16.6210 C   0  0  0  0  0  0  0  0  0  0  0  0
    0.3696  -12.7626   16.2169 O   0  0  0  0  0  0  0  0  0  0  0  0
   -0.6895   -9.5676   17.3297 C   0  0  0  0  0  0  0  0  0  0  0  0
    0.8388   -5.8417   27.5264 C   0  0  0  0  0  0  0  0  0  0  0  0
   -2.0709   -7.6637   18.7817 C   0  0  0  0  0  0  0  0  0  0  0  0
   -0.5279   -8.2168   17.0717 C   0  0  0  0  0  0  0  0  0  0  0  0
    6.9694   -4.0191   27.8190 C   0  0  0  0  0  0  0  0  0  0  0  0
    5.1733   -4.5469   29.8123 C   0  0  0  0  0  0  0  0  0  0  0  0
   -1.7508  -11.3016   18.6072 C   0  0  0  0  0  0  0  0  0  0  0  0
    1.7497   -5.6771   26.4971 C   0  0  0  0  0  0  0  0  0  0  0  0
   -1.5799   -9.9322   18.3468 C   0  0  0  0  0  0  0  0  0  0  0  0
   -1.0871  -12.2214   17.8851 C   0  0  0  0  0  0  0  0  0  0  0  0
   -2.2706   -8.9669   19.0691 C   0  0  0  0  0  0  0  0  0  0  0  0
    3.0279   -5.3073   26.8197 C   0  0  0  0  0  0  0  0  0  0  0  0
    7.3282   -3.8948   29.1186 C   0  0  0  0  0  0  0  0  0  0  0  0
  1  3  4  0
  1  7  4  0
  2  3  1  0
  2  6  4  0
  2 16  4  0
  3 22  4  0
  4  9  4  0
  4 10  1  0
  4 20  4  0
  5 16  4  0
  5 23  4  0
  6 15  4  0
  7 12  4  0
  8 13  4  0
  8 14  4  0
  9 11  4  0
 11 14  4  0
 11 19  4  0
 12 18  4  0
 13 21  4  0
 15 23  4  0
 17 19  4  0
 17 20  4  0
 18 22  4  0
 19 21  4  0
M  END
$$$$

 Created by Python create_sdf_string function

 23 25  0  0  0  0  0  0  0  0999 V2000
    2.4610   -5.3070   29.1240 C   0  0  0  0  0  0  0  0  0  0  0  0
    4.7710   -4.6952   28.4803 C   0  0  0  0  0  0  0  0  0  0  0  0
    3.4047   -5.1087   28.1314 C   0  0  0  0  0  0  0  0  0  0  0  0
   -0.2234  -11.8615   16.8874 C   0  0  0  0  0  0  0  0  0  0  0  0
    6.4491   -4.1532   30.1213 C   0  0  0  0  0  0  0  0  0  0  0  0
    5.7060   -4.4340   27.4975 C   0  0  0  0  0  0  0  0  0  0  0  0
    1.1818   -5.6612   28.8399 C   0  0  0  0  0  0  0  0  0  0  0  0
   -1.2067   -7.3287   17.7772 C   0  0  0  0  0  0  0  0  0  0  0  0
   -0.0206  -10.5585   16.6210 C   0  0  0  0  0  0  0  0  0  0  0  0
    0.3696  -12.7626   16.2169 O   0  0  0  0  0  0  0  0  0  0  0  0
   -0.6895   -9.5676   17.3297 C   0  0  0  0  0  0  0  0  0  0  0  0
    0.8388   -5.8417   27.5264 C   0  0  0  0  0  0  0  0  0  0  0  0
   -2.0709   -7.6637   18.7817 C   0  0  0  0  0  0  0  0  0  0  0  0
   -0.5279   -8.2168   17.0717 C   0  0  0  0  0  0  0  0  0  0  0  0
    6.9694   -4.0191   27.8190 C   0  0  0  0  0  0  0  0  0  0  0  0
    5.1733   -4.5469   29.8123 C   0  0  0  0  0  0  0  0  0  0  0  0
   -1.7508  -11.3016   18.6072 C   0  0  0  0  0  0  0  0  0  0  0  0
    1.7497   -5.6771   26.4971 C   0  0  0  0  0  0  0  0  0  0  0  0
   -1.5799   -9.9322   18.3468 C   0  0  0  0  0  0  0  0  0  0  0  0
   -1.0871  -12.2214   17.8851 C   0  0  0  0  0  0  0  0  0  0  0  0
   -2.2706   -8.9669   19.0691 C   0  0  0  0  0  0  0  0  0  0  0  0
    3.0279   -5.3073   26.8197 C   0  0  0  0  0  0  0  0  0  0  0  0
    7.3282   -3.8948   29.1186 C   0  0  0  0  0  0  0  0  0  0  0  0
  1  3  4  0
  1  7  4  0
  2  3  1  0
  2  6  4  0
  2 16  4  0
  3 22  4  0
  4  9  4  0
  4 10  1  0
  4 20  4  0
  5 16  4  0
  5 23  4  0
  6 15  4  0
  7 12  4  0
  8 13  4  0
  8 14  4  0
  9 11  4  0
 11 14  4  0
 11 19  4  0
 12 18  4  0
 13 21  4  0
 15 23  4  0
 17 19  4  0
 17 20  4  0
 18 22  4  0
 19 21  4  0
M  END
$$$$

 Created by Python create_sdf_string function

 23 25  0  0  0  0  0  0  0  0999 V2000
    2.4610   -5.3070   29.1240 C   0  0  0  0  0  0  0  0  0  0  0  0
    4.7710   -4.6952   28.4803 C   0  0  0  0  0  0  0  0  0  0  0  0
    3.4047   -5.1087   28.1314 C   0  0  0  0  0  0  0  0  0  0  0  0
   -0.2234  -11.8615   16.8874 C   0  0  0  0  0  0  0  0  0  0  0  0
    6.4491   -4.1532   30.1213 C   0  0  0  0  0  0  0  0  0  0  0  0
    5.7060   -4.4340   27.4975 C   0  0  0  0  0  0  0  0  0  0  0  0
    1.1818   -5.6612   28.8399 C   0  0  0  0  0  0  0  0  0  0  0  0
   -1.2067   -7.3287   17.7772 C   0  0  0  0  0  0  0  0  0  0  0  0
   -0.0206  -10.5585   16.6210 C   0  0  0  0  0  0  0  0  0  0  0  0
    0.3696  -12.7626   16.2169 O   0  0  0  0  0  0  0  0  0  0  0  0
   -0.6895   -9.5676   17.3297 C   0  0  0  0  0  0  0  0  0  0  0  0
    0.8388   -5.8417   27.5264 C   0  0  0  0  0  0  0  0  0  0  0  0
   -2.0709   -7.6637   18.7817 C   0  0  0  0  0  0  0  0  0  0  0  0
   -0.5279   -8.2168   17.0717 C   0  0  0  0  0  0  0  0  0  0  0  0
    6.9694   -4.0191   27.8190 C   0  0  0  0  0  0  0  0  0  0  0  0
    5.1733   -4.5469   29.8123 C   0  0  0  0  0  0  0  0  0  0  0  0
   -1.7508  -11.3016   18.6072 C   0  0  0  0  0  0  0  0  0  0  0  0
    1.7497   -5.6771   26.4971 C   0  0  0  0  0  0  0  0  0  0  0  0
   -1.5799   -9.9322   18.3468 C   0  0  0  0  0  0  0  0  0  0  0  0
   -1.0871  -12.2214   17.8851 C   0  0  0  0  0  0  0  0  0  0  0  0
   -2.2706   -8.9669   19.0691 C   0  0  0  0  0  0  0  0  0  0  0  0
    3.0279   -5.3073   26.8197 C   0  0  0  0  0  0  0  0  0  0  0  0
    7.3282   -3.8948   29.1186 C   0  0  0  0  0  0  0  0  0  0  0  0
  1  3  4  0
  1  7  4  0
  2  3  1  0
  2  6  4  0
  2 16  4  0
  3 22  4  0
  4  9  4  0
  4 10  1  0
  4 20  4  0
  5 16  4  0
  5 23  4  0
  6 15  4  0
  7 12  4  0
  8 13  4  0
  8 14  4  0
  9 11  4  0
 11 14  4  0
 11 19  4  0
 12 18  4  0
 13 21  4  0
 15 23  4  0
 17 19  4  0
 17 20  4  0
 18 22  4  0
 19 21  4  0
M  END
$$$$

 Created by Python create_sdf_string function

 23 25  0  0  0  0  0  0  0  0999 V2000
    2.4610   -5.3070   29.1240 C   0  0  0  0  0  0  0  0  0  0  0  0
    4.7710   -4.6952   28.4803 C   0  0  0  0  0  0  0  0  0  0  0  0
    3.4047   -5.1087   28.1314 C   0  0  0  0  0  0  0  0  0  0  0  0
   -0.2234  -11.8615   16.8874 C   0  0  0  0  0  0  0  0  0  0  0  0
    6.4491   -4.1532   30.1213 C   0  0  0  0  0  0  0  0  0  0  0  0
    5.7060   -4.4340   27.4975 C   0  0  0  0  0  0  0  0  0  0  0  0
    1.1818   -5.6612   28.8399 C   0  0  0  0  0  0  0  0  0  0  0  0
   -1.2067   -7.3287   17.7772 C   0  0  0  0  0  0  0  0  0  0  0  0
   -0.0206  -10.5585   16.6210 C   0  0  0  0  0  0  0  0  0  0  0  0
    0.3696  -12.7626   16.2169 O   0  0  0  0  0  0  0  0  0  0  0  0
   -0.6895   -9.5676   17.3297 C   0  0  0  0  0  0  0  0  0  0  0  0
    0.8388   -5.8417   27.5264 C   0  0  0  0  0  0  0  0  0  0  0  0
   -2.0709   -7.6637   18.7817 C   0  0  0  0  0  0  0  0  0  0  0  0
   -0.5279   -8.2168   17.0717 C   0  0  0  0  0  0  0  0  0  0  0  0
    6.9694   -4.0191   27.8190 C   0  0  0  0  0  0  0  0  0  0  0  0
    5.1733   -4.5469   29.8123 C   0  0  0  0  0  0  0  0  0  0  0  0
   -1.7508  -11.3016   18.6072 C   0  0  0  0  0  0  0  0  0  0  0  0
    1.7497   -5.6771   26.4971 C   0  0  0  0  0  0  0  0  0  0  0  0
   -1.5799   -9.9322   18.3468 C   0  0  0  0  0  0  0  0  0  0  0  0
   -1.0871  -12.2214   17.8851 C   0  0  0  0  0  0  0  0  0  0  0  0
   -2.2706   -8.9669   19.0691 C   0  0  0  0  0  0  0  0  0  0  0  0
    3.0279   -5.3073   26.8197 C   0  0  0  0  0  0  0  0  0  0  0  0
    7.3282   -3.8948   29.1186 C   0  0  0  0  0  0  0  0  0  0  0  0
  1  3  4  0
  1  7  4  0
  2  3  1  0
  2  6  4  0
  2 16  4  0
  3 22  4  0
  4  9  4  0
  4 10  1  0
  4 20  4  0
  5 16  4  0
  5 23  4  0
  6 15  4  0
  7 12  4  0
  8 13  4  0
  8 14  4  0
  9 11  4  0
 11 14  4  0
 11 19  4  0
 12 18  4  0
 13 21  4  0
 15 23  4  0
 17 19  4  0
 17 20  4  0
 18 22  4  0
 19 21  4  0
M  END
$$$$

 Created by Python create_sdf_string function

 23 25  0  0  0  0  0  0  0  0999 V2000
    2.4610   -5.3070   29.1240 C   0  0  0  0  0  0  0  0  0  0  0  0
    4.7710   -4.6952   28.4803 C   0  0  0  0  0  0  0  0  0  0  0  0
    3.4047   -5.1087   28.1314 C   0  0  0  0  0  0  0  0  0  0  0  0
   -0.2234  -11.8615   16.8874 C   0  0  0  0  0  0  0  0  0  0  0  0
    6.4491   -4.1532   30.1213 C   0  0  0  0  0  0  0  0  0  0  0  0
    5.7060   -4.4340   27.4975 C   0  0  0  0  0  0  0  0  0  0  0  0
    1.1818   -5.6612   28.8399 C   0  0  0  0  0  0  0  0  0  0  0  0
   -1.2067   -7.3287   17.7772 C   0  0  0  0  0  0  0  0  0  0  0  0
   -0.0206  -10.5585   16.6210 C   0  0  0  0  0  0  0  0  0  0  0  0
    0.3696  -12.7626   16.2169 O   0  0  0  0  0  0  0  0  0  0  0  0
   -0.6895   -9.5676   17.3297 C   0  0  0  0  0  0  0  0  0  0  0  0
    0.8388   -5.8417   27.5264 C   0  0  0  0  0  0  0  0  0  0  0  0
   -2.0709   -7.6637   18.7817 C   0  0  0  0  0  0  0  0  0  0  0  0
   -0.5279   -8.2168   17.0717 C   0  0  0  0  0  0  0  0  0  0  0  0
    6.9694   -4.0191   27.8190 C   0  0  0  0  0  0  0  0  0  0  0  0
    5.1733   -4.5469   29.8123 C   0  0  0  0  0  0  0  0  0  0  0  0
   -1.7508  -11.3016   18.6072 C   0  0  0  0  0  0  0  0  0  0  0  0
    1.7497   -5.6771   26.4971 C   0  0  0  0  0  0  0  0  0  0  0  0
   -1.5799   -9.9322   18.3468 C   0  0  0  0  0  0  0  0  0  0  0  0
   -1.0871  -12.2214   17.8851 C   0  0  0  0  0  0  0  0  0  0  0  0
   -2.2706   -8.9669   19.0691 C   0  0  0  0  0  0  0  0  0  0  0  0
    3.0279   -5.3073   26.8197 C   0  0  0  0  0  0  0  0  0  0  0  0
    7.3282   -3.8948   29.1186 C   0  0  0  0  0  0  0  0  0  0  0  0
  1  3  4  0
  1  7  4  0
  2  3  1  0
  2  6  4  0
  2 16  4  0
  3 22  4  0
  4  9  4  0
  4 10  1  0
  4 20  4  0
  5 16  4  0
  5 23  4  0
  6 15  4  0
  7 12  4  0
  8 13  4  0
  8 14  4  0
  9 11  4  0
 11 14  4  0
 11 19  4  0
 12 18  4  0
 13 21  4  0
 15 23  4  0
 17 19  4  0
 17 20  4  0
 18 22  4  0
 19 21  4  0
M  END
$$$$

 Created by Python create_sdf_string function

 23 25  0  0  0  0  0  0  0  0999 V2000
    2.4610   -5.3070   29.1240 C   0  0  0  0  0  0  0  0  0  0  0  0
    4.7710   -4.6952   28.4803 C   0  0  0  0  0  0  0  0  0  0  0  0
    3.4047   -5.1087   28.1314 C   0  0  0  0  0  0  0  0  0  0  0  0
   -0.2234  -11.8615   16.8874 C   0  0  0  0  0  0  0  0  0  0  0  0
    6.4491   -4.1532   30.1213 C   0  0  0  0  0  0  0  0  0  0  0  0
    5.7060   -4.4340   27.4975 C   0  0  0  0  0  0  0  0  0  0  0  0
    1.1818   -5.6612   28.8399 C   0  0  0  0  0  0  0  0  0  0  0  0
   -1.2067   -7.3287   17.7772 C   0  0  0  0  0  0  0  0  0  0  0  0
   -0.0206  -10.5585   16.6210 C   0  0  0  0  0  0  0  0  0  0  0  0
    0.3696  -12.7626   16.2169 O   0  0  0  0  0  0  0  0  0  0  0  0
   -0.6895   -9.5676   17.3297 C   0  0  0  0  0  0  0  0  0  0  0  0
    0.8388   -5.8417   27.5264 C   0  0  0  0  0  0  0  0  0  0  0  0
   -2.0709   -7.6637   18.7817 C   0  0  0  0  0  0  0  0  0  0  0  0
   -0.5279   -8.2168   17.0717 C   0  0  0  0  0  0  0  0  0  0  0  0
    6.9694   -4.0191   27.8190 C   0  0  0  0  0  0  0  0  0  0  0  0
    5.1733   -4.5469   29.8123 C   0  0  0  0  0  0  0  0  0  0  0  0
   -1.7508  -11.3016   18.6072 C   0  0  0  0  0  0  0  0  0  0  0  0
    1.7497   -5.6771   26.4971 C   0  0  0  0  0  0  0  0  0  0  0  0
   -1.5799   -9.9322   18.3468 C   0  0  0  0  0  0  0  0  0  0  0  0
   -1.0871  -12.2214   17.8851 C   0  0  0  0  0  0  0  0  0  0  0  0
   -2.2706   -8.9669   19.0691 C   0  0  0  0  0  0  0  0  0  0  0  0
    3.0279   -5.3073   26.8197 C   0  0  0  0  0  0  0  0  0  0  0  0
    7.3282   -3.8948   29.1186 C   0  0  0  0  0  0  0  0  0  0  0  0
  1  3  4  0
  1  7  4  0
  2  3  1  0
  2  6  4  0
  2 16  4  0
  3 22  4  0
  4  9  4  0
  4 10  1  0
  4 20  4  0
  5 16  4  0
  5 23  4  0
  6 15  4  0
  7 12  4  0
  8 13  4  0
  8 14  4  0
  9 11  4  0
 11 14  4  0
 11 19  4  0
 12 18  4  0
 13 21  4  0
 15 23  4  0
 17 19  4  0
 17 20  4  0
 18 22  4  0
 19 21  4  0
M  END
$$$$

 Created by Python create_sdf_string function

 23 25  0  0  0  0  0  0  0  0999 V2000
    2.4610   -5.3070   29.1240 C   0  0  0  0  0  0  0  0  0  0  0  0
    4.7710   -4.6952   28.4803 C   0  0  0  0  0  0  0  0  0  0  0  0
    3.4047   -5.1087   28.1314 C   0  0  0  0  0  0  0  0  0  0  0  0
   -0.2234  -11.8615   16.8874 C   0  0  0  0  0  0  0  0  0  0  0  0
    6.4491   -4.1532   30.1213 C   0  0  0  0  0  0  0  0  0  0  0  0
    5.7060   -4.4340   27.4975 C   0  0  0  0  0  0  0  0  0  0  0  0
    1.1818   -5.6612   28.8399 C   0  0  0  0  0  0  0  0  0  0  0  0
   -1.2067   -7.3287   17.7772 C   0  0  0  0  0  0  0  0  0  0  0  0
   -0.0206  -10.5585   16.6210 C   0  0  0  0  0  0  0  0  0  0  0  0
    0.3696  -12.7626   16.2169 O   0  0  0  0  0  0  0  0  0  0  0  0
   -0.6895   -9.5676   17.3297 C   0  0  0  0  0  0  0  0  0  0  0  0
    0.8388   -5.8417   27.5264 C   0  0  0  0  0  0  0  0  0  0  0  0
   -2.0709   -7.6637   18.7817 C   0  0  0  0  0  0  0  0  0  0  0  0
   -0.5279   -8.2168   17.0717 C   0  0  0  0  0  0  0  0  0  0  0  0
    6.9694   -4.0191   27.8190 C   0  0  0  0  0  0  0  0  0  0  0  0
    5.1733   -4.5469   29.8123 C   0  0  0  0  0  0  0  0  0  0  0  0
   -1.7508  -11.3016   18.6072 C   0  0  0  0  0  0  0  0  0  0  0  0
    1.7497   -5.6771   26.4971 C   0  0  0  0  0  0  0  0  0  0  0  0
   -1.5799   -9.9322   18.3468 C   0  0  0  0  0  0  0  0  0  0  0  0
   -1.0871  -12.2214   17.8851 C   0  0  0  0  0  0  0  0  0  0  0  0
   -2.2706   -8.9669   19.0691 C   0  0  0  0  0  0  0  0  0  0  0  0
    3.0279   -5.3073   26.8197 C   0  0  0  0  0  0  0  0  0  0  0  0
    7.3282   -3.8948   29.1186 C   0  0  0  0  0  0  0  0  0  0  0  0
  1  3  4  0
  1  7  4  0
  2  3  1  0
  2  6  4  0
  2 16  4  0
  3 22  4  0
  4  9  4  0
  4 10  1  0
  4 20  4  0
  5 16  4  0
  5 23  4  0
  6 15  4  0
  7 12  4  0
  8 13  4  0
  8 14  4  0
  9 11  4  0
 11 14  4  0
 11 19  4  0
 12 18  4  0
 13 21  4  0
 15 23  4  0
 17 19  4  0
 17 20  4  0
 18 22  4  0
 19 21  4  0
M  END
$$$$

 Created by Python create_sdf_string function

 23 25  0  0  0  0  0  0  0  0999 V2000
    2.4610   -5.3070   29.1240 C   0  0  0  0  0  0  0  0  0  0  0  0
    4.7710   -4.6952   28.4803 C   0  0  0  0  0  0  0  0  0  0  0  0
    3.4047   -5.1087   28.1314 C   0  0  0  0  0  0  0  0  0  0  0  0
   -0.2234  -11.8615   16.8874 C   0  0  0  0  0  0  0  0  0  0  0  0
    6.4491   -4.1532   30.1213 C   0  0  0  0  0  0  0  0  0  0  0  0
    5.7060   -4.4340   27.4975 C   0  0  0  0  0  0  0  0  0  0  0  0
    1.1818   -5.6612   28.8399 C   0  0  0  0  0  0  0  0  0  0  0  0
   -1.2067   -7.3287   17.7772 C   0  0  0  0  0  0  0  0  0  0  0  0
   -0.0206  -10.5585   16.6210 C   0  0  0  0  0  0  0  0  0  0  0  0
    0.3696  -12.7626   16.2169 O   0  0  0  0  0  0  0  0  0  0  0  0
   -0.6895   -9.5676   17.3297 C   0  0  0  0  0  0  0  0  0  0  0  0
    0.8388   -5.8417   27.5264 C   0  0  0  0  0  0  0  0  0  0  0  0
   -2.0709   -7.6637   18.7817 C   0  0  0  0  0  0  0  0  0  0  0  0
   -0.5279   -8.2168   17.0717 C   0  0  0  0  0  0  0  0  0  0  0  0
    6.9694   -4.0191   27.8190 C   0  0  0  0  0  0  0  0  0  0  0  0
    5.1733   -4.5469   29.8123 C   0  0  0  0  0  0  0  0  0  0  0  0
   -1.7508  -11.3016   18.6072 C   0  0  0  0  0  0  0  0  0  0  0  0
    1.7497   -5.6771   26.4971 C   0  0  0  0  0  0  0  0  0  0  0  0
   -1.5799   -9.9322   18.3468 C   0  0  0  0  0  0  0  0  0  0  0  0
   -1.0871  -12.2214   17.8851 C   0  0  0  0  0  0  0  0  0  0  0  0
   -2.2706   -8.9669   19.0691 C   0  0  0  0  0  0  0  0  0  0  0  0
    3.0279   -5.3073   26.8197 C   0  0  0  0  0  0  0  0  0  0  0  0
    7.3282   -3.8948   29.1186 C   0  0  0  0  0  0  0  0  0  0  0  0
  1  3  4  0
  1  7  4  0
  2  3  1  0
  2  6  4  0
  2 16  4  0
  3 22  4  0
  4  9  4  0
  4 10  1  0
  4 20  4  0
  5 16  4  0
  5 23  4  0
  6 15  4  0
  7 12  4  0
  8 13  4  0
  8 14  4  0
  9 11  4  0
 11 14  4  0
 11 19  4  0
 12 18  4  0
 13 21  4  0
 15 23  4  0
 17 19  4  0
 17 20  4  0
 18 22  4  0
 19 21  4  0
M  END
$$$$

 Created by Python create_sdf_string function

 23 25  0  0  0  0  0  0  0  0999 V2000
    2.4610   -5.3070   29.1240 C   0  0  0  0  0  0  0  0  0  0  0  0
    4.7710   -4.6952   28.4803 C   0  0  0  0  0  0  0  0  0  0  0  0
    3.4047   -5.1087   28.1314 C   0  0  0  0  0  0  0  0  0  0  0  0
   -0.2234  -11.8615   16.8874 C   0  0  0  0  0  0  0  0  0  0  0  0
    6.4491   -4.1532   30.1213 C   0  0  0  0  0  0  0  0  0  0  0  0
    5.7060   -4.4340   27.4975 C   0  0  0  0  0  0  0  0  0  0  0  0
    1.1818   -5.6612   28.8399 C   0  0  0  0  0  0  0  0  0  0  0  0
   -1.2067   -7.3287   17.7772 C   0  0  0  0  0  0  0  0  0  0  0  0
   -0.0206  -10.5585   16.6210 C   0  0  0  0  0  0  0  0  0  0  0  0
    0.3696  -12.7626   16.2169 O   0  0  0  0  0  0  0  0  0  0  0  0
   -0.6895   -9.5676   17.3297 C   0  0  0  0  0  0  0  0  0  0  0  0
    0.8388   -5.8417   27.5264 C   0  0  0  0  0  0  0  0  0  0  0  0
   -2.0709   -7.6637   18.7817 C   0  0  0  0  0  0  0  0  0  0  0  0
   -0.5279   -8.2168   17.0717 C   0  0  0  0  0  0  0  0  0  0  0  0
    6.9694   -4.0191   27.8190 C   0  0  0  0  0  0  0  0  0  0  0  0
    5.1733   -4.5469   29.8123 C   0  0  0  0  0  0  0  0  0  0  0  0
   -1.7508  -11.3016   18.6072 C   0  0  0  0  0  0  0  0  0  0  0  0
    1.7497   -5.6771   26.4971 C   0  0  0  0  0  0  0  0  0  0  0  0
   -1.5799   -9.9322   18.3468 C   0  0  0  0  0  0  0  0  0  0  0  0
   -1.0871  -12.2214   17.8851 C   0  0  0  0  0  0  0  0  0  0  0  0
   -2.2706   -8.9669   19.0691 C   0  0  0  0  0  0  0  0  0  0  0  0
    3.0279   -5.3073   26.8197 C   0  0  0  0  0  0  0  0  0  0  0  0
    7.3282   -3.8948   29.1186 C   0  0  0  0  0  0  0  0  0  0  0  0
  1  3  4  0
  1  7  4  0
  2  3  1  0
  2  6  4  0
  2 16  4  0
  3 22  4  0
  4  9  4  0
  4 10  1  0
  4 20  4  0
  5 16  4  0
  5 23  4  0
  6 15  4  0
  7 12  4  0
  8 13  4  0
  8 14  4  0
  9 11  4  0
 11 14  4  0
 11 19  4  0
 12 18  4  0
 13 21  4  0
 15 23  4  0
 17 19  4  0
 17 20  4  0
 18 22  4  0
 19 21  4  0
M  END
$$$$

 Created by Python create_sdf_string function

 23 25  0  0  0  0  0  0  0  0999 V2000
    2.4610   -5.3070   29.1240 C   0  0  0  0  0  0  0  0  0  0  0  0
    4.7710   -4.6952   28.4803 C   0  0  0  0  0  0  0  0  0  0  0  0
    3.4047   -5.1087   28.1314 C   0  0  0  0  0  0  0  0  0  0  0  0
   -0.2234  -11.8615   16.8874 C   0  0  0  0  0  0  0  0  0  0  0  0
    6.4491   -4.1532   30.1213 C   0  0  0  0  0  0  0  0  0  0  0  0
    5.7060   -4.4340   27.4975 C   0  0  0  0  0  0  0  0  0  0  0  0
    1.1818   -5.6612   28.8399 C   0  0  0  0  0  0  0  0  0  0  0  0
   -1.2067   -7.3287   17.7772 C   0  0  0  0  0  0  0  0  0  0  0  0
   -0.0206  -10.5585   16.6210 C   0  0  0  0  0  0  0  0  0  0  0  0
    0.3696  -12.7626   16.2169 O   0  0  0  0  0  0  0  0  0  0  0  0
   -0.6895   -9.5676   17.3297 C   0  0  0  0  0  0  0  0  0  0  0  0
    0.8388   -5.8417   27.5264 C   0  0  0  0  0  0  0  0  0  0  0  0
   -2.0709   -7.6637   18.7817 C   0  0  0  0  0  0  0  0  0  0  0  0
   -0.5279   -8.2168   17.0717 C   0  0  0  0  0  0  0  0  0  0  0  0
    6.9694   -4.0191   27.8190 C   0  0  0  0  0  0  0  0  0  0  0  0
    5.1733   -4.5469   29.8123 C   0  0  0  0  0  0  0  0  0  0  0  0
   -1.7508  -11.3016   18.6072 C   0  0  0  0  0  0  0  0  0  0  0  0
    1.7497   -5.6771   26.4971 C   0  0  0  0  0  0  0  0  0  0  0  0
   -1.5799   -9.9322   18.3468 C   0  0  0  0  0  0  0  0  0  0  0  0
   -1.0871  -12.2214   17.8851 C   0  0  0  0  0  0  0  0  0  0  0  0
   -2.2706   -8.9669   19.0691 C   0  0  0  0  0  0  0  0  0  0  0  0
    3.0279   -5.3073   26.8197 C   0  0  0  0  0  0  0  0  0  0  0  0
    7.3282   -3.8948   29.1186 C   0  0  0  0  0  0  0  0  0  0  0  0
  1  3  4  0
  1  7  4  0
  2  3  1  0
  2  6  4  0
  2 16  4  0
  3 22  4  0
  4  9  4  0
  4 10  1  0
  4 20  4  0
  5 16  4  0
  5 23  4  0
  6 15  4  0
  7 12  4  0
  8 13  4  0
  8 14  4  0
  9 11  4  0
 11 14  4  0
 11 19  4  0
 12 18  4  0
 13 21  4  0
 15 23  4  0
 17 19  4  0
 17 20  4  0
 18 22  4  0
 19 21  4  0
M  END
$$$$

 Created by Python create_sdf_string function

 23 25  0  0  0  0  0  0  0  0999 V2000
    2.4610   -5.3070   29.1240 C   0  0  0  0  0  0  0  0  0  0  0  0
    4.7710   -4.6952   28.4803 C   0  0  0  0  0  0  0  0  0  0  0  0
    3.4047   -5.1087   28.1314 C   0  0  0  0  0  0  0  0  0  0  0  0
   -0.2234  -11.8615   16.8874 C   0  0  0  0  0  0  0  0  0  0  0  0
    6.4491   -4.1532   30.1213 C   0  0  0  0  0  0  0  0  0  0  0  0
    5.7060   -4.4340   27.4975 C   0  0  0  0  0  0  0  0  0  0  0  0
    1.1818   -5.6612   28.8399 C   0  0  0  0  0  0  0  0  0  0  0  0
   -1.2067   -7.3287   17.7772 C   0  0  0  0  0  0  0  0  0  0  0  0
   -0.0206  -10.5585   16.6210 C   0  0  0  0  0  0  0  0  0  0  0  0
    0.3696  -12.7626   16.2169 O   0  0  0  0  0  0  0  0  0  0  0  0
   -0.6895   -9.5676   17.3297 C   0  0  0  0  0  0  0  0  0  0  0  0
    0.8388   -5.8417   27.5264 C   0  0  0  0  0  0  0  0  0  0  0  0
   -2.0709   -7.6637   18.7817 C   0  0  0  0  0  0  0  0  0  0  0  0
   -0.5279   -8.2168   17.0717 C   0  0  0  0  0  0  0  0  0  0  0  0
    6.9694   -4.0191   27.8190 C   0  0  0  0  0  0  0  0  0  0  0  0
    5.1733   -4.5469   29.8123 C   0  0  0  0  0  0  0  0  0  0  0  0
   -1.7508  -11.3016   18.6072 C   0  0  0  0  0  0  0  0  0  0  0  0
    1.7497   -5.6771   26.4971 C   0  0  0  0  0  0  0  0  0  0  0  0
   -1.5799   -9.9322   18.3468 C   0  0  0  0  0  0  0  0  0  0  0  0
   -1.0871  -12.2214   17.8851 C   0  0  0  0  0  0  0  0  0  0  0  0
   -2.2706   -8.9669   19.0691 C   0  0  0  0  0  0  0  0  0  0  0  0
    3.0279   -5.3073   26.8197 C   0  0  0  0  0  0  0  0  0  0  0  0
    7.3282   -3.8948   29.1186 C   0  0  0  0  0  0  0  0  0  0  0  0
  1  3  4  0
  1  7  4  0
  2  3  1  0
  2  6  4  0
  2 16  4  0
  3 22  4  0
  4  9  4  0
  4 10  1  0
  4 20  4  0
  5 16  4  0
  5 23  4  0
  6 15  4  0
  7 12  4  0
  8 13  4  0
  8 14  4  0
  9 11  4  0
 11 14  4  0
 11 19  4  0
 12 18  4  0
 13 21  4  0
 15 23  4  0
 17 19  4  0
 17 20  4  0
 18 22  4  0
 19 21  4  0
M  END
$$$$

 Created by Python create_sdf_string function

 23 25  0  0  0  0  0  0  0  0999 V2000
    2.4610   -5.3070   29.1240 C   0  0  0  0  0  0  0  0  0  0  0  0
    4.7710   -4.6952   28.4803 C   0  0  0  0  0  0  0  0  0  0  0  0
    3.4047   -5.1087   28.1314 C   0  0  0  0  0  0  0  0  0  0  0  0
   -0.2234  -11.8615   16.8874 C   0  0  0  0  0  0  0  0  0  0  0  0
    6.4491   -4.1532   30.1213 C   0  0  0  0  0  0  0  0  0  0  0  0
    5.7060   -4.4340   27.4975 C   0  0  0  0  0  0  0  0  0  0  0  0
    1.1818   -5.6612   28.8399 C   0  0  0  0  0  0  0  0  0  0  0  0
   -1.2067   -7.3287   17.7772 C   0  0  0  0  0  0  0  0  0  0  0  0
   -0.0206  -10.5585   16.6210 C   0  0  0  0  0  0  0  0  0  0  0  0
    0.3696  -12.7626   16.2169 O   0  0  0  0  0  0  0  0  0  0  0  0
   -0.6895   -9.5676   17.3297 C   0  0  0  0  0  0  0  0  0  0  0  0
    0.8388   -5.8417   27.5264 C   0  0  0  0  0  0  0  0  0  0  0  0
   -2.0709   -7.6637   18.7817 C   0  0  0  0  0  0  0  0  0  0  0  0
   -0.5279   -8.2168   17.0717 C   0  0  0  0  0  0  0  0  0  0  0  0
    6.9694   -4.0191   27.8190 C   0  0  0  0  0  0  0  0  0  0  0  0
    5.1733   -4.5469   29.8123 C   0  0  0  0  0  0  0  0  0  0  0  0
   -1.7508  -11.3016   18.6072 C   0  0  0  0  0  0  0  0  0  0  0  0
    1.7497   -5.6771   26.4971 C   0  0  0  0  0  0  0  0  0  0  0  0
   -1.5799   -9.9322   18.3468 C   0  0  0  0  0  0  0  0  0  0  0  0
   -1.0871  -12.2214   17.8851 C   0  0  0  0  0  0  0  0  0  0  0  0
   -2.2706   -8.9669   19.0691 C   0  0  0  0  0  0  0  0  0  0  0  0
    3.0279   -5.3073   26.8197 C   0  0  0  0  0  0  0  0  0  0  0  0
    7.3282   -3.8948   29.1186 C   0  0  0  0  0  0  0  0  0  0  0  0
  1  3  4  0
  1  7  4  0
  2  3  1  0
  2  6  4  0
  2 16  4  0
  3 22  4  0
  4  9  4  0
  4 10  1  0
  4 20  4  0
  5 16  4  0
  5 23  4  0
  6 15  4  0
  7 12  4  0
  8 13  4  0
  8 14  4  0
  9 11  4  0
 11 14  4  0
 11 19  4  0
 12 18  4  0
 13 21  4  0
 15 23  4  0
 17 19  4  0
 17 20  4  0
 18 22  4  0
 19 21  4  0
M  END
$$$$

 Created by Python create_sdf_string function

 23 25  0  0  0  0  0  0  0  0999 V2000
    2.4610   -5.3070   29.1240 C   0  0  0  0  0  0  0  0  0  0  0  0
    4.7710   -4.6952   28.4803 C   0  0  0  0  0  0  0  0  0  0  0  0
    3.4047   -5.1087   28.1314 C   0  0  0  0  0  0  0  0  0  0  0  0
   -0.2234  -11.8615   16.8874 C   0  0  0  0  0  0  0  0  0  0  0  0
    6.4491   -4.1532   30.1213 C   0  0  0  0  0  0  0  0  0  0  0  0
    5.7060   -4.4340   27.4975 C   0  0  0  0  0  0  0  0  0  0  0  0
    1.1818   -5.6612   28.8399 C   0  0  0  0  0  0  0  0  0  0  0  0
   -1.2067   -7.3287   17.7772 C   0  0  0  0  0  0  0  0  0  0  0  0
   -0.0206  -10.5585   16.6210 C   0  0  0  0  0  0  0  0  0  0  0  0
    0.3696  -12.7626   16.2169 O   0  0  0  0  0  0  0  0  0  0  0  0
   -0.6895   -9.5676   17.3297 C   0  0  0  0  0  0  0  0  0  0  0  0
    0.8388   -5.8417   27.5264 C   0  0  0  0  0  0  0  0  0  0  0  0
   -2.0709   -7.6637   18.7817 C   0  0  0  0  0  0  0  0  0  0  0  0
   -0.5279   -8.2168   17.0717 C   0  0  0  0  0  0  0  0  0  0  0  0
    6.9694   -4.0191   27.8190 C   0  0  0  0  0  0  0  0  0  0  0  0
    5.1733   -4.5469   29.8123 C   0  0  0  0  0  0  0  0  0  0  0  0
   -1.7508  -11.3016   18.6072 C   0  0  0  0  0  0  0  0  0  0  0  0
    1.7497   -5.6771   26.4971 C   0  0  0  0  0  0  0  0  0  0  0  0
   -1.5799   -9.9322   18.3468 C   0  0  0  0  0  0  0  0  0  0  0  0
   -1.0871  -12.2214   17.8851 C   0  0  0  0  0  0  0  0  0  0  0  0
   -2.2706   -8.9669   19.0691 C   0  0  0  0  0  0  0  0  0  0  0  0
    3.0279   -5.3073   26.8197 C   0  0  0  0  0  0  0  0  0  0  0  0
    7.3282   -3.8948   29.1186 C   0  0  0  0  0  0  0  0  0  0  0  0
  1  3  4  0
  1  7  4  0
  2  3  1  0
  2  6  4  0
  2 16  4  0
  3 22  4  0
  4  9  4  0
  4 10  1  0
  4 20  4  0
  5 16  4  0
  5 23  4  0
  6 15  4  0
  7 12  4  0
  8 13  4  0
  8 14  4  0
  9 11  4  0
 11 14  4  0
 11 19  4  0
 12 18  4  0
 13 21  4  0
 15 23  4  0
 17 19  4  0
 17 20  4  0
 18 22  4  0
 19 21  4  0
M  END
$$$$

 Created by Python create_sdf_string function

 23 25  0  0  0  0  0  0  0  0999 V2000
    2.4610   -5.3070   29.1240 C   0  0  0  0  0  0  0  0  0  0  0  0
    4.7710   -4.6952   28.4803 C   0  0  0  0  0  0  0  0  0  0  0  0
    3.4047   -5.1087   28.1314 C   0  0  0  0  0  0  0  0  0  0  0  0
   -0.2234  -11.8615   16.8874 C   0  0  0  0  0  0  0  0  0  0  0  0
    6.4491   -4.1532   30.1213 C   0  0  0  0  0  0  0  0  0  0  0  0
    5.7060   -4.4340   27.4975 C   0  0  0  0  0  0  0  0  0  0  0  0
    1.1818   -5.6612   28.8399 C   0  0  0  0  0  0  0  0  0  0  0  0
   -1.2067   -7.3287   17.7772 C   0  0  0  0  0  0  0  0  0  0  0  0
   -0.0206  -10.5585   16.6210 C   0  0  0  0  0  0  0  0  0  0  0  0
    0.3696  -12.7626   16.2169 O   0  0  0  0  0  0  0  0  0  0  0  0
   -0.6895   -9.5676   17.3297 C   0  0  0  0  0  0  0  0  0  0  0  0
    0.8388   -5.8417   27.5264 C   0  0  0  0  0  0  0  0  0  0  0  0
   -2.0709   -7.6637   18.7817 C   0  0  0  0  0  0  0  0  0  0  0  0
   -0.5279   -8.2168   17.0717 C   0  0  0  0  0  0  0  0  0  0  0  0
    6.9694   -4.0191   27.8190 C   0  0  0  0  0  0  0  0  0  0  0  0
    5.1733   -4.5469   29.8123 C   0  0  0  0  0  0  0  0  0  0  0  0
   -1.7508  -11.3016   18.6072 C   0  0  0  0  0  0  0  0  0  0  0  0
    1.7497   -5.6771   26.4971 C   0  0  0  0  0  0  0  0  0  0  0  0
   -1.5799   -9.9322   18.3468 C   0  0  0  0  0  0  0  0  0  0  0  0
   -1.0871  -12.2214   17.8851 C   0  0  0  0  0  0  0  0  0  0  0  0
   -2.2706   -8.9669   19.0691 C   0  0  0  0  0  0  0  0  0  0  0  0
    3.0279   -5.3073   26.8197 C   0  0  0  0  0  0  0  0  0  0  0  0
    7.3282   -3.8948   29.1186 C   0  0  0  0  0  0  0  0  0  0  0  0
  1  3  4  0
  1  7  4  0
  2  3  1  0
  2  6  4  0
  2 16  4  0
  3 22  4  0
  4  9  4  0
  4 10  1  0
  4 20  4  0
  5 16  4  0
  5 23  4  0
  6 15  4  0
  7 12  4  0
  8 13  4  0
  8 14  4  0
  9 11  4  0
 11 14  4  0
 11 19  4  0
 12 18  4  0
 13 21  4  0
 15 23  4  0
 17 19  4  0
 17 20  4  0
 18 22  4  0
 19 21  4  0
M  END
$$$$

 Created by Python create_sdf_string function

 23 25  0  0  0  0  0  0  0  0999 V2000
    2.4610   -5.3070   29.1240 C   0  0  0  0  0  0  0  0  0  0  0  0
    4.7710   -4.6952   28.4803 C   0  0  0  0  0  0  0  0  0  0  0  0
    3.4047   -5.1087   28.1314 C   0  0  0  0  0  0  0  0  0  0  0  0
   -0.2234  -11.8615   16.8874 C   0  0  0  0  0  0  0  0  0  0  0  0
    6.4491   -4.1532   30.1213 C   0  0  0  0  0  0  0  0  0  0  0  0
    5.7060   -4.4340   27.4975 C   0  0  0  0  0  0  0  0  0  0  0  0
    1.1818   -5.6612   28.8399 C   0  0  0  0  0  0  0  0  0  0  0  0
   -1.2067   -7.3287   17.7772 C   0  0  0  0  0  0  0  0  0  0  0  0
   -0.0206  -10.5585   16.6210 C   0  0  0  0  0  0  0  0  0  0  0  0
    0.3696  -12.7626   16.2169 O   0  0  0  0  0  0  0  0  0  0  0  0
   -0.6895   -9.5676   17.3297 C   0  0  0  0  0  0  0  0  0  0  0  0
    0.8388   -5.8417   27.5264 C   0  0  0  0  0  0  0  0  0  0  0  0
   -2.0709   -7.6637   18.7817 C   0  0  0  0  0  0  0  0  0  0  0  0
   -0.5279   -8.2168   17.0717 C   0  0  0  0  0  0  0  0  0  0  0  0
    6.9694   -4.0191   27.8190 C   0  0  0  0  0  0  0  0  0  0  0  0
    5.1733   -4.5469   29.8123 C   0  0  0  0  0  0  0  0  0  0  0  0
   -1.7508  -11.3016   18.6072 C   0  0  0  0  0  0  0  0  0  0  0  0
    1.7497   -5.6771   26.4971 C   0  0  0  0  0  0  0  0  0  0  0  0
   -1.5799   -9.9322   18.3468 C   0  0  0  0  0  0  0  0  0  0  0  0
   -1.0871  -12.2214   17.8851 C   0  0  0  0  0  0  0  0  0  0  0  0
   -2.2706   -8.9669   19.0691 C   0  0  0  0  0  0  0  0  0  0  0  0
    3.0279   -5.3073   26.8197 C   0  0  0  0  0  0  0  0  0  0  0  0
    7.3282   -3.8948   29.1186 C   0  0  0  0  0  0  0  0  0  0  0  0
  1  3  4  0
  1  7  4  0
  2  3  1  0
  2  6  4  0
  2 16  4  0
  3 22  4  0
  4  9  4  0
  4 10  1  0
  4 20  4  0
  5 16  4  0
  5 23  4  0
  6 15  4  0
  7 12  4  0
  8 13  4  0
  8 14  4  0
  9 11  4  0
 11 14  4  0
 11 19  4  0
 12 18  4  0
 13 21  4  0
 15 23  4  0
 17 19  4  0
 17 20  4  0
 18 22  4  0
 19 21  4  0
M  END
$$$$

 Created by Python create_sdf_string function

 23 25  0  0  0  0  0  0  0  0999 V2000
    2.4610   -5.3070   29.1240 C   0  0  0  0  0  0  0  0  0  0  0  0
    4.7710   -4.6952   28.4803 C   0  0  0  0  0  0  0  0  0  0  0  0
    3.4047   -5.1087   28.1314 C   0  0  0  0  0  0  0  0  0  0  0  0
   -0.2234  -11.8615   16.8874 C   0  0  0  0  0  0  0  0  0  0  0  0
    6.4491   -4.1532   30.1213 C   0  0  0  0  0  0  0  0  0  0  0  0
    5.7060   -4.4340   27.4975 C   0  0  0  0  0  0  0  0  0  0  0  0
    1.1818   -5.6612   28.8399 C   0  0  0  0  0  0  0  0  0  0  0  0
   -1.2067   -7.3287   17.7772 C   0  0  0  0  0  0  0  0  0  0  0  0
   -0.0206  -10.5585   16.6210 C   0  0  0  0  0  0  0  0  0  0  0  0
    0.3696  -12.7626   16.2169 O   0  0  0  0  0  0  0  0  0  0  0  0
   -0.6895   -9.5676   17.3297 C   0  0  0  0  0  0  0  0  0  0  0  0
    0.8388   -5.8417   27.5264 C   0  0  0  0  0  0  0  0  0  0  0  0
   -2.0709   -7.6637   18.7817 C   0  0  0  0  0  0  0  0  0  0  0  0
   -0.5279   -8.2168   17.0717 C   0  0  0  0  0  0  0  0  0  0  0  0
    6.9694   -4.0191   27.8190 C   0  0  0  0  0  0  0  0  0  0  0  0
    5.1733   -4.5469   29.8123 C   0  0  0  0  0  0  0  0  0  0  0  0
   -1.7508  -11.3016   18.6072 C   0  0  0  0  0  0  0  0  0  0  0  0
    1.7497   -5.6771   26.4971 C   0  0  0  0  0  0  0  0  0  0  0  0
   -1.5799   -9.9322   18.3468 C   0  0  0  0  0  0  0  0  0  0  0  0
   -1.0871  -12.2214   17.8851 C   0  0  0  0  0  0  0  0  0  0  0  0
   -2.2706   -8.9669   19.0691 C   0  0  0  0  0  0  0  0  0  0  0  0
    3.0279   -5.3073   26.8197 C   0  0  0  0  0  0  0  0  0  0  0  0
    7.3282   -3.8948   29.1186 C   0  0  0  0  0  0  0  0  0  0  0  0
  1  3  4  0
  1  7  4  0
  2  3  1  0
  2  6  4  0
  2 16  4  0
  3 22  4  0
  4  9  4  0
  4 10  1  0
  4 20  4  0
  5 16  4  0
  5 23  4  0
  6 15  4  0
  7 12  4  0
  8 13  4  0
  8 14  4  0
  9 11  4  0
 11 14  4  0
 11 19  4  0
 12 18  4  0
 13 21  4  0
 15 23  4  0
 17 19  4  0
 17 20  4  0
 18 22  4  0
 19 21  4  0
M  END
$$$$

 Created by Python create_sdf_string function

 23 25  0  0  0  0  0  0  0  0999 V2000
    2.4610   -5.3070   29.1240 C   0  0  0  0  0  0  0  0  0  0  0  0
    4.7710   -4.6952   28.4803 C   0  0  0  0  0  0  0  0  0  0  0  0
    3.4047   -5.1087   28.1314 C   0  0  0  0  0  0  0  0  0  0  0  0
   -0.2234  -11.8615   16.8874 C   0  0  0  0  0  0  0  0  0  0  0  0
    6.4491   -4.1532   30.1213 C   0  0  0  0  0  0  0  0  0  0  0  0
    5.7060   -4.4340   27.4975 C   0  0  0  0  0  0  0  0  0  0  0  0
    1.1818   -5.6612   28.8399 C   0  0  0  0  0  0  0  0  0  0  0  0
   -1.2067   -7.3287   17.7772 C   0  0  0  0  0  0  0  0  0  0  0  0
   -0.0206  -10.5585   16.6210 C   0  0  0  0  0  0  0  0  0  0  0  0
    0.3696  -12.7626   16.2169 O   0  0  0  0  0  0  0  0  0  0  0  0
   -0.6895   -9.5676   17.3297 C   0  0  0  0  0  0  0  0  0  0  0  0
    0.8388   -5.8417   27.5264 C   0  0  0  0  0  0  0  0  0  0  0  0
   -2.0709   -7.6637   18.7817 C   0  0  0  0  0  0  0  0  0  0  0  0
   -0.5279   -8.2168   17.0717 C   0  0  0  0  0  0  0  0  0  0  0  0
    6.9694   -4.0191   27.8190 C   0  0  0  0  0  0  0  0  0  0  0  0
    5.1733   -4.5469   29.8123 C   0  0  0  0  0  0  0  0  0  0  0  0
   -1.7508  -11.3016   18.6072 C   0  0  0  0  0  0  0  0  0  0  0  0
    1.7497   -5.6771   26.4971 C   0  0  0  0  0  0  0  0  0  0  0  0
   -1.5799   -9.9322   18.3468 C   0  0  0  0  0  0  0  0  0  0  0  0
   -1.0871  -12.2214   17.8851 C   0  0  0  0  0  0  0  0  0  0  0  0
   -2.2706   -8.9669   19.0691 C   0  0  0  0  0  0  0  0  0  0  0  0
    3.0279   -5.3073   26.8197 C   0  0  0  0  0  0  0  0  0  0  0  0
    7.3282   -3.8948   29.1186 C   0  0  0  0  0  0  0  0  0  0  0  0
  1  3  4  0
  1  7  4  0
  2  3  1  0
  2  6  4  0
  2 16  4  0
  3 22  4  0
  4  9  4  0
  4 10  1  0
  4 20  4  0
  5 16  4  0
  5 23  4  0
  6 15  4  0
  7 12  4  0
  8 13  4  0
  8 14  4  0
  9 11  4  0
 11 14  4  0
 11 19  4  0
 12 18  4  0
 13 21  4  0
 15 23  4  0
 17 19  4  0
 17 20  4  0
 18 22  4  0
 19 21  4  0
M  END
$$$$

 Created by Python create_sdf_string function

 23 25  0  0  0  0  0  0  0  0999 V2000
    2.4610   -5.3070   29.1240 C   0  0  0  0  0  0  0  0  0  0  0  0
    4.7710   -4.6952   28.4803 C   0  0  0  0  0  0  0  0  0  0  0  0
    3.4047   -5.1087   28.1314 C   0  0  0  0  0  0  0  0  0  0  0  0
   -0.2234  -11.8615   16.8874 C   0  0  0  0  0  0  0  0  0  0  0  0
    6.4491   -4.1532   30.1213 C   0  0  0  0  0  0  0  0  0  0  0  0
    5.7060   -4.4340   27.4975 C   0  0  0  0  0  0  0  0  0  0  0  0
    1.1818   -5.6612   28.8399 C   0  0  0  0  0  0  0  0  0  0  0  0
   -1.2067   -7.3287   17.7772 C   0  0  0  0  0  0  0  0  0  0  0  0
   -0.0206  -10.5585   16.6210 C   0  0  0  0  0  0  0  0  0  0  0  0
    0.3696  -12.7626   16.2169 O   0  0  0  0  0  0  0  0  0  0  0  0
   -0.6895   -9.5676   17.3297 C   0  0  0  0  0  0  0  0  0  0  0  0
    0.8388   -5.8417   27.5264 C   0  0  0  0  0  0  0  0  0  0  0  0
   -2.0709   -7.6637   18.7817 C   0  0  0  0  0  0  0  0  0  0  0  0
   -0.5279   -8.2168   17.0717 C   0  0  0  0  0  0  0  0  0  0  0  0
    6.9694   -4.0191   27.8190 C   0  0  0  0  0  0  0  0  0  0  0  0
    5.1733   -4.5469   29.8123 C   0  0  0  0  0  0  0  0  0  0  0  0
   -1.7508  -11.3016   18.6072 C   0  0  0  0  0  0  0  0  0  0  0  0
    1.7497   -5.6771   26.4971 C   0  0  0  0  0  0  0  0  0  0  0  0
   -1.5799   -9.9322   18.3468 C   0  0  0  0  0  0  0  0  0  0  0  0
   -1.0871  -12.2214   17.8851 C   0  0  0  0  0  0  0  0  0  0  0  0
   -2.2706   -8.9669   19.0691 C   0  0  0  0  0  0  0  0  0  0  0  0
    3.0279   -5.3073   26.8197 C   0  0  0  0  0  0  0  0  0  0  0  0
    7.3282   -3.8948   29.1186 C   0  0  0  0  0  0  0  0  0  0  0  0
  1  3  4  0
  1  7  4  0
  2  3  1  0
  2  6  4  0
  2 16  4  0
  3 22  4  0
  4  9  4  0
  4 10  1  0
  4 20  4  0
  5 16  4  0
  5 23  4  0
  6 15  4  0
  7 12  4  0
  8 13  4  0
  8 14  4  0
  9 11  4  0
 11 14  4  0
 11 19  4  0
 12 18  4  0
 13 21  4  0
 15 23  4  0
 17 19  4  0
 17 20  4  0
 18 22  4  0
 19 21  4  0
M  END
$$$$

 Created by Python create_sdf_string function

 23 25  0  0  0  0  0  0  0  0999 V2000
    2.4610   -5.3070   29.1240 C   0  0  0  0  0  0  0  0  0  0  0  0
    4.7710   -4.6952   28.4803 C   0  0  0  0  0  0  0  0  0  0  0  0
    3.4047   -5.1087   28.1314 C   0  0  0  0  0  0  0  0  0  0  0  0
   -0.2234  -11.8615   16.8874 C   0  0  0  0  0  0  0  0  0  0  0  0
    6.4491   -4.1532   30.1213 C   0  0  0  0  0  0  0  0  0  0  0  0
    5.7060   -4.4340   27.4975 C   0  0  0  0  0  0  0  0  0  0  0  0
    1.1818   -5.6612   28.8399 C   0  0  0  0  0  0  0  0  0  0  0  0
   -1.2067   -7.3287   17.7772 C   0  0  0  0  0  0  0  0  0  0  0  0
   -0.0206  -10.5585   16.6210 C   0  0  0  0  0  0  0  0  0  0  0  0
    0.3696  -12.7626   16.2169 O   0  0  0  0  0  0  0  0  0  0  0  0
   -0.6895   -9.5676   17.3297 C   0  0  0  0  0  0  0  0  0  0  0  0
    0.8388   -5.8417   27.5264 C   0  0  0  0  0  0  0  0  0  0  0  0
   -2.0709   -7.6637   18.7817 C   0  0  0  0  0  0  0  0  0  0  0  0
   -0.5279   -8.2168   17.0717 C   0  0  0  0  0  0  0  0  0  0  0  0
    6.9694   -4.0191   27.8190 C   0  0  0  0  0  0  0  0  0  0  0  0
    5.1733   -4.5469   29.8123 C   0  0  0  0  0  0  0  0  0  0  0  0
   -1.7508  -11.3016   18.6072 C   0  0  0  0  0  0  0  0  0  0  0  0
    1.7497   -5.6771   26.4971 C   0  0  0  0  0  0  0  0  0  0  0  0
   -1.5799   -9.9322   18.3468 C   0  0  0  0  0  0  0  0  0  0  0  0
   -1.0871  -12.2214   17.8851 C   0  0  0  0  0  0  0  0  0  0  0  0
   -2.2706   -8.9669   19.0691 C   0  0  0  0  0  0  0  0  0  0  0  0
    3.0279   -5.3073   26.8197 C   0  0  0  0  0  0  0  0  0  0  0  0
    7.3282   -3.8948   29.1186 C   0  0  0  0  0  0  0  0  0  0  0  0
  1  3  4  0
  1  7  4  0
  2  3  1  0
  2  6  4  0
  2 16  4  0
  3 22  4  0
  4  9  4  0
  4 10  1  0
  4 20  4  0
  5 16  4  0
  5 23  4  0
  6 15  4  0
  7 12  4  0
  8 13  4  0
  8 14  4  0
  9 11  4  0
 11 14  4  0
 11 19  4  0
 12 18  4  0
 13 21  4  0
 15 23  4  0
 17 19  4  0
 17 20  4  0
 18 22  4  0
 19 21  4  0
M  END
$$$$

 Created by Python create_sdf_string function

 23 25  0  0  0  0  0  0  0  0999 V2000
    2.4610   -5.3070   29.1240 C   0  0  0  0  0  0  0  0  0  0  0  0
    4.7710   -4.6952   28.4803 C   0  0  0  0  0  0  0  0  0  0  0  0
    3.4047   -5.1087   28.1314 C   0  0  0  0  0  0  0  0  0  0  0  0
   -0.2234  -11.8615   16.8874 C   0  0  0  0  0  0  0  0  0  0  0  0
    6.4491   -4.1532   30.1213 C   0  0  0  0  0  0  0  0  0  0  0  0
    5.7060   -4.4340   27.4975 C   0  0  0  0  0  0  0  0  0  0  0  0
    1.1818   -5.6612   28.8399 C   0  0  0  0  0  0  0  0  0  0  0  0
   -1.2067   -7.3287   17.7772 C   0  0  0  0  0  0  0  0  0  0  0  0
   -0.0206  -10.5585   16.6210 C   0  0  0  0  0  0  0  0  0  0  0  0
    0.3696  -12.7626   16.2169 O   0  0  0  0  0  0  0  0  0  0  0  0
   -0.6895   -9.5676   17.3297 C   0  0  0  0  0  0  0  0  0  0  0  0
    0.8388   -5.8417   27.5264 C   0  0  0  0  0  0  0  0  0  0  0  0
   -2.0709   -7.6637   18.7817 C   0  0  0  0  0  0  0  0  0  0  0  0
   -0.5279   -8.2168   17.0717 C   0  0  0  0  0  0  0  0  0  0  0  0
    6.9694   -4.0191   27.8190 C   0  0  0  0  0  0  0  0  0  0  0  0
    5.1733   -4.5469   29.8123 C   0  0  0  0  0  0  0  0  0  0  0  0
   -1.7508  -11.3016   18.6072 C   0  0  0  0  0  0  0  0  0  0  0  0
    1.7497   -5.6771   26.4971 C   0  0  0  0  0  0  0  0  0  0  0  0
   -1.5799   -9.9322   18.3468 C   0  0  0  0  0  0  0  0  0  0  0  0
   -1.0871  -12.2214   17.8851 C   0  0  0  0  0  0  0  0  0  0  0  0
   -2.2706   -8.9669   19.0691 C   0  0  0  0  0  0  0  0  0  0  0  0
    3.0279   -5.3073   26.8197 C   0  0  0  0  0  0  0  0  0  0  0  0
    7.3282   -3.8948   29.1186 C   0  0  0  0  0  0  0  0  0  0  0  0
  1  3  4  0
  1  7  4  0
  2  3  1  0
  2  6  4  0
  2 16  4  0
  3 22  4  0
  4  9  4  0
  4 10  1  0
  4 20  4  0
  5 16  4  0
  5 23  4  0
  6 15  4  0
  7 12  4  0
  8 13  4  0
  8 14  4  0
  9 11  4  0
 11 14  4  0
 11 19  4  0
 12 18  4  0
 13 21  4  0
 15 23  4  0
 17 19  4  0
 17 20  4  0
 18 22  4  0
 19 21  4  0
M  END
$$$$

 Created by Python create_sdf_string function

 23 25  0  0  0  0  0  0  0  0999 V2000
    2.4610   -5.3070   29.1240 C   0  0  0  0  0  0  0  0  0  0  0  0
    4.7710   -4.6952   28.4803 C   0  0  0  0  0  0  0  0  0  0  0  0
    3.4047   -5.1087   28.1314 C   0  0  0  0  0  0  0  0  0  0  0  0
   -0.2234  -11.8615   16.8874 C   0  0  0  0  0  0  0  0  0  0  0  0
    6.4491   -4.1532   30.1213 C   0  0  0  0  0  0  0  0  0  0  0  0
    5.7060   -4.4340   27.4975 C   0  0  0  0  0  0  0  0  0  0  0  0
    1.1818   -5.6612   28.8399 C   0  0  0  0  0  0  0  0  0  0  0  0
   -1.2067   -7.3287   17.7772 C   0  0  0  0  0  0  0  0  0  0  0  0
   -0.0206  -10.5585   16.6210 C   0  0  0  0  0  0  0  0  0  0  0  0
    0.3696  -12.7626   16.2169 O   0  0  0  0  0  0  0  0  0  0  0  0
   -0.6895   -9.5676   17.3297 C   0  0  0  0  0  0  0  0  0  0  0  0
    0.8388   -5.8417   27.5264 C   0  0  0  0  0  0  0  0  0  0  0  0
   -2.0709   -7.6637   18.7817 C   0  0  0  0  0  0  0  0  0  0  0  0
   -0.5279   -8.2168   17.0717 C   0  0  0  0  0  0  0  0  0  0  0  0
    6.9694   -4.0191   27.8190 C   0  0  0  0  0  0  0  0  0  0  0  0
    5.1733   -4.5469   29.8123 C   0  0  0  0  0  0  0  0  0  0  0  0
   -1.7508  -11.3016   18.6072 C   0  0  0  0  0  0  0  0  0  0  0  0
    1.7497   -5.6771   26.4971 C   0  0  0  0  0  0  0  0  0  0  0  0
   -1.5799   -9.9322   18.3468 C   0  0  0  0  0  0  0  0  0  0  0  0
   -1.0871  -12.2214   17.8851 C   0  0  0  0  0  0  0  0  0  0  0  0
   -2.2706   -8.9669   19.0691 C   0  0  0  0  0  0  0  0  0  0  0  0
    3.0279   -5.3073   26.8197 C   0  0  0  0  0  0  0  0  0  0  0  0
    7.3282   -3.8948   29.1186 C   0  0  0  0  0  0  0  0  0  0  0  0
  1  3  4  0
  1  7  4  0
  2  3  1  0
  2  6  4  0
  2 16  4  0
  3 22  4  0
  4  9  4  0
  4 10  1  0
  4 20  4  0
  5 16  4  0
  5 23  4  0
  6 15  4  0
  7 12  4  0
  8 13  4  0
  8 14  4  0
  9 11  4  0
 11 14  4  0
 11 19  4  0
 12 18  4  0
 13 21  4  0
 15 23  4  0
 17 19  4  0
 17 20  4  0
 18 22  4  0
 19 21  4  0
M  END
$$$$

 Created by Python create_sdf_string function

 23 25  0  0  0  0  0  0  0  0999 V2000
    2.4610   -5.3070   29.1240 C   0  0  0  0  0  0  0  0  0  0  0  0
    4.7710   -4.6952   28.4803 C   0  0  0  0  0  0  0  0  0  0  0  0
    3.4047   -5.1087   28.1314 C   0  0  0  0  0  0  0  0  0  0  0  0
   -0.2234  -11.8615   16.8874 C   0  0  0  0  0  0  0  0  0  0  0  0
    6.4491   -4.1532   30.1213 C   0  0  0  0  0  0  0  0  0  0  0  0
    5.7060   -4.4340   27.4975 C   0  0  0  0  0  0  0  0  0  0  0  0
    1.1818   -5.6612   28.8399 C   0  0  0  0  0  0  0  0  0  0  0  0
   -1.2067   -7.3287   17.7772 C   0  0  0  0  0  0  0  0  0  0  0  0
   -0.0206  -10.5585   16.6210 C   0  0  0  0  0  0  0  0  0  0  0  0
    0.3696  -12.7626   16.2169 O   0  0  0  0  0  0  0  0  0  0  0  0
   -0.6895   -9.5676   17.3297 C   0  0  0  0  0  0  0  0  0  0  0  0
    0.8388   -5.8417   27.5264 C   0  0  0  0  0  0  0  0  0  0  0  0
   -2.0709   -7.6637   18.7817 C   0  0  0  0  0  0  0  0  0  0  0  0
   -0.5279   -8.2168   17.0717 C   0  0  0  0  0  0  0  0  0  0  0  0
    6.9694   -4.0191   27.8190 C   0  0  0  0  0  0  0  0  0  0  0  0
    5.1733   -4.5469   29.8123 C   0  0  0  0  0  0  0  0  0  0  0  0
   -1.7508  -11.3016   18.6072 C   0  0  0  0  0  0  0  0  0  0  0  0
    1.7497   -5.6771   26.4971 C   0  0  0  0  0  0  0  0  0  0  0  0
   -1.5799   -9.9322   18.3468 C   0  0  0  0  0  0  0  0  0  0  0  0
   -1.0871  -12.2214   17.8851 C   0  0  0  0  0  0  0  0  0  0  0  0
   -2.2706   -8.9669   19.0691 C   0  0  0  0  0  0  0  0  0  0  0  0
    3.0279   -5.3073   26.8197 C   0  0  0  0  0  0  0  0  0  0  0  0
    7.3282   -3.8948   29.1186 C   0  0  0  0  0  0  0  0  0  0  0  0
  1  3  4  0
  1  7  4  0
  2  3  1  0
  2  6  4  0
  2 16  4  0
  3 22  4  0
  4  9  4  0
  4 10  1  0
  4 20  4  0
  5 16  4  0
  5 23  4  0
  6 15  4  0
  7 12  4  0
  8 13  4  0
  8 14  4  0
  9 11  4  0
 11 14  4  0
 11 19  4  0
 12 18  4  0
 13 21  4  0
 15 23  4  0
 17 19  4  0
 17 20  4  0
 18 22  4  0
 19 21  4  0
M  END
$$$$

 Created by Python create_sdf_string function

 23 25  0  0  0  0  0  0  0  0999 V2000
    2.4610   -5.3070   29.1240 C   0  0  0  0  0  0  0  0  0  0  0  0
    4.7710   -4.6952   28.4803 C   0  0  0  0  0  0  0  0  0  0  0  0
    3.4047   -5.1087   28.1314 C   0  0  0  0  0  0  0  0  0  0  0  0
   -0.2234  -11.8615   16.8874 C   0  0  0  0  0  0  0  0  0  0  0  0
    6.4491   -4.1532   30.1213 C   0  0  0  0  0  0  0  0  0  0  0  0
    5.7060   -4.4340   27.4975 C   0  0  0  0  0  0  0  0  0  0  0  0
    1.1818   -5.6612   28.8399 C   0  0  0  0  0  0  0  0  0  0  0  0
   -1.2067   -7.3287   17.7772 C   0  0  0  0  0  0  0  0  0  0  0  0
   -0.0206  -10.5585   16.6210 C   0  0  0  0  0  0  0  0  0  0  0  0
    0.3696  -12.7626   16.2169 O   0  0  0  0  0  0  0  0  0  0  0  0
   -0.6895   -9.5676   17.3297 C   0  0  0  0  0  0  0  0  0  0  0  0
    0.8388   -5.8417   27.5264 C   0  0  0  0  0  0  0  0  0  0  0  0
   -2.0709   -7.6637   18.7817 C   0  0  0  0  0  0  0  0  0  0  0  0
   -0.5279   -8.2168   17.0717 C   0  0  0  0  0  0  0  0  0  0  0  0
    6.9694   -4.0191   27.8190 C   0  0  0  0  0  0  0  0  0  0  0  0
    5.1733   -4.5469   29.8123 C   0  0  0  0  0  0  0  0  0  0  0  0
   -1.7508  -11.3016   18.6072 C   0  0  0  0  0  0  0  0  0  0  0  0
    1.7497   -5.6771   26.4971 C   0  0  0  0  0  0  0  0  0  0  0  0
   -1.5799   -9.9322   18.3468 C   0  0  0  0  0  0  0  0  0  0  0  0
   -1.0871  -12.2214   17.8851 C   0  0  0  0  0  0  0  0  0  0  0  0
   -2.2706   -8.9669   19.0691 C   0  0  0  0  0  0  0  0  0  0  0  0
    3.0279   -5.3073   26.8197 C   0  0  0  0  0  0  0  0  0  0  0  0
    7.3282   -3.8948   29.1186 C   0  0  0  0  0  0  0  0  0  0  0  0
  1  3  4  0
  1  7  4  0
  2  3  1  0
  2  6  4  0
  2 16  4  0
  3 22  4  0
  4  9  4  0
  4 10  1  0
  4 20  4  0
  5 16  4  0
  5 23  4  0
  6 15  4  0
  7 12  4  0
  8 13  4  0
  8 14  4  0
  9 11  4  0
 11 14  4  0
 11 19  4  0
 12 18  4  0
 13 21  4  0
 15 23  4  0
 17 19  4  0
 17 20  4  0
 18 22  4  0
 19 21  4  0
M  END
$$$$

 Created by Python create_sdf_string function

 23 25  0  0  0  0  0  0  0  0999 V2000
    2.4610   -5.3070   29.1240 C   0  0  0  0  0  0  0  0  0  0  0  0
    4.7710   -4.6952   28.4803 C   0  0  0  0  0  0  0  0  0  0  0  0
    3.4047   -5.1087   28.1314 C   0  0  0  0  0  0  0  0  0  0  0  0
   -0.2234  -11.8615   16.8874 C   0  0  0  0  0  0  0  0  0  0  0  0
    6.4491   -4.1532   30.1213 C   0  0  0  0  0  0  0  0  0  0  0  0
    5.7060   -4.4340   27.4975 C   0  0  0  0  0  0  0  0  0  0  0  0
    1.1818   -5.6612   28.8399 C   0  0  0  0  0  0  0  0  0  0  0  0
   -1.2067   -7.3287   17.7772 C   0  0  0  0  0  0  0  0  0  0  0  0
   -0.0206  -10.5585   16.6210 C   0  0  0  0  0  0  0  0  0  0  0  0
    0.3696  -12.7626   16.2169 O   0  0  0  0  0  0  0  0  0  0  0  0
   -0.6895   -9.5676   17.3297 C   0  0  0  0  0  0  0  0  0  0  0  0
    0.8388   -5.8417   27.5264 C   0  0  0  0  0  0  0  0  0  0  0  0
   -2.0709   -7.6637   18.7817 C   0  0  0  0  0  0  0  0  0  0  0  0
   -0.5279   -8.2168   17.0717 C   0  0  0  0  0  0  0  0  0  0  0  0
    6.9694   -4.0191   27.8190 C   0  0  0  0  0  0  0  0  0  0  0  0
    5.1733   -4.5469   29.8123 C   0  0  0  0  0  0  0  0  0  0  0  0
   -1.7508  -11.3016   18.6072 C   0  0  0  0  0  0  0  0  0  0  0  0
    1.7497   -5.6771   26.4971 C   0  0  0  0  0  0  0  0  0  0  0  0
   -1.5799   -9.9322   18.3468 C   0  0  0  0  0  0  0  0  0  0  0  0
   -1.0871  -12.2214   17.8851 C   0  0  0  0  0  0  0  0  0  0  0  0
   -2.2706   -8.9669   19.0691 C   0  0  0  0  0  0  0  0  0  0  0  0
    3.0279   -5.3073   26.8197 C   0  0  0  0  0  0  0  0  0  0  0  0
    7.3282   -3.8948   29.1186 C   0  0  0  0  0  0  0  0  0  0  0  0
  1  3  4  0
  1  7  4  0
  2  3  1  0
  2  6  4  0
  2 16  4  0
  3 22  4  0
  4  9  4  0
  4 10  1  0
  4 20  4  0
  5 16  4  0
  5 23  4  0
  6 15  4  0
  7 12  4  0
  8 13  4  0
  8 14  4  0
  9 11  4  0
 11 14  4  0
 11 19  4  0
 12 18  4  0
 13 21  4  0
 15 23  4  0
 17 19  4  0
 17 20  4  0
 18 22  4  0
 19 21  4  0
M  END
$$$$

 Created by Python create_sdf_string function

 23 25  0  0  0  0  0  0  0  0999 V2000
    2.4610   -5.3070   29.1240 C   0  0  0  0  0  0  0  0  0  0  0  0
    4.7710   -4.6952   28.4803 C   0  0  0  0  0  0  0  0  0  0  0  0
    3.4047   -5.1087   28.1314 C   0  0  0  0  0  0  0  0  0  0  0  0
   -0.2234  -11.8615   16.8874 C   0  0  0  0  0  0  0  0  0  0  0  0
    6.4491   -4.1532   30.1213 C   0  0  0  0  0  0  0  0  0  0  0  0
    5.7060   -4.4340   27.4975 C   0  0  0  0  0  0  0  0  0  0  0  0
    1.1818   -5.6612   28.8399 C   0  0  0  0  0  0  0  0  0  0  0  0
   -1.2067   -7.3287   17.7772 C   0  0  0  0  0  0  0  0  0  0  0  0
   -0.0206  -10.5585   16.6210 C   0  0  0  0  0  0  0  0  0  0  0  0
    0.3696  -12.7626   16.2169 O   0  0  0  0  0  0  0  0  0  0  0  0
   -0.6895   -9.5676   17.3297 C   0  0  0  0  0  0  0  0  0  0  0  0
    0.8388   -5.8417   27.5264 C   0  0  0  0  0  0  0  0  0  0  0  0
   -2.0709   -7.6637   18.7817 C   0  0  0  0  0  0  0  0  0  0  0  0
   -0.5279   -8.2168   17.0717 C   0  0  0  0  0  0  0  0  0  0  0  0
    6.9694   -4.0191   27.8190 C   0  0  0  0  0  0  0  0  0  0  0  0
    5.1733   -4.5469   29.8123 C   0  0  0  0  0  0  0  0  0  0  0  0
   -1.7508  -11.3016   18.6072 C   0  0  0  0  0  0  0  0  0  0  0  0
    1.7497   -5.6771   26.4971 C   0  0  0  0  0  0  0  0  0  0  0  0
   -1.5799   -9.9322   18.3468 C   0  0  0  0  0  0  0  0  0  0  0  0
   -1.0871  -12.2214   17.8851 C   0  0  0  0  0  0  0  0  0  0  0  0
   -2.2706   -8.9669   19.0691 C   0  0  0  0  0  0  0  0  0  0  0  0
    3.0279   -5.3073   26.8197 C   0  0  0  0  0  0  0  0  0  0  0  0
    7.3282   -3.8948   29.1186 C   0  0  0  0  0  0  0  0  0  0  0  0
  1  3  4  0
  1  7  4  0
  2  3  1  0
  2  6  4  0
  2 16  4  0
  3 22  4  0
  4  9  4  0
  4 10  1  0
  4 20  4  0
  5 16  4  0
  5 23  4  0
  6 15  4  0
  7 12  4  0
  8 13  4  0
  8 14  4  0
  9 11  4  0
 11 14  4  0
 11 19  4  0
 12 18  4  0
 13 21  4  0
 15 23  4  0
 17 19  4  0
 17 20  4  0
 18 22  4  0
 19 21  4  0
M  END
$$$$

 Created by Python create_sdf_string function

 23 25  0  0  0  0  0  0  0  0999 V2000
    2.4610   -5.3070   29.1240 C   0  0  0  0  0  0  0  0  0  0  0  0
    4.7710   -4.6952   28.4803 C   0  0  0  0  0  0  0  0  0  0  0  0
    3.4047   -5.1087   28.1314 C   0  0  0  0  0  0  0  0  0  0  0  0
   -0.2234  -11.8615   16.8874 C   0  0  0  0  0  0  0  0  0  0  0  0
    6.4491   -4.1532   30.1213 C   0  0  0  0  0  0  0  0  0  0  0  0
    5.7060   -4.4340   27.4975 C   0  0  0  0  0  0  0  0  0  0  0  0
    1.1818   -5.6612   28.8399 C   0  0  0  0  0  0  0  0  0  0  0  0
   -1.2067   -7.3287   17.7772 C   0  0  0  0  0  0  0  0  0  0  0  0
   -0.0206  -10.5585   16.6210 C   0  0  0  0  0  0  0  0  0  0  0  0
    0.3696  -12.7626   16.2169 O   0  0  0  0  0  0  0  0  0  0  0  0
   -0.6895   -9.5676   17.3297 C   0  0  0  0  0  0  0  0  0  0  0  0
    0.8388   -5.8417   27.5264 C   0  0  0  0  0  0  0  0  0  0  0  0
   -2.0709   -7.6637   18.7817 C   0  0  0  0  0  0  0  0  0  0  0  0
   -0.5279   -8.2168   17.0717 C   0  0  0  0  0  0  0  0  0  0  0  0
    6.9694   -4.0191   27.8190 C   0  0  0  0  0  0  0  0  0  0  0  0
    5.1733   -4.5469   29.8123 C   0  0  0  0  0  0  0  0  0  0  0  0
   -1.7508  -11.3016   18.6072 C   0  0  0  0  0  0  0  0  0  0  0  0
    1.7497   -5.6771   26.4971 C   0  0  0  0  0  0  0  0  0  0  0  0
   -1.5799   -9.9322   18.3468 C   0  0  0  0  0  0  0  0  0  0  0  0
   -1.0871  -12.2214   17.8851 C   0  0  0  0  0  0  0  0  0  0  0  0
   -2.2706   -8.9669   19.0691 C   0  0  0  0  0  0  0  0  0  0  0  0
    3.0279   -5.3073   26.8197 C   0  0  0  0  0  0  0  0  0  0  0  0
    7.3282   -3.8948   29.1186 C   0  0  0  0  0  0  0  0  0  0  0  0
  1  3  4  0
  1  7  4  0
  2  3  1  0
  2  6  4  0
  2 16  4  0
  3 22  4  0
  4  9  4  0
  4 10  1  0
  4 20  4  0
  5 16  4  0
  5 23  4  0
  6 15  4  0
  7 12  4  0
  8 13  4  0
  8 14  4  0
  9 11  4  0
 11 14  4  0
 11 19  4  0
 12 18  4  0
 13 21  4  0
 15 23  4  0
 17 19  4  0
 17 20  4  0
 18 22  4  0
 19 21  4  0
M  END
$$$$

 Created by Python create_sdf_string function

 23 25  0  0  0  0  0  0  0  0999 V2000
    2.4610   -5.3070   29.1240 C   0  0  0  0  0  0  0  0  0  0  0  0
    4.7710   -4.6952   28.4803 C   0  0  0  0  0  0  0  0  0  0  0  0
    3.4047   -5.1087   28.1314 C   0  0  0  0  0  0  0  0  0  0  0  0
   -0.2234  -11.8615   16.8874 C   0  0  0  0  0  0  0  0  0  0  0  0
    6.4491   -4.1532   30.1213 C   0  0  0  0  0  0  0  0  0  0  0  0
    5.7060   -4.4340   27.4975 C   0  0  0  0  0  0  0  0  0  0  0  0
    1.1818   -5.6612   28.8399 C   0  0  0  0  0  0  0  0  0  0  0  0
   -1.2067   -7.3287   17.7772 C   0  0  0  0  0  0  0  0  0  0  0  0
   -0.0206  -10.5585   16.6210 C   0  0  0  0  0  0  0  0  0  0  0  0
    0.3696  -12.7626   16.2169 O   0  0  0  0  0  0  0  0  0  0  0  0
   -0.6895   -9.5676   17.3297 C   0  0  0  0  0  0  0  0  0  0  0  0
    0.8388   -5.8417   27.5264 C   0  0  0  0  0  0  0  0  0  0  0  0
   -2.0709   -7.6637   18.7817 C   0  0  0  0  0  0  0  0  0  0  0  0
   -0.5279   -8.2168   17.0717 C   0  0  0  0  0  0  0  0  0  0  0  0
    6.9694   -4.0191   27.8190 C   0  0  0  0  0  0  0  0  0  0  0  0
    5.1733   -4.5469   29.8123 C   0  0  0  0  0  0  0  0  0  0  0  0
   -1.7508  -11.3016   18.6072 C   0  0  0  0  0  0  0  0  0  0  0  0
    1.7497   -5.6771   26.4971 C   0  0  0  0  0  0  0  0  0  0  0  0
   -1.5799   -9.9322   18.3468 C   0  0  0  0  0  0  0  0  0  0  0  0
   -1.0871  -12.2214   17.8851 C   0  0  0  0  0  0  0  0  0  0  0  0
   -2.2706   -8.9669   19.0691 C   0  0  0  0  0  0  0  0  0  0  0  0
    3.0279   -5.3073   26.8197 C   0  0  0  0  0  0  0  0  0  0  0  0
    7.3282   -3.8948   29.1186 C   0  0  0  0  0  0  0  0  0  0  0  0
  1  3  4  0
  1  7  4  0
  2  3  1  0
  2  6  4  0
  2 16  4  0
  3 22  4  0
  4  9  4  0
  4 10  1  0
  4 20  4  0
  5 16  4  0
  5 23  4  0
  6 15  4  0
  7 12  4  0
  8 13  4  0
  8 14  4  0
  9 11  4  0
 11 14  4  0
 11 19  4  0
 12 18  4  0
 13 21  4  0
 15 23  4  0
 17 19  4  0
 17 20  4  0
 18 22  4  0
 19 21  4  0
M  END
$$$$

 Created by Python create_sdf_string function

 23 25  0  0  0  0  0  0  0  0999 V2000
    2.4610   -5.3070   29.1240 C   0  0  0  0  0  0  0  0  0  0  0  0
    4.7710   -4.6952   28.4803 C   0  0  0  0  0  0  0  0  0  0  0  0
    3.4047   -5.1087   28.1314 C   0  0  0  0  0  0  0  0  0  0  0  0
   -0.2234  -11.8615   16.8874 C   0  0  0  0  0  0  0  0  0  0  0  0
    6.4491   -4.1532   30.1213 C   0  0  0  0  0  0  0  0  0  0  0  0
    5.7060   -4.4340   27.4975 C   0  0  0  0  0  0  0  0  0  0  0  0
    1.1818   -5.6612   28.8399 C   0  0  0  0  0  0  0  0  0  0  0  0
   -1.2067   -7.3287   17.7772 C   0  0  0  0  0  0  0  0  0  0  0  0
   -0.0206  -10.5585   16.6210 C   0  0  0  0  0  0  0  0  0  0  0  0
    0.3696  -12.7626   16.2169 O   0  0  0  0  0  0  0  0  0  0  0  0
   -0.6895   -9.5676   17.3297 C   0  0  0  0  0  0  0  0  0  0  0  0
    0.8388   -5.8417   27.5264 C   0  0  0  0  0  0  0  0  0  0  0  0
   -2.0709   -7.6637   18.7817 C   0  0  0  0  0  0  0  0  0  0  0  0
   -0.5279   -8.2168   17.0717 C   0  0  0  0  0  0  0  0  0  0  0  0
    6.9694   -4.0191   27.8190 C   0  0  0  0  0  0  0  0  0  0  0  0
    5.1733   -4.5469   29.8123 C   0  0  0  0  0  0  0  0  0  0  0  0
   -1.7508  -11.3016   18.6072 C   0  0  0  0  0  0  0  0  0  0  0  0
    1.7497   -5.6771   26.4971 C   0  0  0  0  0  0  0  0  0  0  0  0
   -1.5799   -9.9322   18.3468 C   0  0  0  0  0  0  0  0  0  0  0  0
   -1.0871  -12.2214   17.8851 C   0  0  0  0  0  0  0  0  0  0  0  0
   -2.2706   -8.9669   19.0691 C   0  0  0  0  0  0  0  0  0  0  0  0
    3.0279   -5.3073   26.8197 C   0  0  0  0  0  0  0  0  0  0  0  0
    7.3282   -3.8948   29.1186 C   0  0  0  0  0  0  0  0  0  0  0  0
  1  3  4  0
  1  7  4  0
  2  3  1  0
  2  6  4  0
  2 16  4  0
  3 22  4  0
  4  9  4  0
  4 10  1  0
  4 20  4  0
  5 16  4  0
  5 23  4  0
  6 15  4  0
  7 12  4  0
  8 13  4  0
  8 14  4  0
  9 11  4  0
 11 14  4  0
 11 19  4  0
 12 18  4  0
 13 21  4  0
 15 23  4  0
 17 19  4  0
 17 20  4  0
 18 22  4  0
 19 21  4  0
M  END
$$$$

 Created by Python create_sdf_string function

 23 25  0  0  0  0  0  0  0  0999 V2000
    2.4610   -5.3070   29.1240 C   0  0  0  0  0  0  0  0  0  0  0  0
    4.7710   -4.6952   28.4803 C   0  0  0  0  0  0  0  0  0  0  0  0
    3.4047   -5.1087   28.1314 C   0  0  0  0  0  0  0  0  0  0  0  0
   -0.2234  -11.8615   16.8874 C   0  0  0  0  0  0  0  0  0  0  0  0
    6.4491   -4.1532   30.1213 C   0  0  0  0  0  0  0  0  0  0  0  0
    5.7060   -4.4340   27.4975 C   0  0  0  0  0  0  0  0  0  0  0  0
    1.1818   -5.6612   28.8399 C   0  0  0  0  0  0  0  0  0  0  0  0
   -1.2067   -7.3287   17.7772 C   0  0  0  0  0  0  0  0  0  0  0  0
   -0.0206  -10.5585   16.6210 C   0  0  0  0  0  0  0  0  0  0  0  0
    0.3696  -12.7626   16.2169 O   0  0  0  0  0  0  0  0  0  0  0  0
   -0.6895   -9.5676   17.3297 C   0  0  0  0  0  0  0  0  0  0  0  0
    0.8388   -5.8417   27.5264 C   0  0  0  0  0  0  0  0  0  0  0  0
   -2.0709   -7.6637   18.7817 C   0  0  0  0  0  0  0  0  0  0  0  0
   -0.5279   -8.2168   17.0717 C   0  0  0  0  0  0  0  0  0  0  0  0
    6.9694   -4.0191   27.8190 C   0  0  0  0  0  0  0  0  0  0  0  0
    5.1733   -4.5469   29.8123 C   0  0  0  0  0  0  0  0  0  0  0  0
   -1.7508  -11.3016   18.6072 C   0  0  0  0  0  0  0  0  0  0  0  0
    1.7497   -5.6771   26.4971 C   0  0  0  0  0  0  0  0  0  0  0  0
   -1.5799   -9.9322   18.3468 C   0  0  0  0  0  0  0  0  0  0  0  0
   -1.0871  -12.2214   17.8851 C   0  0  0  0  0  0  0  0  0  0  0  0
   -2.2706   -8.9669   19.0691 C   0  0  0  0  0  0  0  0  0  0  0  0
    3.0279   -5.3073   26.8197 C   0  0  0  0  0  0  0  0  0  0  0  0
    7.3282   -3.8948   29.1186 C   0  0  0  0  0  0  0  0  0  0  0  0
  1  3  4  0
  1  7  4  0
  2  3  1  0
  2  6  4  0
  2 16  4  0
  3 22  4  0
  4  9  4  0
  4 10  1  0
  4 20  4  0
  5 16  4  0
  5 23  4  0
  6 15  4  0
  7 12  4  0
  8 13  4  0
  8 14  4  0
  9 11  4  0
 11 14  4  0
 11 19  4  0
 12 18  4  0
 13 21  4  0
 15 23  4  0
 17 19  4  0
 17 20  4  0
 18 22  4  0
 19 21  4  0
M  END
$$$$

 Created by Python create_sdf_string function

 23 25  0  0  0  0  0  0  0  0999 V2000
    2.4610   -5.3070   29.1240 C   0  0  0  0  0  0  0  0  0  0  0  0
    4.7710   -4.6952   28.4803 C   0  0  0  0  0  0  0  0  0  0  0  0
    3.4047   -5.1087   28.1314 C   0  0  0  0  0  0  0  0  0  0  0  0
   -0.2234  -11.8615   16.8874 C   0  0  0  0  0  0  0  0  0  0  0  0
    6.4491   -4.1532   30.1213 C   0  0  0  0  0  0  0  0  0  0  0  0
    5.7060   -4.4340   27.4975 C   0  0  0  0  0  0  0  0  0  0  0  0
    1.1818   -5.6612   28.8399 C   0  0  0  0  0  0  0  0  0  0  0  0
   -1.2067   -7.3287   17.7772 C   0  0  0  0  0  0  0  0  0  0  0  0
   -0.0206  -10.5585   16.6210 C   0  0  0  0  0  0  0  0  0  0  0  0
    0.3696  -12.7626   16.2169 O   0  0  0  0  0  0  0  0  0  0  0  0
   -0.6895   -9.5676   17.3297 C   0  0  0  0  0  0  0  0  0  0  0  0
    0.8388   -5.8417   27.5264 C   0  0  0  0  0  0  0  0  0  0  0  0
   -2.0709   -7.6637   18.7817 C   0  0  0  0  0  0  0  0  0  0  0  0
   -0.5279   -8.2168   17.0717 C   0  0  0  0  0  0  0  0  0  0  0  0
    6.9694   -4.0191   27.8190 C   0  0  0  0  0  0  0  0  0  0  0  0
    5.1733   -4.5469   29.8123 C   0  0  0  0  0  0  0  0  0  0  0  0
   -1.7508  -11.3016   18.6072 C   0  0  0  0  0  0  0  0  0  0  0  0
    1.7497   -5.6771   26.4971 C   0  0  0  0  0  0  0  0  0  0  0  0
   -1.5799   -9.9322   18.3468 C   0  0  0  0  0  0  0  0  0  0  0  0
   -1.0871  -12.2214   17.8851 C   0  0  0  0  0  0  0  0  0  0  0  0
   -2.2706   -8.9669   19.0691 C   0  0  0  0  0  0  0  0  0  0  0  0
    3.0279   -5.3073   26.8197 C   0  0  0  0  0  0  0  0  0  0  0  0
    7.3282   -3.8948   29.1186 C   0  0  0  0  0  0  0  0  0  0  0  0
  1  3  4  0
  1  7  4  0
  2  3  1  0
  2  6  4  0
  2 16  4  0
  3 22  4  0
  4  9  4  0
  4 10  1  0
  4 20  4  0
  5 16  4  0
  5 23  4  0
  6 15  4  0
  7 12  4  0
  8 13  4  0
  8 14  4  0
  9 11  4  0
 11 14  4  0
 11 19  4  0
 12 18  4  0
 13 21  4  0
 15 23  4  0
 17 19  4  0
 17 20  4  0
 18 22  4  0
 19 21  4  0
M  END
$$$$

 Created by Python create_sdf_string function

 23 25  0  0  0  0  0  0  0  0999 V2000
    2.4610   -5.3070   29.1240 C   0  0  0  0  0  0  0  0  0  0  0  0
    4.7710   -4.6952   28.4803 C   0  0  0  0  0  0  0  0  0  0  0  0
    3.4047   -5.1087   28.1314 C   0  0  0  0  0  0  0  0  0  0  0  0
   -0.2234  -11.8615   16.8874 C   0  0  0  0  0  0  0  0  0  0  0  0
    6.4491   -4.1532   30.1213 C   0  0  0  0  0  0  0  0  0  0  0  0
    5.7060   -4.4340   27.4975 C   0  0  0  0  0  0  0  0  0  0  0  0
    1.1818   -5.6612   28.8399 C   0  0  0  0  0  0  0  0  0  0  0  0
   -1.2067   -7.3287   17.7772 C   0  0  0  0  0  0  0  0  0  0  0  0
   -0.0206  -10.5585   16.6210 C   0  0  0  0  0  0  0  0  0  0  0  0
    0.3696  -12.7626   16.2169 O   0  0  0  0  0  0  0  0  0  0  0  0
   -0.6895   -9.5676   17.3297 C   0  0  0  0  0  0  0  0  0  0  0  0
    0.8388   -5.8417   27.5264 C   0  0  0  0  0  0  0  0  0  0  0  0
   -2.0709   -7.6637   18.7817 C   0  0  0  0  0  0  0  0  0  0  0  0
   -0.5279   -8.2168   17.0717 C   0  0  0  0  0  0  0  0  0  0  0  0
    6.9694   -4.0191   27.8190 C   0  0  0  0  0  0  0  0  0  0  0  0
    5.1733   -4.5469   29.8123 C   0  0  0  0  0  0  0  0  0  0  0  0
   -1.7508  -11.3016   18.6072 C   0  0  0  0  0  0  0  0  0  0  0  0
    1.7497   -5.6771   26.4971 C   0  0  0  0  0  0  0  0  0  0  0  0
   -1.5799   -9.9322   18.3468 C   0  0  0  0  0  0  0  0  0  0  0  0
   -1.0871  -12.2214   17.8851 C   0  0  0  0  0  0  0  0  0  0  0  0
   -2.2706   -8.9669   19.0691 C   0  0  0  0  0  0  0  0  0  0  0  0
    3.0279   -5.3073   26.8197 C   0  0  0  0  0  0  0  0  0  0  0  0
    7.3282   -3.8948   29.1186 C   0  0  0  0  0  0  0  0  0  0  0  0
  1  3  4  0
  1  7  4  0
  2  3  1  0
  2  6  4  0
  2 16  4  0
  3 22  4  0
  4  9  4  0
  4 10  1  0
  4 20  4  0
  5 16  4  0
  5 23  4  0
  6 15  4  0
  7 12  4  0
  8 13  4  0
  8 14  4  0
  9 11  4  0
 11 14  4  0
 11 19  4  0
 12 18  4  0
 13 21  4  0
 15 23  4  0
 17 19  4  0
 17 20  4  0
 18 22  4  0
 19 21  4  0
M  END
$$$$

 Created by Python create_sdf_string function

 23 25  0  0  0  0  0  0  0  0999 V2000
    2.4610   -5.3070   29.1240 C   0  0  0  0  0  0  0  0  0  0  0  0
    4.7710   -4.6952   28.4803 C   0  0  0  0  0  0  0  0  0  0  0  0
    3.4047   -5.1087   28.1314 C   0  0  0  0  0  0  0  0  0  0  0  0
   -0.2234  -11.8615   16.8874 C   0  0  0  0  0  0  0  0  0  0  0  0
    6.4491   -4.1532   30.1213 C   0  0  0  0  0  0  0  0  0  0  0  0
    5.7060   -4.4340   27.4975 C   0  0  0  0  0  0  0  0  0  0  0  0
    1.1818   -5.6612   28.8399 C   0  0  0  0  0  0  0  0  0  0  0  0
   -1.2067   -7.3287   17.7772 C   0  0  0  0  0  0  0  0  0  0  0  0
   -0.0206  -10.5585   16.6210 C   0  0  0  0  0  0  0  0  0  0  0  0
    0.3696  -12.7626   16.2169 O   0  0  0  0  0  0  0  0  0  0  0  0
   -0.6895   -9.5676   17.3297 C   0  0  0  0  0  0  0  0  0  0  0  0
    0.8388   -5.8417   27.5264 C   0  0  0  0  0  0  0  0  0  0  0  0
   -2.0709   -7.6637   18.7817 C   0  0  0  0  0  0  0  0  0  0  0  0
   -0.5279   -8.2168   17.0717 C   0  0  0  0  0  0  0  0  0  0  0  0
    6.9694   -4.0191   27.8190 C   0  0  0  0  0  0  0  0  0  0  0  0
    5.1733   -4.5469   29.8123 C   0  0  0  0  0  0  0  0  0  0  0  0
   -1.7508  -11.3016   18.6072 C   0  0  0  0  0  0  0  0  0  0  0  0
    1.7497   -5.6771   26.4971 C   0  0  0  0  0  0  0  0  0  0  0  0
   -1.5799   -9.9322   18.3468 C   0  0  0  0  0  0  0  0  0  0  0  0
   -1.0871  -12.2214   17.8851 C   0  0  0  0  0  0  0  0  0  0  0  0
   -2.2706   -8.9669   19.0691 C   0  0  0  0  0  0  0  0  0  0  0  0
    3.0279   -5.3073   26.8197 C   0  0  0  0  0  0  0  0  0  0  0  0
    7.3282   -3.8948   29.1186 C   0  0  0  0  0  0  0  0  0  0  0  0
  1  3  4  0
  1  7  4  0
  2  3  1  0
  2  6  4  0
  2 16  4  0
  3 22  4  0
  4  9  4  0
  4 10  1  0
  4 20  4  0
  5 16  4  0
  5 23  4  0
  6 15  4  0
  7 12  4  0
  8 13  4  0
  8 14  4  0
  9 11  4  0
 11 14  4  0
 11 19  4  0
 12 18  4  0
 13 21  4  0
 15 23  4  0
 17 19  4  0
 17 20  4  0
 18 22  4  0
 19 21  4  0
M  END
$$$$

 Created by Python create_sdf_string function

 23 25  0  0  0  0  0  0  0  0999 V2000
    2.4610   -5.3070   29.1240 C   0  0  0  0  0  0  0  0  0  0  0  0
    4.7710   -4.6952   28.4803 C   0  0  0  0  0  0  0  0  0  0  0  0
    3.4047   -5.1087   28.1314 C   0  0  0  0  0  0  0  0  0  0  0  0
   -0.2234  -11.8615   16.8874 C   0  0  0  0  0  0  0  0  0  0  0  0
    6.4491   -4.1532   30.1213 C   0  0  0  0  0  0  0  0  0  0  0  0
    5.7060   -4.4340   27.4975 C   0  0  0  0  0  0  0  0  0  0  0  0
    1.1818   -5.6612   28.8399 C   0  0  0  0  0  0  0  0  0  0  0  0
   -1.2067   -7.3287   17.7772 C   0  0  0  0  0  0  0  0  0  0  0  0
   -0.0206  -10.5585   16.6210 C   0  0  0  0  0  0  0  0  0  0  0  0
    0.3696  -12.7626   16.2169 O   0  0  0  0  0  0  0  0  0  0  0  0
   -0.6895   -9.5676   17.3297 C   0  0  0  0  0  0  0  0  0  0  0  0
    0.8388   -5.8417   27.5264 C   0  0  0  0  0  0  0  0  0  0  0  0
   -2.0709   -7.6637   18.7817 C   0  0  0  0  0  0  0  0  0  0  0  0
   -0.5279   -8.2168   17.0717 C   0  0  0  0  0  0  0  0  0  0  0  0
    6.9694   -4.0191   27.8190 C   0  0  0  0  0  0  0  0  0  0  0  0
    5.1733   -4.5469   29.8123 C   0  0  0  0  0  0  0  0  0  0  0  0
   -1.7508  -11.3016   18.6072 C   0  0  0  0  0  0  0  0  0  0  0  0
    1.7497   -5.6771   26.4971 C   0  0  0  0  0  0  0  0  0  0  0  0
   -1.5799   -9.9322   18.3468 C   0  0  0  0  0  0  0  0  0  0  0  0
   -1.0871  -12.2214   17.8851 C   0  0  0  0  0  0  0  0  0  0  0  0
   -2.2706   -8.9669   19.0691 C   0  0  0  0  0  0  0  0  0  0  0  0
    3.0279   -5.3073   26.8197 C   0  0  0  0  0  0  0  0  0  0  0  0
    7.3282   -3.8948   29.1186 C   0  0  0  0  0  0  0  0  0  0  0  0
  1  3  4  0
  1  7  4  0
  2  3  1  0
  2  6  4  0
  2 16  4  0
  3 22  4  0
  4  9  4  0
  4 10  1  0
  4 20  4  0
  5 16  4  0
  5 23  4  0
  6 15  4  0
  7 12  4  0
  8 13  4  0
  8 14  4  0
  9 11  4  0
 11 14  4  0
 11 19  4  0
 12 18  4  0
 13 21  4  0
 15 23  4  0
 17 19  4  0
 17 20  4  0
 18 22  4  0
 19 21  4  0
M  END
$$$$

 Created by Python create_sdf_string function

 23 25  0  0  0  0  0  0  0  0999 V2000
    2.4610   -5.3070   29.1240 C   0  0  0  0  0  0  0  0  0  0  0  0
    4.7710   -4.6952   28.4803 C   0  0  0  0  0  0  0  0  0  0  0  0
    3.4047   -5.1087   28.1314 C   0  0  0  0  0  0  0  0  0  0  0  0
   -0.2234  -11.8615   16.8874 C   0  0  0  0  0  0  0  0  0  0  0  0
    6.4491   -4.1532   30.1213 C   0  0  0  0  0  0  0  0  0  0  0  0
    5.7060   -4.4340   27.4975 C   0  0  0  0  0  0  0  0  0  0  0  0
    1.1818   -5.6612   28.8399 C   0  0  0  0  0  0  0  0  0  0  0  0
   -1.2067   -7.3287   17.7772 C   0  0  0  0  0  0  0  0  0  0  0  0
   -0.0206  -10.5585   16.6210 C   0  0  0  0  0  0  0  0  0  0  0  0
    0.3696  -12.7626   16.2169 O   0  0  0  0  0  0  0  0  0  0  0  0
   -0.6895   -9.5676   17.3297 C   0  0  0  0  0  0  0  0  0  0  0  0
    0.8388   -5.8417   27.5264 C   0  0  0  0  0  0  0  0  0  0  0  0
   -2.0709   -7.6637   18.7817 C   0  0  0  0  0  0  0  0  0  0  0  0
   -0.5279   -8.2168   17.0717 C   0  0  0  0  0  0  0  0  0  0  0  0
    6.9694   -4.0191   27.8190 C   0  0  0  0  0  0  0  0  0  0  0  0
    5.1733   -4.5469   29.8123 C   0  0  0  0  0  0  0  0  0  0  0  0
   -1.7508  -11.3016   18.6072 C   0  0  0  0  0  0  0  0  0  0  0  0
    1.7497   -5.6771   26.4971 C   0  0  0  0  0  0  0  0  0  0  0  0
   -1.5799   -9.9322   18.3468 C   0  0  0  0  0  0  0  0  0  0  0  0
   -1.0871  -12.2214   17.8851 C   0  0  0  0  0  0  0  0  0  0  0  0
   -2.2706   -8.9669   19.0691 C   0  0  0  0  0  0  0  0  0  0  0  0
    3.0279   -5.3073   26.8197 C   0  0  0  0  0  0  0  0  0  0  0  0
    7.3282   -3.8948   29.1186 C   0  0  0  0  0  0  0  0  0  0  0  0
  1  3  4  0
  1  7  4  0
  2  3  1  0
  2  6  4  0
  2 16  4  0
  3 22  4  0
  4  9  4  0
  4 10  1  0
  4 20  4  0
  5 16  4  0
  5 23  4  0
  6 15  4  0
  7 12  4  0
  8 13  4  0
  8 14  4  0
  9 11  4  0
 11 14  4  0
 11 19  4  0
 12 18  4  0
 13 21  4  0
 15 23  4  0
 17 19  4  0
 17 20  4  0
 18 22  4  0
 19 21  4  0
M  END
$$$$

 Created by Python create_sdf_string function

 23 25  0  0  0  0  0  0  0  0999 V2000
    2.4610   -5.3070   29.1240 C   0  0  0  0  0  0  0  0  0  0  0  0
    4.7710   -4.6952   28.4803 C   0  0  0  0  0  0  0  0  0  0  0  0
    3.4047   -5.1087   28.1314 C   0  0  0  0  0  0  0  0  0  0  0  0
   -0.2234  -11.8615   16.8874 C   0  0  0  0  0  0  0  0  0  0  0  0
    6.4491   -4.1532   30.1213 C   0  0  0  0  0  0  0  0  0  0  0  0
    5.7060   -4.4340   27.4975 C   0  0  0  0  0  0  0  0  0  0  0  0
    1.1818   -5.6612   28.8399 C   0  0  0  0  0  0  0  0  0  0  0  0
   -1.2067   -7.3287   17.7772 C   0  0  0  0  0  0  0  0  0  0  0  0
   -0.0206  -10.5585   16.6210 C   0  0  0  0  0  0  0  0  0  0  0  0
    0.3696  -12.7626   16.2169 O   0  0  0  0  0  0  0  0  0  0  0  0
   -0.6895   -9.5676   17.3297 C   0  0  0  0  0  0  0  0  0  0  0  0
    0.8388   -5.8417   27.5264 C   0  0  0  0  0  0  0  0  0  0  0  0
   -2.0709   -7.6637   18.7817 C   0  0  0  0  0  0  0  0  0  0  0  0
   -0.5279   -8.2168   17.0717 C   0  0  0  0  0  0  0  0  0  0  0  0
    6.9694   -4.0191   27.8190 C   0  0  0  0  0  0  0  0  0  0  0  0
    5.1733   -4.5469   29.8123 C   0  0  0  0  0  0  0  0  0  0  0  0
   -1.7508  -11.3016   18.6072 C   0  0  0  0  0  0  0  0  0  0  0  0
    1.7497   -5.6771   26.4971 C   0  0  0  0  0  0  0  0  0  0  0  0
   -1.5799   -9.9322   18.3468 C   0  0  0  0  0  0  0  0  0  0  0  0
   -1.0871  -12.2214   17.8851 C   0  0  0  0  0  0  0  0  0  0  0  0
   -2.2706   -8.9669   19.0691 C   0  0  0  0  0  0  0  0  0  0  0  0
    3.0279   -5.3073   26.8197 C   0  0  0  0  0  0  0  0  0  0  0  0
    7.3282   -3.8948   29.1186 C   0  0  0  0  0  0  0  0  0  0  0  0
  1  3  4  0
  1  7  4  0
  2  3  1  0
  2  6  4  0
  2 16  4  0
  3 22  4  0
  4  9  4  0
  4 10  1  0
  4 20  4  0
  5 16  4  0
  5 23  4  0
  6 15  4  0
  7 12  4  0
  8 13  4  0
  8 14  4  0
  9 11  4  0
 11 14  4  0
 11 19  4  0
 12 18  4  0
 13 21  4  0
 15 23  4  0
 17 19  4  0
 17 20  4  0
 18 22  4  0
 19 21  4  0
M  END
$$$$

 Created by Python create_sdf_string function

 23 25  0  0  0  0  0  0  0  0999 V2000
    2.4610   -5.3070   29.1240 C   0  0  0  0  0  0  0  0  0  0  0  0
    4.7710   -4.6952   28.4803 C   0  0  0  0  0  0  0  0  0  0  0  0
    3.4047   -5.1087   28.1314 C   0  0  0  0  0  0  0  0  0  0  0  0
   -0.2234  -11.8615   16.8874 C   0  0  0  0  0  0  0  0  0  0  0  0
    6.4491   -4.1532   30.1213 C   0  0  0  0  0  0  0  0  0  0  0  0
    5.7060   -4.4340   27.4975 C   0  0  0  0  0  0  0  0  0  0  0  0
    1.1818   -5.6612   28.8399 C   0  0  0  0  0  0  0  0  0  0  0  0
   -1.2067   -7.3287   17.7772 C   0  0  0  0  0  0  0  0  0  0  0  0
   -0.0206  -10.5585   16.6210 C   0  0  0  0  0  0  0  0  0  0  0  0
    0.3696  -12.7626   16.2169 O   0  0  0  0  0  0  0  0  0  0  0  0
   -0.6895   -9.5676   17.3297 C   0  0  0  0  0  0  0  0  0  0  0  0
    0.8388   -5.8417   27.5264 C   0  0  0  0  0  0  0  0  0  0  0  0
   -2.0709   -7.6637   18.7817 C   0  0  0  0  0  0  0  0  0  0  0  0
   -0.5279   -8.2168   17.0717 C   0  0  0  0  0  0  0  0  0  0  0  0
    6.9694   -4.0191   27.8190 C   0  0  0  0  0  0  0  0  0  0  0  0
    5.1733   -4.5469   29.8123 C   0  0  0  0  0  0  0  0  0  0  0  0
   -1.7508  -11.3016   18.6072 C   0  0  0  0  0  0  0  0  0  0  0  0
    1.7497   -5.6771   26.4971 C   0  0  0  0  0  0  0  0  0  0  0  0
   -1.5799   -9.9322   18.3468 C   0  0  0  0  0  0  0  0  0  0  0  0
   -1.0871  -12.2214   17.8851 C   0  0  0  0  0  0  0  0  0  0  0  0
   -2.2706   -8.9669   19.0691 C   0  0  0  0  0  0  0  0  0  0  0  0
    3.0279   -5.3073   26.8197 C   0  0  0  0  0  0  0  0  0  0  0  0
    7.3282   -3.8948   29.1186 C   0  0  0  0  0  0  0  0  0  0  0  0
  1  3  4  0
  1  7  4  0
  2  3  1  0
  2  6  4  0
  2 16  4  0
  3 22  4  0
  4  9  4  0
  4 10  1  0
  4 20  4  0
  5 16  4  0
  5 23  4  0
  6 15  4  0
  7 12  4  0
  8 13  4  0
  8 14  4  0
  9 11  4  0
 11 14  4  0
 11 19  4  0
 12 18  4  0
 13 21  4  0
 15 23  4  0
 17 19  4  0
 17 20  4  0
 18 22  4  0
 19 21  4  0
M  END
$$$$

 Created by Python create_sdf_string function

 23 25  0  0  0  0  0  0  0  0999 V2000
    2.4610   -5.3070   29.1240 C   0  0  0  0  0  0  0  0  0  0  0  0
    4.7710   -4.6952   28.4803 C   0  0  0  0  0  0  0  0  0  0  0  0
    3.4047   -5.1087   28.1314 C   0  0  0  0  0  0  0  0  0  0  0  0
   -0.2234  -11.8615   16.8874 C   0  0  0  0  0  0  0  0  0  0  0  0
    6.4491   -4.1532   30.1213 C   0  0  0  0  0  0  0  0  0  0  0  0
    5.7060   -4.4340   27.4975 C   0  0  0  0  0  0  0  0  0  0  0  0
    1.1818   -5.6612   28.8399 C   0  0  0  0  0  0  0  0  0  0  0  0
   -1.2067   -7.3287   17.7772 C   0  0  0  0  0  0  0  0  0  0  0  0
   -0.0206  -10.5585   16.6210 C   0  0  0  0  0  0  0  0  0  0  0  0
    0.3696  -12.7626   16.2169 O   0  0  0  0  0  0  0  0  0  0  0  0
   -0.6895   -9.5676   17.3297 C   0  0  0  0  0  0  0  0  0  0  0  0
    0.8388   -5.8417   27.5264 C   0  0  0  0  0  0  0  0  0  0  0  0
   -2.0709   -7.6637   18.7817 C   0  0  0  0  0  0  0  0  0  0  0  0
   -0.5279   -8.2168   17.0717 C   0  0  0  0  0  0  0  0  0  0  0  0
    6.9694   -4.0191   27.8190 C   0  0  0  0  0  0  0  0  0  0  0  0
    5.1733   -4.5469   29.8123 C   0  0  0  0  0  0  0  0  0  0  0  0
   -1.7508  -11.3016   18.6072 C   0  0  0  0  0  0  0  0  0  0  0  0
    1.7497   -5.6771   26.4971 C   0  0  0  0  0  0  0  0  0  0  0  0
   -1.5799   -9.9322   18.3468 C   0  0  0  0  0  0  0  0  0  0  0  0
   -1.0871  -12.2214   17.8851 C   0  0  0  0  0  0  0  0  0  0  0  0
   -2.2706   -8.9669   19.0691 C   0  0  0  0  0  0  0  0  0  0  0  0
    3.0279   -5.3073   26.8197 C   0  0  0  0  0  0  0  0  0  0  0  0
    7.3282   -3.8948   29.1186 C   0  0  0  0  0  0  0  0  0  0  0  0
  1  3  4  0
  1  7  4  0
  2  3  1  0
  2  6  4  0
  2 16  4  0
  3 22  4  0
  4  9  4  0
  4 10  1  0
  4 20  4  0
  5 16  4  0
  5 23  4  0
  6 15  4  0
  7 12  4  0
  8 13  4  0
  8 14  4  0
  9 11  4  0
 11 14  4  0
 11 19  4  0
 12 18  4  0
 13 21  4  0
 15 23  4  0
 17 19  4  0
 17 20  4  0
 18 22  4  0
 19 21  4  0
M  END
$$$$

 Created by Python create_sdf_string function

 23 25  0  0  0  0  0  0  0  0999 V2000
    2.4610   -5.3070   29.1240 C   0  0  0  0  0  0  0  0  0  0  0  0
    4.7710   -4.6952   28.4803 C   0  0  0  0  0  0  0  0  0  0  0  0
    3.4047   -5.1087   28.1314 C   0  0  0  0  0  0  0  0  0  0  0  0
   -0.2234  -11.8615   16.8874 C   0  0  0  0  0  0  0  0  0  0  0  0
    6.4491   -4.1532   30.1213 C   0  0  0  0  0  0  0  0  0  0  0  0
    5.7060   -4.4340   27.4975 C   0  0  0  0  0  0  0  0  0  0  0  0
    1.1818   -5.6612   28.8399 C   0  0  0  0  0  0  0  0  0  0  0  0
   -1.2067   -7.3287   17.7772 C   0  0  0  0  0  0  0  0  0  0  0  0
   -0.0206  -10.5585   16.6210 C   0  0  0  0  0  0  0  0  0  0  0  0
    0.3696  -12.7626   16.2169 O   0  0  0  0  0  0  0  0  0  0  0  0
   -0.6895   -9.5676   17.3297 C   0  0  0  0  0  0  0  0  0  0  0  0
    0.8388   -5.8417   27.5264 C   0  0  0  0  0  0  0  0  0  0  0  0
   -2.0709   -7.6637   18.7817 C   0  0  0  0  0  0  0  0  0  0  0  0
   -0.5279   -8.2168   17.0717 C   0  0  0  0  0  0  0  0  0  0  0  0
    6.9694   -4.0191   27.8190 C   0  0  0  0  0  0  0  0  0  0  0  0
    5.1733   -4.5469   29.8123 C   0  0  0  0  0  0  0  0  0  0  0  0
   -1.7508  -11.3016   18.6072 C   0  0  0  0  0  0  0  0  0  0  0  0
    1.7497   -5.6771   26.4971 C   0  0  0  0  0  0  0  0  0  0  0  0
   -1.5799   -9.9322   18.3468 C   0  0  0  0  0  0  0  0  0  0  0  0
   -1.0871  -12.2214   17.8851 C   0  0  0  0  0  0  0  0  0  0  0  0
   -2.2706   -8.9669   19.0691 C   0  0  0  0  0  0  0  0  0  0  0  0
    3.0279   -5.3073   26.8197 C   0  0  0  0  0  0  0  0  0  0  0  0
    7.3282   -3.8948   29.1186 C   0  0  0  0  0  0  0  0  0  0  0  0
  1  3  4  0
  1  7  4  0
  2  3  1  0
  2  6  4  0
  2 16  4  0
  3 22  4  0
  4  9  4  0
  4 10  1  0
  4 20  4  0
  5 16  4  0
  5 23  4  0
  6 15  4  0
  7 12  4  0
  8 13  4  0
  8 14  4  0
  9 11  4  0
 11 14  4  0
 11 19  4  0
 12 18  4  0
 13 21  4  0
 15 23  4  0
 17 19  4  0
 17 20  4  0
 18 22  4  0
 19 21  4  0
M  END
$$$$

 Created by Python create_sdf_string function

 23 25  0  0  0  0  0  0  0  0999 V2000
    2.4610   -5.3070   29.1240 C   0  0  0  0  0  0  0  0  0  0  0  0
    4.7710   -4.6952   28.4803 C   0  0  0  0  0  0  0  0  0  0  0  0
    3.4047   -5.1087   28.1314 C   0  0  0  0  0  0  0  0  0  0  0  0
   -0.2234  -11.8615   16.8874 C   0  0  0  0  0  0  0  0  0  0  0  0
    6.4491   -4.1532   30.1213 C   0  0  0  0  0  0  0  0  0  0  0  0
    5.7060   -4.4340   27.4975 C   0  0  0  0  0  0  0  0  0  0  0  0
    1.1818   -5.6612   28.8399 C   0  0  0  0  0  0  0  0  0  0  0  0
   -1.2067   -7.3287   17.7772 C   0  0  0  0  0  0  0  0  0  0  0  0
   -0.0206  -10.5585   16.6210 C   0  0  0  0  0  0  0  0  0  0  0  0
    0.3696  -12.7626   16.2169 O   0  0  0  0  0  0  0  0  0  0  0  0
   -0.6895   -9.5676   17.3297 C   0  0  0  0  0  0  0  0  0  0  0  0
    0.8388   -5.8417   27.5264 C   0  0  0  0  0  0  0  0  0  0  0  0
   -2.0709   -7.6637   18.7817 C   0  0  0  0  0  0  0  0  0  0  0  0
   -0.5279   -8.2168   17.0717 C   0  0  0  0  0  0  0  0  0  0  0  0
    6.9694   -4.0191   27.8190 C   0  0  0  0  0  0  0  0  0  0  0  0
    5.1733   -4.5469   29.8123 C   0  0  0  0  0  0  0  0  0  0  0  0
   -1.7508  -11.3016   18.6072 C   0  0  0  0  0  0  0  0  0  0  0  0
    1.7497   -5.6771   26.4971 C   0  0  0  0  0  0  0  0  0  0  0  0
   -1.5799   -9.9322   18.3468 C   0  0  0  0  0  0  0  0  0  0  0  0
   -1.0871  -12.2214   17.8851 C   0  0  0  0  0  0  0  0  0  0  0  0
   -2.2706   -8.9669   19.0691 C   0  0  0  0  0  0  0  0  0  0  0  0
    3.0279   -5.3073   26.8197 C   0  0  0  0  0  0  0  0  0  0  0  0
    7.3282   -3.8948   29.1186 C   0  0  0  0  0  0  0  0  0  0  0  0
  1  3  4  0
  1  7  4  0
  2  3  1  0
  2  6  4  0
  2 16  4  0
  3 22  4  0
  4  9  4  0
  4 10  1  0
  4 20  4  0
  5 16  4  0
  5 23  4  0
  6 15  4  0
  7 12  4  0
  8 13  4  0
  8 14  4  0
  9 11  4  0
 11 14  4  0
 11 19  4  0
 12 18  4  0
 13 21  4  0
 15 23  4  0
 17 19  4  0
 17 20  4  0
 18 22  4  0
 19 21  4  0
M  END
$$$$

 Created by Python create_sdf_string function

 23 25  0  0  0  0  0  0  0  0999 V2000
    2.4610   -5.3070   29.1240 C   0  0  0  0  0  0  0  0  0  0  0  0
    4.7710   -4.6952   28.4803 C   0  0  0  0  0  0  0  0  0  0  0  0
    3.4047   -5.1087   28.1314 C   0  0  0  0  0  0  0  0  0  0  0  0
   -0.2234  -11.8615   16.8874 C   0  0  0  0  0  0  0  0  0  0  0  0
    6.4491   -4.1532   30.1213 C   0  0  0  0  0  0  0  0  0  0  0  0
    5.7060   -4.4340   27.4975 C   0  0  0  0  0  0  0  0  0  0  0  0
    1.1818   -5.6612   28.8399 C   0  0  0  0  0  0  0  0  0  0  0  0
   -1.2067   -7.3287   17.7772 C   0  0  0  0  0  0  0  0  0  0  0  0
   -0.0206  -10.5585   16.6210 C   0  0  0  0  0  0  0  0  0  0  0  0
    0.3696  -12.7626   16.2169 O   0  0  0  0  0  0  0  0  0  0  0  0
   -0.6895   -9.5676   17.3297 C   0  0  0  0  0  0  0  0  0  0  0  0
    0.8388   -5.8417   27.5264 C   0  0  0  0  0  0  0  0  0  0  0  0
   -2.0709   -7.6637   18.7817 C   0  0  0  0  0  0  0  0  0  0  0  0
   -0.5279   -8.2168   17.0717 C   0  0  0  0  0  0  0  0  0  0  0  0
    6.9694   -4.0191   27.8190 C   0  0  0  0  0  0  0  0  0  0  0  0
    5.1733   -4.5469   29.8123 C   0  0  0  0  0  0  0  0  0  0  0  0
   -1.7508  -11.3016   18.6072 C   0  0  0  0  0  0  0  0  0  0  0  0
    1.7497   -5.6771   26.4971 C   0  0  0  0  0  0  0  0  0  0  0  0
   -1.5799   -9.9322   18.3468 C   0  0  0  0  0  0  0  0  0  0  0  0
   -1.0871  -12.2214   17.8851 C   0  0  0  0  0  0  0  0  0  0  0  0
   -2.2706   -8.9669   19.0691 C   0  0  0  0  0  0  0  0  0  0  0  0
    3.0279   -5.3073   26.8197 C   0  0  0  0  0  0  0  0  0  0  0  0
    7.3282   -3.8948   29.1186 C   0  0  0  0  0  0  0  0  0  0  0  0
  1  3  4  0
  1  7  4  0
  2  3  1  0
  2  6  4  0
  2 16  4  0
  3 22  4  0
  4  9  4  0
  4 10  1  0
  4 20  4  0
  5 16  4  0
  5 23  4  0
  6 15  4  0
  7 12  4  0
  8 13  4  0
  8 14  4  0
  9 11  4  0
 11 14  4  0
 11 19  4  0
 12 18  4  0
 13 21  4  0
 15 23  4  0
 17 19  4  0
 17 20  4  0
 18 22  4  0
 19 21  4  0
M  END
$$$$

 Created by Python create_sdf_string function

 23 25  0  0  0  0  0  0  0  0999 V2000
    2.4610   -5.3070   29.1240 C   0  0  0  0  0  0  0  0  0  0  0  0
    4.7710   -4.6952   28.4803 C   0  0  0  0  0  0  0  0  0  0  0  0
    3.4047   -5.1087   28.1314 C   0  0  0  0  0  0  0  0  0  0  0  0
   -0.2234  -11.8615   16.8874 C   0  0  0  0  0  0  0  0  0  0  0  0
    6.4491   -4.1532   30.1213 C   0  0  0  0  0  0  0  0  0  0  0  0
    5.7060   -4.4340   27.4975 C   0  0  0  0  0  0  0  0  0  0  0  0
    1.1818   -5.6612   28.8399 C   0  0  0  0  0  0  0  0  0  0  0  0
   -1.2067   -7.3287   17.7772 C   0  0  0  0  0  0  0  0  0  0  0  0
   -0.0206  -10.5585   16.6210 C   0  0  0  0  0  0  0  0  0  0  0  0
    0.3696  -12.7626   16.2169 O   0  0  0  0  0  0  0  0  0  0  0  0
   -0.6895   -9.5676   17.3297 C   0  0  0  0  0  0  0  0  0  0  0  0
    0.8388   -5.8417   27.5264 C   0  0  0  0  0  0  0  0  0  0  0  0
   -2.0709   -7.6637   18.7817 C   0  0  0  0  0  0  0  0  0  0  0  0
   -0.5279   -8.2168   17.0717 C   0  0  0  0  0  0  0  0  0  0  0  0
    6.9694   -4.0191   27.8190 C   0  0  0  0  0  0  0  0  0  0  0  0
    5.1733   -4.5469   29.8123 C   0  0  0  0  0  0  0  0  0  0  0  0
   -1.7508  -11.3016   18.6072 C   0  0  0  0  0  0  0  0  0  0  0  0
    1.7497   -5.6771   26.4971 C   0  0  0  0  0  0  0  0  0  0  0  0
   -1.5799   -9.9322   18.3468 C   0  0  0  0  0  0  0  0  0  0  0  0
   -1.0871  -12.2214   17.8851 C   0  0  0  0  0  0  0  0  0  0  0  0
   -2.2706   -8.9669   19.0691 C   0  0  0  0  0  0  0  0  0  0  0  0
    3.0279   -5.3073   26.8197 C   0  0  0  0  0  0  0  0  0  0  0  0
    7.3282   -3.8948   29.1186 C   0  0  0  0  0  0  0  0  0  0  0  0
  1  3  4  0
  1  7  4  0
  2  3  1  0
  2  6  4  0
  2 16  4  0
  3 22  4  0
  4  9  4  0
  4 10  1  0
  4 20  4  0
  5 16  4  0
  5 23  4  0
  6 15  4  0
  7 12  4  0
  8 13  4  0
  8 14  4  0
  9 11  4  0
 11 14  4  0
 11 19  4  0
 12 18  4  0
 13 21  4  0
 15 23  4  0
 17 19  4  0
 17 20  4  0
 18 22  4  0
 19 21  4  0
M  END
$$$$

 Created by Python create_sdf_string function

 23 25  0  0  0  0  0  0  0  0999 V2000
    2.4610   -5.3070   29.1240 C   0  0  0  0  0  0  0  0  0  0  0  0
    4.7710   -4.6952   28.4803 C   0  0  0  0  0  0  0  0  0  0  0  0
    3.4047   -5.1087   28.1314 C   0  0  0  0  0  0  0  0  0  0  0  0
   -0.2234  -11.8615   16.8874 C   0  0  0  0  0  0  0  0  0  0  0  0
    6.4491   -4.1532   30.1213 C   0  0  0  0  0  0  0  0  0  0  0  0
    5.7060   -4.4340   27.4975 C   0  0  0  0  0  0  0  0  0  0  0  0
    1.1818   -5.6612   28.8399 C   0  0  0  0  0  0  0  0  0  0  0  0
   -1.2067   -7.3287   17.7772 C   0  0  0  0  0  0  0  0  0  0  0  0
   -0.0206  -10.5585   16.6210 C   0  0  0  0  0  0  0  0  0  0  0  0
    0.3696  -12.7626   16.2169 O   0  0  0  0  0  0  0  0  0  0  0  0
   -0.6895   -9.5676   17.3297 C   0  0  0  0  0  0  0  0  0  0  0  0
    0.8388   -5.8417   27.5264 C   0  0  0  0  0  0  0  0  0  0  0  0
   -2.0709   -7.6637   18.7817 C   0  0  0  0  0  0  0  0  0  0  0  0
   -0.5279   -8.2168   17.0717 C   0  0  0  0  0  0  0  0  0  0  0  0
    6.9694   -4.0191   27.8190 C   0  0  0  0  0  0  0  0  0  0  0  0
    5.1733   -4.5469   29.8123 C   0  0  0  0  0  0  0  0  0  0  0  0
   -1.7508  -11.3016   18.6072 C   0  0  0  0  0  0  0  0  0  0  0  0
    1.7497   -5.6771   26.4971 C   0  0  0  0  0  0  0  0  0  0  0  0
   -1.5799   -9.9322   18.3468 C   0  0  0  0  0  0  0  0  0  0  0  0
   -1.0871  -12.2214   17.8851 C   0  0  0  0  0  0  0  0  0  0  0  0
   -2.2706   -8.9669   19.0691 C   0  0  0  0  0  0  0  0  0  0  0  0
    3.0279   -5.3073   26.8197 C   0  0  0  0  0  0  0  0  0  0  0  0
    7.3282   -3.8948   29.1186 C   0  0  0  0  0  0  0  0  0  0  0  0
  1  3  4  0
  1  7  4  0
  2  3  1  0
  2  6  4  0
  2 16  4  0
  3 22  4  0
  4  9  4  0
  4 10  1  0
  4 20  4  0
  5 16  4  0
  5 23  4  0
  6 15  4  0
  7 12  4  0
  8 13  4  0
  8 14  4  0
  9 11  4  0
 11 14  4  0
 11 19  4  0
 12 18  4  0
 13 21  4  0
 15 23  4  0
 17 19  4  0
 17 20  4  0
 18 22  4  0
 19 21  4  0
M  END
$$$$

 Created by Python create_sdf_string function

 23 25  0  0  0  0  0  0  0  0999 V2000
    2.4610   -5.3070   29.1240 C   0  0  0  0  0  0  0  0  0  0  0  0
    4.7710   -4.6952   28.4803 C   0  0  0  0  0  0  0  0  0  0  0  0
    3.4047   -5.1087   28.1314 C   0  0  0  0  0  0  0  0  0  0  0  0
   -0.2234  -11.8615   16.8874 C   0  0  0  0  0  0  0  0  0  0  0  0
    6.4491   -4.1532   30.1213 C   0  0  0  0  0  0  0  0  0  0  0  0
    5.7060   -4.4340   27.4975 C   0  0  0  0  0  0  0  0  0  0  0  0
    1.1818   -5.6612   28.8399 C   0  0  0  0  0  0  0  0  0  0  0  0
   -1.2067   -7.3287   17.7772 C   0  0  0  0  0  0  0  0  0  0  0  0
   -0.0206  -10.5585   16.6210 C   0  0  0  0  0  0  0  0  0  0  0  0
    0.3696  -12.7626   16.2169 O   0  0  0  0  0  0  0  0  0  0  0  0
   -0.6895   -9.5676   17.3297 C   0  0  0  0  0  0  0  0  0  0  0  0
    0.8388   -5.8417   27.5264 C   0  0  0  0  0  0  0  0  0  0  0  0
   -2.0709   -7.6637   18.7817 C   0  0  0  0  0  0  0  0  0  0  0  0
   -0.5279   -8.2168   17.0717 C   0  0  0  0  0  0  0  0  0  0  0  0
    6.9694   -4.0191   27.8190 C   0  0  0  0  0  0  0  0  0  0  0  0
    5.1733   -4.5469   29.8123 C   0  0  0  0  0  0  0  0  0  0  0  0
   -1.7508  -11.3016   18.6072 C   0  0  0  0  0  0  0  0  0  0  0  0
    1.7497   -5.6771   26.4971 C   0  0  0  0  0  0  0  0  0  0  0  0
   -1.5799   -9.9322   18.3468 C   0  0  0  0  0  0  0  0  0  0  0  0
   -1.0871  -12.2214   17.8851 C   0  0  0  0  0  0  0  0  0  0  0  0
   -2.2706   -8.9669   19.0691 C   0  0  0  0  0  0  0  0  0  0  0  0
    3.0279   -5.3073   26.8197 C   0  0  0  0  0  0  0  0  0  0  0  0
    7.3282   -3.8948   29.1186 C   0  0  0  0  0  0  0  0  0  0  0  0
  1  3  4  0
  1  7  4  0
  2  3  1  0
  2  6  4  0
  2 16  4  0
  3 22  4  0
  4  9  4  0
  4 10  1  0
  4 20  4  0
  5 16  4  0
  5 23  4  0
  6 15  4  0
  7 12  4  0
  8 13  4  0
  8 14  4  0
  9 11  4  0
 11 14  4  0
 11 19  4  0
 12 18  4  0
 13 21  4  0
 15 23  4  0
 17 19  4  0
 17 20  4  0
 18 22  4  0
 19 21  4  0
M  END
$$$$

 Created by Python create_sdf_string function

 23 25  0  0  0  0  0  0  0  0999 V2000
    2.4610   -5.3070   29.1240 C   0  0  0  0  0  0  0  0  0  0  0  0
    4.7710   -4.6952   28.4803 C   0  0  0  0  0  0  0  0  0  0  0  0
    3.4047   -5.1087   28.1314 C   0  0  0  0  0  0  0  0  0  0  0  0
   -0.2234  -11.8615   16.8874 C   0  0  0  0  0  0  0  0  0  0  0  0
    6.4491   -4.1532   30.1213 C   0  0  0  0  0  0  0  0  0  0  0  0
    5.7060   -4.4340   27.4975 C   0  0  0  0  0  0  0  0  0  0  0  0
    1.1818   -5.6612   28.8399 C   0  0  0  0  0  0  0  0  0  0  0  0
   -1.2067   -7.3287   17.7772 C   0  0  0  0  0  0  0  0  0  0  0  0
   -0.0206  -10.5585   16.6210 C   0  0  0  0  0  0  0  0  0  0  0  0
    0.3696  -12.7626   16.2169 O   0  0  0  0  0  0  0  0  0  0  0  0
   -0.6895   -9.5676   17.3297 C   0  0  0  0  0  0  0  0  0  0  0  0
    0.8388   -5.8417   27.5264 C   0  0  0  0  0  0  0  0  0  0  0  0
   -2.0709   -7.6637   18.7817 C   0  0  0  0  0  0  0  0  0  0  0  0
   -0.5279   -8.2168   17.0717 C   0  0  0  0  0  0  0  0  0  0  0  0
    6.9694   -4.0191   27.8190 C   0  0  0  0  0  0  0  0  0  0  0  0
    5.1733   -4.5469   29.8123 C   0  0  0  0  0  0  0  0  0  0  0  0
   -1.7508  -11.3016   18.6072 C   0  0  0  0  0  0  0  0  0  0  0  0
    1.7497   -5.6771   26.4971 C   0  0  0  0  0  0  0  0  0  0  0  0
   -1.5799   -9.9322   18.3468 C   0  0  0  0  0  0  0  0  0  0  0  0
   -1.0871  -12.2214   17.8851 C   0  0  0  0  0  0  0  0  0  0  0  0
   -2.2706   -8.9669   19.0691 C   0  0  0  0  0  0  0  0  0  0  0  0
    3.0279   -5.3073   26.8197 C   0  0  0  0  0  0  0  0  0  0  0  0
    7.3282   -3.8948   29.1186 C   0  0  0  0  0  0  0  0  0  0  0  0
  1  3  4  0
  1  7  4  0
  2  3  1  0
  2  6  4  0
  2 16  4  0
  3 22  4  0
  4  9  4  0
  4 10  1  0
  4 20  4  0
  5 16  4  0
  5 23  4  0
  6 15  4  0
  7 12  4  0
  8 13  4  0
  8 14  4  0
  9 11  4  0
 11 14  4  0
 11 19  4  0
 12 18  4  0
 13 21  4  0
 15 23  4  0
 17 19  4  0
 17 20  4  0
 18 22  4  0
 19 21  4  0
M  END
$$$$

 Created by Python create_sdf_string function

 23 25  0  0  0  0  0  0  0  0999 V2000
    2.4610   -5.3070   29.1240 C   0  0  0  0  0  0  0  0  0  0  0  0
    4.7710   -4.6952   28.4803 C   0  0  0  0  0  0  0  0  0  0  0  0
    3.4047   -5.1087   28.1314 C   0  0  0  0  0  0  0  0  0  0  0  0
   -0.2234  -11.8615   16.8874 C   0  0  0  0  0  0  0  0  0  0  0  0
    6.4491   -4.1532   30.1213 C   0  0  0  0  0  0  0  0  0  0  0  0
    5.7060   -4.4340   27.4975 C   0  0  0  0  0  0  0  0  0  0  0  0
    1.1818   -5.6612   28.8399 C   0  0  0  0  0  0  0  0  0  0  0  0
   -1.2067   -7.3287   17.7772 C   0  0  0  0  0  0  0  0  0  0  0  0
   -0.0206  -10.5585   16.6210 C   0  0  0  0  0  0  0  0  0  0  0  0
    0.3696  -12.7626   16.2169 O   0  0  0  0  0  0  0  0  0  0  0  0
   -0.6895   -9.5676   17.3297 C   0  0  0  0  0  0  0  0  0  0  0  0
    0.8388   -5.8417   27.5264 C   0  0  0  0  0  0  0  0  0  0  0  0
   -2.0709   -7.6637   18.7817 C   0  0  0  0  0  0  0  0  0  0  0  0
   -0.5279   -8.2168   17.0717 C   0  0  0  0  0  0  0  0  0  0  0  0
    6.9694   -4.0191   27.8190 C   0  0  0  0  0  0  0  0  0  0  0  0
    5.1733   -4.5469   29.8123 C   0  0  0  0  0  0  0  0  0  0  0  0
   -1.7508  -11.3016   18.6072 C   0  0  0  0  0  0  0  0  0  0  0  0
    1.7497   -5.6771   26.4971 C   0  0  0  0  0  0  0  0  0  0  0  0
   -1.5799   -9.9322   18.3468 C   0  0  0  0  0  0  0  0  0  0  0  0
   -1.0871  -12.2214   17.8851 C   0  0  0  0  0  0  0  0  0  0  0  0
   -2.2706   -8.9669   19.0691 C   0  0  0  0  0  0  0  0  0  0  0  0
    3.0279   -5.3073   26.8197 C   0  0  0  0  0  0  0  0  0  0  0  0
    7.3282   -3.8948   29.1186 C   0  0  0  0  0  0  0  0  0  0  0  0
  1  3  4  0
  1  7  4  0
  2  3  1  0
  2  6  4  0
  2 16  4  0
  3 22  4  0
  4  9  4  0
  4 10  1  0
  4 20  4  0
  5 16  4  0
  5 23  4  0
  6 15  4  0
  7 12  4  0
  8 13  4  0
  8 14  4  0
  9 11  4  0
 11 14  4  0
 11 19  4  0
 12 18  4  0
 13 21  4  0
 15 23  4  0
 17 19  4  0
 17 20  4  0
 18 22  4  0
 19 21  4  0
M  END
$$$$

 Created by Python create_sdf_string function

 23 25  0  0  0  0  0  0  0  0999 V2000
    2.4610   -5.3070   29.1240 C   0  0  0  0  0  0  0  0  0  0  0  0
    4.7710   -4.6952   28.4803 C   0  0  0  0  0  0  0  0  0  0  0  0
    3.4047   -5.1087   28.1314 C   0  0  0  0  0  0  0  0  0  0  0  0
   -0.2234  -11.8615   16.8874 C   0  0  0  0  0  0  0  0  0  0  0  0
    6.4491   -4.1532   30.1213 C   0  0  0  0  0  0  0  0  0  0  0  0
    5.7060   -4.4340   27.4975 C   0  0  0  0  0  0  0  0  0  0  0  0
    1.1818   -5.6612   28.8399 C   0  0  0  0  0  0  0  0  0  0  0  0
   -1.2067   -7.3287   17.7772 C   0  0  0  0  0  0  0  0  0  0  0  0
   -0.0206  -10.5585   16.6210 C   0  0  0  0  0  0  0  0  0  0  0  0
    0.3696  -12.7626   16.2169 O   0  0  0  0  0  0  0  0  0  0  0  0
   -0.6895   -9.5676   17.3297 C   0  0  0  0  0  0  0  0  0  0  0  0
    0.8388   -5.8417   27.5264 C   0  0  0  0  0  0  0  0  0  0  0  0
   -2.0709   -7.6637   18.7817 C   0  0  0  0  0  0  0  0  0  0  0  0
   -0.5279   -8.2168   17.0717 C   0  0  0  0  0  0  0  0  0  0  0  0
    6.9694   -4.0191   27.8190 C   0  0  0  0  0  0  0  0  0  0  0  0
    5.1733   -4.5469   29.8123 C   0  0  0  0  0  0  0  0  0  0  0  0
   -1.7508  -11.3016   18.6072 C   0  0  0  0  0  0  0  0  0  0  0  0
    1.7497   -5.6771   26.4971 C   0  0  0  0  0  0  0  0  0  0  0  0
   -1.5799   -9.9322   18.3468 C   0  0  0  0  0  0  0  0  0  0  0  0
   -1.0871  -12.2214   17.8851 C   0  0  0  0  0  0  0  0  0  0  0  0
   -2.2706   -8.9669   19.0691 C   0  0  0  0  0  0  0  0  0  0  0  0
    3.0279   -5.3073   26.8197 C   0  0  0  0  0  0  0  0  0  0  0  0
    7.3282   -3.8948   29.1186 C   0  0  0  0  0  0  0  0  0  0  0  0
  1  3  4  0
  1  7  4  0
  2  3  1  0
  2  6  4  0
  2 16  4  0
  3 22  4  0
  4  9  4  0
  4 10  1  0
  4 20  4  0
  5 16  4  0
  5 23  4  0
  6 15  4  0
  7 12  4  0
  8 13  4  0
  8 14  4  0
  9 11  4  0
 11 14  4  0
 11 19  4  0
 12 18  4  0
 13 21  4  0
 15 23  4  0
 17 19  4  0
 17 20  4  0
 18 22  4  0
 19 21  4  0
M  END
$$$$

 Created by Python create_sdf_string function

 23 25  0  0  0  0  0  0  0  0999 V2000
    2.4610   -5.3070   29.1240 C   0  0  0  0  0  0  0  0  0  0  0  0
    4.7710   -4.6952   28.4803 C   0  0  0  0  0  0  0  0  0  0  0  0
    3.4047   -5.1087   28.1314 C   0  0  0  0  0  0  0  0  0  0  0  0
   -0.2234  -11.8615   16.8874 C   0  0  0  0  0  0  0  0  0  0  0  0
    6.4491   -4.1532   30.1213 C   0  0  0  0  0  0  0  0  0  0  0  0
    5.7060   -4.4340   27.4975 C   0  0  0  0  0  0  0  0  0  0  0  0
    1.1818   -5.6612   28.8399 C   0  0  0  0  0  0  0  0  0  0  0  0
   -1.2067   -7.3287   17.7772 C   0  0  0  0  0  0  0  0  0  0  0  0
   -0.0206  -10.5585   16.6210 C   0  0  0  0  0  0  0  0  0  0  0  0
    0.3696  -12.7626   16.2169 O   0  0  0  0  0  0  0  0  0  0  0  0
   -0.6895   -9.5676   17.3297 C   0  0  0  0  0  0  0  0  0  0  0  0
    0.8388   -5.8417   27.5264 C   0  0  0  0  0  0  0  0  0  0  0  0
   -2.0709   -7.6637   18.7817 C   0  0  0  0  0  0  0  0  0  0  0  0
   -0.5279   -8.2168   17.0717 C   0  0  0  0  0  0  0  0  0  0  0  0
    6.9694   -4.0191   27.8190 C   0  0  0  0  0  0  0  0  0  0  0  0
    5.1733   -4.5469   29.8123 C   0  0  0  0  0  0  0  0  0  0  0  0
   -1.7508  -11.3016   18.6072 C   0  0  0  0  0  0  0  0  0  0  0  0
    1.7497   -5.6771   26.4971 C   0  0  0  0  0  0  0  0  0  0  0  0
   -1.5799   -9.9322   18.3468 C   0  0  0  0  0  0  0  0  0  0  0  0
   -1.0871  -12.2214   17.8851 C   0  0  0  0  0  0  0  0  0  0  0  0
   -2.2706   -8.9669   19.0691 C   0  0  0  0  0  0  0  0  0  0  0  0
    3.0279   -5.3073   26.8197 C   0  0  0  0  0  0  0  0  0  0  0  0
    7.3282   -3.8948   29.1186 C   0  0  0  0  0  0  0  0  0  0  0  0
  1  3  4  0
  1  7  4  0
  2  3  1  0
  2  6  4  0
  2 16  4  0
  3 22  4  0
  4  9  4  0
  4 10  1  0
  4 20  4  0
  5 16  4  0
  5 23  4  0
  6 15  4  0
  7 12  4  0
  8 13  4  0
  8 14  4  0
  9 11  4  0
 11 14  4  0
 11 19  4  0
 12 18  4  0
 13 21  4  0
 15 23  4  0
 17 19  4  0
 17 20  4  0
 18 22  4  0
 19 21  4  0
M  END
$$$$

 Created by Python create_sdf_string function

 23 25  0  0  0  0  0  0  0  0999 V2000
    2.4610   -5.3070   29.1240 C   0  0  0  0  0  0  0  0  0  0  0  0
    4.7710   -4.6952   28.4803 C   0  0  0  0  0  0  0  0  0  0  0  0
    3.4047   -5.1087   28.1314 C   0  0  0  0  0  0  0  0  0  0  0  0
   -0.2234  -11.8615   16.8874 C   0  0  0  0  0  0  0  0  0  0  0  0
    6.4491   -4.1532   30.1213 C   0  0  0  0  0  0  0  0  0  0  0  0
    5.7060   -4.4340   27.4975 C   0  0  0  0  0  0  0  0  0  0  0  0
    1.1818   -5.6612   28.8399 C   0  0  0  0  0  0  0  0  0  0  0  0
   -1.2067   -7.3287   17.7772 C   0  0  0  0  0  0  0  0  0  0  0  0
   -0.0206  -10.5585   16.6210 C   0  0  0  0  0  0  0  0  0  0  0  0
    0.3696  -12.7626   16.2169 O   0  0  0  0  0  0  0  0  0  0  0  0
   -0.6895   -9.5676   17.3297 C   0  0  0  0  0  0  0  0  0  0  0  0
    0.8388   -5.8417   27.5264 C   0  0  0  0  0  0  0  0  0  0  0  0
   -2.0709   -7.6637   18.7817 C   0  0  0  0  0  0  0  0  0  0  0  0
   -0.5279   -8.2168   17.0717 C   0  0  0  0  0  0  0  0  0  0  0  0
    6.9694   -4.0191   27.8190 C   0  0  0  0  0  0  0  0  0  0  0  0
    5.1733   -4.5469   29.8123 C   0  0  0  0  0  0  0  0  0  0  0  0
   -1.7508  -11.3016   18.6072 C   0  0  0  0  0  0  0  0  0  0  0  0
    1.7497   -5.6771   26.4971 C   0  0  0  0  0  0  0  0  0  0  0  0
   -1.5799   -9.9322   18.3468 C   0  0  0  0  0  0  0  0  0  0  0  0
   -1.0871  -12.2214   17.8851 C   0  0  0  0  0  0  0  0  0  0  0  0
   -2.2706   -8.9669   19.0691 C   0  0  0  0  0  0  0  0  0  0  0  0
    3.0279   -5.3073   26.8197 C   0  0  0  0  0  0  0  0  0  0  0  0
    7.3282   -3.8948   29.1186 C   0  0  0  0  0  0  0  0  0  0  0  0
  1  3  4  0
  1  7  4  0
  2  3  1  0
  2  6  4  0
  2 16  4  0
  3 22  4  0
  4  9  4  0
  4 10  1  0
  4 20  4  0
  5 16  4  0
  5 23  4  0
  6 15  4  0
  7 12  4  0
  8 13  4  0
  8 14  4  0
  9 11  4  0
 11 14  4  0
 11 19  4  0
 12 18  4  0
 13 21  4  0
 15 23  4  0
 17 19  4  0
 17 20  4  0
 18 22  4  0
 19 21  4  0
M  END
$$$$

 Created by Python create_sdf_string function

 23 25  0  0  0  0  0  0  0  0999 V2000
    2.4610   -5.3070   29.1240 C   0  0  0  0  0  0  0  0  0  0  0  0
    4.7710   -4.6952   28.4803 C   0  0  0  0  0  0  0  0  0  0  0  0
    3.4047   -5.1087   28.1314 C   0  0  0  0  0  0  0  0  0  0  0  0
   -0.2234  -11.8615   16.8874 C   0  0  0  0  0  0  0  0  0  0  0  0
    6.4491   -4.1532   30.1213 C   0  0  0  0  0  0  0  0  0  0  0  0
    5.7060   -4.4340   27.4975 C   0  0  0  0  0  0  0  0  0  0  0  0
    1.1818   -5.6612   28.8399 C   0  0  0  0  0  0  0  0  0  0  0  0
   -1.2067   -7.3287   17.7772 C   0  0  0  0  0  0  0  0  0  0  0  0
   -0.0206  -10.5585   16.6210 C   0  0  0  0  0  0  0  0  0  0  0  0
    0.3696  -12.7626   16.2169 O   0  0  0  0  0  0  0  0  0  0  0  0
   -0.6895   -9.5676   17.3297 C   0  0  0  0  0  0  0  0  0  0  0  0
    0.8388   -5.8417   27.5264 C   0  0  0  0  0  0  0  0  0  0  0  0
   -2.0709   -7.6637   18.7817 C   0  0  0  0  0  0  0  0  0  0  0  0
   -0.5279   -8.2168   17.0717 C   0  0  0  0  0  0  0  0  0  0  0  0
    6.9694   -4.0191   27.8190 C   0  0  0  0  0  0  0  0  0  0  0  0
    5.1733   -4.5469   29.8123 C   0  0  0  0  0  0  0  0  0  0  0  0
   -1.7508  -11.3016   18.6072 C   0  0  0  0  0  0  0  0  0  0  0  0
    1.7497   -5.6771   26.4971 C   0  0  0  0  0  0  0  0  0  0  0  0
   -1.5799   -9.9322   18.3468 C   0  0  0  0  0  0  0  0  0  0  0  0
   -1.0871  -12.2214   17.8851 C   0  0  0  0  0  0  0  0  0  0  0  0
   -2.2706   -8.9669   19.0691 C   0  0  0  0  0  0  0  0  0  0  0  0
    3.0279   -5.3073   26.8197 C   0  0  0  0  0  0  0  0  0  0  0  0
    7.3282   -3.8948   29.1186 C   0  0  0  0  0  0  0  0  0  0  0  0
  1  3  4  0
  1  7  4  0
  2  3  1  0
  2  6  4  0
  2 16  4  0
  3 22  4  0
  4  9  4  0
  4 10  1  0
  4 20  4  0
  5 16  4  0
  5 23  4  0
  6 15  4  0
  7 12  4  0
  8 13  4  0
  8 14  4  0
  9 11  4  0
 11 14  4  0
 11 19  4  0
 12 18  4  0
 13 21  4  0
 15 23  4  0
 17 19  4  0
 17 20  4  0
 18 22  4  0
 19 21  4  0
M  END
$$$$

 Created by Python create_sdf_string function

 23 25  0  0  0  0  0  0  0  0999 V2000
    2.4610   -5.3070   29.1240 C   0  0  0  0  0  0  0  0  0  0  0  0
    4.7710   -4.6952   28.4803 C   0  0  0  0  0  0  0  0  0  0  0  0
    3.4047   -5.1087   28.1314 C   0  0  0  0  0  0  0  0  0  0  0  0
   -0.2234  -11.8615   16.8874 C   0  0  0  0  0  0  0  0  0  0  0  0
    6.4491   -4.1532   30.1213 C   0  0  0  0  0  0  0  0  0  0  0  0
    5.7060   -4.4340   27.4975 C   0  0  0  0  0  0  0  0  0  0  0  0
    1.1818   -5.6612   28.8399 C   0  0  0  0  0  0  0  0  0  0  0  0
   -1.2067   -7.3287   17.7772 C   0  0  0  0  0  0  0  0  0  0  0  0
   -0.0206  -10.5585   16.6210 C   0  0  0  0  0  0  0  0  0  0  0  0
    0.3696  -12.7626   16.2169 O   0  0  0  0  0  0  0  0  0  0  0  0
   -0.6895   -9.5676   17.3297 C   0  0  0  0  0  0  0  0  0  0  0  0
    0.8388   -5.8417   27.5264 C   0  0  0  0  0  0  0  0  0  0  0  0
   -2.0709   -7.6637   18.7817 C   0  0  0  0  0  0  0  0  0  0  0  0
   -0.5279   -8.2168   17.0717 C   0  0  0  0  0  0  0  0  0  0  0  0
    6.9694   -4.0191   27.8190 C   0  0  0  0  0  0  0  0  0  0  0  0
    5.1733   -4.5469   29.8123 C   0  0  0  0  0  0  0  0  0  0  0  0
   -1.7508  -11.3016   18.6072 C   0  0  0  0  0  0  0  0  0  0  0  0
    1.7497   -5.6771   26.4971 C   0  0  0  0  0  0  0  0  0  0  0  0
   -1.5799   -9.9322   18.3468 C   0  0  0  0  0  0  0  0  0  0  0  0
   -1.0871  -12.2214   17.8851 C   0  0  0  0  0  0  0  0  0  0  0  0
   -2.2706   -8.9669   19.0691 C   0  0  0  0  0  0  0  0  0  0  0  0
    3.0279   -5.3073   26.8197 C   0  0  0  0  0  0  0  0  0  0  0  0
    7.3282   -3.8948   29.1186 C   0  0  0  0  0  0  0  0  0  0  0  0
  1  3  4  0
  1  7  4  0
  2  3  1  0
  2  6  4  0
  2 16  4  0
  3 22  4  0
  4  9  4  0
  4 10  1  0
  4 20  4  0
  5 16  4  0
  5 23  4  0
  6 15  4  0
  7 12  4  0
  8 13  4  0
  8 14  4  0
  9 11  4  0
 11 14  4  0
 11 19  4  0
 12 18  4  0
 13 21  4  0
 15 23  4  0
 17 19  4  0
 17 20  4  0
 18 22  4  0
 19 21  4  0
M  END
$$$$

 Created by Python create_sdf_string function

 23 25  0  0  0  0  0  0  0  0999 V2000
    2.4610   -5.3070   29.1240 C   0  0  0  0  0  0  0  0  0  0  0  0
    4.7710   -4.6952   28.4803 C   0  0  0  0  0  0  0  0  0  0  0  0
    3.4047   -5.1087   28.1314 C   0  0  0  0  0  0  0  0  0  0  0  0
   -0.2234  -11.8615   16.8874 C   0  0  0  0  0  0  0  0  0  0  0  0
    6.4491   -4.1532   30.1213 C   0  0  0  0  0  0  0  0  0  0  0  0
    5.7060   -4.4340   27.4975 C   0  0  0  0  0  0  0  0  0  0  0  0
    1.1818   -5.6612   28.8399 C   0  0  0  0  0  0  0  0  0  0  0  0
   -1.2067   -7.3287   17.7772 C   0  0  0  0  0  0  0  0  0  0  0  0
   -0.0206  -10.5585   16.6210 C   0  0  0  0  0  0  0  0  0  0  0  0
    0.3696  -12.7626   16.2169 O   0  0  0  0  0  0  0  0  0  0  0  0
   -0.6895   -9.5676   17.3297 C   0  0  0  0  0  0  0  0  0  0  0  0
    0.8388   -5.8417   27.5264 C   0  0  0  0  0  0  0  0  0  0  0  0
   -2.0709   -7.6637   18.7817 C   0  0  0  0  0  0  0  0  0  0  0  0
   -0.5279   -8.2168   17.0717 C   0  0  0  0  0  0  0  0  0  0  0  0
    6.9694   -4.0191   27.8190 C   0  0  0  0  0  0  0  0  0  0  0  0
    5.1733   -4.5469   29.8123 C   0  0  0  0  0  0  0  0  0  0  0  0
   -1.7508  -11.3016   18.6072 C   0  0  0  0  0  0  0  0  0  0  0  0
    1.7497   -5.6771   26.4971 C   0  0  0  0  0  0  0  0  0  0  0  0
   -1.5799   -9.9322   18.3468 C   0  0  0  0  0  0  0  0  0  0  0  0
   -1.0871  -12.2214   17.8851 C   0  0  0  0  0  0  0  0  0  0  0  0
   -2.2706   -8.9669   19.0691 C   0  0  0  0  0  0  0  0  0  0  0  0
    3.0279   -5.3073   26.8197 C   0  0  0  0  0  0  0  0  0  0  0  0
    7.3282   -3.8948   29.1186 C   0  0  0  0  0  0  0  0  0  0  0  0
  1  3  4  0
  1  7  4  0
  2  3  1  0
  2  6  4  0
  2 16  4  0
  3 22  4  0
  4  9  4  0
  4 10  1  0
  4 20  4  0
  5 16  4  0
  5 23  4  0
  6 15  4  0
  7 12  4  0
  8 13  4  0
  8 14  4  0
  9 11  4  0
 11 14  4  0
 11 19  4  0
 12 18  4  0
 13 21  4  0
 15 23  4  0
 17 19  4  0
 17 20  4  0
 18 22  4  0
 19 21  4  0
M  END
$$$$

 Created by Python create_sdf_string function

 23 25  0  0  0  0  0  0  0  0999 V2000
    2.4610   -5.3070   29.1240 C   0  0  0  0  0  0  0  0  0  0  0  0
    4.7710   -4.6952   28.4803 C   0  0  0  0  0  0  0  0  0  0  0  0
    3.4047   -5.1087   28.1314 C   0  0  0  0  0  0  0  0  0  0  0  0
   -0.2234  -11.8615   16.8874 C   0  0  0  0  0  0  0  0  0  0  0  0
    6.4491   -4.1532   30.1213 C   0  0  0  0  0  0  0  0  0  0  0  0
    5.7060   -4.4340   27.4975 C   0  0  0  0  0  0  0  0  0  0  0  0
    1.1818   -5.6612   28.8399 C   0  0  0  0  0  0  0  0  0  0  0  0
   -1.2067   -7.3287   17.7772 C   0  0  0  0  0  0  0  0  0  0  0  0
   -0.0206  -10.5585   16.6210 C   0  0  0  0  0  0  0  0  0  0  0  0
    0.3696  -12.7626   16.2169 O   0  0  0  0  0  0  0  0  0  0  0  0
   -0.6895   -9.5676   17.3297 C   0  0  0  0  0  0  0  0  0  0  0  0
    0.8388   -5.8417   27.5264 C   0  0  0  0  0  0  0  0  0  0  0  0
   -2.0709   -7.6637   18.7817 C   0  0  0  0  0  0  0  0  0  0  0  0
   -0.5279   -8.2168   17.0717 C   0  0  0  0  0  0  0  0  0  0  0  0
    6.9694   -4.0191   27.8190 C   0  0  0  0  0  0  0  0  0  0  0  0
    5.1733   -4.5469   29.8123 C   0  0  0  0  0  0  0  0  0  0  0  0
   -1.7508  -11.3016   18.6072 C   0  0  0  0  0  0  0  0  0  0  0  0
    1.7497   -5.6771   26.4971 C   0  0  0  0  0  0  0  0  0  0  0  0
   -1.5799   -9.9322   18.3468 C   0  0  0  0  0  0  0  0  0  0  0  0
   -1.0871  -12.2214   17.8851 C   0  0  0  0  0  0  0  0  0  0  0  0
   -2.2706   -8.9669   19.0691 C   0  0  0  0  0  0  0  0  0  0  0  0
    3.0279   -5.3073   26.8197 C   0  0  0  0  0  0  0  0  0  0  0  0
    7.3282   -3.8948   29.1186 C   0  0  0  0  0  0  0  0  0  0  0  0
  1  3  4  0
  1  7  4  0
  2  3  1  0
  2  6  4  0
  2 16  4  0
  3 22  4  0
  4  9  4  0
  4 10  1  0
  4 20  4  0
  5 16  4  0
  5 23  4  0
  6 15  4  0
  7 12  4  0
  8 13  4  0
  8 14  4  0
  9 11  4  0
 11 14  4  0
 11 19  4  0
 12 18  4  0
 13 21  4  0
 15 23  4  0
 17 19  4  0
 17 20  4  0
 18 22  4  0
 19 21  4  0
M  END
$$$$

 Created by Python create_sdf_string function

 23 25  0  0  0  0  0  0  0  0999 V2000
    2.4610   -5.3070   29.1240 C   0  0  0  0  0  0  0  0  0  0  0  0
    4.7710   -4.6952   28.4803 C   0  0  0  0  0  0  0  0  0  0  0  0
    3.4047   -5.1087   28.1314 C   0  0  0  0  0  0  0  0  0  0  0  0
   -0.2234  -11.8615   16.8874 C   0  0  0  0  0  0  0  0  0  0  0  0
    6.4491   -4.1532   30.1213 C   0  0  0  0  0  0  0  0  0  0  0  0
    5.7060   -4.4340   27.4975 C   0  0  0  0  0  0  0  0  0  0  0  0
    1.1818   -5.6612   28.8399 C   0  0  0  0  0  0  0  0  0  0  0  0
   -1.2067   -7.3287   17.7772 C   0  0  0  0  0  0  0  0  0  0  0  0
   -0.0206  -10.5585   16.6210 C   0  0  0  0  0  0  0  0  0  0  0  0
    0.3696  -12.7626   16.2169 O   0  0  0  0  0  0  0  0  0  0  0  0
   -0.6895   -9.5676   17.3297 C   0  0  0  0  0  0  0  0  0  0  0  0
    0.8388   -5.8417   27.5264 C   0  0  0  0  0  0  0  0  0  0  0  0
   -2.0709   -7.6637   18.7817 C   0  0  0  0  0  0  0  0  0  0  0  0
   -0.5279   -8.2168   17.0717 C   0  0  0  0  0  0  0  0  0  0  0  0
    6.9694   -4.0191   27.8190 C   0  0  0  0  0  0  0  0  0  0  0  0
    5.1733   -4.5469   29.8123 C   0  0  0  0  0  0  0  0  0  0  0  0
   -1.7508  -11.3016   18.6072 C   0  0  0  0  0  0  0  0  0  0  0  0
    1.7497   -5.6771   26.4971 C   0  0  0  0  0  0  0  0  0  0  0  0
   -1.5799   -9.9322   18.3468 C   0  0  0  0  0  0  0  0  0  0  0  0
   -1.0871  -12.2214   17.8851 C   0  0  0  0  0  0  0  0  0  0  0  0
   -2.2706   -8.9669   19.0691 C   0  0  0  0  0  0  0  0  0  0  0  0
    3.0279   -5.3073   26.8197 C   0  0  0  0  0  0  0  0  0  0  0  0
    7.3282   -3.8948   29.1186 C   0  0  0  0  0  0  0  0  0  0  0  0
  1  3  4  0
  1  7  4  0
  2  3  1  0
  2  6  4  0
  2 16  4  0
  3 22  4  0
  4  9  4  0
  4 10  1  0
  4 20  4  0
  5 16  4  0
  5 23  4  0
  6 15  4  0
  7 12  4  0
  8 13  4  0
  8 14  4  0
  9 11  4  0
 11 14  4  0
 11 19  4  0
 12 18  4  0
 13 21  4  0
 15 23  4  0
 17 19  4  0
 17 20  4  0
 18 22  4  0
 19 21  4  0
M  END
$$$$

 Created by Python create_sdf_string function

 23 25  0  0  0  0  0  0  0  0999 V2000
    2.4610   -5.3070   29.1240 C   0  0  0  0  0  0  0  0  0  0  0  0
    4.7710   -4.6952   28.4803 C   0  0  0  0  0  0  0  0  0  0  0  0
    3.4047   -5.1087   28.1314 C   0  0  0  0  0  0  0  0  0  0  0  0
   -0.2234  -11.8615   16.8874 C   0  0  0  0  0  0  0  0  0  0  0  0
    6.4491   -4.1532   30.1213 C   0  0  0  0  0  0  0  0  0  0  0  0
    5.7060   -4.4340   27.4975 C   0  0  0  0  0  0  0  0  0  0  0  0
    1.1818   -5.6612   28.8399 C   0  0  0  0  0  0  0  0  0  0  0  0
   -1.2067   -7.3287   17.7772 C   0  0  0  0  0  0  0  0  0  0  0  0
   -0.0206  -10.5585   16.6210 C   0  0  0  0  0  0  0  0  0  0  0  0
    0.3696  -12.7626   16.2169 O   0  0  0  0  0  0  0  0  0  0  0  0
   -0.6895   -9.5676   17.3297 C   0  0  0  0  0  0  0  0  0  0  0  0
    0.8388   -5.8417   27.5264 C   0  0  0  0  0  0  0  0  0  0  0  0
   -2.0709   -7.6637   18.7817 C   0  0  0  0  0  0  0  0  0  0  0  0
   -0.5279   -8.2168   17.0717 C   0  0  0  0  0  0  0  0  0  0  0  0
    6.9694   -4.0191   27.8190 C   0  0  0  0  0  0  0  0  0  0  0  0
    5.1733   -4.5469   29.8123 C   0  0  0  0  0  0  0  0  0  0  0  0
   -1.7508  -11.3016   18.6072 C   0  0  0  0  0  0  0  0  0  0  0  0
    1.7497   -5.6771   26.4971 C   0  0  0  0  0  0  0  0  0  0  0  0
   -1.5799   -9.9322   18.3468 C   0  0  0  0  0  0  0  0  0  0  0  0
   -1.0871  -12.2214   17.8851 C   0  0  0  0  0  0  0  0  0  0  0  0
   -2.2706   -8.9669   19.0691 C   0  0  0  0  0  0  0  0  0  0  0  0
    3.0279   -5.3073   26.8197 C   0  0  0  0  0  0  0  0  0  0  0  0
    7.3282   -3.8948   29.1186 C   0  0  0  0  0  0  0  0  0  0  0  0
  1  3  4  0
  1  7  4  0
  2  3  1  0
  2  6  4  0
  2 16  4  0
  3 22  4  0
  4  9  4  0
  4 10  1  0
  4 20  4  0
  5 16  4  0
  5 23  4  0
  6 15  4  0
  7 12  4  0
  8 13  4  0
  8 14  4  0
  9 11  4  0
 11 14  4  0
 11 19  4  0
 12 18  4  0
 13 21  4  0
 15 23  4  0
 17 19  4  0
 17 20  4  0
 18 22  4  0
 19 21  4  0
M  END
$$$$

 Created by Python create_sdf_string function

 23 25  0  0  0  0  0  0  0  0999 V2000
    2.4610   -5.3070   29.1240 C   0  0  0  0  0  0  0  0  0  0  0  0
    4.7710   -4.6952   28.4803 C   0  0  0  0  0  0  0  0  0  0  0  0
    3.4047   -5.1087   28.1314 C   0  0  0  0  0  0  0  0  0  0  0  0
   -0.2234  -11.8615   16.8874 C   0  0  0  0  0  0  0  0  0  0  0  0
    6.4491   -4.1532   30.1213 C   0  0  0  0  0  0  0  0  0  0  0  0
    5.7060   -4.4340   27.4975 C   0  0  0  0  0  0  0  0  0  0  0  0
    1.1818   -5.6612   28.8399 C   0  0  0  0  0  0  0  0  0  0  0  0
   -1.2067   -7.3287   17.7772 C   0  0  0  0  0  0  0  0  0  0  0  0
   -0.0206  -10.5585   16.6210 C   0  0  0  0  0  0  0  0  0  0  0  0
    0.3696  -12.7626   16.2169 O   0  0  0  0  0  0  0  0  0  0  0  0
   -0.6895   -9.5676   17.3297 C   0  0  0  0  0  0  0  0  0  0  0  0
    0.8388   -5.8417   27.5264 C   0  0  0  0  0  0  0  0  0  0  0  0
   -2.0709   -7.6637   18.7817 C   0  0  0  0  0  0  0  0  0  0  0  0
   -0.5279   -8.2168   17.0717 C   0  0  0  0  0  0  0  0  0  0  0  0
    6.9694   -4.0191   27.8190 C   0  0  0  0  0  0  0  0  0  0  0  0
    5.1733   -4.5469   29.8123 C   0  0  0  0  0  0  0  0  0  0  0  0
   -1.7508  -11.3016   18.6072 C   0  0  0  0  0  0  0  0  0  0  0  0
    1.7497   -5.6771   26.4971 C   0  0  0  0  0  0  0  0  0  0  0  0
   -1.5799   -9.9322   18.3468 C   0  0  0  0  0  0  0  0  0  0  0  0
   -1.0871  -12.2214   17.8851 C   0  0  0  0  0  0  0  0  0  0  0  0
   -2.2706   -8.9669   19.0691 C   0  0  0  0  0  0  0  0  0  0  0  0
    3.0279   -5.3073   26.8197 C   0  0  0  0  0  0  0  0  0  0  0  0
    7.3282   -3.8948   29.1186 C   0  0  0  0  0  0  0  0  0  0  0  0
  1  3  4  0
  1  7  4  0
  2  3  1  0
  2  6  4  0
  2 16  4  0
  3 22  4  0
  4  9  4  0
  4 10  1  0
  4 20  4  0
  5 16  4  0
  5 23  4  0
  6 15  4  0
  7 12  4  0
  8 13  4  0
  8 14  4  0
  9 11  4  0
 11 14  4  0
 11 19  4  0
 12 18  4  0
 13 21  4  0
 15 23  4  0
 17 19  4  0
 17 20  4  0
 18 22  4  0
 19 21  4  0
M  END
$$$$

 Created by Python create_sdf_string function

 23 25  0  0  0  0  0  0  0  0999 V2000
    2.4610   -5.3070   29.1240 C   0  0  0  0  0  0  0  0  0  0  0  0
    4.7710   -4.6952   28.4803 C   0  0  0  0  0  0  0  0  0  0  0  0
    3.4047   -5.1087   28.1314 C   0  0  0  0  0  0  0  0  0  0  0  0
   -0.2234  -11.8615   16.8874 C   0  0  0  0  0  0  0  0  0  0  0  0
    6.4491   -4.1532   30.1213 C   0  0  0  0  0  0  0  0  0  0  0  0
    5.7060   -4.4340   27.4975 C   0  0  0  0  0  0  0  0  0  0  0  0
    1.1818   -5.6612   28.8399 C   0  0  0  0  0  0  0  0  0  0  0  0
   -1.2067   -7.3287   17.7772 C   0  0  0  0  0  0  0  0  0  0  0  0
   -0.0206  -10.5585   16.6210 C   0  0  0  0  0  0  0  0  0  0  0  0
    0.3696  -12.7626   16.2169 O   0  0  0  0  0  0  0  0  0  0  0  0
   -0.6895   -9.5676   17.3297 C   0  0  0  0  0  0  0  0  0  0  0  0
    0.8388   -5.8417   27.5264 C   0  0  0  0  0  0  0  0  0  0  0  0
   -2.0709   -7.6637   18.7817 C   0  0  0  0  0  0  0  0  0  0  0  0
   -0.5279   -8.2168   17.0717 C   0  0  0  0  0  0  0  0  0  0  0  0
    6.9694   -4.0191   27.8190 C   0  0  0  0  0  0  0  0  0  0  0  0
    5.1733   -4.5469   29.8123 C   0  0  0  0  0  0  0  0  0  0  0  0
   -1.7508  -11.3016   18.6072 C   0  0  0  0  0  0  0  0  0  0  0  0
    1.7497   -5.6771   26.4971 C   0  0  0  0  0  0  0  0  0  0  0  0
   -1.5799   -9.9322   18.3468 C   0  0  0  0  0  0  0  0  0  0  0  0
   -1.0871  -12.2214   17.8851 C   0  0  0  0  0  0  0  0  0  0  0  0
   -2.2706   -8.9669   19.0691 C   0  0  0  0  0  0  0  0  0  0  0  0
    3.0279   -5.3073   26.8197 C   0  0  0  0  0  0  0  0  0  0  0  0
    7.3282   -3.8948   29.1186 C   0  0  0  0  0  0  0  0  0  0  0  0
  1  3  4  0
  1  7  4  0
  2  3  1  0
  2  6  4  0
  2 16  4  0
  3 22  4  0
  4  9  4  0
  4 10  1  0
  4 20  4  0
  5 16  4  0
  5 23  4  0
  6 15  4  0
  7 12  4  0
  8 13  4  0
  8 14  4  0
  9 11  4  0
 11 14  4  0
 11 19  4  0
 12 18  4  0
 13 21  4  0
 15 23  4  0
 17 19  4  0
 17 20  4  0
 18 22  4  0
 19 21  4  0
M  END
$$$$

 Created by Python create_sdf_string function

 23 25  0  0  0  0  0  0  0  0999 V2000
    2.4610   -5.3070   29.1240 C   0  0  0  0  0  0  0  0  0  0  0  0
    4.7710   -4.6952   28.4803 C   0  0  0  0  0  0  0  0  0  0  0  0
    3.4047   -5.1087   28.1314 C   0  0  0  0  0  0  0  0  0  0  0  0
   -0.2234  -11.8615   16.8874 C   0  0  0  0  0  0  0  0  0  0  0  0
    6.4491   -4.1532   30.1213 C   0  0  0  0  0  0  0  0  0  0  0  0
    5.7060   -4.4340   27.4975 C   0  0  0  0  0  0  0  0  0  0  0  0
    1.1818   -5.6612   28.8399 C   0  0  0  0  0  0  0  0  0  0  0  0
   -1.2067   -7.3287   17.7772 C   0  0  0  0  0  0  0  0  0  0  0  0
   -0.0206  -10.5585   16.6210 C   0  0  0  0  0  0  0  0  0  0  0  0
    0.3696  -12.7626   16.2169 O   0  0  0  0  0  0  0  0  0  0  0  0
   -0.6895   -9.5676   17.3297 C   0  0  0  0  0  0  0  0  0  0  0  0
    0.8388   -5.8417   27.5264 C   0  0  0  0  0  0  0  0  0  0  0  0
   -2.0709   -7.6637   18.7817 C   0  0  0  0  0  0  0  0  0  0  0  0
   -0.5279   -8.2168   17.0717 C   0  0  0  0  0  0  0  0  0  0  0  0
    6.9694   -4.0191   27.8190 C   0  0  0  0  0  0  0  0  0  0  0  0
    5.1733   -4.5469   29.8123 C   0  0  0  0  0  0  0  0  0  0  0  0
   -1.7508  -11.3016   18.6072 C   0  0  0  0  0  0  0  0  0  0  0  0
    1.7497   -5.6771   26.4971 C   0  0  0  0  0  0  0  0  0  0  0  0
   -1.5799   -9.9322   18.3468 C   0  0  0  0  0  0  0  0  0  0  0  0
   -1.0871  -12.2214   17.8851 C   0  0  0  0  0  0  0  0  0  0  0  0
   -2.2706   -8.9669   19.0691 C   0  0  0  0  0  0  0  0  0  0  0  0
    3.0279   -5.3073   26.8197 C   0  0  0  0  0  0  0  0  0  0  0  0
    7.3282   -3.8948   29.1186 C   0  0  0  0  0  0  0  0  0  0  0  0
  1  3  4  0
  1  7  4  0
  2  3  1  0
  2  6  4  0
  2 16  4  0
  3 22  4  0
  4  9  4  0
  4 10  1  0
  4 20  4  0
  5 16  4  0
  5 23  4  0
  6 15  4  0
  7 12  4  0
  8 13  4  0
  8 14  4  0
  9 11  4  0
 11 14  4  0
 11 19  4  0
 12 18  4  0
 13 21  4  0
 15 23  4  0
 17 19  4  0
 17 20  4  0
 18 22  4  0
 19 21  4  0
M  END
$$$$

 Created by Python create_sdf_string function

 23 25  0  0  0  0  0  0  0  0999 V2000
    2.4610   -5.3070   29.1240 C   0  0  0  0  0  0  0  0  0  0  0  0
    4.7710   -4.6952   28.4803 C   0  0  0  0  0  0  0  0  0  0  0  0
    3.4047   -5.1087   28.1314 C   0  0  0  0  0  0  0  0  0  0  0  0
   -0.2234  -11.8615   16.8874 C   0  0  0  0  0  0  0  0  0  0  0  0
    6.4491   -4.1532   30.1213 C   0  0  0  0  0  0  0  0  0  0  0  0
    5.7060   -4.4340   27.4975 C   0  0  0  0  0  0  0  0  0  0  0  0
    1.1818   -5.6612   28.8399 C   0  0  0  0  0  0  0  0  0  0  0  0
   -1.2067   -7.3287   17.7772 C   0  0  0  0  0  0  0  0  0  0  0  0
   -0.0206  -10.5585   16.6210 C   0  0  0  0  0  0  0  0  0  0  0  0
    0.3696  -12.7626   16.2169 O   0  0  0  0  0  0  0  0  0  0  0  0
   -0.6895   -9.5676   17.3297 C   0  0  0  0  0  0  0  0  0  0  0  0
    0.8388   -5.8417   27.5264 C   0  0  0  0  0  0  0  0  0  0  0  0
   -2.0709   -7.6637   18.7817 C   0  0  0  0  0  0  0  0  0  0  0  0
   -0.5279   -8.2168   17.0717 C   0  0  0  0  0  0  0  0  0  0  0  0
    6.9694   -4.0191   27.8190 C   0  0  0  0  0  0  0  0  0  0  0  0
    5.1733   -4.5469   29.8123 C   0  0  0  0  0  0  0  0  0  0  0  0
   -1.7508  -11.3016   18.6072 C   0  0  0  0  0  0  0  0  0  0  0  0
    1.7497   -5.6771   26.4971 C   0  0  0  0  0  0  0  0  0  0  0  0
   -1.5799   -9.9322   18.3468 C   0  0  0  0  0  0  0  0  0  0  0  0
   -1.0871  -12.2214   17.8851 C   0  0  0  0  0  0  0  0  0  0  0  0
   -2.2706   -8.9669   19.0691 C   0  0  0  0  0  0  0  0  0  0  0  0
    3.0279   -5.3073   26.8197 C   0  0  0  0  0  0  0  0  0  0  0  0
    7.3282   -3.8948   29.1186 C   0  0  0  0  0  0  0  0  0  0  0  0
  1  3  4  0
  1  7  4  0
  2  3  1  0
  2  6  4  0
  2 16  4  0
  3 22  4  0
  4  9  4  0
  4 10  1  0
  4 20  4  0
  5 16  4  0
  5 23  4  0
  6 15  4  0
  7 12  4  0
  8 13  4  0
  8 14  4  0
  9 11  4  0
 11 14  4  0
 11 19  4  0
 12 18  4  0
 13 21  4  0
 15 23  4  0
 17 19  4  0
 17 20  4  0
 18 22  4  0
 19 21  4  0
M  END
$$$$

 Created by Python create_sdf_string function

 23 25  0  0  0  0  0  0  0  0999 V2000
    2.4610   -5.3070   29.1240 C   0  0  0  0  0  0  0  0  0  0  0  0
    4.7710   -4.6952   28.4803 C   0  0  0  0  0  0  0  0  0  0  0  0
    3.4047   -5.1087   28.1314 C   0  0  0  0  0  0  0  0  0  0  0  0
   -0.2234  -11.8615   16.8874 C   0  0  0  0  0  0  0  0  0  0  0  0
    6.4491   -4.1532   30.1213 C   0  0  0  0  0  0  0  0  0  0  0  0
    5.7060   -4.4340   27.4975 C   0  0  0  0  0  0  0  0  0  0  0  0
    1.1818   -5.6612   28.8399 C   0  0  0  0  0  0  0  0  0  0  0  0
   -1.2067   -7.3287   17.7772 C   0  0  0  0  0  0  0  0  0  0  0  0
   -0.0206  -10.5585   16.6210 C   0  0  0  0  0  0  0  0  0  0  0  0
    0.3696  -12.7626   16.2169 O   0  0  0  0  0  0  0  0  0  0  0  0
   -0.6895   -9.5676   17.3297 C   0  0  0  0  0  0  0  0  0  0  0  0
    0.8388   -5.8417   27.5264 C   0  0  0  0  0  0  0  0  0  0  0  0
   -2.0709   -7.6637   18.7817 C   0  0  0  0  0  0  0  0  0  0  0  0
   -0.5279   -8.2168   17.0717 C   0  0  0  0  0  0  0  0  0  0  0  0
    6.9694   -4.0191   27.8190 C   0  0  0  0  0  0  0  0  0  0  0  0
    5.1733   -4.5469   29.8123 C   0  0  0  0  0  0  0  0  0  0  0  0
   -1.7508  -11.3016   18.6072 C   0  0  0  0  0  0  0  0  0  0  0  0
    1.7497   -5.6771   26.4971 C   0  0  0  0  0  0  0  0  0  0  0  0
   -1.5799   -9.9322   18.3468 C   0  0  0  0  0  0  0  0  0  0  0  0
   -1.0871  -12.2214   17.8851 C   0  0  0  0  0  0  0  0  0  0  0  0
   -2.2706   -8.9669   19.0691 C   0  0  0  0  0  0  0  0  0  0  0  0
    3.0279   -5.3073   26.8197 C   0  0  0  0  0  0  0  0  0  0  0  0
    7.3282   -3.8948   29.1186 C   0  0  0  0  0  0  0  0  0  0  0  0
  1  3  4  0
  1  7  4  0
  2  3  1  0
  2  6  4  0
  2 16  4  0
  3 22  4  0
  4  9  4  0
  4 10  1  0
  4 20  4  0
  5 16  4  0
  5 23  4  0
  6 15  4  0
  7 12  4  0
  8 13  4  0
  8 14  4  0
  9 11  4  0
 11 14  4  0
 11 19  4  0
 12 18  4  0
 13 21  4  0
 15 23  4  0
 17 19  4  0
 17 20  4  0
 18 22  4  0
 19 21  4  0
M  END
$$$$

 Created by Python create_sdf_string function

 23 25  0  0  0  0  0  0  0  0999 V2000
    2.4610   -5.3070   29.1240 C   0  0  0  0  0  0  0  0  0  0  0  0
    4.7710   -4.6952   28.4803 C   0  0  0  0  0  0  0  0  0  0  0  0
    3.4047   -5.1087   28.1314 C   0  0  0  0  0  0  0  0  0  0  0  0
   -0.2234  -11.8615   16.8874 C   0  0  0  0  0  0  0  0  0  0  0  0
    6.4491   -4.1532   30.1213 C   0  0  0  0  0  0  0  0  0  0  0  0
    5.7060   -4.4340   27.4975 C   0  0  0  0  0  0  0  0  0  0  0  0
    1.1818   -5.6612   28.8399 C   0  0  0  0  0  0  0  0  0  0  0  0
   -1.2067   -7.3287   17.7772 C   0  0  0  0  0  0  0  0  0  0  0  0
   -0.0206  -10.5585   16.6210 C   0  0  0  0  0  0  0  0  0  0  0  0
    0.3696  -12.7626   16.2169 O   0  0  0  0  0  0  0  0  0  0  0  0
   -0.6895   -9.5676   17.3297 C   0  0  0  0  0  0  0  0  0  0  0  0
    0.8388   -5.8417   27.5264 C   0  0  0  0  0  0  0  0  0  0  0  0
   -2.0709   -7.6637   18.7817 C   0  0  0  0  0  0  0  0  0  0  0  0
   -0.5279   -8.2168   17.0717 C   0  0  0  0  0  0  0  0  0  0  0  0
    6.9694   -4.0191   27.8190 C   0  0  0  0  0  0  0  0  0  0  0  0
    5.1733   -4.5469   29.8123 C   0  0  0  0  0  0  0  0  0  0  0  0
   -1.7508  -11.3016   18.6072 C   0  0  0  0  0  0  0  0  0  0  0  0
    1.7497   -5.6771   26.4971 C   0  0  0  0  0  0  0  0  0  0  0  0
   -1.5799   -9.9322   18.3468 C   0  0  0  0  0  0  0  0  0  0  0  0
   -1.0871  -12.2214   17.8851 C   0  0  0  0  0  0  0  0  0  0  0  0
   -2.2706   -8.9669   19.0691 C   0  0  0  0  0  0  0  0  0  0  0  0
    3.0279   -5.3073   26.8197 C   0  0  0  0  0  0  0  0  0  0  0  0
    7.3282   -3.8948   29.1186 C   0  0  0  0  0  0  0  0  0  0  0  0
  1  3  4  0
  1  7  4  0
  2  3  1  0
  2  6  4  0
  2 16  4  0
  3 22  4  0
  4  9  4  0
  4 10  1  0
  4 20  4  0
  5 16  4  0
  5 23  4  0
  6 15  4  0
  7 12  4  0
  8 13  4  0
  8 14  4  0
  9 11  4  0
 11 14  4  0
 11 19  4  0
 12 18  4  0
 13 21  4  0
 15 23  4  0
 17 19  4  0
 17 20  4  0
 18 22  4  0
 19 21  4  0
M  END
$$$$

 Created by Python create_sdf_string function

 23 25  0  0  0  0  0  0  0  0999 V2000
    2.4610   -5.3070   29.1240 C   0  0  0  0  0  0  0  0  0  0  0  0
    4.7710   -4.6952   28.4803 C   0  0  0  0  0  0  0  0  0  0  0  0
    3.4047   -5.1087   28.1314 C   0  0  0  0  0  0  0  0  0  0  0  0
   -0.2234  -11.8615   16.8874 C   0  0  0  0  0  0  0  0  0  0  0  0
    6.4491   -4.1532   30.1213 C   0  0  0  0  0  0  0  0  0  0  0  0
    5.7060   -4.4340   27.4975 C   0  0  0  0  0  0  0  0  0  0  0  0
    1.1818   -5.6612   28.8399 C   0  0  0  0  0  0  0  0  0  0  0  0
   -1.2067   -7.3287   17.7772 C   0  0  0  0  0  0  0  0  0  0  0  0
   -0.0206  -10.5585   16.6210 C   0  0  0  0  0  0  0  0  0  0  0  0
    0.3696  -12.7626   16.2169 O   0  0  0  0  0  0  0  0  0  0  0  0
   -0.6895   -9.5676   17.3297 C   0  0  0  0  0  0  0  0  0  0  0  0
    0.8388   -5.8417   27.5264 C   0  0  0  0  0  0  0  0  0  0  0  0
   -2.0709   -7.6637   18.7817 C   0  0  0  0  0  0  0  0  0  0  0  0
   -0.5279   -8.2168   17.0717 C   0  0  0  0  0  0  0  0  0  0  0  0
    6.9694   -4.0191   27.8190 C   0  0  0  0  0  0  0  0  0  0  0  0
    5.1733   -4.5469   29.8123 C   0  0  0  0  0  0  0  0  0  0  0  0
   -1.7508  -11.3016   18.6072 C   0  0  0  0  0  0  0  0  0  0  0  0
    1.7497   -5.6771   26.4971 C   0  0  0  0  0  0  0  0  0  0  0  0
   -1.5799   -9.9322   18.3468 C   0  0  0  0  0  0  0  0  0  0  0  0
   -1.0871  -12.2214   17.8851 C   0  0  0  0  0  0  0  0  0  0  0  0
   -2.2706   -8.9669   19.0691 C   0  0  0  0  0  0  0  0  0  0  0  0
    3.0279   -5.3073   26.8197 C   0  0  0  0  0  0  0  0  0  0  0  0
    7.3282   -3.8948   29.1186 C   0  0  0  0  0  0  0  0  0  0  0  0
  1  3  4  0
  1  7  4  0
  2  3  1  0
  2  6  4  0
  2 16  4  0
  3 22  4  0
  4  9  4  0
  4 10  1  0
  4 20  4  0
  5 16  4  0
  5 23  4  0
  6 15  4  0
  7 12  4  0
  8 13  4  0
  8 14  4  0
  9 11  4  0
 11 14  4  0
 11 19  4  0
 12 18  4  0
 13 21  4  0
 15 23  4  0
 17 19  4  0
 17 20  4  0
 18 22  4  0
 19 21  4  0
M  END
$$$$

 Created by Python create_sdf_string function

 23 25  0  0  0  0  0  0  0  0999 V2000
    2.4610   -5.3070   29.1240 C   0  0  0  0  0  0  0  0  0  0  0  0
    4.7710   -4.6952   28.4803 C   0  0  0  0  0  0  0  0  0  0  0  0
    3.4047   -5.1087   28.1314 C   0  0  0  0  0  0  0  0  0  0  0  0
   -0.2234  -11.8615   16.8874 C   0  0  0  0  0  0  0  0  0  0  0  0
    6.4491   -4.1532   30.1213 C   0  0  0  0  0  0  0  0  0  0  0  0
    5.7060   -4.4340   27.4975 C   0  0  0  0  0  0  0  0  0  0  0  0
    1.1818   -5.6612   28.8399 C   0  0  0  0  0  0  0  0  0  0  0  0
   -1.2067   -7.3287   17.7772 C   0  0  0  0  0  0  0  0  0  0  0  0
   -0.0206  -10.5585   16.6210 C   0  0  0  0  0  0  0  0  0  0  0  0
    0.3696  -12.7626   16.2169 O   0  0  0  0  0  0  0  0  0  0  0  0
   -0.6895   -9.5676   17.3297 C   0  0  0  0  0  0  0  0  0  0  0  0
    0.8388   -5.8417   27.5264 C   0  0  0  0  0  0  0  0  0  0  0  0
   -2.0709   -7.6637   18.7817 C   0  0  0  0  0  0  0  0  0  0  0  0
   -0.5279   -8.2168   17.0717 C   0  0  0  0  0  0  0  0  0  0  0  0
    6.9694   -4.0191   27.8190 C   0  0  0  0  0  0  0  0  0  0  0  0
    5.1733   -4.5469   29.8123 C   0  0  0  0  0  0  0  0  0  0  0  0
   -1.7508  -11.3016   18.6072 C   0  0  0  0  0  0  0  0  0  0  0  0
    1.7497   -5.6771   26.4971 C   0  0  0  0  0  0  0  0  0  0  0  0
   -1.5799   -9.9322   18.3468 C   0  0  0  0  0  0  0  0  0  0  0  0
   -1.0871  -12.2214   17.8851 C   0  0  0  0  0  0  0  0  0  0  0  0
   -2.2706   -8.9669   19.0691 C   0  0  0  0  0  0  0  0  0  0  0  0
    3.0279   -5.3073   26.8197 C   0  0  0  0  0  0  0  0  0  0  0  0
    7.3282   -3.8948   29.1186 C   0  0  0  0  0  0  0  0  0  0  0  0
  1  3  4  0
  1  7  4  0
  2  3  1  0
  2  6  4  0
  2 16  4  0
  3 22  4  0
  4  9  4  0
  4 10  1  0
  4 20  4  0
  5 16  4  0
  5 23  4  0
  6 15  4  0
  7 12  4  0
  8 13  4  0
  8 14  4  0
  9 11  4  0
 11 14  4  0
 11 19  4  0
 12 18  4  0
 13 21  4  0
 15 23  4  0
 17 19  4  0
 17 20  4  0
 18 22  4  0
 19 21  4  0
M  END
$$$$

 Created by Python create_sdf_string function

 23 25  0  0  0  0  0  0  0  0999 V2000
    2.4610   -5.3070   29.1240 C   0  0  0  0  0  0  0  0  0  0  0  0
    4.7710   -4.6952   28.4803 C   0  0  0  0  0  0  0  0  0  0  0  0
    3.4047   -5.1087   28.1314 C   0  0  0  0  0  0  0  0  0  0  0  0
   -0.2234  -11.8615   16.8874 C   0  0  0  0  0  0  0  0  0  0  0  0
    6.4491   -4.1532   30.1213 C   0  0  0  0  0  0  0  0  0  0  0  0
    5.7060   -4.4340   27.4975 C   0  0  0  0  0  0  0  0  0  0  0  0
    1.1818   -5.6612   28.8399 C   0  0  0  0  0  0  0  0  0  0  0  0
   -1.2067   -7.3287   17.7772 C   0  0  0  0  0  0  0  0  0  0  0  0
   -0.0206  -10.5585   16.6210 C   0  0  0  0  0  0  0  0  0  0  0  0
    0.3696  -12.7626   16.2169 O   0  0  0  0  0  0  0  0  0  0  0  0
   -0.6895   -9.5676   17.3297 C   0  0  0  0  0  0  0  0  0  0  0  0
    0.8388   -5.8417   27.5264 C   0  0  0  0  0  0  0  0  0  0  0  0
   -2.0709   -7.6637   18.7817 C   0  0  0  0  0  0  0  0  0  0  0  0
   -0.5279   -8.2168   17.0717 C   0  0  0  0  0  0  0  0  0  0  0  0
    6.9694   -4.0191   27.8190 C   0  0  0  0  0  0  0  0  0  0  0  0
    5.1733   -4.5469   29.8123 C   0  0  0  0  0  0  0  0  0  0  0  0
   -1.7508  -11.3016   18.6072 C   0  0  0  0  0  0  0  0  0  0  0  0
    1.7497   -5.6771   26.4971 C   0  0  0  0  0  0  0  0  0  0  0  0
   -1.5799   -9.9322   18.3468 C   0  0  0  0  0  0  0  0  0  0  0  0
   -1.0871  -12.2214   17.8851 C   0  0  0  0  0  0  0  0  0  0  0  0
   -2.2706   -8.9669   19.0691 C   0  0  0  0  0  0  0  0  0  0  0  0
    3.0279   -5.3073   26.8197 C   0  0  0  0  0  0  0  0  0  0  0  0
    7.3282   -3.8948   29.1186 C   0  0  0  0  0  0  0  0  0  0  0  0
  1  3  4  0
  1  7  4  0
  2  3  1  0
  2  6  4  0
  2 16  4  0
  3 22  4  0
  4  9  4  0
  4 10  1  0
  4 20  4  0
  5 16  4  0
  5 23  4  0
  6 15  4  0
  7 12  4  0
  8 13  4  0
  8 14  4  0
  9 11  4  0
 11 14  4  0
 11 19  4  0
 12 18  4  0
 13 21  4  0
 15 23  4  0
 17 19  4  0
 17 20  4  0
 18 22  4  0
 19 21  4  0
M  END
$$$$

 Created by Python create_sdf_string function

 23 25  0  0  0  0  0  0  0  0999 V2000
    2.4610   -5.3070   29.1240 C   0  0  0  0  0  0  0  0  0  0  0  0
    4.7710   -4.6952   28.4803 C   0  0  0  0  0  0  0  0  0  0  0  0
    3.4047   -5.1087   28.1314 C   0  0  0  0  0  0  0  0  0  0  0  0
   -0.2234  -11.8615   16.8874 C   0  0  0  0  0  0  0  0  0  0  0  0
    6.4491   -4.1532   30.1213 C   0  0  0  0  0  0  0  0  0  0  0  0
    5.7060   -4.4340   27.4975 C   0  0  0  0  0  0  0  0  0  0  0  0
    1.1818   -5.6612   28.8399 C   0  0  0  0  0  0  0  0  0  0  0  0
   -1.2067   -7.3287   17.7772 C   0  0  0  0  0  0  0  0  0  0  0  0
   -0.0206  -10.5585   16.6210 C   0  0  0  0  0  0  0  0  0  0  0  0
    0.3696  -12.7626   16.2169 O   0  0  0  0  0  0  0  0  0  0  0  0
   -0.6895   -9.5676   17.3297 C   0  0  0  0  0  0  0  0  0  0  0  0
    0.8388   -5.8417   27.5264 C   0  0  0  0  0  0  0  0  0  0  0  0
   -2.0709   -7.6637   18.7817 C   0  0  0  0  0  0  0  0  0  0  0  0
   -0.5279   -8.2168   17.0717 C   0  0  0  0  0  0  0  0  0  0  0  0
    6.9694   -4.0191   27.8190 C   0  0  0  0  0  0  0  0  0  0  0  0
    5.1733   -4.5469   29.8123 C   0  0  0  0  0  0  0  0  0  0  0  0
   -1.7508  -11.3016   18.6072 C   0  0  0  0  0  0  0  0  0  0  0  0
    1.7497   -5.6771   26.4971 C   0  0  0  0  0  0  0  0  0  0  0  0
   -1.5799   -9.9322   18.3468 C   0  0  0  0  0  0  0  0  0  0  0  0
   -1.0871  -12.2214   17.8851 C   0  0  0  0  0  0  0  0  0  0  0  0
   -2.2706   -8.9669   19.0691 C   0  0  0  0  0  0  0  0  0  0  0  0
    3.0279   -5.3073   26.8197 C   0  0  0  0  0  0  0  0  0  0  0  0
    7.3282   -3.8948   29.1186 C   0  0  0  0  0  0  0  0  0  0  0  0
  1  3  4  0
  1  7  4  0
  2  3  1  0
  2  6  4  0
  2 16  4  0
  3 22  4  0
  4  9  4  0
  4 10  1  0
  4 20  4  0
  5 16  4  0
  5 23  4  0
  6 15  4  0
  7 12  4  0
  8 13  4  0
  8 14  4  0
  9 11  4  0
 11 14  4  0
 11 19  4  0
 12 18  4  0
 13 21  4  0
 15 23  4  0
 17 19  4  0
 17 20  4  0
 18 22  4  0
 19 21  4  0
M  END
$$$$

 Created by Python create_sdf_string function

 23 25  0  0  0  0  0  0  0  0999 V2000
    2.4610   -5.3070   29.1240 C   0  0  0  0  0  0  0  0  0  0  0  0
    4.7710   -4.6952   28.4803 C   0  0  0  0  0  0  0  0  0  0  0  0
    3.4047   -5.1087   28.1314 C   0  0  0  0  0  0  0  0  0  0  0  0
   -0.2234  -11.8615   16.8874 C   0  0  0  0  0  0  0  0  0  0  0  0
    6.4491   -4.1532   30.1213 C   0  0  0  0  0  0  0  0  0  0  0  0
    5.7060   -4.4340   27.4975 C   0  0  0  0  0  0  0  0  0  0  0  0
    1.1818   -5.6612   28.8399 C   0  0  0  0  0  0  0  0  0  0  0  0
   -1.2067   -7.3287   17.7772 C   0  0  0  0  0  0  0  0  0  0  0  0
   -0.0206  -10.5585   16.6210 C   0  0  0  0  0  0  0  0  0  0  0  0
    0.3696  -12.7626   16.2169 O   0  0  0  0  0  0  0  0  0  0  0  0
   -0.6895   -9.5676   17.3297 C   0  0  0  0  0  0  0  0  0  0  0  0
    0.8388   -5.8417   27.5264 C   0  0  0  0  0  0  0  0  0  0  0  0
   -2.0709   -7.6637   18.7817 C   0  0  0  0  0  0  0  0  0  0  0  0
   -0.5279   -8.2168   17.0717 C   0  0  0  0  0  0  0  0  0  0  0  0
    6.9694   -4.0191   27.8190 C   0  0  0  0  0  0  0  0  0  0  0  0
    5.1733   -4.5469   29.8123 C   0  0  0  0  0  0  0  0  0  0  0  0
   -1.7508  -11.3016   18.6072 C   0  0  0  0  0  0  0  0  0  0  0  0
    1.7497   -5.6771   26.4971 C   0  0  0  0  0  0  0  0  0  0  0  0
   -1.5799   -9.9322   18.3468 C   0  0  0  0  0  0  0  0  0  0  0  0
   -1.0871  -12.2214   17.8851 C   0  0  0  0  0  0  0  0  0  0  0  0
   -2.2706   -8.9669   19.0691 C   0  0  0  0  0  0  0  0  0  0  0  0
    3.0279   -5.3073   26.8197 C   0  0  0  0  0  0  0  0  0  0  0  0
    7.3282   -3.8948   29.1186 C   0  0  0  0  0  0  0  0  0  0  0  0
  1  3  4  0
  1  7  4  0
  2  3  1  0
  2  6  4  0
  2 16  4  0
  3 22  4  0
  4  9  4  0
  4 10  1  0
  4 20  4  0
  5 16  4  0
  5 23  4  0
  6 15  4  0
  7 12  4  0
  8 13  4  0
  8 14  4  0
  9 11  4  0
 11 14  4  0
 11 19  4  0
 12 18  4  0
 13 21  4  0
 15 23  4  0
 17 19  4  0
 17 20  4  0
 18 22  4  0
 19 21  4  0
M  END
$$$$

 Created by Python create_sdf_string function

 23 25  0  0  0  0  0  0  0  0999 V2000
    2.4610   -5.3070   29.1240 C   0  0  0  0  0  0  0  0  0  0  0  0
    4.7710   -4.6952   28.4803 C   0  0  0  0  0  0  0  0  0  0  0  0
    3.4047   -5.1087   28.1314 C   0  0  0  0  0  0  0  0  0  0  0  0
   -0.2234  -11.8615   16.8874 C   0  0  0  0  0  0  0  0  0  0  0  0
    6.4491   -4.1532   30.1213 C   0  0  0  0  0  0  0  0  0  0  0  0
    5.7060   -4.4340   27.4975 C   0  0  0  0  0  0  0  0  0  0  0  0
    1.1818   -5.6612   28.8399 C   0  0  0  0  0  0  0  0  0  0  0  0
   -1.2067   -7.3287   17.7772 C   0  0  0  0  0  0  0  0  0  0  0  0
   -0.0206  -10.5585   16.6210 C   0  0  0  0  0  0  0  0  0  0  0  0
    0.3696  -12.7626   16.2169 O   0  0  0  0  0  0  0  0  0  0  0  0
   -0.6895   -9.5676   17.3297 C   0  0  0  0  0  0  0  0  0  0  0  0
    0.8388   -5.8417   27.5264 C   0  0  0  0  0  0  0  0  0  0  0  0
   -2.0709   -7.6637   18.7817 C   0  0  0  0  0  0  0  0  0  0  0  0
   -0.5279   -8.2168   17.0717 C   0  0  0  0  0  0  0  0  0  0  0  0
    6.9694   -4.0191   27.8190 C   0  0  0  0  0  0  0  0  0  0  0  0
    5.1733   -4.5469   29.8123 C   0  0  0  0  0  0  0  0  0  0  0  0
   -1.7508  -11.3016   18.6072 C   0  0  0  0  0  0  0  0  0  0  0  0
    1.7497   -5.6771   26.4971 C   0  0  0  0  0  0  0  0  0  0  0  0
   -1.5799   -9.9322   18.3468 C   0  0  0  0  0  0  0  0  0  0  0  0
   -1.0871  -12.2214   17.8851 C   0  0  0  0  0  0  0  0  0  0  0  0
   -2.2706   -8.9669   19.0691 C   0  0  0  0  0  0  0  0  0  0  0  0
    3.0279   -5.3073   26.8197 C   0  0  0  0  0  0  0  0  0  0  0  0
    7.3282   -3.8948   29.1186 C   0  0  0  0  0  0  0  0  0  0  0  0
  1  3  4  0
  1  7  4  0
  2  3  1  0
  2  6  4  0
  2 16  4  0
  3 22  4  0
  4  9  4  0
  4 10  1  0
  4 20  4  0
  5 16  4  0
  5 23  4  0
  6 15  4  0
  7 12  4  0
  8 13  4  0
  8 14  4  0
  9 11  4  0
 11 14  4  0
 11 19  4  0
 12 18  4  0
 13 21  4  0
 15 23  4  0
 17 19  4  0
 17 20  4  0
 18 22  4  0
 19 21  4  0
M  END
$$$$

 Created by Python create_sdf_string function

 23 25  0  0  0  0  0  0  0  0999 V2000
    2.4610   -5.3070   29.1240 C   0  0  0  0  0  0  0  0  0  0  0  0
    4.7710   -4.6952   28.4803 C   0  0  0  0  0  0  0  0  0  0  0  0
    3.4047   -5.1087   28.1314 C   0  0  0  0  0  0  0  0  0  0  0  0
   -0.2234  -11.8615   16.8874 C   0  0  0  0  0  0  0  0  0  0  0  0
    6.4491   -4.1532   30.1213 C   0  0  0  0  0  0  0  0  0  0  0  0
    5.7060   -4.4340   27.4975 C   0  0  0  0  0  0  0  0  0  0  0  0
    1.1818   -5.6612   28.8399 C   0  0  0  0  0  0  0  0  0  0  0  0
   -1.2067   -7.3287   17.7772 C   0  0  0  0  0  0  0  0  0  0  0  0
   -0.0206  -10.5585   16.6210 C   0  0  0  0  0  0  0  0  0  0  0  0
    0.3696  -12.7626   16.2169 O   0  0  0  0  0  0  0  0  0  0  0  0
   -0.6895   -9.5676   17.3297 C   0  0  0  0  0  0  0  0  0  0  0  0
    0.8388   -5.8417   27.5264 C   0  0  0  0  0  0  0  0  0  0  0  0
   -2.0709   -7.6637   18.7817 C   0  0  0  0  0  0  0  0  0  0  0  0
   -0.5279   -8.2168   17.0717 C   0  0  0  0  0  0  0  0  0  0  0  0
    6.9694   -4.0191   27.8190 C   0  0  0  0  0  0  0  0  0  0  0  0
    5.1733   -4.5469   29.8123 C   0  0  0  0  0  0  0  0  0  0  0  0
   -1.7508  -11.3016   18.6072 C   0  0  0  0  0  0  0  0  0  0  0  0
    1.7497   -5.6771   26.4971 C   0  0  0  0  0  0  0  0  0  0  0  0
   -1.5799   -9.9322   18.3468 C   0  0  0  0  0  0  0  0  0  0  0  0
   -1.0871  -12.2214   17.8851 C   0  0  0  0  0  0  0  0  0  0  0  0
   -2.2706   -8.9669   19.0691 C   0  0  0  0  0  0  0  0  0  0  0  0
    3.0279   -5.3073   26.8197 C   0  0  0  0  0  0  0  0  0  0  0  0
    7.3282   -3.8948   29.1186 C   0  0  0  0  0  0  0  0  0  0  0  0
  1  3  4  0
  1  7  4  0
  2  3  1  0
  2  6  4  0
  2 16  4  0
  3 22  4  0
  4  9  4  0
  4 10  1  0
  4 20  4  0
  5 16  4  0
  5 23  4  0
  6 15  4  0
  7 12  4  0
  8 13  4  0
  8 14  4  0
  9 11  4  0
 11 14  4  0
 11 19  4  0
 12 18  4  0
 13 21  4  0
 15 23  4  0
 17 19  4  0
 17 20  4  0
 18 22  4  0
 19 21  4  0
M  END
$$$$

 Created by Python create_sdf_string function

 23 25  0  0  0  0  0  0  0  0999 V2000
    2.4610   -5.3070   29.1240 C   0  0  0  0  0  0  0  0  0  0  0  0
    4.7710   -4.6952   28.4803 C   0  0  0  0  0  0  0  0  0  0  0  0
    3.4047   -5.1087   28.1314 C   0  0  0  0  0  0  0  0  0  0  0  0
   -0.2234  -11.8615   16.8874 C   0  0  0  0  0  0  0  0  0  0  0  0
    6.4491   -4.1532   30.1213 C   0  0  0  0  0  0  0  0  0  0  0  0
    5.7060   -4.4340   27.4975 C   0  0  0  0  0  0  0  0  0  0  0  0
    1.1818   -5.6612   28.8399 C   0  0  0  0  0  0  0  0  0  0  0  0
   -1.2067   -7.3287   17.7772 C   0  0  0  0  0  0  0  0  0  0  0  0
   -0.0206  -10.5585   16.6210 C   0  0  0  0  0  0  0  0  0  0  0  0
    0.3696  -12.7626   16.2169 O   0  0  0  0  0  0  0  0  0  0  0  0
   -0.6895   -9.5676   17.3297 C   0  0  0  0  0  0  0  0  0  0  0  0
    0.8388   -5.8417   27.5264 C   0  0  0  0  0  0  0  0  0  0  0  0
   -2.0709   -7.6637   18.7817 C   0  0  0  0  0  0  0  0  0  0  0  0
   -0.5279   -8.2168   17.0717 C   0  0  0  0  0  0  0  0  0  0  0  0
    6.9694   -4.0191   27.8190 C   0  0  0  0  0  0  0  0  0  0  0  0
    5.1733   -4.5469   29.8123 C   0  0  0  0  0  0  0  0  0  0  0  0
   -1.7508  -11.3016   18.6072 C   0  0  0  0  0  0  0  0  0  0  0  0
    1.7497   -5.6771   26.4971 C   0  0  0  0  0  0  0  0  0  0  0  0
   -1.5799   -9.9322   18.3468 C   0  0  0  0  0  0  0  0  0  0  0  0
   -1.0871  -12.2214   17.8851 C   0  0  0  0  0  0  0  0  0  0  0  0
   -2.2706   -8.9669   19.0691 C   0  0  0  0  0  0  0  0  0  0  0  0
    3.0279   -5.3073   26.8197 C   0  0  0  0  0  0  0  0  0  0  0  0
    7.3282   -3.8948   29.1186 C   0  0  0  0  0  0  0  0  0  0  0  0
  1  3  4  0
  1  7  4  0
  2  3  1  0
  2  6  4  0
  2 16  4  0
  3 22  4  0
  4  9  4  0
  4 10  1  0
  4 20  4  0
  5 16  4  0
  5 23  4  0
  6 15  4  0
  7 12  4  0
  8 13  4  0
  8 14  4  0
  9 11  4  0
 11 14  4  0
 11 19  4  0
 12 18  4  0
 13 21  4  0
 15 23  4  0
 17 19  4  0
 17 20  4  0
 18 22  4  0
 19 21  4  0
M  END
$$$$

 Created by Python create_sdf_string function

 23 25  0  0  0  0  0  0  0  0999 V2000
    2.4610   -5.3070   29.1240 C   0  0  0  0  0  0  0  0  0  0  0  0
    4.7710   -4.6952   28.4803 C   0  0  0  0  0  0  0  0  0  0  0  0
    3.4047   -5.1087   28.1314 C   0  0  0  0  0  0  0  0  0  0  0  0
   -0.2234  -11.8615   16.8874 C   0  0  0  0  0  0  0  0  0  0  0  0
    6.4491   -4.1532   30.1213 C   0  0  0  0  0  0  0  0  0  0  0  0
    5.7060   -4.4340   27.4975 C   0  0  0  0  0  0  0  0  0  0  0  0
    1.1818   -5.6612   28.8399 C   0  0  0  0  0  0  0  0  0  0  0  0
   -1.2067   -7.3287   17.7772 C   0  0  0  0  0  0  0  0  0  0  0  0
   -0.0206  -10.5585   16.6210 C   0  0  0  0  0  0  0  0  0  0  0  0
    0.3696  -12.7626   16.2169 O   0  0  0  0  0  0  0  0  0  0  0  0
   -0.6895   -9.5676   17.3297 C   0  0  0  0  0  0  0  0  0  0  0  0
    0.8388   -5.8417   27.5264 C   0  0  0  0  0  0  0  0  0  0  0  0
   -2.0709   -7.6637   18.7817 C   0  0  0  0  0  0  0  0  0  0  0  0
   -0.5279   -8.2168   17.0717 C   0  0  0  0  0  0  0  0  0  0  0  0
    6.9694   -4.0191   27.8190 C   0  0  0  0  0  0  0  0  0  0  0  0
    5.1733   -4.5469   29.8123 C   0  0  0  0  0  0  0  0  0  0  0  0
   -1.7508  -11.3016   18.6072 C   0  0  0  0  0  0  0  0  0  0  0  0
    1.7497   -5.6771   26.4971 C   0  0  0  0  0  0  0  0  0  0  0  0
   -1.5799   -9.9322   18.3468 C   0  0  0  0  0  0  0  0  0  0  0  0
   -1.0871  -12.2214   17.8851 C   0  0  0  0  0  0  0  0  0  0  0  0
   -2.2706   -8.9669   19.0691 C   0  0  0  0  0  0  0  0  0  0  0  0
    3.0279   -5.3073   26.8197 C   0  0  0  0  0  0  0  0  0  0  0  0
    7.3282   -3.8948   29.1186 C   0  0  0  0  0  0  0  0  0  0  0  0
  1  3  4  0
  1  7  4  0
  2  3  1  0
  2  6  4  0
  2 16  4  0
  3 22  4  0
  4  9  4  0
  4 10  1  0
  4 20  4  0
  5 16  4  0
  5 23  4  0
  6 15  4  0
  7 12  4  0
  8 13  4  0
  8 14  4  0
  9 11  4  0
 11 14  4  0
 11 19  4  0
 12 18  4  0
 13 21  4  0
 15 23  4  0
 17 19  4  0
 17 20  4  0
 18 22  4  0
 19 21  4  0
M  END
$$$$

 Created by Python create_sdf_string function

 23 25  0  0  0  0  0  0  0  0999 V2000
    2.4610   -5.3070   29.1240 C   0  0  0  0  0  0  0  0  0  0  0  0
    4.7710   -4.6952   28.4803 C   0  0  0  0  0  0  0  0  0  0  0  0
    3.4047   -5.1087   28.1314 C   0  0  0  0  0  0  0  0  0  0  0  0
   -0.2234  -11.8615   16.8874 C   0  0  0  0  0  0  0  0  0  0  0  0
    6.4491   -4.1532   30.1213 C   0  0  0  0  0  0  0  0  0  0  0  0
    5.7060   -4.4340   27.4975 C   0  0  0  0  0  0  0  0  0  0  0  0
    1.1818   -5.6612   28.8399 C   0  0  0  0  0  0  0  0  0  0  0  0
   -1.2067   -7.3287   17.7772 C   0  0  0  0  0  0  0  0  0  0  0  0
   -0.0206  -10.5585   16.6210 C   0  0  0  0  0  0  0  0  0  0  0  0
    0.3696  -12.7626   16.2169 O   0  0  0  0  0  0  0  0  0  0  0  0
   -0.6895   -9.5676   17.3297 C   0  0  0  0  0  0  0  0  0  0  0  0
    0.8388   -5.8417   27.5264 C   0  0  0  0  0  0  0  0  0  0  0  0
   -2.0709   -7.6637   18.7817 C   0  0  0  0  0  0  0  0  0  0  0  0
   -0.5279   -8.2168   17.0717 C   0  0  0  0  0  0  0  0  0  0  0  0
    6.9694   -4.0191   27.8190 C   0  0  0  0  0  0  0  0  0  0  0  0
    5.1733   -4.5469   29.8123 C   0  0  0  0  0  0  0  0  0  0  0  0
   -1.7508  -11.3016   18.6072 C   0  0  0  0  0  0  0  0  0  0  0  0
    1.7497   -5.6771   26.4971 C   0  0  0  0  0  0  0  0  0  0  0  0
   -1.5799   -9.9322   18.3468 C   0  0  0  0  0  0  0  0  0  0  0  0
   -1.0871  -12.2214   17.8851 C   0  0  0  0  0  0  0  0  0  0  0  0
   -2.2706   -8.9669   19.0691 C   0  0  0  0  0  0  0  0  0  0  0  0
    3.0279   -5.3073   26.8197 C   0  0  0  0  0  0  0  0  0  0  0  0
    7.3282   -3.8948   29.1186 C   0  0  0  0  0  0  0  0  0  0  0  0
  1  3  4  0
  1  7  4  0
  2  3  1  0
  2  6  4  0
  2 16  4  0
  3 22  4  0
  4  9  4  0
  4 10  1  0
  4 20  4  0
  5 16  4  0
  5 23  4  0
  6 15  4  0
  7 12  4  0
  8 13  4  0
  8 14  4  0
  9 11  4  0
 11 14  4  0
 11 19  4  0
 12 18  4  0
 13 21  4  0
 15 23  4  0
 17 19  4  0
 17 20  4  0
 18 22  4  0
 19 21  4  0
M  END
$$$$

 Created by Python create_sdf_string function

 23 25  0  0  0  0  0  0  0  0999 V2000
    2.4610   -5.3070   29.1240 C   0  0  0  0  0  0  0  0  0  0  0  0
    4.7710   -4.6952   28.4803 C   0  0  0  0  0  0  0  0  0  0  0  0
    3.4047   -5.1087   28.1314 C   0  0  0  0  0  0  0  0  0  0  0  0
   -0.2234  -11.8615   16.8874 C   0  0  0  0  0  0  0  0  0  0  0  0
    6.4491   -4.1532   30.1213 C   0  0  0  0  0  0  0  0  0  0  0  0
    5.7060   -4.4340   27.4975 C   0  0  0  0  0  0  0  0  0  0  0  0
    1.1818   -5.6612   28.8399 C   0  0  0  0  0  0  0  0  0  0  0  0
   -1.2067   -7.3287   17.7772 C   0  0  0  0  0  0  0  0  0  0  0  0
   -0.0206  -10.5585   16.6210 C   0  0  0  0  0  0  0  0  0  0  0  0
    0.3696  -12.7626   16.2169 O   0  0  0  0  0  0  0  0  0  0  0  0
   -0.6895   -9.5676   17.3297 C   0  0  0  0  0  0  0  0  0  0  0  0
    0.8388   -5.8417   27.5264 C   0  0  0  0  0  0  0  0  0  0  0  0
   -2.0709   -7.6637   18.7817 C   0  0  0  0  0  0  0  0  0  0  0  0
   -0.5279   -8.2168   17.0717 C   0  0  0  0  0  0  0  0  0  0  0  0
    6.9694   -4.0191   27.8190 C   0  0  0  0  0  0  0  0  0  0  0  0
    5.1733   -4.5469   29.8123 C   0  0  0  0  0  0  0  0  0  0  0  0
   -1.7508  -11.3016   18.6072 C   0  0  0  0  0  0  0  0  0  0  0  0
    1.7497   -5.6771   26.4971 C   0  0  0  0  0  0  0  0  0  0  0  0
   -1.5799   -9.9322   18.3468 C   0  0  0  0  0  0  0  0  0  0  0  0
   -1.0871  -12.2214   17.8851 C   0  0  0  0  0  0  0  0  0  0  0  0
   -2.2706   -8.9669   19.0691 C   0  0  0  0  0  0  0  0  0  0  0  0
    3.0279   -5.3073   26.8197 C   0  0  0  0  0  0  0  0  0  0  0  0
    7.3282   -3.8948   29.1186 C   0  0  0  0  0  0  0  0  0  0  0  0
  1  3  4  0
  1  7  4  0
  2  3  1  0
  2  6  4  0
  2 16  4  0
  3 22  4  0
  4  9  4  0
  4 10  1  0
  4 20  4  0
  5 16  4  0
  5 23  4  0
  6 15  4  0
  7 12  4  0
  8 13  4  0
  8 14  4  0
  9 11  4  0
 11 14  4  0
 11 19  4  0
 12 18  4  0
 13 21  4  0
 15 23  4  0
 17 19  4  0
 17 20  4  0
 18 22  4  0
 19 21  4  0
M  END
$$$$

 Created by Python create_sdf_string function

 23 25  0  0  0  0  0  0  0  0999 V2000
    2.4610   -5.3070   29.1240 C   0  0  0  0  0  0  0  0  0  0  0  0
    4.7710   -4.6952   28.4803 C   0  0  0  0  0  0  0  0  0  0  0  0
    3.4047   -5.1087   28.1314 C   0  0  0  0  0  0  0  0  0  0  0  0
   -0.2234  -11.8615   16.8874 C   0  0  0  0  0  0  0  0  0  0  0  0
    6.4491   -4.1532   30.1213 C   0  0  0  0  0  0  0  0  0  0  0  0
    5.7060   -4.4340   27.4975 C   0  0  0  0  0  0  0  0  0  0  0  0
    1.1818   -5.6612   28.8399 C   0  0  0  0  0  0  0  0  0  0  0  0
   -1.2067   -7.3287   17.7772 C   0  0  0  0  0  0  0  0  0  0  0  0
   -0.0206  -10.5585   16.6210 C   0  0  0  0  0  0  0  0  0  0  0  0
    0.3696  -12.7626   16.2169 O   0  0  0  0  0  0  0  0  0  0  0  0
   -0.6895   -9.5676   17.3297 C   0  0  0  0  0  0  0  0  0  0  0  0
    0.8388   -5.8417   27.5264 C   0  0  0  0  0  0  0  0  0  0  0  0
   -2.0709   -7.6637   18.7817 C   0  0  0  0  0  0  0  0  0  0  0  0
   -0.5279   -8.2168   17.0717 C   0  0  0  0  0  0  0  0  0  0  0  0
    6.9694   -4.0191   27.8190 C   0  0  0  0  0  0  0  0  0  0  0  0
    5.1733   -4.5469   29.8123 C   0  0  0  0  0  0  0  0  0  0  0  0
   -1.7508  -11.3016   18.6072 C   0  0  0  0  0  0  0  0  0  0  0  0
    1.7497   -5.6771   26.4971 C   0  0  0  0  0  0  0  0  0  0  0  0
   -1.5799   -9.9322   18.3468 C   0  0  0  0  0  0  0  0  0  0  0  0
   -1.0871  -12.2214   17.8851 C   0  0  0  0  0  0  0  0  0  0  0  0
   -2.2706   -8.9669   19.0691 C   0  0  0  0  0  0  0  0  0  0  0  0
    3.0279   -5.3073   26.8197 C   0  0  0  0  0  0  0  0  0  0  0  0
    7.3282   -3.8948   29.1186 C   0  0  0  0  0  0  0  0  0  0  0  0
  1  3  4  0
  1  7  4  0
  2  3  1  0
  2  6  4  0
  2 16  4  0
  3 22  4  0
  4  9  4  0
  4 10  1  0
  4 20  4  0
  5 16  4  0
  5 23  4  0
  6 15  4  0
  7 12  4  0
  8 13  4  0
  8 14  4  0
  9 11  4  0
 11 14  4  0
 11 19  4  0
 12 18  4  0
 13 21  4  0
 15 23  4  0
 17 19  4  0
 17 20  4  0
 18 22  4  0
 19 21  4  0
M  END
$$$$

 Created by Python create_sdf_string function

 23 25  0  0  0  0  0  0  0  0999 V2000
    2.4610   -5.3070   29.1240 C   0  0  0  0  0  0  0  0  0  0  0  0
    4.7710   -4.6952   28.4803 C   0  0  0  0  0  0  0  0  0  0  0  0
    3.4047   -5.1087   28.1314 C   0  0  0  0  0  0  0  0  0  0  0  0
   -0.2234  -11.8615   16.8874 C   0  0  0  0  0  0  0  0  0  0  0  0
    6.4491   -4.1532   30.1213 C   0  0  0  0  0  0  0  0  0  0  0  0
    5.7060   -4.4340   27.4975 C   0  0  0  0  0  0  0  0  0  0  0  0
    1.1818   -5.6612   28.8399 C   0  0  0  0  0  0  0  0  0  0  0  0
   -1.2067   -7.3287   17.7772 C   0  0  0  0  0  0  0  0  0  0  0  0
   -0.0206  -10.5585   16.6210 C   0  0  0  0  0  0  0  0  0  0  0  0
    0.3696  -12.7626   16.2169 O   0  0  0  0  0  0  0  0  0  0  0  0
   -0.6895   -9.5676   17.3297 C   0  0  0  0  0  0  0  0  0  0  0  0
    0.8388   -5.8417   27.5264 C   0  0  0  0  0  0  0  0  0  0  0  0
   -2.0709   -7.6637   18.7817 C   0  0  0  0  0  0  0  0  0  0  0  0
   -0.5279   -8.2168   17.0717 C   0  0  0  0  0  0  0  0  0  0  0  0
    6.9694   -4.0191   27.8190 C   0  0  0  0  0  0  0  0  0  0  0  0
    5.1733   -4.5469   29.8123 C   0  0  0  0  0  0  0  0  0  0  0  0
   -1.7508  -11.3016   18.6072 C   0  0  0  0  0  0  0  0  0  0  0  0
    1.7497   -5.6771   26.4971 C   0  0  0  0  0  0  0  0  0  0  0  0
   -1.5799   -9.9322   18.3468 C   0  0  0  0  0  0  0  0  0  0  0  0
   -1.0871  -12.2214   17.8851 C   0  0  0  0  0  0  0  0  0  0  0  0
   -2.2706   -8.9669   19.0691 C   0  0  0  0  0  0  0  0  0  0  0  0
    3.0279   -5.3073   26.8197 C   0  0  0  0  0  0  0  0  0  0  0  0
    7.3282   -3.8948   29.1186 C   0  0  0  0  0  0  0  0  0  0  0  0
  1  3  4  0
  1  7  4  0
  2  3  1  0
  2  6  4  0
  2 16  4  0
  3 22  4  0
  4  9  4  0
  4 10  1  0
  4 20  4  0
  5 16  4  0
  5 23  4  0
  6 15  4  0
  7 12  4  0
  8 13  4  0
  8 14  4  0
  9 11  4  0
 11 14  4  0
 11 19  4  0
 12 18  4  0
 13 21  4  0
 15 23  4  0
 17 19  4  0
 17 20  4  0
 18 22  4  0
 19 21  4  0
M  END
$$$$

 Created by Python create_sdf_string function

 23 25  0  0  0  0  0  0  0  0999 V2000
    2.4610   -5.3070   29.1240 C   0  0  0  0  0  0  0  0  0  0  0  0
    4.7710   -4.6952   28.4803 C   0  0  0  0  0  0  0  0  0  0  0  0
    3.4047   -5.1087   28.1314 C   0  0  0  0  0  0  0  0  0  0  0  0
   -0.2234  -11.8615   16.8874 C   0  0  0  0  0  0  0  0  0  0  0  0
    6.4491   -4.1532   30.1213 C   0  0  0  0  0  0  0  0  0  0  0  0
    5.7060   -4.4340   27.4975 C   0  0  0  0  0  0  0  0  0  0  0  0
    1.1818   -5.6612   28.8399 C   0  0  0  0  0  0  0  0  0  0  0  0
   -1.2067   -7.3287   17.7772 C   0  0  0  0  0  0  0  0  0  0  0  0
   -0.0206  -10.5585   16.6210 C   0  0  0  0  0  0  0  0  0  0  0  0
    0.3696  -12.7626   16.2169 O   0  0  0  0  0  0  0  0  0  0  0  0
   -0.6895   -9.5676   17.3297 C   0  0  0  0  0  0  0  0  0  0  0  0
    0.8388   -5.8417   27.5264 C   0  0  0  0  0  0  0  0  0  0  0  0
   -2.0709   -7.6637   18.7817 C   0  0  0  0  0  0  0  0  0  0  0  0
   -0.5279   -8.2168   17.0717 C   0  0  0  0  0  0  0  0  0  0  0  0
    6.9694   -4.0191   27.8190 C   0  0  0  0  0  0  0  0  0  0  0  0
    5.1733   -4.5469   29.8123 C   0  0  0  0  0  0  0  0  0  0  0  0
   -1.7508  -11.3016   18.6072 C   0  0  0  0  0  0  0  0  0  0  0  0
    1.7497   -5.6771   26.4971 C   0  0  0  0  0  0  0  0  0  0  0  0
   -1.5799   -9.9322   18.3468 C   0  0  0  0  0  0  0  0  0  0  0  0
   -1.0871  -12.2214   17.8851 C   0  0  0  0  0  0  0  0  0  0  0  0
   -2.2706   -8.9669   19.0691 C   0  0  0  0  0  0  0  0  0  0  0  0
    3.0279   -5.3073   26.8197 C   0  0  0  0  0  0  0  0  0  0  0  0
    7.3282   -3.8948   29.1186 C   0  0  0  0  0  0  0  0  0  0  0  0
  1  3  4  0
  1  7  4  0
  2  3  1  0
  2  6  4  0
  2 16  4  0
  3 22  4  0
  4  9  4  0
  4 10  1  0
  4 20  4  0
  5 16  4  0
  5 23  4  0
  6 15  4  0
  7 12  4  0
  8 13  4  0
  8 14  4  0
  9 11  4  0
 11 14  4  0
 11 19  4  0
 12 18  4  0
 13 21  4  0
 15 23  4  0
 17 19  4  0
 17 20  4  0
 18 22  4  0
 19 21  4  0
M  END
$$$$

 Created by Python create_sdf_string function

 23 25  0  0  0  0  0  0  0  0999 V2000
    2.4610   -5.3070   29.1240 C   0  0  0  0  0  0  0  0  0  0  0  0
    4.7710   -4.6952   28.4803 C   0  0  0  0  0  0  0  0  0  0  0  0
    3.4047   -5.1087   28.1314 C   0  0  0  0  0  0  0  0  0  0  0  0
   -0.2234  -11.8615   16.8874 C   0  0  0  0  0  0  0  0  0  0  0  0
    6.4491   -4.1532   30.1213 C   0  0  0  0  0  0  0  0  0  0  0  0
    5.7060   -4.4340   27.4975 C   0  0  0  0  0  0  0  0  0  0  0  0
    1.1818   -5.6612   28.8399 C   0  0  0  0  0  0  0  0  0  0  0  0
   -1.2067   -7.3287   17.7772 C   0  0  0  0  0  0  0  0  0  0  0  0
   -0.0206  -10.5585   16.6210 C   0  0  0  0  0  0  0  0  0  0  0  0
    0.3696  -12.7626   16.2169 O   0  0  0  0  0  0  0  0  0  0  0  0
   -0.6895   -9.5676   17.3297 C   0  0  0  0  0  0  0  0  0  0  0  0
    0.8388   -5.8417   27.5264 C   0  0  0  0  0  0  0  0  0  0  0  0
   -2.0709   -7.6637   18.7817 C   0  0  0  0  0  0  0  0  0  0  0  0
   -0.5279   -8.2168   17.0717 C   0  0  0  0  0  0  0  0  0  0  0  0
    6.9694   -4.0191   27.8190 C   0  0  0  0  0  0  0  0  0  0  0  0
    5.1733   -4.5469   29.8123 C   0  0  0  0  0  0  0  0  0  0  0  0
   -1.7508  -11.3016   18.6072 C   0  0  0  0  0  0  0  0  0  0  0  0
    1.7497   -5.6771   26.4971 C   0  0  0  0  0  0  0  0  0  0  0  0
   -1.5799   -9.9322   18.3468 C   0  0  0  0  0  0  0  0  0  0  0  0
   -1.0871  -12.2214   17.8851 C   0  0  0  0  0  0  0  0  0  0  0  0
   -2.2706   -8.9669   19.0691 C   0  0  0  0  0  0  0  0  0  0  0  0
    3.0279   -5.3073   26.8197 C   0  0  0  0  0  0  0  0  0  0  0  0
    7.3282   -3.8948   29.1186 C   0  0  0  0  0  0  0  0  0  0  0  0
  1  3  4  0
  1  7  4  0
  2  3  1  0
  2  6  4  0
  2 16  4  0
  3 22  4  0
  4  9  4  0
  4 10  1  0
  4 20  4  0
  5 16  4  0
  5 23  4  0
  6 15  4  0
  7 12  4  0
  8 13  4  0
  8 14  4  0
  9 11  4  0
 11 14  4  0
 11 19  4  0
 12 18  4  0
 13 21  4  0
 15 23  4  0
 17 19  4  0
 17 20  4  0
 18 22  4  0
 19 21  4  0
M  END
$$$$

 Created by Python create_sdf_string function

 23 25  0  0  0  0  0  0  0  0999 V2000
    2.4610   -5.3070   29.1240 C   0  0  0  0  0  0  0  0  0  0  0  0
    4.7710   -4.6952   28.4803 C   0  0  0  0  0  0  0  0  0  0  0  0
    3.4047   -5.1087   28.1314 C   0  0  0  0  0  0  0  0  0  0  0  0
   -0.2234  -11.8615   16.8874 C   0  0  0  0  0  0  0  0  0  0  0  0
    6.4491   -4.1532   30.1213 C   0  0  0  0  0  0  0  0  0  0  0  0
    5.7060   -4.4340   27.4975 C   0  0  0  0  0  0  0  0  0  0  0  0
    1.1818   -5.6612   28.8399 C   0  0  0  0  0  0  0  0  0  0  0  0
   -1.2067   -7.3287   17.7772 C   0  0  0  0  0  0  0  0  0  0  0  0
   -0.0206  -10.5585   16.6210 C   0  0  0  0  0  0  0  0  0  0  0  0
    0.3696  -12.7626   16.2169 O   0  0  0  0  0  0  0  0  0  0  0  0
   -0.6895   -9.5676   17.3297 C   0  0  0  0  0  0  0  0  0  0  0  0
    0.8388   -5.8417   27.5264 C   0  0  0  0  0  0  0  0  0  0  0  0
   -2.0709   -7.6637   18.7817 C   0  0  0  0  0  0  0  0  0  0  0  0
   -0.5279   -8.2168   17.0717 C   0  0  0  0  0  0  0  0  0  0  0  0
    6.9694   -4.0191   27.8190 C   0  0  0  0  0  0  0  0  0  0  0  0
    5.1733   -4.5469   29.8123 C   0  0  0  0  0  0  0  0  0  0  0  0
   -1.7508  -11.3016   18.6072 C   0  0  0  0  0  0  0  0  0  0  0  0
    1.7497   -5.6771   26.4971 C   0  0  0  0  0  0  0  0  0  0  0  0
   -1.5799   -9.9322   18.3468 C   0  0  0  0  0  0  0  0  0  0  0  0
   -1.0871  -12.2214   17.8851 C   0  0  0  0  0  0  0  0  0  0  0  0
   -2.2706   -8.9669   19.0691 C   0  0  0  0  0  0  0  0  0  0  0  0
    3.0279   -5.3073   26.8197 C   0  0  0  0  0  0  0  0  0  0  0  0
    7.3282   -3.8948   29.1186 C   0  0  0  0  0  0  0  0  0  0  0  0
  1  3  4  0
  1  7  4  0
  2  3  1  0
  2  6  4  0
  2 16  4  0
  3 22  4  0
  4  9  4  0
  4 10  1  0
  4 20  4  0
  5 16  4  0
  5 23  4  0
  6 15  4  0
  7 12  4  0
  8 13  4  0
  8 14  4  0
  9 11  4  0
 11 14  4  0
 11 19  4  0
 12 18  4  0
 13 21  4  0
 15 23  4  0
 17 19  4  0
 17 20  4  0
 18 22  4  0
 19 21  4  0
M  END
$$$$

 Created by Python create_sdf_string function

 23 25  0  0  0  0  0  0  0  0999 V2000
    2.4610   -5.3070   29.1240 C   0  0  0  0  0  0  0  0  0  0  0  0
    4.7710   -4.6952   28.4803 C   0  0  0  0  0  0  0  0  0  0  0  0
    3.4047   -5.1087   28.1314 C   0  0  0  0  0  0  0  0  0  0  0  0
   -0.2234  -11.8615   16.8874 C   0  0  0  0  0  0  0  0  0  0  0  0
    6.4491   -4.1532   30.1213 C   0  0  0  0  0  0  0  0  0  0  0  0
    5.7060   -4.4340   27.4975 C   0  0  0  0  0  0  0  0  0  0  0  0
    1.1818   -5.6612   28.8399 C   0  0  0  0  0  0  0  0  0  0  0  0
   -1.2067   -7.3287   17.7772 C   0  0  0  0  0  0  0  0  0  0  0  0
   -0.0206  -10.5585   16.6210 C   0  0  0  0  0  0  0  0  0  0  0  0
    0.3696  -12.7626   16.2169 O   0  0  0  0  0  0  0  0  0  0  0  0
   -0.6895   -9.5676   17.3297 C   0  0  0  0  0  0  0  0  0  0  0  0
    0.8388   -5.8417   27.5264 C   0  0  0  0  0  0  0  0  0  0  0  0
   -2.0709   -7.6637   18.7817 C   0  0  0  0  0  0  0  0  0  0  0  0
   -0.5279   -8.2168   17.0717 C   0  0  0  0  0  0  0  0  0  0  0  0
    6.9694   -4.0191   27.8190 C   0  0  0  0  0  0  0  0  0  0  0  0
    5.1733   -4.5469   29.8123 C   0  0  0  0  0  0  0  0  0  0  0  0
   -1.7508  -11.3016   18.6072 C   0  0  0  0  0  0  0  0  0  0  0  0
    1.7497   -5.6771   26.4971 C   0  0  0  0  0  0  0  0  0  0  0  0
   -1.5799   -9.9322   18.3468 C   0  0  0  0  0  0  0  0  0  0  0  0
   -1.0871  -12.2214   17.8851 C   0  0  0  0  0  0  0  0  0  0  0  0
   -2.2706   -8.9669   19.0691 C   0  0  0  0  0  0  0  0  0  0  0  0
    3.0279   -5.3073   26.8197 C   0  0  0  0  0  0  0  0  0  0  0  0
    7.3282   -3.8948   29.1186 C   0  0  0  0  0  0  0  0  0  0  0  0
  1  3  4  0
  1  7  4  0
  2  3  1  0
  2  6  4  0
  2 16  4  0
  3 22  4  0
  4  9  4  0
  4 10  1  0
  4 20  4  0
  5 16  4  0
  5 23  4  0
  6 15  4  0
  7 12  4  0
  8 13  4  0
  8 14  4  0
  9 11  4  0
 11 14  4  0
 11 19  4  0
 12 18  4  0
 13 21  4  0
 15 23  4  0
 17 19  4  0
 17 20  4  0
 18 22  4  0
 19 21  4  0
M  END
$$$$

 Created by Python create_sdf_string function

 23 25  0  0  0  0  0  0  0  0999 V2000
    2.4610   -5.3070   29.1240 C   0  0  0  0  0  0  0  0  0  0  0  0
    4.7710   -4.6952   28.4803 C   0  0  0  0  0  0  0  0  0  0  0  0
    3.4047   -5.1087   28.1314 C   0  0  0  0  0  0  0  0  0  0  0  0
   -0.2234  -11.8615   16.8874 C   0  0  0  0  0  0  0  0  0  0  0  0
    6.4491   -4.1532   30.1213 C   0  0  0  0  0  0  0  0  0  0  0  0
    5.7060   -4.4340   27.4975 C   0  0  0  0  0  0  0  0  0  0  0  0
    1.1818   -5.6612   28.8399 C   0  0  0  0  0  0  0  0  0  0  0  0
   -1.2067   -7.3287   17.7772 C   0  0  0  0  0  0  0  0  0  0  0  0
   -0.0206  -10.5585   16.6210 C   0  0  0  0  0  0  0  0  0  0  0  0
    0.3696  -12.7626   16.2169 O   0  0  0  0  0  0  0  0  0  0  0  0
   -0.6895   -9.5676   17.3297 C   0  0  0  0  0  0  0  0  0  0  0  0
    0.8388   -5.8417   27.5264 C   0  0  0  0  0  0  0  0  0  0  0  0
   -2.0709   -7.6637   18.7817 C   0  0  0  0  0  0  0  0  0  0  0  0
   -0.5279   -8.2168   17.0717 C   0  0  0  0  0  0  0  0  0  0  0  0
    6.9694   -4.0191   27.8190 C   0  0  0  0  0  0  0  0  0  0  0  0
    5.1733   -4.5469   29.8123 C   0  0  0  0  0  0  0  0  0  0  0  0
   -1.7508  -11.3016   18.6072 C   0  0  0  0  0  0  0  0  0  0  0  0
    1.7497   -5.6771   26.4971 C   0  0  0  0  0  0  0  0  0  0  0  0
   -1.5799   -9.9322   18.3468 C   0  0  0  0  0  0  0  0  0  0  0  0
   -1.0871  -12.2214   17.8851 C   0  0  0  0  0  0  0  0  0  0  0  0
   -2.2706   -8.9669   19.0691 C   0  0  0  0  0  0  0  0  0  0  0  0
    3.0279   -5.3073   26.8197 C   0  0  0  0  0  0  0  0  0  0  0  0
    7.3282   -3.8948   29.1186 C   0  0  0  0  0  0  0  0  0  0  0  0
  1  3  4  0
  1  7  4  0
  2  3  1  0
  2  6  4  0
  2 16  4  0
  3 22  4  0
  4  9  4  0
  4 10  1  0
  4 20  4  0
  5 16  4  0
  5 23  4  0
  6 15  4  0
  7 12  4  0
  8 13  4  0
  8 14  4  0
  9 11  4  0
 11 14  4  0
 11 19  4  0
 12 18  4  0
 13 21  4  0
 15 23  4  0
 17 19  4  0
 17 20  4  0
 18 22  4  0
 19 21  4  0
M  END
$$$$

 Created by Python create_sdf_string function

 23 25  0  0  0  0  0  0  0  0999 V2000
    2.4610   -5.3070   29.1240 C   0  0  0  0  0  0  0  0  0  0  0  0
    4.7710   -4.6952   28.4803 C   0  0  0  0  0  0  0  0  0  0  0  0
    3.4047   -5.1087   28.1314 C   0  0  0  0  0  0  0  0  0  0  0  0
   -0.2234  -11.8615   16.8874 C   0  0  0  0  0  0  0  0  0  0  0  0
    6.4491   -4.1532   30.1213 C   0  0  0  0  0  0  0  0  0  0  0  0
    5.7060   -4.4340   27.4975 C   0  0  0  0  0  0  0  0  0  0  0  0
    1.1818   -5.6612   28.8399 C   0  0  0  0  0  0  0  0  0  0  0  0
   -1.2067   -7.3287   17.7772 C   0  0  0  0  0  0  0  0  0  0  0  0
   -0.0206  -10.5585   16.6210 C   0  0  0  0  0  0  0  0  0  0  0  0
    0.3696  -12.7626   16.2169 O   0  0  0  0  0  0  0  0  0  0  0  0
   -0.6895   -9.5676   17.3297 C   0  0  0  0  0  0  0  0  0  0  0  0
    0.8388   -5.8417   27.5264 C   0  0  0  0  0  0  0  0  0  0  0  0
   -2.0709   -7.6637   18.7817 C   0  0  0  0  0  0  0  0  0  0  0  0
   -0.5279   -8.2168   17.0717 C   0  0  0  0  0  0  0  0  0  0  0  0
    6.9694   -4.0191   27.8190 C   0  0  0  0  0  0  0  0  0  0  0  0
    5.1733   -4.5469   29.8123 C   0  0  0  0  0  0  0  0  0  0  0  0
   -1.7508  -11.3016   18.6072 C   0  0  0  0  0  0  0  0  0  0  0  0
    1.7497   -5.6771   26.4971 C   0  0  0  0  0  0  0  0  0  0  0  0
   -1.5799   -9.9322   18.3468 C   0  0  0  0  0  0  0  0  0  0  0  0
   -1.0871  -12.2214   17.8851 C   0  0  0  0  0  0  0  0  0  0  0  0
   -2.2706   -8.9669   19.0691 C   0  0  0  0  0  0  0  0  0  0  0  0
    3.0279   -5.3073   26.8197 C   0  0  0  0  0  0  0  0  0  0  0  0
    7.3282   -3.8948   29.1186 C   0  0  0  0  0  0  0  0  0  0  0  0
  1  3  4  0
  1  7  4  0
  2  3  1  0
  2  6  4  0
  2 16  4  0
  3 22  4  0
  4  9  4  0
  4 10  1  0
  4 20  4  0
  5 16  4  0
  5 23  4  0
  6 15  4  0
  7 12  4  0
  8 13  4  0
  8 14  4  0
  9 11  4  0
 11 14  4  0
 11 19  4  0
 12 18  4  0
 13 21  4  0
 15 23  4  0
 17 19  4  0
 17 20  4  0
 18 22  4  0
 19 21  4  0
M  END
$$$$

 Created by Python create_sdf_string function

 23 25  0  0  0  0  0  0  0  0999 V2000
    2.4610   -5.3070   29.1240 C   0  0  0  0  0  0  0  0  0  0  0  0
    4.7710   -4.6952   28.4803 C   0  0  0  0  0  0  0  0  0  0  0  0
    3.4047   -5.1087   28.1314 C   0  0  0  0  0  0  0  0  0  0  0  0
   -0.2234  -11.8615   16.8874 C   0  0  0  0  0  0  0  0  0  0  0  0
    6.4491   -4.1532   30.1213 C   0  0  0  0  0  0  0  0  0  0  0  0
    5.7060   -4.4340   27.4975 C   0  0  0  0  0  0  0  0  0  0  0  0
    1.1818   -5.6612   28.8399 C   0  0  0  0  0  0  0  0  0  0  0  0
   -1.2067   -7.3287   17.7772 C   0  0  0  0  0  0  0  0  0  0  0  0
   -0.0206  -10.5585   16.6210 C   0  0  0  0  0  0  0  0  0  0  0  0
    0.3696  -12.7626   16.2169 O   0  0  0  0  0  0  0  0  0  0  0  0
   -0.6895   -9.5676   17.3297 C   0  0  0  0  0  0  0  0  0  0  0  0
    0.8388   -5.8417   27.5264 C   0  0  0  0  0  0  0  0  0  0  0  0
   -2.0709   -7.6637   18.7817 C   0  0  0  0  0  0  0  0  0  0  0  0
   -0.5279   -8.2168   17.0717 C   0  0  0  0  0  0  0  0  0  0  0  0
    6.9694   -4.0191   27.8190 C   0  0  0  0  0  0  0  0  0  0  0  0
    5.1733   -4.5469   29.8123 C   0  0  0  0  0  0  0  0  0  0  0  0
   -1.7508  -11.3016   18.6072 C   0  0  0  0  0  0  0  0  0  0  0  0
    1.7497   -5.6771   26.4971 C   0  0  0  0  0  0  0  0  0  0  0  0
   -1.5799   -9.9322   18.3468 C   0  0  0  0  0  0  0  0  0  0  0  0
   -1.0871  -12.2214   17.8851 C   0  0  0  0  0  0  0  0  0  0  0  0
   -2.2706   -8.9669   19.0691 C   0  0  0  0  0  0  0  0  0  0  0  0
    3.0279   -5.3073   26.8197 C   0  0  0  0  0  0  0  0  0  0  0  0
    7.3282   -3.8948   29.1186 C   0  0  0  0  0  0  0  0  0  0  0  0
  1  3  4  0
  1  7  4  0
  2  3  1  0
  2  6  4  0
  2 16  4  0
  3 22  4  0
  4  9  4  0
  4 10  1  0
  4 20  4  0
  5 16  4  0
  5 23  4  0
  6 15  4  0
  7 12  4  0
  8 13  4  0
  8 14  4  0
  9 11  4  0
 11 14  4  0
 11 19  4  0
 12 18  4  0
 13 21  4  0
 15 23  4  0
 17 19  4  0
 17 20  4  0
 18 22  4  0
 19 21  4  0
M  END
$$$$

 Created by Python create_sdf_string function

 23 25  0  0  0  0  0  0  0  0999 V2000
    2.4610   -5.3070   29.1240 C   0  0  0  0  0  0  0  0  0  0  0  0
    4.7710   -4.6952   28.4803 C   0  0  0  0  0  0  0  0  0  0  0  0
    3.4047   -5.1087   28.1314 C   0  0  0  0  0  0  0  0  0  0  0  0
   -0.2234  -11.8615   16.8874 C   0  0  0  0  0  0  0  0  0  0  0  0
    6.4491   -4.1532   30.1213 C   0  0  0  0  0  0  0  0  0  0  0  0
    5.7060   -4.4340   27.4975 C   0  0  0  0  0  0  0  0  0  0  0  0
    1.1818   -5.6612   28.8399 C   0  0  0  0  0  0  0  0  0  0  0  0
   -1.2067   -7.3287   17.7772 C   0  0  0  0  0  0  0  0  0  0  0  0
   -0.0206  -10.5585   16.6210 C   0  0  0  0  0  0  0  0  0  0  0  0
    0.3696  -12.7626   16.2169 O   0  0  0  0  0  0  0  0  0  0  0  0
   -0.6895   -9.5676   17.3297 C   0  0  0  0  0  0  0  0  0  0  0  0
    0.8388   -5.8417   27.5264 C   0  0  0  0  0  0  0  0  0  0  0  0
   -2.0709   -7.6637   18.7817 C   0  0  0  0  0  0  0  0  0  0  0  0
   -0.5279   -8.2168   17.0717 C   0  0  0  0  0  0  0  0  0  0  0  0
    6.9694   -4.0191   27.8190 C   0  0  0  0  0  0  0  0  0  0  0  0
    5.1733   -4.5469   29.8123 C   0  0  0  0  0  0  0  0  0  0  0  0
   -1.7508  -11.3016   18.6072 C   0  0  0  0  0  0  0  0  0  0  0  0
    1.7497   -5.6771   26.4971 C   0  0  0  0  0  0  0  0  0  0  0  0
   -1.5799   -9.9322   18.3468 C   0  0  0  0  0  0  0  0  0  0  0  0
   -1.0871  -12.2214   17.8851 C   0  0  0  0  0  0  0  0  0  0  0  0
   -2.2706   -8.9669   19.0691 C   0  0  0  0  0  0  0  0  0  0  0  0
    3.0279   -5.3073   26.8197 C   0  0  0  0  0  0  0  0  0  0  0  0
    7.3282   -3.8948   29.1186 C   0  0  0  0  0  0  0  0  0  0  0  0
  1  3  4  0
  1  7  4  0
  2  3  1  0
  2  6  4  0
  2 16  4  0
  3 22  4  0
  4  9  4  0
  4 10  1  0
  4 20  4  0
  5 16  4  0
  5 23  4  0
  6 15  4  0
  7 12  4  0
  8 13  4  0
  8 14  4  0
  9 11  4  0
 11 14  4  0
 11 19  4  0
 12 18  4  0
 13 21  4  0
 15 23  4  0
 17 19  4  0
 17 20  4  0
 18 22  4  0
 19 21  4  0
M  END
$$$$

 Created by Python create_sdf_string function

 23 25  0  0  0  0  0  0  0  0999 V2000
    2.4610   -5.3070   29.1240 C   0  0  0  0  0  0  0  0  0  0  0  0
    4.7710   -4.6952   28.4803 C   0  0  0  0  0  0  0  0  0  0  0  0
    3.4047   -5.1087   28.1314 C   0  0  0  0  0  0  0  0  0  0  0  0
   -0.2234  -11.8615   16.8874 C   0  0  0  0  0  0  0  0  0  0  0  0
    6.4491   -4.1532   30.1213 C   0  0  0  0  0  0  0  0  0  0  0  0
    5.7060   -4.4340   27.4975 C   0  0  0  0  0  0  0  0  0  0  0  0
    1.1818   -5.6612   28.8399 C   0  0  0  0  0  0  0  0  0  0  0  0
   -1.2067   -7.3287   17.7772 C   0  0  0  0  0  0  0  0  0  0  0  0
   -0.0206  -10.5585   16.6210 C   0  0  0  0  0  0  0  0  0  0  0  0
    0.3696  -12.7626   16.2169 O   0  0  0  0  0  0  0  0  0  0  0  0
   -0.6895   -9.5676   17.3297 C   0  0  0  0  0  0  0  0  0  0  0  0
    0.8388   -5.8417   27.5264 C   0  0  0  0  0  0  0  0  0  0  0  0
   -2.0709   -7.6637   18.7817 C   0  0  0  0  0  0  0  0  0  0  0  0
   -0.5279   -8.2168   17.0717 C   0  0  0  0  0  0  0  0  0  0  0  0
    6.9694   -4.0191   27.8190 C   0  0  0  0  0  0  0  0  0  0  0  0
    5.1733   -4.5469   29.8123 C   0  0  0  0  0  0  0  0  0  0  0  0
   -1.7508  -11.3016   18.6072 C   0  0  0  0  0  0  0  0  0  0  0  0
    1.7497   -5.6771   26.4971 C   0  0  0  0  0  0  0  0  0  0  0  0
   -1.5799   -9.9322   18.3468 C   0  0  0  0  0  0  0  0  0  0  0  0
   -1.0871  -12.2214   17.8851 C   0  0  0  0  0  0  0  0  0  0  0  0
   -2.2706   -8.9669   19.0691 C   0  0  0  0  0  0  0  0  0  0  0  0
    3.0279   -5.3073   26.8197 C   0  0  0  0  0  0  0  0  0  0  0  0
    7.3282   -3.8948   29.1186 C   0  0  0  0  0  0  0  0  0  0  0  0
  1  3  4  0
  1  7  4  0
  2  3  1  0
  2  6  4  0
  2 16  4  0
  3 22  4  0
  4  9  4  0
  4 10  1  0
  4 20  4  0
  5 16  4  0
  5 23  4  0
  6 15  4  0
  7 12  4  0
  8 13  4  0
  8 14  4  0
  9 11  4  0
 11 14  4  0
 11 19  4  0
 12 18  4  0
 13 21  4  0
 15 23  4  0
 17 19  4  0
 17 20  4  0
 18 22  4  0
 19 21  4  0
M  END
$$$$

 Created by Python create_sdf_string function

 23 25  0  0  0  0  0  0  0  0999 V2000
    2.4610   -5.3070   29.1240 C   0  0  0  0  0  0  0  0  0  0  0  0
    4.7710   -4.6952   28.4803 C   0  0  0  0  0  0  0  0  0  0  0  0
    3.4047   -5.1087   28.1314 C   0  0  0  0  0  0  0  0  0  0  0  0
   -0.2234  -11.8615   16.8874 C   0  0  0  0  0  0  0  0  0  0  0  0
    6.4491   -4.1532   30.1213 C   0  0  0  0  0  0  0  0  0  0  0  0
    5.7060   -4.4340   27.4975 C   0  0  0  0  0  0  0  0  0  0  0  0
    1.1818   -5.6612   28.8399 C   0  0  0  0  0  0  0  0  0  0  0  0
   -1.2067   -7.3287   17.7772 C   0  0  0  0  0  0  0  0  0  0  0  0
   -0.0206  -10.5585   16.6210 C   0  0  0  0  0  0  0  0  0  0  0  0
    0.3696  -12.7626   16.2169 O   0  0  0  0  0  0  0  0  0  0  0  0
   -0.6895   -9.5676   17.3297 C   0  0  0  0  0  0  0  0  0  0  0  0
    0.8388   -5.8417   27.5264 C   0  0  0  0  0  0  0  0  0  0  0  0
   -2.0709   -7.6637   18.7817 C   0  0  0  0  0  0  0  0  0  0  0  0
   -0.5279   -8.2168   17.0717 C   0  0  0  0  0  0  0  0  0  0  0  0
    6.9694   -4.0191   27.8190 C   0  0  0  0  0  0  0  0  0  0  0  0
    5.1733   -4.5469   29.8123 C   0  0  0  0  0  0  0  0  0  0  0  0
   -1.7508  -11.3016   18.6072 C   0  0  0  0  0  0  0  0  0  0  0  0
    1.7497   -5.6771   26.4971 C   0  0  0  0  0  0  0  0  0  0  0  0
   -1.5799   -9.9322   18.3468 C   0  0  0  0  0  0  0  0  0  0  0  0
   -1.0871  -12.2214   17.8851 C   0  0  0  0  0  0  0  0  0  0  0  0
   -2.2706   -8.9669   19.0691 C   0  0  0  0  0  0  0  0  0  0  0  0
    3.0279   -5.3073   26.8197 C   0  0  0  0  0  0  0  0  0  0  0  0
    7.3282   -3.8948   29.1186 C   0  0  0  0  0  0  0  0  0  0  0  0
  1  3  4  0
  1  7  4  0
  2  3  1  0
  2  6  4  0
  2 16  4  0
  3 22  4  0
  4  9  4  0
  4 10  1  0
  4 20  4  0
  5 16  4  0
  5 23  4  0
  6 15  4  0
  7 12  4  0
  8 13  4  0
  8 14  4  0
  9 11  4  0
 11 14  4  0
 11 19  4  0
 12 18  4  0
 13 21  4  0
 15 23  4  0
 17 19  4  0
 17 20  4  0
 18 22  4  0
 19 21  4  0
M  END
$$$$

 Created by Python create_sdf_string function

 23 25  0  0  0  0  0  0  0  0999 V2000
    2.4610   -5.3070   29.1240 C   0  0  0  0  0  0  0  0  0  0  0  0
    4.7710   -4.6952   28.4803 C   0  0  0  0  0  0  0  0  0  0  0  0
    3.4047   -5.1087   28.1314 C   0  0  0  0  0  0  0  0  0  0  0  0
   -0.2234  -11.8615   16.8874 C   0  0  0  0  0  0  0  0  0  0  0  0
    6.4491   -4.1532   30.1213 C   0  0  0  0  0  0  0  0  0  0  0  0
    5.7060   -4.4340   27.4975 C   0  0  0  0  0  0  0  0  0  0  0  0
    1.1818   -5.6612   28.8399 C   0  0  0  0  0  0  0  0  0  0  0  0
   -1.2067   -7.3287   17.7772 C   0  0  0  0  0  0  0  0  0  0  0  0
   -0.0206  -10.5585   16.6210 C   0  0  0  0  0  0  0  0  0  0  0  0
    0.3696  -12.7626   16.2169 O   0  0  0  0  0  0  0  0  0  0  0  0
   -0.6895   -9.5676   17.3297 C   0  0  0  0  0  0  0  0  0  0  0  0
    0.8388   -5.8417   27.5264 C   0  0  0  0  0  0  0  0  0  0  0  0
   -2.0709   -7.6637   18.7817 C   0  0  0  0  0  0  0  0  0  0  0  0
   -0.5279   -8.2168   17.0717 C   0  0  0  0  0  0  0  0  0  0  0  0
    6.9694   -4.0191   27.8190 C   0  0  0  0  0  0  0  0  0  0  0  0
    5.1733   -4.5469   29.8123 C   0  0  0  0  0  0  0  0  0  0  0  0
   -1.7508  -11.3016   18.6072 C   0  0  0  0  0  0  0  0  0  0  0  0
    1.7497   -5.6771   26.4971 C   0  0  0  0  0  0  0  0  0  0  0  0
   -1.5799   -9.9322   18.3468 C   0  0  0  0  0  0  0  0  0  0  0  0
   -1.0871  -12.2214   17.8851 C   0  0  0  0  0  0  0  0  0  0  0  0
   -2.2706   -8.9669   19.0691 C   0  0  0  0  0  0  0  0  0  0  0  0
    3.0279   -5.3073   26.8197 C   0  0  0  0  0  0  0  0  0  0  0  0
    7.3282   -3.8948   29.1186 C   0  0  0  0  0  0  0  0  0  0  0  0
  1  3  4  0
  1  7  4  0
  2  3  1  0
  2  6  4  0
  2 16  4  0
  3 22  4  0
  4  9  4  0
  4 10  1  0
  4 20  4  0
  5 16  4  0
  5 23  4  0
  6 15  4  0
  7 12  4  0
  8 13  4  0
  8 14  4  0
  9 11  4  0
 11 14  4  0
 11 19  4  0
 12 18  4  0
 13 21  4  0
 15 23  4  0
 17 19  4  0
 17 20  4  0
 18 22  4  0
 19 21  4  0
M  END
$$$$

 Created by Python create_sdf_string function

 23 25  0  0  0  0  0  0  0  0999 V2000
    2.4610   -5.3070   29.1240 C   0  0  0  0  0  0  0  0  0  0  0  0
    4.7710   -4.6952   28.4803 C   0  0  0  0  0  0  0  0  0  0  0  0
    3.4047   -5.1087   28.1314 C   0  0  0  0  0  0  0  0  0  0  0  0
   -0.2234  -11.8615   16.8874 C   0  0  0  0  0  0  0  0  0  0  0  0
    6.4491   -4.1532   30.1213 C   0  0  0  0  0  0  0  0  0  0  0  0
    5.7060   -4.4340   27.4975 C   0  0  0  0  0  0  0  0  0  0  0  0
    1.1818   -5.6612   28.8399 C   0  0  0  0  0  0  0  0  0  0  0  0
   -1.2067   -7.3287   17.7772 C   0  0  0  0  0  0  0  0  0  0  0  0
   -0.0206  -10.5585   16.6210 C   0  0  0  0  0  0  0  0  0  0  0  0
    0.3696  -12.7626   16.2169 O   0  0  0  0  0  0  0  0  0  0  0  0
   -0.6895   -9.5676   17.3297 C   0  0  0  0  0  0  0  0  0  0  0  0
    0.8388   -5.8417   27.5264 C   0  0  0  0  0  0  0  0  0  0  0  0
   -2.0709   -7.6637   18.7817 C   0  0  0  0  0  0  0  0  0  0  0  0
   -0.5279   -8.2168   17.0717 C   0  0  0  0  0  0  0  0  0  0  0  0
    6.9694   -4.0191   27.8190 C   0  0  0  0  0  0  0  0  0  0  0  0
    5.1733   -4.5469   29.8123 C   0  0  0  0  0  0  0  0  0  0  0  0
   -1.7508  -11.3016   18.6072 C   0  0  0  0  0  0  0  0  0  0  0  0
    1.7497   -5.6771   26.4971 C   0  0  0  0  0  0  0  0  0  0  0  0
   -1.5799   -9.9322   18.3468 C   0  0  0  0  0  0  0  0  0  0  0  0
   -1.0871  -12.2214   17.8851 C   0  0  0  0  0  0  0  0  0  0  0  0
   -2.2706   -8.9669   19.0691 C   0  0  0  0  0  0  0  0  0  0  0  0
    3.0279   -5.3073   26.8197 C   0  0  0  0  0  0  0  0  0  0  0  0
    7.3282   -3.8948   29.1186 C   0  0  0  0  0  0  0  0  0  0  0  0
  1  3  4  0
  1  7  4  0
  2  3  1  0
  2  6  4  0
  2 16  4  0
  3 22  4  0
  4  9  4  0
  4 10  1  0
  4 20  4  0
  5 16  4  0
  5 23  4  0
  6 15  4  0
  7 12  4  0
  8 13  4  0
  8 14  4  0
  9 11  4  0
 11 14  4  0
 11 19  4  0
 12 18  4  0
 13 21  4  0
 15 23  4  0
 17 19  4  0
 17 20  4  0
 18 22  4  0
 19 21  4  0
M  END
$$$$

 Created by Python create_sdf_string function

 23 25  0  0  0  0  0  0  0  0999 V2000
    2.4610   -5.3070   29.1240 C   0  0  0  0  0  0  0  0  0  0  0  0
    4.7710   -4.6952   28.4803 C   0  0  0  0  0  0  0  0  0  0  0  0
    3.4047   -5.1087   28.1314 C   0  0  0  0  0  0  0  0  0  0  0  0
   -0.2234  -11.8615   16.8874 C   0  0  0  0  0  0  0  0  0  0  0  0
    6.4491   -4.1532   30.1213 C   0  0  0  0  0  0  0  0  0  0  0  0
    5.7060   -4.4340   27.4975 C   0  0  0  0  0  0  0  0  0  0  0  0
    1.1818   -5.6612   28.8399 C   0  0  0  0  0  0  0  0  0  0  0  0
   -1.2067   -7.3287   17.7772 C   0  0  0  0  0  0  0  0  0  0  0  0
   -0.0206  -10.5585   16.6210 C   0  0  0  0  0  0  0  0  0  0  0  0
    0.3696  -12.7626   16.2169 O   0  0  0  0  0  0  0  0  0  0  0  0
   -0.6895   -9.5676   17.3297 C   0  0  0  0  0  0  0  0  0  0  0  0
    0.8388   -5.8417   27.5264 C   0  0  0  0  0  0  0  0  0  0  0  0
   -2.0709   -7.6637   18.7817 C   0  0  0  0  0  0  0  0  0  0  0  0
   -0.5279   -8.2168   17.0717 C   0  0  0  0  0  0  0  0  0  0  0  0
    6.9694   -4.0191   27.8190 C   0  0  0  0  0  0  0  0  0  0  0  0
    5.1733   -4.5469   29.8123 C   0  0  0  0  0  0  0  0  0  0  0  0
   -1.7508  -11.3016   18.6072 C   0  0  0  0  0  0  0  0  0  0  0  0
    1.7497   -5.6771   26.4971 C   0  0  0  0  0  0  0  0  0  0  0  0
   -1.5799   -9.9322   18.3468 C   0  0  0  0  0  0  0  0  0  0  0  0
   -1.0871  -12.2214   17.8851 C   0  0  0  0  0  0  0  0  0  0  0  0
   -2.2706   -8.9669   19.0691 C   0  0  0  0  0  0  0  0  0  0  0  0
    3.0279   -5.3073   26.8197 C   0  0  0  0  0  0  0  0  0  0  0  0
    7.3282   -3.8948   29.1186 C   0  0  0  0  0  0  0  0  0  0  0  0
  1  3  4  0
  1  7  4  0
  2  3  1  0
  2  6  4  0
  2 16  4  0
  3 22  4  0
  4  9  4  0
  4 10  1  0
  4 20  4  0
  5 16  4  0
  5 23  4  0
  6 15  4  0
  7 12  4  0
  8 13  4  0
  8 14  4  0
  9 11  4  0
 11 14  4  0
 11 19  4  0
 12 18  4  0
 13 21  4  0
 15 23  4  0
 17 19  4  0
 17 20  4  0
 18 22  4  0
 19 21  4  0
M  END
$$$$

 Created by Python create_sdf_string function

 23 25  0  0  0  0  0  0  0  0999 V2000
    2.4610   -5.3070   29.1240 C   0  0  0  0  0  0  0  0  0  0  0  0
    4.7710   -4.6952   28.4803 C   0  0  0  0  0  0  0  0  0  0  0  0
    3.4047   -5.1087   28.1314 C   0  0  0  0  0  0  0  0  0  0  0  0
   -0.2234  -11.8615   16.8874 C   0  0  0  0  0  0  0  0  0  0  0  0
    6.4491   -4.1532   30.1213 C   0  0  0  0  0  0  0  0  0  0  0  0
    5.7060   -4.4340   27.4975 C   0  0  0  0  0  0  0  0  0  0  0  0
    1.1818   -5.6612   28.8399 C   0  0  0  0  0  0  0  0  0  0  0  0
   -1.2067   -7.3287   17.7772 C   0  0  0  0  0  0  0  0  0  0  0  0
   -0.0206  -10.5585   16.6210 C   0  0  0  0  0  0  0  0  0  0  0  0
    0.3696  -12.7626   16.2169 O   0  0  0  0  0  0  0  0  0  0  0  0
   -0.6895   -9.5676   17.3297 C   0  0  0  0  0  0  0  0  0  0  0  0
    0.8388   -5.8417   27.5264 C   0  0  0  0  0  0  0  0  0  0  0  0
   -2.0709   -7.6637   18.7817 C   0  0  0  0  0  0  0  0  0  0  0  0
   -0.5279   -8.2168   17.0717 C   0  0  0  0  0  0  0  0  0  0  0  0
    6.9694   -4.0191   27.8190 C   0  0  0  0  0  0  0  0  0  0  0  0
    5.1733   -4.5469   29.8123 C   0  0  0  0  0  0  0  0  0  0  0  0
   -1.7508  -11.3016   18.6072 C   0  0  0  0  0  0  0  0  0  0  0  0
    1.7497   -5.6771   26.4971 C   0  0  0  0  0  0  0  0  0  0  0  0
   -1.5799   -9.9322   18.3468 C   0  0  0  0  0  0  0  0  0  0  0  0
   -1.0871  -12.2214   17.8851 C   0  0  0  0  0  0  0  0  0  0  0  0
   -2.2706   -8.9669   19.0691 C   0  0  0  0  0  0  0  0  0  0  0  0
    3.0279   -5.3073   26.8197 C   0  0  0  0  0  0  0  0  0  0  0  0
    7.3282   -3.8948   29.1186 C   0  0  0  0  0  0  0  0  0  0  0  0
  1  3  4  0
  1  7  4  0
  2  3  1  0
  2  6  4  0
  2 16  4  0
  3 22  4  0
  4  9  4  0
  4 10  1  0
  4 20  4  0
  5 16  4  0
  5 23  4  0
  6 15  4  0
  7 12  4  0
  8 13  4  0
  8 14  4  0
  9 11  4  0
 11 14  4  0
 11 19  4  0
 12 18  4  0
 13 21  4  0
 15 23  4  0
 17 19  4  0
 17 20  4  0
 18 22  4  0
 19 21  4  0
M  END
$$$$

 Created by Python create_sdf_string function

 23 25  0  0  0  0  0  0  0  0999 V2000
    2.4610   -5.3070   29.1240 C   0  0  0  0  0  0  0  0  0  0  0  0
    4.7710   -4.6952   28.4803 C   0  0  0  0  0  0  0  0  0  0  0  0
    3.4047   -5.1087   28.1314 C   0  0  0  0  0  0  0  0  0  0  0  0
   -0.2234  -11.8615   16.8874 C   0  0  0  0  0  0  0  0  0  0  0  0
    6.4491   -4.1532   30.1213 C   0  0  0  0  0  0  0  0  0  0  0  0
    5.7060   -4.4340   27.4975 C   0  0  0  0  0  0  0  0  0  0  0  0
    1.1818   -5.6612   28.8399 C   0  0  0  0  0  0  0  0  0  0  0  0
   -1.2067   -7.3287   17.7772 C   0  0  0  0  0  0  0  0  0  0  0  0
   -0.0206  -10.5585   16.6210 C   0  0  0  0  0  0  0  0  0  0  0  0
    0.3696  -12.7626   16.2169 O   0  0  0  0  0  0  0  0  0  0  0  0
   -0.6895   -9.5676   17.3297 C   0  0  0  0  0  0  0  0  0  0  0  0
    0.8388   -5.8417   27.5264 C   0  0  0  0  0  0  0  0  0  0  0  0
   -2.0709   -7.6637   18.7817 C   0  0  0  0  0  0  0  0  0  0  0  0
   -0.5279   -8.2168   17.0717 C   0  0  0  0  0  0  0  0  0  0  0  0
    6.9694   -4.0191   27.8190 C   0  0  0  0  0  0  0  0  0  0  0  0
    5.1733   -4.5469   29.8123 C   0  0  0  0  0  0  0  0  0  0  0  0
   -1.7508  -11.3016   18.6072 C   0  0  0  0  0  0  0  0  0  0  0  0
    1.7497   -5.6771   26.4971 C   0  0  0  0  0  0  0  0  0  0  0  0
   -1.5799   -9.9322   18.3468 C   0  0  0  0  0  0  0  0  0  0  0  0
   -1.0871  -12.2214   17.8851 C   0  0  0  0  0  0  0  0  0  0  0  0
   -2.2706   -8.9669   19.0691 C   0  0  0  0  0  0  0  0  0  0  0  0
    3.0279   -5.3073   26.8197 C   0  0  0  0  0  0  0  0  0  0  0  0
    7.3282   -3.8948   29.1186 C   0  0  0  0  0  0  0  0  0  0  0  0
  1  3  4  0
  1  7  4  0
  2  3  1  0
  2  6  4  0
  2 16  4  0
  3 22  4  0
  4  9  4  0
  4 10  1  0
  4 20  4  0
  5 16  4  0
  5 23  4  0
  6 15  4  0
  7 12  4  0
  8 13  4  0
  8 14  4  0
  9 11  4  0
 11 14  4  0
 11 19  4  0
 12 18  4  0
 13 21  4  0
 15 23  4  0
 17 19  4  0
 17 20  4  0
 18 22  4  0
 19 21  4  0
M  END
$$$$

 Created by Python create_sdf_string function

 23 25  0  0  0  0  0  0  0  0999 V2000
    2.4610   -5.3070   29.1240 C   0  0  0  0  0  0  0  0  0  0  0  0
    4.7710   -4.6952   28.4803 C   0  0  0  0  0  0  0  0  0  0  0  0
    3.4047   -5.1087   28.1314 C   0  0  0  0  0  0  0  0  0  0  0  0
   -0.2234  -11.8615   16.8874 C   0  0  0  0  0  0  0  0  0  0  0  0
    6.4491   -4.1532   30.1213 C   0  0  0  0  0  0  0  0  0  0  0  0
    5.7060   -4.4340   27.4975 C   0  0  0  0  0  0  0  0  0  0  0  0
    1.1818   -5.6612   28.8399 C   0  0  0  0  0  0  0  0  0  0  0  0
   -1.2067   -7.3287   17.7772 C   0  0  0  0  0  0  0  0  0  0  0  0
   -0.0206  -10.5585   16.6210 C   0  0  0  0  0  0  0  0  0  0  0  0
    0.3696  -12.7626   16.2169 O   0  0  0  0  0  0  0  0  0  0  0  0
   -0.6895   -9.5676   17.3297 C   0  0  0  0  0  0  0  0  0  0  0  0
    0.8388   -5.8417   27.5264 C   0  0  0  0  0  0  0  0  0  0  0  0
   -2.0709   -7.6637   18.7817 C   0  0  0  0  0  0  0  0  0  0  0  0
   -0.5279   -8.2168   17.0717 C   0  0  0  0  0  0  0  0  0  0  0  0
    6.9694   -4.0191   27.8190 C   0  0  0  0  0  0  0  0  0  0  0  0
    5.1733   -4.5469   29.8123 C   0  0  0  0  0  0  0  0  0  0  0  0
   -1.7508  -11.3016   18.6072 C   0  0  0  0  0  0  0  0  0  0  0  0
    1.7497   -5.6771   26.4971 C   0  0  0  0  0  0  0  0  0  0  0  0
   -1.5799   -9.9322   18.3468 C   0  0  0  0  0  0  0  0  0  0  0  0
   -1.0871  -12.2214   17.8851 C   0  0  0  0  0  0  0  0  0  0  0  0
   -2.2706   -8.9669   19.0691 C   0  0  0  0  0  0  0  0  0  0  0  0
    3.0279   -5.3073   26.8197 C   0  0  0  0  0  0  0  0  0  0  0  0
    7.3282   -3.8948   29.1186 C   0  0  0  0  0  0  0  0  0  0  0  0
  1  3  4  0
  1  7  4  0
  2  3  1  0
  2  6  4  0
  2 16  4  0
  3 22  4  0
  4  9  4  0
  4 10  1  0
  4 20  4  0
  5 16  4  0
  5 23  4  0
  6 15  4  0
  7 12  4  0
  8 13  4  0
  8 14  4  0
  9 11  4  0
 11 14  4  0
 11 19  4  0
 12 18  4  0
 13 21  4  0
 15 23  4  0
 17 19  4  0
 17 20  4  0
 18 22  4  0
 19 21  4  0
M  END
$$$$

 Created by Python create_sdf_string function

 23 25  0  0  0  0  0  0  0  0999 V2000
    2.4610   -5.3070   29.1240 C   0  0  0  0  0  0  0  0  0  0  0  0
    4.7710   -4.6952   28.4803 C   0  0  0  0  0  0  0  0  0  0  0  0
    3.4047   -5.1087   28.1314 C   0  0  0  0  0  0  0  0  0  0  0  0
   -0.2234  -11.8615   16.8874 C   0  0  0  0  0  0  0  0  0  0  0  0
    6.4491   -4.1532   30.1213 C   0  0  0  0  0  0  0  0  0  0  0  0
    5.7060   -4.4340   27.4975 C   0  0  0  0  0  0  0  0  0  0  0  0
    1.1818   -5.6612   28.8399 C   0  0  0  0  0  0  0  0  0  0  0  0
   -1.2067   -7.3287   17.7772 C   0  0  0  0  0  0  0  0  0  0  0  0
   -0.0206  -10.5585   16.6210 C   0  0  0  0  0  0  0  0  0  0  0  0
    0.3696  -12.7626   16.2169 O   0  0  0  0  0  0  0  0  0  0  0  0
   -0.6895   -9.5676   17.3297 C   0  0  0  0  0  0  0  0  0  0  0  0
    0.8388   -5.8417   27.5264 C   0  0  0  0  0  0  0  0  0  0  0  0
   -2.0709   -7.6637   18.7817 C   0  0  0  0  0  0  0  0  0  0  0  0
   -0.5279   -8.2168   17.0717 C   0  0  0  0  0  0  0  0  0  0  0  0
    6.9694   -4.0191   27.8190 C   0  0  0  0  0  0  0  0  0  0  0  0
    5.1733   -4.5469   29.8123 C   0  0  0  0  0  0  0  0  0  0  0  0
   -1.7508  -11.3016   18.6072 C   0  0  0  0  0  0  0  0  0  0  0  0
    1.7497   -5.6771   26.4971 C   0  0  0  0  0  0  0  0  0  0  0  0
   -1.5799   -9.9322   18.3468 C   0  0  0  0  0  0  0  0  0  0  0  0
   -1.0871  -12.2214   17.8851 C   0  0  0  0  0  0  0  0  0  0  0  0
   -2.2706   -8.9669   19.0691 C   0  0  0  0  0  0  0  0  0  0  0  0
    3.0279   -5.3073   26.8197 C   0  0  0  0  0  0  0  0  0  0  0  0
    7.3282   -3.8948   29.1186 C   0  0  0  0  0  0  0  0  0  0  0  0
  1  3  4  0
  1  7  4  0
  2  3  1  0
  2  6  4  0
  2 16  4  0
  3 22  4  0
  4  9  4  0
  4 10  1  0
  4 20  4  0
  5 16  4  0
  5 23  4  0
  6 15  4  0
  7 12  4  0
  8 13  4  0
  8 14  4  0
  9 11  4  0
 11 14  4  0
 11 19  4  0
 12 18  4  0
 13 21  4  0
 15 23  4  0
 17 19  4  0
 17 20  4  0
 18 22  4  0
 19 21  4  0
M  END
$$$$

 Created by Python create_sdf_string function

 23 25  0  0  0  0  0  0  0  0999 V2000
    2.4610   -5.3070   29.1240 C   0  0  0  0  0  0  0  0  0  0  0  0
    4.7710   -4.6952   28.4803 C   0  0  0  0  0  0  0  0  0  0  0  0
    3.4047   -5.1087   28.1314 C   0  0  0  0  0  0  0  0  0  0  0  0
   -0.2234  -11.8615   16.8874 C   0  0  0  0  0  0  0  0  0  0  0  0
    6.4491   -4.1532   30.1213 C   0  0  0  0  0  0  0  0  0  0  0  0
    5.7060   -4.4340   27.4975 C   0  0  0  0  0  0  0  0  0  0  0  0
    1.1818   -5.6612   28.8399 C   0  0  0  0  0  0  0  0  0  0  0  0
   -1.2067   -7.3287   17.7772 C   0  0  0  0  0  0  0  0  0  0  0  0
   -0.0206  -10.5585   16.6210 C   0  0  0  0  0  0  0  0  0  0  0  0
    0.3696  -12.7626   16.2169 O   0  0  0  0  0  0  0  0  0  0  0  0
   -0.6895   -9.5676   17.3297 C   0  0  0  0  0  0  0  0  0  0  0  0
    0.8388   -5.8417   27.5264 C   0  0  0  0  0  0  0  0  0  0  0  0
   -2.0709   -7.6637   18.7817 C   0  0  0  0  0  0  0  0  0  0  0  0
   -0.5279   -8.2168   17.0717 C   0  0  0  0  0  0  0  0  0  0  0  0
    6.9694   -4.0191   27.8190 C   0  0  0  0  0  0  0  0  0  0  0  0
    5.1733   -4.5469   29.8123 C   0  0  0  0  0  0  0  0  0  0  0  0
   -1.7508  -11.3016   18.6072 C   0  0  0  0  0  0  0  0  0  0  0  0
    1.7497   -5.6771   26.4971 C   0  0  0  0  0  0  0  0  0  0  0  0
   -1.5799   -9.9322   18.3468 C   0  0  0  0  0  0  0  0  0  0  0  0
   -1.0871  -12.2214   17.8851 C   0  0  0  0  0  0  0  0  0  0  0  0
   -2.2706   -8.9669   19.0691 C   0  0  0  0  0  0  0  0  0  0  0  0
    3.0279   -5.3073   26.8197 C   0  0  0  0  0  0  0  0  0  0  0  0
    7.3282   -3.8948   29.1186 C   0  0  0  0  0  0  0  0  0  0  0  0
  1  3  4  0
  1  7  4  0
  2  3  1  0
  2  6  4  0
  2 16  4  0
  3 22  4  0
  4  9  4  0
  4 10  1  0
  4 20  4  0
  5 16  4  0
  5 23  4  0
  6 15  4  0
  7 12  4  0
  8 13  4  0
  8 14  4  0
  9 11  4  0
 11 14  4  0
 11 19  4  0
 12 18  4  0
 13 21  4  0
 15 23  4  0
 17 19  4  0
 17 20  4  0
 18 22  4  0
 19 21  4  0
M  END
$$$$

 Created by Python create_sdf_string function

 23 25  0  0  0  0  0  0  0  0999 V2000
    2.4610   -5.3070   29.1240 C   0  0  0  0  0  0  0  0  0  0  0  0
    4.7710   -4.6952   28.4803 C   0  0  0  0  0  0  0  0  0  0  0  0
    3.4047   -5.1087   28.1314 C   0  0  0  0  0  0  0  0  0  0  0  0
   -0.2234  -11.8615   16.8874 C   0  0  0  0  0  0  0  0  0  0  0  0
    6.4491   -4.1532   30.1213 C   0  0  0  0  0  0  0  0  0  0  0  0
    5.7060   -4.4340   27.4975 C   0  0  0  0  0  0  0  0  0  0  0  0
    1.1818   -5.6612   28.8399 C   0  0  0  0  0  0  0  0  0  0  0  0
   -1.2067   -7.3287   17.7772 C   0  0  0  0  0  0  0  0  0  0  0  0
   -0.0206  -10.5585   16.6210 C   0  0  0  0  0  0  0  0  0  0  0  0
    0.3696  -12.7626   16.2169 O   0  0  0  0  0  0  0  0  0  0  0  0
   -0.6895   -9.5676   17.3297 C   0  0  0  0  0  0  0  0  0  0  0  0
    0.8388   -5.8417   27.5264 C   0  0  0  0  0  0  0  0  0  0  0  0
   -2.0709   -7.6637   18.7817 C   0  0  0  0  0  0  0  0  0  0  0  0
   -0.5279   -8.2168   17.0717 C   0  0  0  0  0  0  0  0  0  0  0  0
    6.9694   -4.0191   27.8190 C   0  0  0  0  0  0  0  0  0  0  0  0
    5.1733   -4.5469   29.8123 C   0  0  0  0  0  0  0  0  0  0  0  0
   -1.7508  -11.3016   18.6072 C   0  0  0  0  0  0  0  0  0  0  0  0
    1.7497   -5.6771   26.4971 C   0  0  0  0  0  0  0  0  0  0  0  0
   -1.5799   -9.9322   18.3468 C   0  0  0  0  0  0  0  0  0  0  0  0
   -1.0871  -12.2214   17.8851 C   0  0  0  0  0  0  0  0  0  0  0  0
   -2.2706   -8.9669   19.0691 C   0  0  0  0  0  0  0  0  0  0  0  0
    3.0279   -5.3073   26.8197 C   0  0  0  0  0  0  0  0  0  0  0  0
    7.3282   -3.8948   29.1186 C   0  0  0  0  0  0  0  0  0  0  0  0
  1  3  4  0
  1  7  4  0
  2  3  1  0
  2  6  4  0
  2 16  4  0
  3 22  4  0
  4  9  4  0
  4 10  1  0
  4 20  4  0
  5 16  4  0
  5 23  4  0
  6 15  4  0
  7 12  4  0
  8 13  4  0
  8 14  4  0
  9 11  4  0
 11 14  4  0
 11 19  4  0
 12 18  4  0
 13 21  4  0
 15 23  4  0
 17 19  4  0
 17 20  4  0
 18 22  4  0
 19 21  4  0
M  END
$$$$

 Created by Python create_sdf_string function

 23 25  0  0  0  0  0  0  0  0999 V2000
    2.4610   -5.3070   29.1240 C   0  0  0  0  0  0  0  0  0  0  0  0
    4.7710   -4.6952   28.4803 C   0  0  0  0  0  0  0  0  0  0  0  0
    3.4047   -5.1087   28.1314 C   0  0  0  0  0  0  0  0  0  0  0  0
   -0.2234  -11.8615   16.8874 C   0  0  0  0  0  0  0  0  0  0  0  0
    6.4491   -4.1532   30.1213 C   0  0  0  0  0  0  0  0  0  0  0  0
    5.7060   -4.4340   27.4975 C   0  0  0  0  0  0  0  0  0  0  0  0
    1.1818   -5.6612   28.8399 C   0  0  0  0  0  0  0  0  0  0  0  0
   -1.2067   -7.3287   17.7772 C   0  0  0  0  0  0  0  0  0  0  0  0
   -0.0206  -10.5585   16.6210 C   0  0  0  0  0  0  0  0  0  0  0  0
    0.3696  -12.7626   16.2169 O   0  0  0  0  0  0  0  0  0  0  0  0
   -0.6895   -9.5676   17.3297 C   0  0  0  0  0  0  0  0  0  0  0  0
    0.8388   -5.8417   27.5264 C   0  0  0  0  0  0  0  0  0  0  0  0
   -2.0709   -7.6637   18.7817 C   0  0  0  0  0  0  0  0  0  0  0  0
   -0.5279   -8.2168   17.0717 C   0  0  0  0  0  0  0  0  0  0  0  0
    6.9694   -4.0191   27.8190 C   0  0  0  0  0  0  0  0  0  0  0  0
    5.1733   -4.5469   29.8123 C   0  0  0  0  0  0  0  0  0  0  0  0
   -1.7508  -11.3016   18.6072 C   0  0  0  0  0  0  0  0  0  0  0  0
    1.7497   -5.6771   26.4971 C   0  0  0  0  0  0  0  0  0  0  0  0
   -1.5799   -9.9322   18.3468 C   0  0  0  0  0  0  0  0  0  0  0  0
   -1.0871  -12.2214   17.8851 C   0  0  0  0  0  0  0  0  0  0  0  0
   -2.2706   -8.9669   19.0691 C   0  0  0  0  0  0  0  0  0  0  0  0
    3.0279   -5.3073   26.8197 C   0  0  0  0  0  0  0  0  0  0  0  0
    7.3282   -3.8948   29.1186 C   0  0  0  0  0  0  0  0  0  0  0  0
  1  3  4  0
  1  7  4  0
  2  3  1  0
  2  6  4  0
  2 16  4  0
  3 22  4  0
  4  9  4  0
  4 10  1  0
  4 20  4  0
  5 16  4  0
  5 23  4  0
  6 15  4  0
  7 12  4  0
  8 13  4  0
  8 14  4  0
  9 11  4  0
 11 14  4  0
 11 19  4  0
 12 18  4  0
 13 21  4  0
 15 23  4  0
 17 19  4  0
 17 20  4  0
 18 22  4  0
 19 21  4  0
M  END
$$$$

 Created by Python create_sdf_string function

 23 25  0  0  0  0  0  0  0  0999 V2000
    2.4610   -5.3070   29.1240 C   0  0  0  0  0  0  0  0  0  0  0  0
    4.7710   -4.6952   28.4803 C   0  0  0  0  0  0  0  0  0  0  0  0
    3.4047   -5.1087   28.1314 C   0  0  0  0  0  0  0  0  0  0  0  0
   -0.2234  -11.8615   16.8874 C   0  0  0  0  0  0  0  0  0  0  0  0
    6.4491   -4.1532   30.1213 C   0  0  0  0  0  0  0  0  0  0  0  0
    5.7060   -4.4340   27.4975 C   0  0  0  0  0  0  0  0  0  0  0  0
    1.1818   -5.6612   28.8399 C   0  0  0  0  0  0  0  0  0  0  0  0
   -1.2067   -7.3287   17.7772 C   0  0  0  0  0  0  0  0  0  0  0  0
   -0.0206  -10.5585   16.6210 C   0  0  0  0  0  0  0  0  0  0  0  0
    0.3696  -12.7626   16.2169 O   0  0  0  0  0  0  0  0  0  0  0  0
   -0.6895   -9.5676   17.3297 C   0  0  0  0  0  0  0  0  0  0  0  0
    0.8388   -5.8417   27.5264 C   0  0  0  0  0  0  0  0  0  0  0  0
   -2.0709   -7.6637   18.7817 C   0  0  0  0  0  0  0  0  0  0  0  0
   -0.5279   -8.2168   17.0717 C   0  0  0  0  0  0  0  0  0  0  0  0
    6.9694   -4.0191   27.8190 C   0  0  0  0  0  0  0  0  0  0  0  0
    5.1733   -4.5469   29.8123 C   0  0  0  0  0  0  0  0  0  0  0  0
   -1.7508  -11.3016   18.6072 C   0  0  0  0  0  0  0  0  0  0  0  0
    1.7497   -5.6771   26.4971 C   0  0  0  0  0  0  0  0  0  0  0  0
   -1.5799   -9.9322   18.3468 C   0  0  0  0  0  0  0  0  0  0  0  0
   -1.0871  -12.2214   17.8851 C   0  0  0  0  0  0  0  0  0  0  0  0
   -2.2706   -8.9669   19.0691 C   0  0  0  0  0  0  0  0  0  0  0  0
    3.0279   -5.3073   26.8197 C   0  0  0  0  0  0  0  0  0  0  0  0
    7.3282   -3.8948   29.1186 C   0  0  0  0  0  0  0  0  0  0  0  0
  1  3  4  0
  1  7  4  0
  2  3  1  0
  2  6  4  0
  2 16  4  0
  3 22  4  0
  4  9  4  0
  4 10  1  0
  4 20  4  0
  5 16  4  0
  5 23  4  0
  6 15  4  0
  7 12  4  0
  8 13  4  0
  8 14  4  0
  9 11  4  0
 11 14  4  0
 11 19  4  0
 12 18  4  0
 13 21  4  0
 15 23  4  0
 17 19  4  0
 17 20  4  0
 18 22  4  0
 19 21  4  0
M  END
$$$$

 Created by Python create_sdf_string function

 23 25  0  0  0  0  0  0  0  0999 V2000
    2.4610   -5.3070   29.1240 C   0  0  0  0  0  0  0  0  0  0  0  0
    4.7710   -4.6952   28.4803 C   0  0  0  0  0  0  0  0  0  0  0  0
    3.4047   -5.1087   28.1314 C   0  0  0  0  0  0  0  0  0  0  0  0
   -0.2234  -11.8615   16.8874 C   0  0  0  0  0  0  0  0  0  0  0  0
    6.4491   -4.1532   30.1213 C   0  0  0  0  0  0  0  0  0  0  0  0
    5.7060   -4.4340   27.4975 C   0  0  0  0  0  0  0  0  0  0  0  0
    1.1818   -5.6612   28.8399 C   0  0  0  0  0  0  0  0  0  0  0  0
   -1.2067   -7.3287   17.7772 C   0  0  0  0  0  0  0  0  0  0  0  0
   -0.0206  -10.5585   16.6210 C   0  0  0  0  0  0  0  0  0  0  0  0
    0.3696  -12.7626   16.2169 O   0  0  0  0  0  0  0  0  0  0  0  0
   -0.6895   -9.5676   17.3297 C   0  0  0  0  0  0  0  0  0  0  0  0
    0.8388   -5.8417   27.5264 C   0  0  0  0  0  0  0  0  0  0  0  0
   -2.0709   -7.6637   18.7817 C   0  0  0  0  0  0  0  0  0  0  0  0
   -0.5279   -8.2168   17.0717 C   0  0  0  0  0  0  0  0  0  0  0  0
    6.9694   -4.0191   27.8190 C   0  0  0  0  0  0  0  0  0  0  0  0
    5.1733   -4.5469   29.8123 C   0  0  0  0  0  0  0  0  0  0  0  0
   -1.7508  -11.3016   18.6072 C   0  0  0  0  0  0  0  0  0  0  0  0
    1.7497   -5.6771   26.4971 C   0  0  0  0  0  0  0  0  0  0  0  0
   -1.5799   -9.9322   18.3468 C   0  0  0  0  0  0  0  0  0  0  0  0
   -1.0871  -12.2214   17.8851 C   0  0  0  0  0  0  0  0  0  0  0  0
   -2.2706   -8.9669   19.0691 C   0  0  0  0  0  0  0  0  0  0  0  0
    3.0279   -5.3073   26.8197 C   0  0  0  0  0  0  0  0  0  0  0  0
    7.3282   -3.8948   29.1186 C   0  0  0  0  0  0  0  0  0  0  0  0
  1  3  4  0
  1  7  4  0
  2  3  1  0
  2  6  4  0
  2 16  4  0
  3 22  4  0
  4  9  4  0
  4 10  1  0
  4 20  4  0
  5 16  4  0
  5 23  4  0
  6 15  4  0
  7 12  4  0
  8 13  4  0
  8 14  4  0
  9 11  4  0
 11 14  4  0
 11 19  4  0
 12 18  4  0
 13 21  4  0
 15 23  4  0
 17 19  4  0
 17 20  4  0
 18 22  4  0
 19 21  4  0
M  END
$$$$

 Created by Python create_sdf_string function

 23 25  0  0  0  0  0  0  0  0999 V2000
    2.4610   -5.3070   29.1240 C   0  0  0  0  0  0  0  0  0  0  0  0
    4.7710   -4.6952   28.4803 C   0  0  0  0  0  0  0  0  0  0  0  0
    3.4047   -5.1087   28.1314 C   0  0  0  0  0  0  0  0  0  0  0  0
   -0.2234  -11.8615   16.8874 C   0  0  0  0  0  0  0  0  0  0  0  0
    6.4491   -4.1532   30.1213 C   0  0  0  0  0  0  0  0  0  0  0  0
    5.7060   -4.4340   27.4975 C   0  0  0  0  0  0  0  0  0  0  0  0
    1.1818   -5.6612   28.8399 C   0  0  0  0  0  0  0  0  0  0  0  0
   -1.2067   -7.3287   17.7772 C   0  0  0  0  0  0  0  0  0  0  0  0
   -0.0206  -10.5585   16.6210 C   0  0  0  0  0  0  0  0  0  0  0  0
    0.3696  -12.7626   16.2169 O   0  0  0  0  0  0  0  0  0  0  0  0
   -0.6895   -9.5676   17.3297 C   0  0  0  0  0  0  0  0  0  0  0  0
    0.8388   -5.8417   27.5264 C   0  0  0  0  0  0  0  0  0  0  0  0
   -2.0709   -7.6637   18.7817 C   0  0  0  0  0  0  0  0  0  0  0  0
   -0.5279   -8.2168   17.0717 C   0  0  0  0  0  0  0  0  0  0  0  0
    6.9694   -4.0191   27.8190 C   0  0  0  0  0  0  0  0  0  0  0  0
    5.1733   -4.5469   29.8123 C   0  0  0  0  0  0  0  0  0  0  0  0
   -1.7508  -11.3016   18.6072 C   0  0  0  0  0  0  0  0  0  0  0  0
    1.7497   -5.6771   26.4971 C   0  0  0  0  0  0  0  0  0  0  0  0
   -1.5799   -9.9322   18.3468 C   0  0  0  0  0  0  0  0  0  0  0  0
   -1.0871  -12.2214   17.8851 C   0  0  0  0  0  0  0  0  0  0  0  0
   -2.2706   -8.9669   19.0691 C   0  0  0  0  0  0  0  0  0  0  0  0
    3.0279   -5.3073   26.8197 C   0  0  0  0  0  0  0  0  0  0  0  0
    7.3282   -3.8948   29.1186 C   0  0  0  0  0  0  0  0  0  0  0  0
  1  3  4  0
  1  7  4  0
  2  3  1  0
  2  6  4  0
  2 16  4  0
  3 22  4  0
  4  9  4  0
  4 10  1  0
  4 20  4  0
  5 16  4  0
  5 23  4  0
  6 15  4  0
  7 12  4  0
  8 13  4  0
  8 14  4  0
  9 11  4  0
 11 14  4  0
 11 19  4  0
 12 18  4  0
 13 21  4  0
 15 23  4  0
 17 19  4  0
 17 20  4  0
 18 22  4  0
 19 21  4  0
M  END
$$$$

 Created by Python create_sdf_string function

 23 25  0  0  0  0  0  0  0  0999 V2000
    2.4610   -5.3070   29.1240 C   0  0  0  0  0  0  0  0  0  0  0  0
    4.7710   -4.6952   28.4803 C   0  0  0  0  0  0  0  0  0  0  0  0
    3.4047   -5.1087   28.1314 C   0  0  0  0  0  0  0  0  0  0  0  0
   -0.2234  -11.8615   16.8874 C   0  0  0  0  0  0  0  0  0  0  0  0
    6.4491   -4.1532   30.1213 C   0  0  0  0  0  0  0  0  0  0  0  0
    5.7060   -4.4340   27.4975 C   0  0  0  0  0  0  0  0  0  0  0  0
    1.1818   -5.6612   28.8399 C   0  0  0  0  0  0  0  0  0  0  0  0
   -1.2067   -7.3287   17.7772 C   0  0  0  0  0  0  0  0  0  0  0  0
   -0.0206  -10.5585   16.6210 C   0  0  0  0  0  0  0  0  0  0  0  0
    0.3696  -12.7626   16.2169 O   0  0  0  0  0  0  0  0  0  0  0  0
   -0.6895   -9.5676   17.3297 C   0  0  0  0  0  0  0  0  0  0  0  0
    0.8388   -5.8417   27.5264 C   0  0  0  0  0  0  0  0  0  0  0  0
   -2.0709   -7.6637   18.7817 C   0  0  0  0  0  0  0  0  0  0  0  0
   -0.5279   -8.2168   17.0717 C   0  0  0  0  0  0  0  0  0  0  0  0
    6.9694   -4.0191   27.8190 C   0  0  0  0  0  0  0  0  0  0  0  0
    5.1733   -4.5469   29.8123 C   0  0  0  0  0  0  0  0  0  0  0  0
   -1.7508  -11.3016   18.6072 C   0  0  0  0  0  0  0  0  0  0  0  0
    1.7497   -5.6771   26.4971 C   0  0  0  0  0  0  0  0  0  0  0  0
   -1.5799   -9.9322   18.3468 C   0  0  0  0  0  0  0  0  0  0  0  0
   -1.0871  -12.2214   17.8851 C   0  0  0  0  0  0  0  0  0  0  0  0
   -2.2706   -8.9669   19.0691 C   0  0  0  0  0  0  0  0  0  0  0  0
    3.0279   -5.3073   26.8197 C   0  0  0  0  0  0  0  0  0  0  0  0
    7.3282   -3.8948   29.1186 C   0  0  0  0  0  0  0  0  0  0  0  0
  1  3  4  0
  1  7  4  0
  2  3  1  0
  2  6  4  0
  2 16  4  0
  3 22  4  0
  4  9  4  0
  4 10  1  0
  4 20  4  0
  5 16  4  0
  5 23  4  0
  6 15  4  0
  7 12  4  0
  8 13  4  0
  8 14  4  0
  9 11  4  0
 11 14  4  0
 11 19  4  0
 12 18  4  0
 13 21  4  0
 15 23  4  0
 17 19  4  0
 17 20  4  0
 18 22  4  0
 19 21  4  0
M  END
$$$$

 Created by Python create_sdf_string function

 23 25  0  0  0  0  0  0  0  0999 V2000
    2.4610   -5.3070   29.1240 C   0  0  0  0  0  0  0  0  0  0  0  0
    4.7710   -4.6952   28.4803 C   0  0  0  0  0  0  0  0  0  0  0  0
    3.4047   -5.1087   28.1314 C   0  0  0  0  0  0  0  0  0  0  0  0
   -0.2234  -11.8615   16.8874 C   0  0  0  0  0  0  0  0  0  0  0  0
    6.4491   -4.1532   30.1213 C   0  0  0  0  0  0  0  0  0  0  0  0
    5.7060   -4.4340   27.4975 C   0  0  0  0  0  0  0  0  0  0  0  0
    1.1818   -5.6612   28.8399 C   0  0  0  0  0  0  0  0  0  0  0  0
   -1.2067   -7.3287   17.7772 C   0  0  0  0  0  0  0  0  0  0  0  0
   -0.0206  -10.5585   16.6210 C   0  0  0  0  0  0  0  0  0  0  0  0
    0.3696  -12.7626   16.2169 O   0  0  0  0  0  0  0  0  0  0  0  0
   -0.6895   -9.5676   17.3297 C   0  0  0  0  0  0  0  0  0  0  0  0
    0.8388   -5.8417   27.5264 C   0  0  0  0  0  0  0  0  0  0  0  0
   -2.0709   -7.6637   18.7817 C   0  0  0  0  0  0  0  0  0  0  0  0
   -0.5279   -8.2168   17.0717 C   0  0  0  0  0  0  0  0  0  0  0  0
    6.9694   -4.0191   27.8190 C   0  0  0  0  0  0  0  0  0  0  0  0
    5.1733   -4.5469   29.8123 C   0  0  0  0  0  0  0  0  0  0  0  0
   -1.7508  -11.3016   18.6072 C   0  0  0  0  0  0  0  0  0  0  0  0
    1.7497   -5.6771   26.4971 C   0  0  0  0  0  0  0  0  0  0  0  0
   -1.5799   -9.9322   18.3468 C   0  0  0  0  0  0  0  0  0  0  0  0
   -1.0871  -12.2214   17.8851 C   0  0  0  0  0  0  0  0  0  0  0  0
   -2.2706   -8.9669   19.0691 C   0  0  0  0  0  0  0  0  0  0  0  0
    3.0279   -5.3073   26.8197 C   0  0  0  0  0  0  0  0  0  0  0  0
    7.3282   -3.8948   29.1186 C   0  0  0  0  0  0  0  0  0  0  0  0
  1  3  4  0
  1  7  4  0
  2  3  1  0
  2  6  4  0
  2 16  4  0
  3 22  4  0
  4  9  4  0
  4 10  1  0
  4 20  4  0
  5 16  4  0
  5 23  4  0
  6 15  4  0
  7 12  4  0
  8 13  4  0
  8 14  4  0
  9 11  4  0
 11 14  4  0
 11 19  4  0
 12 18  4  0
 13 21  4  0
 15 23  4  0
 17 19  4  0
 17 20  4  0
 18 22  4  0
 19 21  4  0
M  END
$$$$

 Created by Python create_sdf_string function

 23 25  0  0  0  0  0  0  0  0999 V2000
    2.4610   -5.3070   29.1240 C   0  0  0  0  0  0  0  0  0  0  0  0
    4.7710   -4.6952   28.4803 C   0  0  0  0  0  0  0  0  0  0  0  0
    3.4047   -5.1087   28.1314 C   0  0  0  0  0  0  0  0  0  0  0  0
   -0.2234  -11.8615   16.8874 C   0  0  0  0  0  0  0  0  0  0  0  0
    6.4491   -4.1532   30.1213 C   0  0  0  0  0  0  0  0  0  0  0  0
    5.7060   -4.4340   27.4975 C   0  0  0  0  0  0  0  0  0  0  0  0
    1.1818   -5.6612   28.8399 C   0  0  0  0  0  0  0  0  0  0  0  0
   -1.2067   -7.3287   17.7772 C   0  0  0  0  0  0  0  0  0  0  0  0
   -0.0206  -10.5585   16.6210 C   0  0  0  0  0  0  0  0  0  0  0  0
    0.3696  -12.7626   16.2169 O   0  0  0  0  0  0  0  0  0  0  0  0
   -0.6895   -9.5676   17.3297 C   0  0  0  0  0  0  0  0  0  0  0  0
    0.8388   -5.8417   27.5264 C   0  0  0  0  0  0  0  0  0  0  0  0
   -2.0709   -7.6637   18.7817 C   0  0  0  0  0  0  0  0  0  0  0  0
   -0.5279   -8.2168   17.0717 C   0  0  0  0  0  0  0  0  0  0  0  0
    6.9694   -4.0191   27.8190 C   0  0  0  0  0  0  0  0  0  0  0  0
    5.1733   -4.5469   29.8123 C   0  0  0  0  0  0  0  0  0  0  0  0
   -1.7508  -11.3016   18.6072 C   0  0  0  0  0  0  0  0  0  0  0  0
    1.7497   -5.6771   26.4971 C   0  0  0  0  0  0  0  0  0  0  0  0
   -1.5799   -9.9322   18.3468 C   0  0  0  0  0  0  0  0  0  0  0  0
   -1.0871  -12.2214   17.8851 C   0  0  0  0  0  0  0  0  0  0  0  0
   -2.2706   -8.9669   19.0691 C   0  0  0  0  0  0  0  0  0  0  0  0
    3.0279   -5.3073   26.8197 C   0  0  0  0  0  0  0  0  0  0  0  0
    7.3282   -3.8948   29.1186 C   0  0  0  0  0  0  0  0  0  0  0  0
  1  3  4  0
  1  7  4  0
  2  3  1  0
  2  6  4  0
  2 16  4  0
  3 22  4  0
  4  9  4  0
  4 10  1  0
  4 20  4  0
  5 16  4  0
  5 23  4  0
  6 15  4  0
  7 12  4  0
  8 13  4  0
  8 14  4  0
  9 11  4  0
 11 14  4  0
 11 19  4  0
 12 18  4  0
 13 21  4  0
 15 23  4  0
 17 19  4  0
 17 20  4  0
 18 22  4  0
 19 21  4  0
M  END
$$$$

 Created by Python create_sdf_string function

 23 25  0  0  0  0  0  0  0  0999 V2000
    2.4610   -5.3070   29.1240 C   0  0  0  0  0  0  0  0  0  0  0  0
    4.7710   -4.6952   28.4803 C   0  0  0  0  0  0  0  0  0  0  0  0
    3.4047   -5.1087   28.1314 C   0  0  0  0  0  0  0  0  0  0  0  0
   -0.2234  -11.8615   16.8874 C   0  0  0  0  0  0  0  0  0  0  0  0
    6.4491   -4.1532   30.1213 C   0  0  0  0  0  0  0  0  0  0  0  0
    5.7060   -4.4340   27.4975 C   0  0  0  0  0  0  0  0  0  0  0  0
    1.1818   -5.6612   28.8399 C   0  0  0  0  0  0  0  0  0  0  0  0
   -1.2067   -7.3287   17.7772 C   0  0  0  0  0  0  0  0  0  0  0  0
   -0.0206  -10.5585   16.6210 C   0  0  0  0  0  0  0  0  0  0  0  0
    0.3696  -12.7626   16.2169 O   0  0  0  0  0  0  0  0  0  0  0  0
   -0.6895   -9.5676   17.3297 C   0  0  0  0  0  0  0  0  0  0  0  0
    0.8388   -5.8417   27.5264 C   0  0  0  0  0  0  0  0  0  0  0  0
   -2.0709   -7.6637   18.7817 C   0  0  0  0  0  0  0  0  0  0  0  0
   -0.5279   -8.2168   17.0717 C   0  0  0  0  0  0  0  0  0  0  0  0
    6.9694   -4.0191   27.8190 C   0  0  0  0  0  0  0  0  0  0  0  0
    5.1733   -4.5469   29.8123 C   0  0  0  0  0  0  0  0  0  0  0  0
   -1.7508  -11.3016   18.6072 C   0  0  0  0  0  0  0  0  0  0  0  0
    1.7497   -5.6771   26.4971 C   0  0  0  0  0  0  0  0  0  0  0  0
   -1.5799   -9.9322   18.3468 C   0  0  0  0  0  0  0  0  0  0  0  0
   -1.0871  -12.2214   17.8851 C   0  0  0  0  0  0  0  0  0  0  0  0
   -2.2706   -8.9669   19.0691 C   0  0  0  0  0  0  0  0  0  0  0  0
    3.0279   -5.3073   26.8197 C   0  0  0  0  0  0  0  0  0  0  0  0
    7.3282   -3.8948   29.1186 C   0  0  0  0  0  0  0  0  0  0  0  0
  1  3  4  0
  1  7  4  0
  2  3  1  0
  2  6  4  0
  2 16  4  0
  3 22  4  0
  4  9  4  0
  4 10  1  0
  4 20  4  0
  5 16  4  0
  5 23  4  0
  6 15  4  0
  7 12  4  0
  8 13  4  0
  8 14  4  0
  9 11  4  0
 11 14  4  0
 11 19  4  0
 12 18  4  0
 13 21  4  0
 15 23  4  0
 17 19  4  0
 17 20  4  0
 18 22  4  0
 19 21  4  0
M  END
$$$$

 Created by Python create_sdf_string function

 23 25  0  0  0  0  0  0  0  0999 V2000
    2.4610   -5.3070   29.1240 C   0  0  0  0  0  0  0  0  0  0  0  0
    4.7710   -4.6952   28.4803 C   0  0  0  0  0  0  0  0  0  0  0  0
    3.4047   -5.1087   28.1314 C   0  0  0  0  0  0  0  0  0  0  0  0
   -0.2234  -11.8615   16.8874 C   0  0  0  0  0  0  0  0  0  0  0  0
    6.4491   -4.1532   30.1213 C   0  0  0  0  0  0  0  0  0  0  0  0
    5.7060   -4.4340   27.4975 C   0  0  0  0  0  0  0  0  0  0  0  0
    1.1818   -5.6612   28.8399 C   0  0  0  0  0  0  0  0  0  0  0  0
   -1.2067   -7.3287   17.7772 C   0  0  0  0  0  0  0  0  0  0  0  0
   -0.0206  -10.5585   16.6210 C   0  0  0  0  0  0  0  0  0  0  0  0
    0.3696  -12.7626   16.2169 O   0  0  0  0  0  0  0  0  0  0  0  0
   -0.6895   -9.5676   17.3297 C   0  0  0  0  0  0  0  0  0  0  0  0
    0.8388   -5.8417   27.5264 C   0  0  0  0  0  0  0  0  0  0  0  0
   -2.0709   -7.6637   18.7817 C   0  0  0  0  0  0  0  0  0  0  0  0
   -0.5279   -8.2168   17.0717 C   0  0  0  0  0  0  0  0  0  0  0  0
    6.9694   -4.0191   27.8190 C   0  0  0  0  0  0  0  0  0  0  0  0
    5.1733   -4.5469   29.8123 C   0  0  0  0  0  0  0  0  0  0  0  0
   -1.7508  -11.3016   18.6072 C   0  0  0  0  0  0  0  0  0  0  0  0
    1.7497   -5.6771   26.4971 C   0  0  0  0  0  0  0  0  0  0  0  0
   -1.5799   -9.9322   18.3468 C   0  0  0  0  0  0  0  0  0  0  0  0
   -1.0871  -12.2214   17.8851 C   0  0  0  0  0  0  0  0  0  0  0  0
   -2.2706   -8.9669   19.0691 C   0  0  0  0  0  0  0  0  0  0  0  0
    3.0279   -5.3073   26.8197 C   0  0  0  0  0  0  0  0  0  0  0  0
    7.3282   -3.8948   29.1186 C   0  0  0  0  0  0  0  0  0  0  0  0
  1  3  4  0
  1  7  4  0
  2  3  1  0
  2  6  4  0
  2 16  4  0
  3 22  4  0
  4  9  4  0
  4 10  1  0
  4 20  4  0
  5 16  4  0
  5 23  4  0
  6 15  4  0
  7 12  4  0
  8 13  4  0
  8 14  4  0
  9 11  4  0
 11 14  4  0
 11 19  4  0
 12 18  4  0
 13 21  4  0
 15 23  4  0
 17 19  4  0
 17 20  4  0
 18 22  4  0
 19 21  4  0
M  END
$$$$

 Created by Python create_sdf_string function

 23 25  0  0  0  0  0  0  0  0999 V2000
    2.4610   -5.3070   29.1240 C   0  0  0  0  0  0  0  0  0  0  0  0
    4.7710   -4.6952   28.4803 C   0  0  0  0  0  0  0  0  0  0  0  0
    3.4047   -5.1087   28.1314 C   0  0  0  0  0  0  0  0  0  0  0  0
   -0.2234  -11.8615   16.8874 C   0  0  0  0  0  0  0  0  0  0  0  0
    6.4491   -4.1532   30.1213 C   0  0  0  0  0  0  0  0  0  0  0  0
    5.7060   -4.4340   27.4975 C   0  0  0  0  0  0  0  0  0  0  0  0
    1.1818   -5.6612   28.8399 C   0  0  0  0  0  0  0  0  0  0  0  0
   -1.2067   -7.3287   17.7772 C   0  0  0  0  0  0  0  0  0  0  0  0
   -0.0206  -10.5585   16.6210 C   0  0  0  0  0  0  0  0  0  0  0  0
    0.3696  -12.7626   16.2169 O   0  0  0  0  0  0  0  0  0  0  0  0
   -0.6895   -9.5676   17.3297 C   0  0  0  0  0  0  0  0  0  0  0  0
    0.8388   -5.8417   27.5264 C   0  0  0  0  0  0  0  0  0  0  0  0
   -2.0709   -7.6637   18.7817 C   0  0  0  0  0  0  0  0  0  0  0  0
   -0.5279   -8.2168   17.0717 C   0  0  0  0  0  0  0  0  0  0  0  0
    6.9694   -4.0191   27.8190 C   0  0  0  0  0  0  0  0  0  0  0  0
    5.1733   -4.5469   29.8123 C   0  0  0  0  0  0  0  0  0  0  0  0
   -1.7508  -11.3016   18.6072 C   0  0  0  0  0  0  0  0  0  0  0  0
    1.7497   -5.6771   26.4971 C   0  0  0  0  0  0  0  0  0  0  0  0
   -1.5799   -9.9322   18.3468 C   0  0  0  0  0  0  0  0  0  0  0  0
   -1.0871  -12.2214   17.8851 C   0  0  0  0  0  0  0  0  0  0  0  0
   -2.2706   -8.9669   19.0691 C   0  0  0  0  0  0  0  0  0  0  0  0
    3.0279   -5.3073   26.8197 C   0  0  0  0  0  0  0  0  0  0  0  0
    7.3282   -3.8948   29.1186 C   0  0  0  0  0  0  0  0  0  0  0  0
  1  3  4  0
  1  7  4  0
  2  3  1  0
  2  6  4  0
  2 16  4  0
  3 22  4  0
  4  9  4  0
  4 10  1  0
  4 20  4  0
  5 16  4  0
  5 23  4  0
  6 15  4  0
  7 12  4  0
  8 13  4  0
  8 14  4  0
  9 11  4  0
 11 14  4  0
 11 19  4  0
 12 18  4  0
 13 21  4  0
 15 23  4  0
 17 19  4  0
 17 20  4  0
 18 22  4  0
 19 21  4  0
M  END
$$$$

 Created by Python create_sdf_string function

 23 25  0  0  0  0  0  0  0  0999 V2000
    2.4610   -5.3070   29.1240 C   0  0  0  0  0  0  0  0  0  0  0  0
    4.7710   -4.6952   28.4803 C   0  0  0  0  0  0  0  0  0  0  0  0
    3.4047   -5.1087   28.1314 C   0  0  0  0  0  0  0  0  0  0  0  0
   -0.2234  -11.8615   16.8874 C   0  0  0  0  0  0  0  0  0  0  0  0
    6.4491   -4.1532   30.1213 C   0  0  0  0  0  0  0  0  0  0  0  0
    5.7060   -4.4340   27.4975 C   0  0  0  0  0  0  0  0  0  0  0  0
    1.1818   -5.6612   28.8399 C   0  0  0  0  0  0  0  0  0  0  0  0
   -1.2067   -7.3287   17.7772 C   0  0  0  0  0  0  0  0  0  0  0  0
   -0.0206  -10.5585   16.6210 C   0  0  0  0  0  0  0  0  0  0  0  0
    0.3696  -12.7626   16.2169 O   0  0  0  0  0  0  0  0  0  0  0  0
   -0.6895   -9.5676   17.3297 C   0  0  0  0  0  0  0  0  0  0  0  0
    0.8388   -5.8417   27.5264 C   0  0  0  0  0  0  0  0  0  0  0  0
   -2.0709   -7.6637   18.7817 C   0  0  0  0  0  0  0  0  0  0  0  0
   -0.5279   -8.2168   17.0717 C   0  0  0  0  0  0  0  0  0  0  0  0
    6.9694   -4.0191   27.8190 C   0  0  0  0  0  0  0  0  0  0  0  0
    5.1733   -4.5469   29.8123 C   0  0  0  0  0  0  0  0  0  0  0  0
   -1.7508  -11.3016   18.6072 C   0  0  0  0  0  0  0  0  0  0  0  0
    1.7497   -5.6771   26.4971 C   0  0  0  0  0  0  0  0  0  0  0  0
   -1.5799   -9.9322   18.3468 C   0  0  0  0  0  0  0  0  0  0  0  0
   -1.0871  -12.2214   17.8851 C   0  0  0  0  0  0  0  0  0  0  0  0
   -2.2706   -8.9669   19.0691 C   0  0  0  0  0  0  0  0  0  0  0  0
    3.0279   -5.3073   26.8197 C   0  0  0  0  0  0  0  0  0  0  0  0
    7.3282   -3.8948   29.1186 C   0  0  0  0  0  0  0  0  0  0  0  0
  1  3  4  0
  1  7  4  0
  2  3  1  0
  2  6  4  0
  2 16  4  0
  3 22  4  0
  4  9  4  0
  4 10  1  0
  4 20  4  0
  5 16  4  0
  5 23  4  0
  6 15  4  0
  7 12  4  0
  8 13  4  0
  8 14  4  0
  9 11  4  0
 11 14  4  0
 11 19  4  0
 12 18  4  0
 13 21  4  0
 15 23  4  0
 17 19  4  0
 17 20  4  0
 18 22  4  0
 19 21  4  0
M  END
$$$$

 Created by Python create_sdf_string function

 23 25  0  0  0  0  0  0  0  0999 V2000
    2.4610   -5.3070   29.1240 C   0  0  0  0  0  0  0  0  0  0  0  0
    4.7710   -4.6952   28.4803 C   0  0  0  0  0  0  0  0  0  0  0  0
    3.4047   -5.1087   28.1314 C   0  0  0  0  0  0  0  0  0  0  0  0
   -0.2234  -11.8615   16.8874 C   0  0  0  0  0  0  0  0  0  0  0  0
    6.4491   -4.1532   30.1213 C   0  0  0  0  0  0  0  0  0  0  0  0
    5.7060   -4.4340   27.4975 C   0  0  0  0  0  0  0  0  0  0  0  0
    1.1818   -5.6612   28.8399 C   0  0  0  0  0  0  0  0  0  0  0  0
   -1.2067   -7.3287   17.7772 C   0  0  0  0  0  0  0  0  0  0  0  0
   -0.0206  -10.5585   16.6210 C   0  0  0  0  0  0  0  0  0  0  0  0
    0.3696  -12.7626   16.2169 O   0  0  0  0  0  0  0  0  0  0  0  0
   -0.6895   -9.5676   17.3297 C   0  0  0  0  0  0  0  0  0  0  0  0
    0.8388   -5.8417   27.5264 C   0  0  0  0  0  0  0  0  0  0  0  0
   -2.0709   -7.6637   18.7817 C   0  0  0  0  0  0  0  0  0  0  0  0
   -0.5279   -8.2168   17.0717 C   0  0  0  0  0  0  0  0  0  0  0  0
    6.9694   -4.0191   27.8190 C   0  0  0  0  0  0  0  0  0  0  0  0
    5.1733   -4.5469   29.8123 C   0  0  0  0  0  0  0  0  0  0  0  0
   -1.7508  -11.3016   18.6072 C   0  0  0  0  0  0  0  0  0  0  0  0
    1.7497   -5.6771   26.4971 C   0  0  0  0  0  0  0  0  0  0  0  0
   -1.5799   -9.9322   18.3468 C   0  0  0  0  0  0  0  0  0  0  0  0
   -1.0871  -12.2214   17.8851 C   0  0  0  0  0  0  0  0  0  0  0  0
   -2.2706   -8.9669   19.0691 C   0  0  0  0  0  0  0  0  0  0  0  0
    3.0279   -5.3073   26.8197 C   0  0  0  0  0  0  0  0  0  0  0  0
    7.3282   -3.8948   29.1186 C   0  0  0  0  0  0  0  0  0  0  0  0
  1  3  4  0
  1  7  4  0
  2  3  1  0
  2  6  4  0
  2 16  4  0
  3 22  4  0
  4  9  4  0
  4 10  1  0
  4 20  4  0
  5 16  4  0
  5 23  4  0
  6 15  4  0
  7 12  4  0
  8 13  4  0
  8 14  4  0
  9 11  4  0
 11 14  4  0
 11 19  4  0
 12 18  4  0
 13 21  4  0
 15 23  4  0
 17 19  4  0
 17 20  4  0
 18 22  4  0
 19 21  4  0
M  END
$$$$

 Created by Python create_sdf_string function

 23 25  0  0  0  0  0  0  0  0999 V2000
    2.4610   -5.3070   29.1240 C   0  0  0  0  0  0  0  0  0  0  0  0
    4.7710   -4.6952   28.4803 C   0  0  0  0  0  0  0  0  0  0  0  0
    3.4047   -5.1087   28.1314 C   0  0  0  0  0  0  0  0  0  0  0  0
   -0.2234  -11.8615   16.8874 C   0  0  0  0  0  0  0  0  0  0  0  0
    6.4491   -4.1532   30.1213 C   0  0  0  0  0  0  0  0  0  0  0  0
    5.7060   -4.4340   27.4975 C   0  0  0  0  0  0  0  0  0  0  0  0
    1.1818   -5.6612   28.8399 C   0  0  0  0  0  0  0  0  0  0  0  0
   -1.2067   -7.3287   17.7772 C   0  0  0  0  0  0  0  0  0  0  0  0
   -0.0206  -10.5585   16.6210 C   0  0  0  0  0  0  0  0  0  0  0  0
    0.3696  -12.7626   16.2169 O   0  0  0  0  0  0  0  0  0  0  0  0
   -0.6895   -9.5676   17.3297 C   0  0  0  0  0  0  0  0  0  0  0  0
    0.8388   -5.8417   27.5264 C   0  0  0  0  0  0  0  0  0  0  0  0
   -2.0709   -7.6637   18.7817 C   0  0  0  0  0  0  0  0  0  0  0  0
   -0.5279   -8.2168   17.0717 C   0  0  0  0  0  0  0  0  0  0  0  0
    6.9694   -4.0191   27.8190 C   0  0  0  0  0  0  0  0  0  0  0  0
    5.1733   -4.5469   29.8123 C   0  0  0  0  0  0  0  0  0  0  0  0
   -1.7508  -11.3016   18.6072 C   0  0  0  0  0  0  0  0  0  0  0  0
    1.7497   -5.6771   26.4971 C   0  0  0  0  0  0  0  0  0  0  0  0
   -1.5799   -9.9322   18.3468 C   0  0  0  0  0  0  0  0  0  0  0  0
   -1.0871  -12.2214   17.8851 C   0  0  0  0  0  0  0  0  0  0  0  0
   -2.2706   -8.9669   19.0691 C   0  0  0  0  0  0  0  0  0  0  0  0
    3.0279   -5.3073   26.8197 C   0  0  0  0  0  0  0  0  0  0  0  0
    7.3282   -3.8948   29.1186 C   0  0  0  0  0  0  0  0  0  0  0  0
  1  3  4  0
  1  7  4  0
  2  3  1  0
  2  6  4  0
  2 16  4  0
  3 22  4  0
  4  9  4  0
  4 10  1  0
  4 20  4  0
  5 16  4  0
  5 23  4  0
  6 15  4  0
  7 12  4  0
  8 13  4  0
  8 14  4  0
  9 11  4  0
 11 14  4  0
 11 19  4  0
 12 18  4  0
 13 21  4  0
 15 23  4  0
 17 19  4  0
 17 20  4  0
 18 22  4  0
 19 21  4  0
M  END
$$$$

 Created by Python create_sdf_string function

 23 25  0  0  0  0  0  0  0  0999 V2000
    2.4610   -5.3070   29.1240 C   0  0  0  0  0  0  0  0  0  0  0  0
    4.7710   -4.6952   28.4803 C   0  0  0  0  0  0  0  0  0  0  0  0
    3.4047   -5.1087   28.1314 C   0  0  0  0  0  0  0  0  0  0  0  0
   -0.2234  -11.8615   16.8874 C   0  0  0  0  0  0  0  0  0  0  0  0
    6.4491   -4.1532   30.1213 C   0  0  0  0  0  0  0  0  0  0  0  0
    5.7060   -4.4340   27.4975 C   0  0  0  0  0  0  0  0  0  0  0  0
    1.1818   -5.6612   28.8399 C   0  0  0  0  0  0  0  0  0  0  0  0
   -1.2067   -7.3287   17.7772 C   0  0  0  0  0  0  0  0  0  0  0  0
   -0.0206  -10.5585   16.6210 C   0  0  0  0  0  0  0  0  0  0  0  0
    0.3696  -12.7626   16.2169 O   0  0  0  0  0  0  0  0  0  0  0  0
   -0.6895   -9.5676   17.3297 C   0  0  0  0  0  0  0  0  0  0  0  0
    0.8388   -5.8417   27.5264 C   0  0  0  0  0  0  0  0  0  0  0  0
   -2.0709   -7.6637   18.7817 C   0  0  0  0  0  0  0  0  0  0  0  0
   -0.5279   -8.2168   17.0717 C   0  0  0  0  0  0  0  0  0  0  0  0
    6.9694   -4.0191   27.8190 C   0  0  0  0  0  0  0  0  0  0  0  0
    5.1733   -4.5469   29.8123 C   0  0  0  0  0  0  0  0  0  0  0  0
   -1.7508  -11.3016   18.6072 C   0  0  0  0  0  0  0  0  0  0  0  0
    1.7497   -5.6771   26.4971 C   0  0  0  0  0  0  0  0  0  0  0  0
   -1.5799   -9.9322   18.3468 C   0  0  0  0  0  0  0  0  0  0  0  0
   -1.0871  -12.2214   17.8851 C   0  0  0  0  0  0  0  0  0  0  0  0
   -2.2706   -8.9669   19.0691 C   0  0  0  0  0  0  0  0  0  0  0  0
    3.0279   -5.3073   26.8197 C   0  0  0  0  0  0  0  0  0  0  0  0
    7.3282   -3.8948   29.1186 C   0  0  0  0  0  0  0  0  0  0  0  0
  1  3  4  0
  1  7  4  0
  2  3  1  0
  2  6  4  0
  2 16  4  0
  3 22  4  0
  4  9  4  0
  4 10  1  0
  4 20  4  0
  5 16  4  0
  5 23  4  0
  6 15  4  0
  7 12  4  0
  8 13  4  0
  8 14  4  0
  9 11  4  0
 11 14  4  0
 11 19  4  0
 12 18  4  0
 13 21  4  0
 15 23  4  0
 17 19  4  0
 17 20  4  0
 18 22  4  0
 19 21  4  0
M  END
$$$$

 Created by Python create_sdf_string function

 23 25  0  0  0  0  0  0  0  0999 V2000
    2.4610   -5.3070   29.1240 C   0  0  0  0  0  0  0  0  0  0  0  0
    4.7710   -4.6952   28.4803 C   0  0  0  0  0  0  0  0  0  0  0  0
    3.4047   -5.1087   28.1314 C   0  0  0  0  0  0  0  0  0  0  0  0
   -0.2234  -11.8615   16.8874 C   0  0  0  0  0  0  0  0  0  0  0  0
    6.4491   -4.1532   30.1213 C   0  0  0  0  0  0  0  0  0  0  0  0
    5.7060   -4.4340   27.4975 C   0  0  0  0  0  0  0  0  0  0  0  0
    1.1818   -5.6612   28.8399 C   0  0  0  0  0  0  0  0  0  0  0  0
   -1.2067   -7.3287   17.7772 C   0  0  0  0  0  0  0  0  0  0  0  0
   -0.0206  -10.5585   16.6210 C   0  0  0  0  0  0  0  0  0  0  0  0
    0.3696  -12.7626   16.2169 O   0  0  0  0  0  0  0  0  0  0  0  0
   -0.6895   -9.5676   17.3297 C   0  0  0  0  0  0  0  0  0  0  0  0
    0.8388   -5.8417   27.5264 C   0  0  0  0  0  0  0  0  0  0  0  0
   -2.0709   -7.6637   18.7817 C   0  0  0  0  0  0  0  0  0  0  0  0
   -0.5279   -8.2168   17.0717 C   0  0  0  0  0  0  0  0  0  0  0  0
    6.9694   -4.0191   27.8190 C   0  0  0  0  0  0  0  0  0  0  0  0
    5.1733   -4.5469   29.8123 C   0  0  0  0  0  0  0  0  0  0  0  0
   -1.7508  -11.3016   18.6072 C   0  0  0  0  0  0  0  0  0  0  0  0
    1.7497   -5.6771   26.4971 C   0  0  0  0  0  0  0  0  0  0  0  0
   -1.5799   -9.9322   18.3468 C   0  0  0  0  0  0  0  0  0  0  0  0
   -1.0871  -12.2214   17.8851 C   0  0  0  0  0  0  0  0  0  0  0  0
   -2.2706   -8.9669   19.0691 C   0  0  0  0  0  0  0  0  0  0  0  0
    3.0279   -5.3073   26.8197 C   0  0  0  0  0  0  0  0  0  0  0  0
    7.3282   -3.8948   29.1186 C   0  0  0  0  0  0  0  0  0  0  0  0
  1  3  4  0
  1  7  4  0
  2  3  1  0
  2  6  4  0
  2 16  4  0
  3 22  4  0
  4  9  4  0
  4 10  1  0
  4 20  4  0
  5 16  4  0
  5 23  4  0
  6 15  4  0
  7 12  4  0
  8 13  4  0
  8 14  4  0
  9 11  4  0
 11 14  4  0
 11 19  4  0
 12 18  4  0
 13 21  4  0
 15 23  4  0
 17 19  4  0
 17 20  4  0
 18 22  4  0
 19 21  4  0
M  END
$$$$

 Created by Python create_sdf_string function

 23 25  0  0  0  0  0  0  0  0999 V2000
    2.4610   -5.3070   29.1240 C   0  0  0  0  0  0  0  0  0  0  0  0
    4.7710   -4.6952   28.4803 C   0  0  0  0  0  0  0  0  0  0  0  0
    3.4047   -5.1087   28.1314 C   0  0  0  0  0  0  0  0  0  0  0  0
   -0.2234  -11.8615   16.8874 C   0  0  0  0  0  0  0  0  0  0  0  0
    6.4491   -4.1532   30.1213 C   0  0  0  0  0  0  0  0  0  0  0  0
    5.7060   -4.4340   27.4975 C   0  0  0  0  0  0  0  0  0  0  0  0
    1.1818   -5.6612   28.8399 C   0  0  0  0  0  0  0  0  0  0  0  0
   -1.2067   -7.3287   17.7772 C   0  0  0  0  0  0  0  0  0  0  0  0
   -0.0206  -10.5585   16.6210 C   0  0  0  0  0  0  0  0  0  0  0  0
    0.3696  -12.7626   16.2169 O   0  0  0  0  0  0  0  0  0  0  0  0
   -0.6895   -9.5676   17.3297 C   0  0  0  0  0  0  0  0  0  0  0  0
    0.8388   -5.8417   27.5264 C   0  0  0  0  0  0  0  0  0  0  0  0
   -2.0709   -7.6637   18.7817 C   0  0  0  0  0  0  0  0  0  0  0  0
   -0.5279   -8.2168   17.0717 C   0  0  0  0  0  0  0  0  0  0  0  0
    6.9694   -4.0191   27.8190 C   0  0  0  0  0  0  0  0  0  0  0  0
    5.1733   -4.5469   29.8123 C   0  0  0  0  0  0  0  0  0  0  0  0
   -1.7508  -11.3016   18.6072 C   0  0  0  0  0  0  0  0  0  0  0  0
    1.7497   -5.6771   26.4971 C   0  0  0  0  0  0  0  0  0  0  0  0
   -1.5799   -9.9322   18.3468 C   0  0  0  0  0  0  0  0  0  0  0  0
   -1.0871  -12.2214   17.8851 C   0  0  0  0  0  0  0  0  0  0  0  0
   -2.2706   -8.9669   19.0691 C   0  0  0  0  0  0  0  0  0  0  0  0
    3.0279   -5.3073   26.8197 C   0  0  0  0  0  0  0  0  0  0  0  0
    7.3282   -3.8948   29.1186 C   0  0  0  0  0  0  0  0  0  0  0  0
  1  3  4  0
  1  7  4  0
  2  3  1  0
  2  6  4  0
  2 16  4  0
  3 22  4  0
  4  9  4  0
  4 10  1  0
  4 20  4  0
  5 16  4  0
  5 23  4  0
  6 15  4  0
  7 12  4  0
  8 13  4  0
  8 14  4  0
  9 11  4  0
 11 14  4  0
 11 19  4  0
 12 18  4  0
 13 21  4  0
 15 23  4  0
 17 19  4  0
 17 20  4  0
 18 22  4  0
 19 21  4  0
M  END
$$$$

 Created by Python create_sdf_string function

 23 25  0  0  0  0  0  0  0  0999 V2000
    2.4610   -5.3070   29.1240 C   0  0  0  0  0  0  0  0  0  0  0  0
    4.7710   -4.6952   28.4803 C   0  0  0  0  0  0  0  0  0  0  0  0
    3.4047   -5.1087   28.1314 C   0  0  0  0  0  0  0  0  0  0  0  0
   -0.2234  -11.8615   16.8874 C   0  0  0  0  0  0  0  0  0  0  0  0
    6.4491   -4.1532   30.1213 C   0  0  0  0  0  0  0  0  0  0  0  0
    5.7060   -4.4340   27.4975 C   0  0  0  0  0  0  0  0  0  0  0  0
    1.1818   -5.6612   28.8399 C   0  0  0  0  0  0  0  0  0  0  0  0
   -1.2067   -7.3287   17.7772 C   0  0  0  0  0  0  0  0  0  0  0  0
   -0.0206  -10.5585   16.6210 C   0  0  0  0  0  0  0  0  0  0  0  0
    0.3696  -12.7626   16.2169 O   0  0  0  0  0  0  0  0  0  0  0  0
   -0.6895   -9.5676   17.3297 C   0  0  0  0  0  0  0  0  0  0  0  0
    0.8388   -5.8417   27.5264 C   0  0  0  0  0  0  0  0  0  0  0  0
   -2.0709   -7.6637   18.7817 C   0  0  0  0  0  0  0  0  0  0  0  0
   -0.5279   -8.2168   17.0717 C   0  0  0  0  0  0  0  0  0  0  0  0
    6.9694   -4.0191   27.8190 C   0  0  0  0  0  0  0  0  0  0  0  0
    5.1733   -4.5469   29.8123 C   0  0  0  0  0  0  0  0  0  0  0  0
   -1.7508  -11.3016   18.6072 C   0  0  0  0  0  0  0  0  0  0  0  0
    1.7497   -5.6771   26.4971 C   0  0  0  0  0  0  0  0  0  0  0  0
   -1.5799   -9.9322   18.3468 C   0  0  0  0  0  0  0  0  0  0  0  0
   -1.0871  -12.2214   17.8851 C   0  0  0  0  0  0  0  0  0  0  0  0
   -2.2706   -8.9669   19.0691 C   0  0  0  0  0  0  0  0  0  0  0  0
    3.0279   -5.3073   26.8197 C   0  0  0  0  0  0  0  0  0  0  0  0
    7.3282   -3.8948   29.1186 C   0  0  0  0  0  0  0  0  0  0  0  0
  1  3  4  0
  1  7  4  0
  2  3  1  0
  2  6  4  0
  2 16  4  0
  3 22  4  0
  4  9  4  0
  4 10  1  0
  4 20  4  0
  5 16  4  0
  5 23  4  0
  6 15  4  0
  7 12  4  0
  8 13  4  0
  8 14  4  0
  9 11  4  0
 11 14  4  0
 11 19  4  0
 12 18  4  0
 13 21  4  0
 15 23  4  0
 17 19  4  0
 17 20  4  0
 18 22  4  0
 19 21  4  0
M  END
$$$$

 Created by Python create_sdf_string function

 23 25  0  0  0  0  0  0  0  0999 V2000
    2.4610   -5.3070   29.1240 C   0  0  0  0  0  0  0  0  0  0  0  0
    4.7710   -4.6952   28.4803 C   0  0  0  0  0  0  0  0  0  0  0  0
    3.4047   -5.1087   28.1314 C   0  0  0  0  0  0  0  0  0  0  0  0
   -0.2234  -11.8615   16.8874 C   0  0  0  0  0  0  0  0  0  0  0  0
    6.4491   -4.1532   30.1213 C   0  0  0  0  0  0  0  0  0  0  0  0
    5.7060   -4.4340   27.4975 C   0  0  0  0  0  0  0  0  0  0  0  0
    1.1818   -5.6612   28.8399 C   0  0  0  0  0  0  0  0  0  0  0  0
   -1.2067   -7.3287   17.7772 C   0  0  0  0  0  0  0  0  0  0  0  0
   -0.0206  -10.5585   16.6210 C   0  0  0  0  0  0  0  0  0  0  0  0
    0.3696  -12.7626   16.2169 O   0  0  0  0  0  0  0  0  0  0  0  0
   -0.6895   -9.5676   17.3297 C   0  0  0  0  0  0  0  0  0  0  0  0
    0.8388   -5.8417   27.5264 C   0  0  0  0  0  0  0  0  0  0  0  0
   -2.0709   -7.6637   18.7817 C   0  0  0  0  0  0  0  0  0  0  0  0
   -0.5279   -8.2168   17.0717 C   0  0  0  0  0  0  0  0  0  0  0  0
    6.9694   -4.0191   27.8190 C   0  0  0  0  0  0  0  0  0  0  0  0
    5.1733   -4.5469   29.8123 C   0  0  0  0  0  0  0  0  0  0  0  0
   -1.7508  -11.3016   18.6072 C   0  0  0  0  0  0  0  0  0  0  0  0
    1.7497   -5.6771   26.4971 C   0  0  0  0  0  0  0  0  0  0  0  0
   -1.5799   -9.9322   18.3468 C   0  0  0  0  0  0  0  0  0  0  0  0
   -1.0871  -12.2214   17.8851 C   0  0  0  0  0  0  0  0  0  0  0  0
   -2.2706   -8.9669   19.0691 C   0  0  0  0  0  0  0  0  0  0  0  0
    3.0279   -5.3073   26.8197 C   0  0  0  0  0  0  0  0  0  0  0  0
    7.3282   -3.8948   29.1186 C   0  0  0  0  0  0  0  0  0  0  0  0
  1  3  4  0
  1  7  4  0
  2  3  1  0
  2  6  4  0
  2 16  4  0
  3 22  4  0
  4  9  4  0
  4 10  1  0
  4 20  4  0
  5 16  4  0
  5 23  4  0
  6 15  4  0
  7 12  4  0
  8 13  4  0
  8 14  4  0
  9 11  4  0
 11 14  4  0
 11 19  4  0
 12 18  4  0
 13 21  4  0
 15 23  4  0
 17 19  4  0
 17 20  4  0
 18 22  4  0
 19 21  4  0
M  END
$$$$

 Created by Python create_sdf_string function

 23 25  0  0  0  0  0  0  0  0999 V2000
    2.4610   -5.3070   29.1240 C   0  0  0  0  0  0  0  0  0  0  0  0
    4.7710   -4.6952   28.4803 C   0  0  0  0  0  0  0  0  0  0  0  0
    3.4047   -5.1087   28.1314 C   0  0  0  0  0  0  0  0  0  0  0  0
   -0.2234  -11.8615   16.8874 C   0  0  0  0  0  0  0  0  0  0  0  0
    6.4491   -4.1532   30.1213 C   0  0  0  0  0  0  0  0  0  0  0  0
    5.7060   -4.4340   27.4975 C   0  0  0  0  0  0  0  0  0  0  0  0
    1.1818   -5.6612   28.8399 C   0  0  0  0  0  0  0  0  0  0  0  0
   -1.2067   -7.3287   17.7772 C   0  0  0  0  0  0  0  0  0  0  0  0
   -0.0206  -10.5585   16.6210 C   0  0  0  0  0  0  0  0  0  0  0  0
    0.3696  -12.7626   16.2169 O   0  0  0  0  0  0  0  0  0  0  0  0
   -0.6895   -9.5676   17.3297 C   0  0  0  0  0  0  0  0  0  0  0  0
    0.8388   -5.8417   27.5264 C   0  0  0  0  0  0  0  0  0  0  0  0
   -2.0709   -7.6637   18.7817 C   0  0  0  0  0  0  0  0  0  0  0  0
   -0.5279   -8.2168   17.0717 C   0  0  0  0  0  0  0  0  0  0  0  0
    6.9694   -4.0191   27.8190 C   0  0  0  0  0  0  0  0  0  0  0  0
    5.1733   -4.5469   29.8123 C   0  0  0  0  0  0  0  0  0  0  0  0
   -1.7508  -11.3016   18.6072 C   0  0  0  0  0  0  0  0  0  0  0  0
    1.7497   -5.6771   26.4971 C   0  0  0  0  0  0  0  0  0  0  0  0
   -1.5799   -9.9322   18.3468 C   0  0  0  0  0  0  0  0  0  0  0  0
   -1.0871  -12.2214   17.8851 C   0  0  0  0  0  0  0  0  0  0  0  0
   -2.2706   -8.9669   19.0691 C   0  0  0  0  0  0  0  0  0  0  0  0
    3.0279   -5.3073   26.8197 C   0  0  0  0  0  0  0  0  0  0  0  0
    7.3282   -3.8948   29.1186 C   0  0  0  0  0  0  0  0  0  0  0  0
  1  3  4  0
  1  7  4  0
  2  3  1  0
  2  6  4  0
  2 16  4  0
  3 22  4  0
  4  9  4  0
  4 10  1  0
  4 20  4  0
  5 16  4  0
  5 23  4  0
  6 15  4  0
  7 12  4  0
  8 13  4  0
  8 14  4  0
  9 11  4  0
 11 14  4  0
 11 19  4  0
 12 18  4  0
 13 21  4  0
 15 23  4  0
 17 19  4  0
 17 20  4  0
 18 22  4  0
 19 21  4  0
M  END
$$$$

 Created by Python create_sdf_string function

 23 25  0  0  0  0  0  0  0  0999 V2000
    2.4610   -5.3070   29.1240 C   0  0  0  0  0  0  0  0  0  0  0  0
    4.7710   -4.6952   28.4803 C   0  0  0  0  0  0  0  0  0  0  0  0
    3.4047   -5.1087   28.1314 C   0  0  0  0  0  0  0  0  0  0  0  0
   -0.2234  -11.8615   16.8874 C   0  0  0  0  0  0  0  0  0  0  0  0
    6.4491   -4.1532   30.1213 C   0  0  0  0  0  0  0  0  0  0  0  0
    5.7060   -4.4340   27.4975 C   0  0  0  0  0  0  0  0  0  0  0  0
    1.1818   -5.6612   28.8399 C   0  0  0  0  0  0  0  0  0  0  0  0
   -1.2067   -7.3287   17.7772 C   0  0  0  0  0  0  0  0  0  0  0  0
   -0.0206  -10.5585   16.6210 C   0  0  0  0  0  0  0  0  0  0  0  0
    0.3696  -12.7626   16.2169 O   0  0  0  0  0  0  0  0  0  0  0  0
   -0.6895   -9.5676   17.3297 C   0  0  0  0  0  0  0  0  0  0  0  0
    0.8388   -5.8417   27.5264 C   0  0  0  0  0  0  0  0  0  0  0  0
   -2.0709   -7.6637   18.7817 C   0  0  0  0  0  0  0  0  0  0  0  0
   -0.5279   -8.2168   17.0717 C   0  0  0  0  0  0  0  0  0  0  0  0
    6.9694   -4.0191   27.8190 C   0  0  0  0  0  0  0  0  0  0  0  0
    5.1733   -4.5469   29.8123 C   0  0  0  0  0  0  0  0  0  0  0  0
   -1.7508  -11.3016   18.6072 C   0  0  0  0  0  0  0  0  0  0  0  0
    1.7497   -5.6771   26.4971 C   0  0  0  0  0  0  0  0  0  0  0  0
   -1.5799   -9.9322   18.3468 C   0  0  0  0  0  0  0  0  0  0  0  0
   -1.0871  -12.2214   17.8851 C   0  0  0  0  0  0  0  0  0  0  0  0
   -2.2706   -8.9669   19.0691 C   0  0  0  0  0  0  0  0  0  0  0  0
    3.0279   -5.3073   26.8197 C   0  0  0  0  0  0  0  0  0  0  0  0
    7.3282   -3.8948   29.1186 C   0  0  0  0  0  0  0  0  0  0  0  0
  1  3  4  0
  1  7  4  0
  2  3  1  0
  2  6  4  0
  2 16  4  0
  3 22  4  0
  4  9  4  0
  4 10  1  0
  4 20  4  0
  5 16  4  0
  5 23  4  0
  6 15  4  0
  7 12  4  0
  8 13  4  0
  8 14  4  0
  9 11  4  0
 11 14  4  0
 11 19  4  0
 12 18  4  0
 13 21  4  0
 15 23  4  0
 17 19  4  0
 17 20  4  0
 18 22  4  0
 19 21  4  0
M  END
$$$$

 Created by Python create_sdf_string function

 23 25  0  0  0  0  0  0  0  0999 V2000
    2.4610   -5.3070   29.1240 C   0  0  0  0  0  0  0  0  0  0  0  0
    4.7710   -4.6952   28.4803 C   0  0  0  0  0  0  0  0  0  0  0  0
    3.4047   -5.1087   28.1314 C   0  0  0  0  0  0  0  0  0  0  0  0
   -0.2234  -11.8615   16.8874 C   0  0  0  0  0  0  0  0  0  0  0  0
    6.4491   -4.1532   30.1213 C   0  0  0  0  0  0  0  0  0  0  0  0
    5.7060   -4.4340   27.4975 C   0  0  0  0  0  0  0  0  0  0  0  0
    1.1818   -5.6612   28.8399 C   0  0  0  0  0  0  0  0  0  0  0  0
   -1.2067   -7.3287   17.7772 C   0  0  0  0  0  0  0  0  0  0  0  0
   -0.0206  -10.5585   16.6210 C   0  0  0  0  0  0  0  0  0  0  0  0
    0.3696  -12.7626   16.2169 O   0  0  0  0  0  0  0  0  0  0  0  0
   -0.6895   -9.5676   17.3297 C   0  0  0  0  0  0  0  0  0  0  0  0
    0.8388   -5.8417   27.5264 C   0  0  0  0  0  0  0  0  0  0  0  0
   -2.0709   -7.6637   18.7817 C   0  0  0  0  0  0  0  0  0  0  0  0
   -0.5279   -8.2168   17.0717 C   0  0  0  0  0  0  0  0  0  0  0  0
    6.9694   -4.0191   27.8190 C   0  0  0  0  0  0  0  0  0  0  0  0
    5.1733   -4.5469   29.8123 C   0  0  0  0  0  0  0  0  0  0  0  0
   -1.7508  -11.3016   18.6072 C   0  0  0  0  0  0  0  0  0  0  0  0
    1.7497   -5.6771   26.4971 C   0  0  0  0  0  0  0  0  0  0  0  0
   -1.5799   -9.9322   18.3468 C   0  0  0  0  0  0  0  0  0  0  0  0
   -1.0871  -12.2214   17.8851 C   0  0  0  0  0  0  0  0  0  0  0  0
   -2.2706   -8.9669   19.0691 C   0  0  0  0  0  0  0  0  0  0  0  0
    3.0279   -5.3073   26.8197 C   0  0  0  0  0  0  0  0  0  0  0  0
    7.3282   -3.8948   29.1186 C   0  0  0  0  0  0  0  0  0  0  0  0
  1  3  4  0
  1  7  4  0
  2  3  1  0
  2  6  4  0
  2 16  4  0
  3 22  4  0
  4  9  4  0
  4 10  1  0
  4 20  4  0
  5 16  4  0
  5 23  4  0
  6 15  4  0
  7 12  4  0
  8 13  4  0
  8 14  4  0
  9 11  4  0
 11 14  4  0
 11 19  4  0
 12 18  4  0
 13 21  4  0
 15 23  4  0
 17 19  4  0
 17 20  4  0
 18 22  4  0
 19 21  4  0
M  END
$$$$

 Created by Python create_sdf_string function

 23 25  0  0  0  0  0  0  0  0999 V2000
    2.4610   -5.3070   29.1240 C   0  0  0  0  0  0  0  0  0  0  0  0
    4.7710   -4.6952   28.4803 C   0  0  0  0  0  0  0  0  0  0  0  0
    3.4047   -5.1087   28.1314 C   0  0  0  0  0  0  0  0  0  0  0  0
   -0.2234  -11.8615   16.8874 C   0  0  0  0  0  0  0  0  0  0  0  0
    6.4491   -4.1532   30.1213 C   0  0  0  0  0  0  0  0  0  0  0  0
    5.7060   -4.4340   27.4975 C   0  0  0  0  0  0  0  0  0  0  0  0
    1.1818   -5.6612   28.8399 C   0  0  0  0  0  0  0  0  0  0  0  0
   -1.2067   -7.3287   17.7772 C   0  0  0  0  0  0  0  0  0  0  0  0
   -0.0206  -10.5585   16.6210 C   0  0  0  0  0  0  0  0  0  0  0  0
    0.3696  -12.7626   16.2169 O   0  0  0  0  0  0  0  0  0  0  0  0
   -0.6895   -9.5676   17.3297 C   0  0  0  0  0  0  0  0  0  0  0  0
    0.8388   -5.8417   27.5264 C   0  0  0  0  0  0  0  0  0  0  0  0
   -2.0709   -7.6637   18.7817 C   0  0  0  0  0  0  0  0  0  0  0  0
   -0.5279   -8.2168   17.0717 C   0  0  0  0  0  0  0  0  0  0  0  0
    6.9694   -4.0191   27.8190 C   0  0  0  0  0  0  0  0  0  0  0  0
    5.1733   -4.5469   29.8123 C   0  0  0  0  0  0  0  0  0  0  0  0
   -1.7508  -11.3016   18.6072 C   0  0  0  0  0  0  0  0  0  0  0  0
    1.7497   -5.6771   26.4971 C   0  0  0  0  0  0  0  0  0  0  0  0
   -1.5799   -9.9322   18.3468 C   0  0  0  0  0  0  0  0  0  0  0  0
   -1.0871  -12.2214   17.8851 C   0  0  0  0  0  0  0  0  0  0  0  0
   -2.2706   -8.9669   19.0691 C   0  0  0  0  0  0  0  0  0  0  0  0
    3.0279   -5.3073   26.8197 C   0  0  0  0  0  0  0  0  0  0  0  0
    7.3282   -3.8948   29.1186 C   0  0  0  0  0  0  0  0  0  0  0  0
  1  3  4  0
  1  7  4  0
  2  3  1  0
  2  6  4  0
  2 16  4  0
  3 22  4  0
  4  9  4  0
  4 10  1  0
  4 20  4  0
  5 16  4  0
  5 23  4  0
  6 15  4  0
  7 12  4  0
  8 13  4  0
  8 14  4  0
  9 11  4  0
 11 14  4  0
 11 19  4  0
 12 18  4  0
 13 21  4  0
 15 23  4  0
 17 19  4  0
 17 20  4  0
 18 22  4  0
 19 21  4  0
M  END
$$$$

 Created by Python create_sdf_string function

 23 25  0  0  0  0  0  0  0  0999 V2000
    2.4610   -5.3070   29.1240 C   0  0  0  0  0  0  0  0  0  0  0  0
    4.7710   -4.6952   28.4803 C   0  0  0  0  0  0  0  0  0  0  0  0
    3.4047   -5.1087   28.1314 C   0  0  0  0  0  0  0  0  0  0  0  0
   -0.2234  -11.8615   16.8874 C   0  0  0  0  0  0  0  0  0  0  0  0
    6.4491   -4.1532   30.1213 C   0  0  0  0  0  0  0  0  0  0  0  0
    5.7060   -4.4340   27.4975 C   0  0  0  0  0  0  0  0  0  0  0  0
    1.1818   -5.6612   28.8399 C   0  0  0  0  0  0  0  0  0  0  0  0
   -1.2067   -7.3287   17.7772 C   0  0  0  0  0  0  0  0  0  0  0  0
   -0.0206  -10.5585   16.6210 C   0  0  0  0  0  0  0  0  0  0  0  0
    0.3696  -12.7626   16.2169 O   0  0  0  0  0  0  0  0  0  0  0  0
   -0.6895   -9.5676   17.3297 C   0  0  0  0  0  0  0  0  0  0  0  0
    0.8388   -5.8417   27.5264 C   0  0  0  0  0  0  0  0  0  0  0  0
   -2.0709   -7.6637   18.7817 C   0  0  0  0  0  0  0  0  0  0  0  0
   -0.5279   -8.2168   17.0717 C   0  0  0  0  0  0  0  0  0  0  0  0
    6.9694   -4.0191   27.8190 C   0  0  0  0  0  0  0  0  0  0  0  0
    5.1733   -4.5469   29.8123 C   0  0  0  0  0  0  0  0  0  0  0  0
   -1.7508  -11.3016   18.6072 C   0  0  0  0  0  0  0  0  0  0  0  0
    1.7497   -5.6771   26.4971 C   0  0  0  0  0  0  0  0  0  0  0  0
   -1.5799   -9.9322   18.3468 C   0  0  0  0  0  0  0  0  0  0  0  0
   -1.0871  -12.2214   17.8851 C   0  0  0  0  0  0  0  0  0  0  0  0
   -2.2706   -8.9669   19.0691 C   0  0  0  0  0  0  0  0  0  0  0  0
    3.0279   -5.3073   26.8197 C   0  0  0  0  0  0  0  0  0  0  0  0
    7.3282   -3.8948   29.1186 C   0  0  0  0  0  0  0  0  0  0  0  0
  1  3  4  0
  1  7  4  0
  2  3  1  0
  2  6  4  0
  2 16  4  0
  3 22  4  0
  4  9  4  0
  4 10  1  0
  4 20  4  0
  5 16  4  0
  5 23  4  0
  6 15  4  0
  7 12  4  0
  8 13  4  0
  8 14  4  0
  9 11  4  0
 11 14  4  0
 11 19  4  0
 12 18  4  0
 13 21  4  0
 15 23  4  0
 17 19  4  0
 17 20  4  0
 18 22  4  0
 19 21  4  0
M  END
$$$$

 Created by Python create_sdf_string function

 23 25  0  0  0  0  0  0  0  0999 V2000
    2.4610   -5.3070   29.1240 C   0  0  0  0  0  0  0  0  0  0  0  0
    4.7710   -4.6952   28.4803 C   0  0  0  0  0  0  0  0  0  0  0  0
    3.4047   -5.1087   28.1314 C   0  0  0  0  0  0  0  0  0  0  0  0
   -0.2234  -11.8615   16.8874 C   0  0  0  0  0  0  0  0  0  0  0  0
    6.4491   -4.1532   30.1213 C   0  0  0  0  0  0  0  0  0  0  0  0
    5.7060   -4.4340   27.4975 C   0  0  0  0  0  0  0  0  0  0  0  0
    1.1818   -5.6612   28.8399 C   0  0  0  0  0  0  0  0  0  0  0  0
   -1.2067   -7.3287   17.7772 C   0  0  0  0  0  0  0  0  0  0  0  0
   -0.0206  -10.5585   16.6210 C   0  0  0  0  0  0  0  0  0  0  0  0
    0.3696  -12.7626   16.2169 O   0  0  0  0  0  0  0  0  0  0  0  0
   -0.6895   -9.5676   17.3297 C   0  0  0  0  0  0  0  0  0  0  0  0
    0.8388   -5.8417   27.5264 C   0  0  0  0  0  0  0  0  0  0  0  0
   -2.0709   -7.6637   18.7817 C   0  0  0  0  0  0  0  0  0  0  0  0
   -0.5279   -8.2168   17.0717 C   0  0  0  0  0  0  0  0  0  0  0  0
    6.9694   -4.0191   27.8190 C   0  0  0  0  0  0  0  0  0  0  0  0
    5.1733   -4.5469   29.8123 C   0  0  0  0  0  0  0  0  0  0  0  0
   -1.7508  -11.3016   18.6072 C   0  0  0  0  0  0  0  0  0  0  0  0
    1.7497   -5.6771   26.4971 C   0  0  0  0  0  0  0  0  0  0  0  0
   -1.5799   -9.9322   18.3468 C   0  0  0  0  0  0  0  0  0  0  0  0
   -1.0871  -12.2214   17.8851 C   0  0  0  0  0  0  0  0  0  0  0  0
   -2.2706   -8.9669   19.0691 C   0  0  0  0  0  0  0  0  0  0  0  0
    3.0279   -5.3073   26.8197 C   0  0  0  0  0  0  0  0  0  0  0  0
    7.3282   -3.8948   29.1186 C   0  0  0  0  0  0  0  0  0  0  0  0
  1  3  4  0
  1  7  4  0
  2  3  1  0
  2  6  4  0
  2 16  4  0
  3 22  4  0
  4  9  4  0
  4 10  1  0
  4 20  4  0
  5 16  4  0
  5 23  4  0
  6 15  4  0
  7 12  4  0
  8 13  4  0
  8 14  4  0
  9 11  4  0
 11 14  4  0
 11 19  4  0
 12 18  4  0
 13 21  4  0
 15 23  4  0
 17 19  4  0
 17 20  4  0
 18 22  4  0
 19 21  4  0
M  END
$$$$

 Created by Python create_sdf_string function

 23 25  0  0  0  0  0  0  0  0999 V2000
    2.4610   -5.3070   29.1240 C   0  0  0  0  0  0  0  0  0  0  0  0
    4.7710   -4.6952   28.4803 C   0  0  0  0  0  0  0  0  0  0  0  0
    3.4047   -5.1087   28.1314 C   0  0  0  0  0  0  0  0  0  0  0  0
   -0.2234  -11.8615   16.8874 C   0  0  0  0  0  0  0  0  0  0  0  0
    6.4491   -4.1532   30.1213 C   0  0  0  0  0  0  0  0  0  0  0  0
    5.7060   -4.4340   27.4975 C   0  0  0  0  0  0  0  0  0  0  0  0
    1.1818   -5.6612   28.8399 C   0  0  0  0  0  0  0  0  0  0  0  0
   -1.2067   -7.3287   17.7772 C   0  0  0  0  0  0  0  0  0  0  0  0
   -0.0206  -10.5585   16.6210 C   0  0  0  0  0  0  0  0  0  0  0  0
    0.3696  -12.7626   16.2169 O   0  0  0  0  0  0  0  0  0  0  0  0
   -0.6895   -9.5676   17.3297 C   0  0  0  0  0  0  0  0  0  0  0  0
    0.8388   -5.8417   27.5264 C   0  0  0  0  0  0  0  0  0  0  0  0
   -2.0709   -7.6637   18.7817 C   0  0  0  0  0  0  0  0  0  0  0  0
   -0.5279   -8.2168   17.0717 C   0  0  0  0  0  0  0  0  0  0  0  0
    6.9694   -4.0191   27.8190 C   0  0  0  0  0  0  0  0  0  0  0  0
    5.1733   -4.5469   29.8123 C   0  0  0  0  0  0  0  0  0  0  0  0
   -1.7508  -11.3016   18.6072 C   0  0  0  0  0  0  0  0  0  0  0  0
    1.7497   -5.6771   26.4971 C   0  0  0  0  0  0  0  0  0  0  0  0
   -1.5799   -9.9322   18.3468 C   0  0  0  0  0  0  0  0  0  0  0  0
   -1.0871  -12.2214   17.8851 C   0  0  0  0  0  0  0  0  0  0  0  0
   -2.2706   -8.9669   19.0691 C   0  0  0  0  0  0  0  0  0  0  0  0
    3.0279   -5.3073   26.8197 C   0  0  0  0  0  0  0  0  0  0  0  0
    7.3282   -3.8948   29.1186 C   0  0  0  0  0  0  0  0  0  0  0  0
  1  3  4  0
  1  7  4  0
  2  3  1  0
  2  6  4  0
  2 16  4  0
  3 22  4  0
  4  9  4  0
  4 10  1  0
  4 20  4  0
  5 16  4  0
  5 23  4  0
  6 15  4  0
  7 12  4  0
  8 13  4  0
  8 14  4  0
  9 11  4  0
 11 14  4  0
 11 19  4  0
 12 18  4  0
 13 21  4  0
 15 23  4  0
 17 19  4  0
 17 20  4  0
 18 22  4  0
 19 21  4  0
M  END
$$$$

 Created by Python create_sdf_string function

 23 25  0  0  0  0  0  0  0  0999 V2000
    2.4610   -5.3070   29.1240 C   0  0  0  0  0  0  0  0  0  0  0  0
    4.7710   -4.6952   28.4803 C   0  0  0  0  0  0  0  0  0  0  0  0
    3.4047   -5.1087   28.1314 C   0  0  0  0  0  0  0  0  0  0  0  0
   -0.2234  -11.8615   16.8874 C   0  0  0  0  0  0  0  0  0  0  0  0
    6.4491   -4.1532   30.1213 C   0  0  0  0  0  0  0  0  0  0  0  0
    5.7060   -4.4340   27.4975 C   0  0  0  0  0  0  0  0  0  0  0  0
    1.1818   -5.6612   28.8399 C   0  0  0  0  0  0  0  0  0  0  0  0
   -1.2067   -7.3287   17.7772 C   0  0  0  0  0  0  0  0  0  0  0  0
   -0.0206  -10.5585   16.6210 C   0  0  0  0  0  0  0  0  0  0  0  0
    0.3696  -12.7626   16.2169 O   0  0  0  0  0  0  0  0  0  0  0  0
   -0.6895   -9.5676   17.3297 C   0  0  0  0  0  0  0  0  0  0  0  0
    0.8388   -5.8417   27.5264 C   0  0  0  0  0  0  0  0  0  0  0  0
   -2.0709   -7.6637   18.7817 C   0  0  0  0  0  0  0  0  0  0  0  0
   -0.5279   -8.2168   17.0717 C   0  0  0  0  0  0  0  0  0  0  0  0
    6.9694   -4.0191   27.8190 C   0  0  0  0  0  0  0  0  0  0  0  0
    5.1733   -4.5469   29.8123 C   0  0  0  0  0  0  0  0  0  0  0  0
   -1.7508  -11.3016   18.6072 C   0  0  0  0  0  0  0  0  0  0  0  0
    1.7497   -5.6771   26.4971 C   0  0  0  0  0  0  0  0  0  0  0  0
   -1.5799   -9.9322   18.3468 C   0  0  0  0  0  0  0  0  0  0  0  0
   -1.0871  -12.2214   17.8851 C   0  0  0  0  0  0  0  0  0  0  0  0
   -2.2706   -8.9669   19.0691 C   0  0  0  0  0  0  0  0  0  0  0  0
    3.0279   -5.3073   26.8197 C   0  0  0  0  0  0  0  0  0  0  0  0
    7.3282   -3.8948   29.1186 C   0  0  0  0  0  0  0  0  0  0  0  0
  1  3  4  0
  1  7  4  0
  2  3  1  0
  2  6  4  0
  2 16  4  0
  3 22  4  0
  4  9  4  0
  4 10  1  0
  4 20  4  0
  5 16  4  0
  5 23  4  0
  6 15  4  0
  7 12  4  0
  8 13  4  0
  8 14  4  0
  9 11  4  0
 11 14  4  0
 11 19  4  0
 12 18  4  0
 13 21  4  0
 15 23  4  0
 17 19  4  0
 17 20  4  0
 18 22  4  0
 19 21  4  0
M  END
$$$$

 Created by Python create_sdf_string function

 23 25  0  0  0  0  0  0  0  0999 V2000
    2.4610   -5.3070   29.1240 C   0  0  0  0  0  0  0  0  0  0  0  0
    4.7710   -4.6952   28.4803 C   0  0  0  0  0  0  0  0  0  0  0  0
    3.4047   -5.1087   28.1314 C   0  0  0  0  0  0  0  0  0  0  0  0
   -0.2234  -11.8615   16.8874 C   0  0  0  0  0  0  0  0  0  0  0  0
    6.4491   -4.1532   30.1213 C   0  0  0  0  0  0  0  0  0  0  0  0
    5.7060   -4.4340   27.4975 C   0  0  0  0  0  0  0  0  0  0  0  0
    1.1818   -5.6612   28.8399 C   0  0  0  0  0  0  0  0  0  0  0  0
   -1.2067   -7.3287   17.7772 C   0  0  0  0  0  0  0  0  0  0  0  0
   -0.0206  -10.5585   16.6210 C   0  0  0  0  0  0  0  0  0  0  0  0
    0.3696  -12.7626   16.2169 O   0  0  0  0  0  0  0  0  0  0  0  0
   -0.6895   -9.5676   17.3297 C   0  0  0  0  0  0  0  0  0  0  0  0
    0.8388   -5.8417   27.5264 C   0  0  0  0  0  0  0  0  0  0  0  0
   -2.0709   -7.6637   18.7817 C   0  0  0  0  0  0  0  0  0  0  0  0
   -0.5279   -8.2168   17.0717 C   0  0  0  0  0  0  0  0  0  0  0  0
    6.9694   -4.0191   27.8190 C   0  0  0  0  0  0  0  0  0  0  0  0
    5.1733   -4.5469   29.8123 C   0  0  0  0  0  0  0  0  0  0  0  0
   -1.7508  -11.3016   18.6072 C   0  0  0  0  0  0  0  0  0  0  0  0
    1.7497   -5.6771   26.4971 C   0  0  0  0  0  0  0  0  0  0  0  0
   -1.5799   -9.9322   18.3468 C   0  0  0  0  0  0  0  0  0  0  0  0
   -1.0871  -12.2214   17.8851 C   0  0  0  0  0  0  0  0  0  0  0  0
   -2.2706   -8.9669   19.0691 C   0  0  0  0  0  0  0  0  0  0  0  0
    3.0279   -5.3073   26.8197 C   0  0  0  0  0  0  0  0  0  0  0  0
    7.3282   -3.8948   29.1186 C   0  0  0  0  0  0  0  0  0  0  0  0
  1  3  4  0
  1  7  4  0
  2  3  1  0
  2  6  4  0
  2 16  4  0
  3 22  4  0
  4  9  4  0
  4 10  1  0
  4 20  4  0
  5 16  4  0
  5 23  4  0
  6 15  4  0
  7 12  4  0
  8 13  4  0
  8 14  4  0
  9 11  4  0
 11 14  4  0
 11 19  4  0
 12 18  4  0
 13 21  4  0
 15 23  4  0
 17 19  4  0
 17 20  4  0
 18 22  4  0
 19 21  4  0
M  END
$$$$

 Created by Python create_sdf_string function

 23 25  0  0  0  0  0  0  0  0999 V2000
    2.4610   -5.3070   29.1240 C   0  0  0  0  0  0  0  0  0  0  0  0
    4.7710   -4.6952   28.4803 C   0  0  0  0  0  0  0  0  0  0  0  0
    3.4047   -5.1087   28.1314 C   0  0  0  0  0  0  0  0  0  0  0  0
   -0.2234  -11.8615   16.8874 C   0  0  0  0  0  0  0  0  0  0  0  0
    6.4491   -4.1532   30.1213 C   0  0  0  0  0  0  0  0  0  0  0  0
    5.7060   -4.4340   27.4975 C   0  0  0  0  0  0  0  0  0  0  0  0
    1.1818   -5.6612   28.8399 C   0  0  0  0  0  0  0  0  0  0  0  0
   -1.2067   -7.3287   17.7772 C   0  0  0  0  0  0  0  0  0  0  0  0
   -0.0206  -10.5585   16.6210 C   0  0  0  0  0  0  0  0  0  0  0  0
    0.3696  -12.7626   16.2169 O   0  0  0  0  0  0  0  0  0  0  0  0
   -0.6895   -9.5676   17.3297 C   0  0  0  0  0  0  0  0  0  0  0  0
    0.8388   -5.8417   27.5264 C   0  0  0  0  0  0  0  0  0  0  0  0
   -2.0709   -7.6637   18.7817 C   0  0  0  0  0  0  0  0  0  0  0  0
   -0.5279   -8.2168   17.0717 C   0  0  0  0  0  0  0  0  0  0  0  0
    6.9694   -4.0191   27.8190 C   0  0  0  0  0  0  0  0  0  0  0  0
    5.1733   -4.5469   29.8123 C   0  0  0  0  0  0  0  0  0  0  0  0
   -1.7508  -11.3016   18.6072 C   0  0  0  0  0  0  0  0  0  0  0  0
    1.7497   -5.6771   26.4971 C   0  0  0  0  0  0  0  0  0  0  0  0
   -1.5799   -9.9322   18.3468 C   0  0  0  0  0  0  0  0  0  0  0  0
   -1.0871  -12.2214   17.8851 C   0  0  0  0  0  0  0  0  0  0  0  0
   -2.2706   -8.9669   19.0691 C   0  0  0  0  0  0  0  0  0  0  0  0
    3.0279   -5.3073   26.8197 C   0  0  0  0  0  0  0  0  0  0  0  0
    7.3282   -3.8948   29.1186 C   0  0  0  0  0  0  0  0  0  0  0  0
  1  3  4  0
  1  7  4  0
  2  3  1  0
  2  6  4  0
  2 16  4  0
  3 22  4  0
  4  9  4  0
  4 10  1  0
  4 20  4  0
  5 16  4  0
  5 23  4  0
  6 15  4  0
  7 12  4  0
  8 13  4  0
  8 14  4  0
  9 11  4  0
 11 14  4  0
 11 19  4  0
 12 18  4  0
 13 21  4  0
 15 23  4  0
 17 19  4  0
 17 20  4  0
 18 22  4  0
 19 21  4  0
M  END
$$$$

 Created by Python create_sdf_string function

 23 25  0  0  0  0  0  0  0  0999 V2000
    2.4610   -5.3070   29.1240 C   0  0  0  0  0  0  0  0  0  0  0  0
    4.7710   -4.6952   28.4803 C   0  0  0  0  0  0  0  0  0  0  0  0
    3.4047   -5.1087   28.1314 C   0  0  0  0  0  0  0  0  0  0  0  0
   -0.2234  -11.8615   16.8874 C   0  0  0  0  0  0  0  0  0  0  0  0
    6.4491   -4.1532   30.1213 C   0  0  0  0  0  0  0  0  0  0  0  0
    5.7060   -4.4340   27.4975 C   0  0  0  0  0  0  0  0  0  0  0  0
    1.1818   -5.6612   28.8399 C   0  0  0  0  0  0  0  0  0  0  0  0
   -1.2067   -7.3287   17.7772 C   0  0  0  0  0  0  0  0  0  0  0  0
   -0.0206  -10.5585   16.6210 C   0  0  0  0  0  0  0  0  0  0  0  0
    0.3696  -12.7626   16.2169 O   0  0  0  0  0  0  0  0  0  0  0  0
   -0.6895   -9.5676   17.3297 C   0  0  0  0  0  0  0  0  0  0  0  0
    0.8388   -5.8417   27.5264 C   0  0  0  0  0  0  0  0  0  0  0  0
   -2.0709   -7.6637   18.7817 C   0  0  0  0  0  0  0  0  0  0  0  0
   -0.5279   -8.2168   17.0717 C   0  0  0  0  0  0  0  0  0  0  0  0
    6.9694   -4.0191   27.8190 C   0  0  0  0  0  0  0  0  0  0  0  0
    5.1733   -4.5469   29.8123 C   0  0  0  0  0  0  0  0  0  0  0  0
   -1.7508  -11.3016   18.6072 C   0  0  0  0  0  0  0  0  0  0  0  0
    1.7497   -5.6771   26.4971 C   0  0  0  0  0  0  0  0  0  0  0  0
   -1.5799   -9.9322   18.3468 C   0  0  0  0  0  0  0  0  0  0  0  0
   -1.0871  -12.2214   17.8851 C   0  0  0  0  0  0  0  0  0  0  0  0
   -2.2706   -8.9669   19.0691 C   0  0  0  0  0  0  0  0  0  0  0  0
    3.0279   -5.3073   26.8197 C   0  0  0  0  0  0  0  0  0  0  0  0
    7.3282   -3.8948   29.1186 C   0  0  0  0  0  0  0  0  0  0  0  0
  1  3  4  0
  1  7  4  0
  2  3  1  0
  2  6  4  0
  2 16  4  0
  3 22  4  0
  4  9  4  0
  4 10  1  0
  4 20  4  0
  5 16  4  0
  5 23  4  0
  6 15  4  0
  7 12  4  0
  8 13  4  0
  8 14  4  0
  9 11  4  0
 11 14  4  0
 11 19  4  0
 12 18  4  0
 13 21  4  0
 15 23  4  0
 17 19  4  0
 17 20  4  0
 18 22  4  0
 19 21  4  0
M  END
$$$$

 Created by Python create_sdf_string function

 23 25  0  0  0  0  0  0  0  0999 V2000
    2.4610   -5.3070   29.1240 C   0  0  0  0  0  0  0  0  0  0  0  0
    4.7710   -4.6952   28.4803 C   0  0  0  0  0  0  0  0  0  0  0  0
    3.4047   -5.1087   28.1314 C   0  0  0  0  0  0  0  0  0  0  0  0
   -0.2234  -11.8615   16.8874 C   0  0  0  0  0  0  0  0  0  0  0  0
    6.4491   -4.1532   30.1213 C   0  0  0  0  0  0  0  0  0  0  0  0
    5.7060   -4.4340   27.4975 C   0  0  0  0  0  0  0  0  0  0  0  0
    1.1818   -5.6612   28.8399 C   0  0  0  0  0  0  0  0  0  0  0  0
   -1.2067   -7.3287   17.7772 C   0  0  0  0  0  0  0  0  0  0  0  0
   -0.0206  -10.5585   16.6210 C   0  0  0  0  0  0  0  0  0  0  0  0
    0.3696  -12.7626   16.2169 O   0  0  0  0  0  0  0  0  0  0  0  0
   -0.6895   -9.5676   17.3297 C   0  0  0  0  0  0  0  0  0  0  0  0
    0.8388   -5.8417   27.5264 C   0  0  0  0  0  0  0  0  0  0  0  0
   -2.0709   -7.6637   18.7817 C   0  0  0  0  0  0  0  0  0  0  0  0
   -0.5279   -8.2168   17.0717 C   0  0  0  0  0  0  0  0  0  0  0  0
    6.9694   -4.0191   27.8190 C   0  0  0  0  0  0  0  0  0  0  0  0
    5.1733   -4.5469   29.8123 C   0  0  0  0  0  0  0  0  0  0  0  0
   -1.7508  -11.3016   18.6072 C   0  0  0  0  0  0  0  0  0  0  0  0
    1.7497   -5.6771   26.4971 C   0  0  0  0  0  0  0  0  0  0  0  0
   -1.5799   -9.9322   18.3468 C   0  0  0  0  0  0  0  0  0  0  0  0
   -1.0871  -12.2214   17.8851 C   0  0  0  0  0  0  0  0  0  0  0  0
   -2.2706   -8.9669   19.0691 C   0  0  0  0  0  0  0  0  0  0  0  0
    3.0279   -5.3073   26.8197 C   0  0  0  0  0  0  0  0  0  0  0  0
    7.3282   -3.8948   29.1186 C   0  0  0  0  0  0  0  0  0  0  0  0
  1  3  4  0
  1  7  4  0
  2  3  1  0
  2  6  4  0
  2 16  4  0
  3 22  4  0
  4  9  4  0
  4 10  1  0
  4 20  4  0
  5 16  4  0
  5 23  4  0
  6 15  4  0
  7 12  4  0
  8 13  4  0
  8 14  4  0
  9 11  4  0
 11 14  4  0
 11 19  4  0
 12 18  4  0
 13 21  4  0
 15 23  4  0
 17 19  4  0
 17 20  4  0
 18 22  4  0
 19 21  4  0
M  END
$$$$

 Created by Python create_sdf_string function

 23 25  0  0  0  0  0  0  0  0999 V2000
    2.4610   -5.3070   29.1240 C   0  0  0  0  0  0  0  0  0  0  0  0
    4.7710   -4.6952   28.4803 C   0  0  0  0  0  0  0  0  0  0  0  0
    3.4047   -5.1087   28.1314 C   0  0  0  0  0  0  0  0  0  0  0  0
   -0.2234  -11.8615   16.8874 C   0  0  0  0  0  0  0  0  0  0  0  0
    6.4491   -4.1532   30.1213 C   0  0  0  0  0  0  0  0  0  0  0  0
    5.7060   -4.4340   27.4975 C   0  0  0  0  0  0  0  0  0  0  0  0
    1.1818   -5.6612   28.8399 C   0  0  0  0  0  0  0  0  0  0  0  0
   -1.2067   -7.3287   17.7772 C   0  0  0  0  0  0  0  0  0  0  0  0
   -0.0206  -10.5585   16.6210 C   0  0  0  0  0  0  0  0  0  0  0  0
    0.3696  -12.7626   16.2169 O   0  0  0  0  0  0  0  0  0  0  0  0
   -0.6895   -9.5676   17.3297 C   0  0  0  0  0  0  0  0  0  0  0  0
    0.8388   -5.8417   27.5264 C   0  0  0  0  0  0  0  0  0  0  0  0
   -2.0709   -7.6637   18.7817 C   0  0  0  0  0  0  0  0  0  0  0  0
   -0.5279   -8.2168   17.0717 C   0  0  0  0  0  0  0  0  0  0  0  0
    6.9694   -4.0191   27.8190 C   0  0  0  0  0  0  0  0  0  0  0  0
    5.1733   -4.5469   29.8123 C   0  0  0  0  0  0  0  0  0  0  0  0
   -1.7508  -11.3016   18.6072 C   0  0  0  0  0  0  0  0  0  0  0  0
    1.7497   -5.6771   26.4971 C   0  0  0  0  0  0  0  0  0  0  0  0
   -1.5799   -9.9322   18.3468 C   0  0  0  0  0  0  0  0  0  0  0  0
   -1.0871  -12.2214   17.8851 C   0  0  0  0  0  0  0  0  0  0  0  0
   -2.2706   -8.9669   19.0691 C   0  0  0  0  0  0  0  0  0  0  0  0
    3.0279   -5.3073   26.8197 C   0  0  0  0  0  0  0  0  0  0  0  0
    7.3282   -3.8948   29.1186 C   0  0  0  0  0  0  0  0  0  0  0  0
  1  3  4  0
  1  7  4  0
  2  3  1  0
  2  6  4  0
  2 16  4  0
  3 22  4  0
  4  9  4  0
  4 10  1  0
  4 20  4  0
  5 16  4  0
  5 23  4  0
  6 15  4  0
  7 12  4  0
  8 13  4  0
  8 14  4  0
  9 11  4  0
 11 14  4  0
 11 19  4  0
 12 18  4  0
 13 21  4  0
 15 23  4  0
 17 19  4  0
 17 20  4  0
 18 22  4  0
 19 21  4  0
M  END
$$$$

 Created by Python create_sdf_string function

 23 25  0  0  0  0  0  0  0  0999 V2000
    2.4610   -5.3070   29.1240 C   0  0  0  0  0  0  0  0  0  0  0  0
    4.7710   -4.6952   28.4803 C   0  0  0  0  0  0  0  0  0  0  0  0
    3.4047   -5.1087   28.1314 C   0  0  0  0  0  0  0  0  0  0  0  0
   -0.2234  -11.8615   16.8874 C   0  0  0  0  0  0  0  0  0  0  0  0
    6.4491   -4.1532   30.1213 C   0  0  0  0  0  0  0  0  0  0  0  0
    5.7060   -4.4340   27.4975 C   0  0  0  0  0  0  0  0  0  0  0  0
    1.1818   -5.6612   28.8399 C   0  0  0  0  0  0  0  0  0  0  0  0
   -1.2067   -7.3287   17.7772 C   0  0  0  0  0  0  0  0  0  0  0  0
   -0.0206  -10.5585   16.6210 C   0  0  0  0  0  0  0  0  0  0  0  0
    0.3696  -12.7626   16.2169 O   0  0  0  0  0  0  0  0  0  0  0  0
   -0.6895   -9.5676   17.3297 C   0  0  0  0  0  0  0  0  0  0  0  0
    0.8388   -5.8417   27.5264 C   0  0  0  0  0  0  0  0  0  0  0  0
   -2.0709   -7.6637   18.7817 C   0  0  0  0  0  0  0  0  0  0  0  0
   -0.5279   -8.2168   17.0717 C   0  0  0  0  0  0  0  0  0  0  0  0
    6.9694   -4.0191   27.8190 C   0  0  0  0  0  0  0  0  0  0  0  0
    5.1733   -4.5469   29.8123 C   0  0  0  0  0  0  0  0  0  0  0  0
   -1.7508  -11.3016   18.6072 C   0  0  0  0  0  0  0  0  0  0  0  0
    1.7497   -5.6771   26.4971 C   0  0  0  0  0  0  0  0  0  0  0  0
   -1.5799   -9.9322   18.3468 C   0  0  0  0  0  0  0  0  0  0  0  0
   -1.0871  -12.2214   17.8851 C   0  0  0  0  0  0  0  0  0  0  0  0
   -2.2706   -8.9669   19.0691 C   0  0  0  0  0  0  0  0  0  0  0  0
    3.0279   -5.3073   26.8197 C   0  0  0  0  0  0  0  0  0  0  0  0
    7.3282   -3.8948   29.1186 C   0  0  0  0  0  0  0  0  0  0  0  0
  1  3  4  0
  1  7  4  0
  2  3  1  0
  2  6  4  0
  2 16  4  0
  3 22  4  0
  4  9  4  0
  4 10  1  0
  4 20  4  0
  5 16  4  0
  5 23  4  0
  6 15  4  0
  7 12  4  0
  8 13  4  0
  8 14  4  0
  9 11  4  0
 11 14  4  0
 11 19  4  0
 12 18  4  0
 13 21  4  0
 15 23  4  0
 17 19  4  0
 17 20  4  0
 18 22  4  0
 19 21  4  0
M  END
$$$$

 Created by Python create_sdf_string function

 23 25  0  0  0  0  0  0  0  0999 V2000
    2.4610   -5.3070   29.1240 C   0  0  0  0  0  0  0  0  0  0  0  0
    4.7710   -4.6952   28.4803 C   0  0  0  0  0  0  0  0  0  0  0  0
    3.4047   -5.1087   28.1314 C   0  0  0  0  0  0  0  0  0  0  0  0
   -0.2234  -11.8615   16.8874 C   0  0  0  0  0  0  0  0  0  0  0  0
    6.4491   -4.1532   30.1213 C   0  0  0  0  0  0  0  0  0  0  0  0
    5.7060   -4.4340   27.4975 C   0  0  0  0  0  0  0  0  0  0  0  0
    1.1818   -5.6612   28.8399 C   0  0  0  0  0  0  0  0  0  0  0  0
   -1.2067   -7.3287   17.7772 C   0  0  0  0  0  0  0  0  0  0  0  0
   -0.0206  -10.5585   16.6210 C   0  0  0  0  0  0  0  0  0  0  0  0
    0.3696  -12.7626   16.2169 O   0  0  0  0  0  0  0  0  0  0  0  0
   -0.6895   -9.5676   17.3297 C   0  0  0  0  0  0  0  0  0  0  0  0
    0.8388   -5.8417   27.5264 C   0  0  0  0  0  0  0  0  0  0  0  0
   -2.0709   -7.6637   18.7817 C   0  0  0  0  0  0  0  0  0  0  0  0
   -0.5279   -8.2168   17.0717 C   0  0  0  0  0  0  0  0  0  0  0  0
    6.9694   -4.0191   27.8190 C   0  0  0  0  0  0  0  0  0  0  0  0
    5.1733   -4.5469   29.8123 C   0  0  0  0  0  0  0  0  0  0  0  0
   -1.7508  -11.3016   18.6072 C   0  0  0  0  0  0  0  0  0  0  0  0
    1.7497   -5.6771   26.4971 C   0  0  0  0  0  0  0  0  0  0  0  0
   -1.5799   -9.9322   18.3468 C   0  0  0  0  0  0  0  0  0  0  0  0
   -1.0871  -12.2214   17.8851 C   0  0  0  0  0  0  0  0  0  0  0  0
   -2.2706   -8.9669   19.0691 C   0  0  0  0  0  0  0  0  0  0  0  0
    3.0279   -5.3073   26.8197 C   0  0  0  0  0  0  0  0  0  0  0  0
    7.3282   -3.8948   29.1186 C   0  0  0  0  0  0  0  0  0  0  0  0
  1  3  4  0
  1  7  4  0
  2  3  1  0
  2  6  4  0
  2 16  4  0
  3 22  4  0
  4  9  4  0
  4 10  1  0
  4 20  4  0
  5 16  4  0
  5 23  4  0
  6 15  4  0
  7 12  4  0
  8 13  4  0
  8 14  4  0
  9 11  4  0
 11 14  4  0
 11 19  4  0
 12 18  4  0
 13 21  4  0
 15 23  4  0
 17 19  4  0
 17 20  4  0
 18 22  4  0
 19 21  4  0
M  END
$$$$

 Created by Python create_sdf_string function

 23 25  0  0  0  0  0  0  0  0999 V2000
    2.4610   -5.3070   29.1240 C   0  0  0  0  0  0  0  0  0  0  0  0
    4.7710   -4.6952   28.4803 C   0  0  0  0  0  0  0  0  0  0  0  0
    3.4047   -5.1087   28.1314 C   0  0  0  0  0  0  0  0  0  0  0  0
   -0.2234  -11.8615   16.8874 C   0  0  0  0  0  0  0  0  0  0  0  0
    6.4491   -4.1532   30.1213 C   0  0  0  0  0  0  0  0  0  0  0  0
    5.7060   -4.4340   27.4975 C   0  0  0  0  0  0  0  0  0  0  0  0
    1.1818   -5.6612   28.8399 C   0  0  0  0  0  0  0  0  0  0  0  0
   -1.2067   -7.3287   17.7772 C   0  0  0  0  0  0  0  0  0  0  0  0
   -0.0206  -10.5585   16.6210 C   0  0  0  0  0  0  0  0  0  0  0  0
    0.3696  -12.7626   16.2169 O   0  0  0  0  0  0  0  0  0  0  0  0
   -0.6895   -9.5676   17.3297 C   0  0  0  0  0  0  0  0  0  0  0  0
    0.8388   -5.8417   27.5264 C   0  0  0  0  0  0  0  0  0  0  0  0
   -2.0709   -7.6637   18.7817 C   0  0  0  0  0  0  0  0  0  0  0  0
   -0.5279   -8.2168   17.0717 C   0  0  0  0  0  0  0  0  0  0  0  0
    6.9694   -4.0191   27.8190 C   0  0  0  0  0  0  0  0  0  0  0  0
    5.1733   -4.5469   29.8123 C   0  0  0  0  0  0  0  0  0  0  0  0
   -1.7508  -11.3016   18.6072 C   0  0  0  0  0  0  0  0  0  0  0  0
    1.7497   -5.6771   26.4971 C   0  0  0  0  0  0  0  0  0  0  0  0
   -1.5799   -9.9322   18.3468 C   0  0  0  0  0  0  0  0  0  0  0  0
   -1.0871  -12.2214   17.8851 C   0  0  0  0  0  0  0  0  0  0  0  0
   -2.2706   -8.9669   19.0691 C   0  0  0  0  0  0  0  0  0  0  0  0
    3.0279   -5.3073   26.8197 C   0  0  0  0  0  0  0  0  0  0  0  0
    7.3282   -3.8948   29.1186 C   0  0  0  0  0  0  0  0  0  0  0  0
  1  3  4  0
  1  7  4  0
  2  3  1  0
  2  6  4  0
  2 16  4  0
  3 22  4  0
  4  9  4  0
  4 10  1  0
  4 20  4  0
  5 16  4  0
  5 23  4  0
  6 15  4  0
  7 12  4  0
  8 13  4  0
  8 14  4  0
  9 11  4  0
 11 14  4  0
 11 19  4  0
 12 18  4  0
 13 21  4  0
 15 23  4  0
 17 19  4  0
 17 20  4  0
 18 22  4  0
 19 21  4  0
M  END
$$$$

 Created by Python create_sdf_string function

 23 25  0  0  0  0  0  0  0  0999 V2000
    2.4610   -5.3070   29.1240 C   0  0  0  0  0  0  0  0  0  0  0  0
    4.7710   -4.6952   28.4803 C   0  0  0  0  0  0  0  0  0  0  0  0
    3.4047   -5.1087   28.1314 C   0  0  0  0  0  0  0  0  0  0  0  0
   -0.2234  -11.8615   16.8874 C   0  0  0  0  0  0  0  0  0  0  0  0
    6.4491   -4.1532   30.1213 C   0  0  0  0  0  0  0  0  0  0  0  0
    5.7060   -4.4340   27.4975 C   0  0  0  0  0  0  0  0  0  0  0  0
    1.1818   -5.6612   28.8399 C   0  0  0  0  0  0  0  0  0  0  0  0
   -1.2067   -7.3287   17.7772 C   0  0  0  0  0  0  0  0  0  0  0  0
   -0.0206  -10.5585   16.6210 C   0  0  0  0  0  0  0  0  0  0  0  0
    0.3696  -12.7626   16.2169 O   0  0  0  0  0  0  0  0  0  0  0  0
   -0.6895   -9.5676   17.3297 C   0  0  0  0  0  0  0  0  0  0  0  0
    0.8388   -5.8417   27.5264 C   0  0  0  0  0  0  0  0  0  0  0  0
   -2.0709   -7.6637   18.7817 C   0  0  0  0  0  0  0  0  0  0  0  0
   -0.5279   -8.2168   17.0717 C   0  0  0  0  0  0  0  0  0  0  0  0
    6.9694   -4.0191   27.8190 C   0  0  0  0  0  0  0  0  0  0  0  0
    5.1733   -4.5469   29.8123 C   0  0  0  0  0  0  0  0  0  0  0  0
   -1.7508  -11.3016   18.6072 C   0  0  0  0  0  0  0  0  0  0  0  0
    1.7497   -5.6771   26.4971 C   0  0  0  0  0  0  0  0  0  0  0  0
   -1.5799   -9.9322   18.3468 C   0  0  0  0  0  0  0  0  0  0  0  0
   -1.0871  -12.2214   17.8851 C   0  0  0  0  0  0  0  0  0  0  0  0
   -2.2706   -8.9669   19.0691 C   0  0  0  0  0  0  0  0  0  0  0  0
    3.0279   -5.3073   26.8197 C   0  0  0  0  0  0  0  0  0  0  0  0
    7.3282   -3.8948   29.1186 C   0  0  0  0  0  0  0  0  0  0  0  0
  1  3  4  0
  1  7  4  0
  2  3  1  0
  2  6  4  0
  2 16  4  0
  3 22  4  0
  4  9  4  0
  4 10  1  0
  4 20  4  0
  5 16  4  0
  5 23  4  0
  6 15  4  0
  7 12  4  0
  8 13  4  0
  8 14  4  0
  9 11  4  0
 11 14  4  0
 11 19  4  0
 12 18  4  0
 13 21  4  0
 15 23  4  0
 17 19  4  0
 17 20  4  0
 18 22  4  0
 19 21  4  0
M  END
$$$$

 Created by Python create_sdf_string function

 23 25  0  0  0  0  0  0  0  0999 V2000
    2.4610   -5.3070   29.1240 C   0  0  0  0  0  0  0  0  0  0  0  0
    4.7710   -4.6952   28.4803 C   0  0  0  0  0  0  0  0  0  0  0  0
    3.4047   -5.1087   28.1314 C   0  0  0  0  0  0  0  0  0  0  0  0
   -0.2234  -11.8615   16.8874 C   0  0  0  0  0  0  0  0  0  0  0  0
    6.4491   -4.1532   30.1213 C   0  0  0  0  0  0  0  0  0  0  0  0
    5.7060   -4.4340   27.4975 C   0  0  0  0  0  0  0  0  0  0  0  0
    1.1818   -5.6612   28.8399 C   0  0  0  0  0  0  0  0  0  0  0  0
   -1.2067   -7.3287   17.7772 C   0  0  0  0  0  0  0  0  0  0  0  0
   -0.0206  -10.5585   16.6210 C   0  0  0  0  0  0  0  0  0  0  0  0
    0.3696  -12.7626   16.2169 O   0  0  0  0  0  0  0  0  0  0  0  0
   -0.6895   -9.5676   17.3297 C   0  0  0  0  0  0  0  0  0  0  0  0
    0.8388   -5.8417   27.5264 C   0  0  0  0  0  0  0  0  0  0  0  0
   -2.0709   -7.6637   18.7817 C   0  0  0  0  0  0  0  0  0  0  0  0
   -0.5279   -8.2168   17.0717 C   0  0  0  0  0  0  0  0  0  0  0  0
    6.9694   -4.0191   27.8190 C   0  0  0  0  0  0  0  0  0  0  0  0
    5.1733   -4.5469   29.8123 C   0  0  0  0  0  0  0  0  0  0  0  0
   -1.7508  -11.3016   18.6072 C   0  0  0  0  0  0  0  0  0  0  0  0
    1.7497   -5.6771   26.4971 C   0  0  0  0  0  0  0  0  0  0  0  0
   -1.5799   -9.9322   18.3468 C   0  0  0  0  0  0  0  0  0  0  0  0
   -1.0871  -12.2214   17.8851 C   0  0  0  0  0  0  0  0  0  0  0  0
   -2.2706   -8.9669   19.0691 C   0  0  0  0  0  0  0  0  0  0  0  0
    3.0279   -5.3073   26.8197 C   0  0  0  0  0  0  0  0  0  0  0  0
    7.3282   -3.8948   29.1186 C   0  0  0  0  0  0  0  0  0  0  0  0
  1  3  4  0
  1  7  4  0
  2  3  1  0
  2  6  4  0
  2 16  4  0
  3 22  4  0
  4  9  4  0
  4 10  1  0
  4 20  4  0
  5 16  4  0
  5 23  4  0
  6 15  4  0
  7 12  4  0
  8 13  4  0
  8 14  4  0
  9 11  4  0
 11 14  4  0
 11 19  4  0
 12 18  4  0
 13 21  4  0
 15 23  4  0
 17 19  4  0
 17 20  4  0
 18 22  4  0
 19 21  4  0
M  END
$$$$

 Created by Python create_sdf_string function

 23 25  0  0  0  0  0  0  0  0999 V2000
    2.4610   -5.3070   29.1240 C   0  0  0  0  0  0  0  0  0  0  0  0
    4.7710   -4.6952   28.4803 C   0  0  0  0  0  0  0  0  0  0  0  0
    3.4047   -5.1087   28.1314 C   0  0  0  0  0  0  0  0  0  0  0  0
   -0.2234  -11.8615   16.8874 C   0  0  0  0  0  0  0  0  0  0  0  0
    6.4491   -4.1532   30.1213 C   0  0  0  0  0  0  0  0  0  0  0  0
    5.7060   -4.4340   27.4975 C   0  0  0  0  0  0  0  0  0  0  0  0
    1.1818   -5.6612   28.8399 C   0  0  0  0  0  0  0  0  0  0  0  0
   -1.2067   -7.3287   17.7772 C   0  0  0  0  0  0  0  0  0  0  0  0
   -0.0206  -10.5585   16.6210 C   0  0  0  0  0  0  0  0  0  0  0  0
    0.3696  -12.7626   16.2169 O   0  0  0  0  0  0  0  0  0  0  0  0
   -0.6895   -9.5676   17.3297 C   0  0  0  0  0  0  0  0  0  0  0  0
    0.8388   -5.8417   27.5264 C   0  0  0  0  0  0  0  0  0  0  0  0
   -2.0709   -7.6637   18.7817 C   0  0  0  0  0  0  0  0  0  0  0  0
   -0.5279   -8.2168   17.0717 C   0  0  0  0  0  0  0  0  0  0  0  0
    6.9694   -4.0191   27.8190 C   0  0  0  0  0  0  0  0  0  0  0  0
    5.1733   -4.5469   29.8123 C   0  0  0  0  0  0  0  0  0  0  0  0
   -1.7508  -11.3016   18.6072 C   0  0  0  0  0  0  0  0  0  0  0  0
    1.7497   -5.6771   26.4971 C   0  0  0  0  0  0  0  0  0  0  0  0
   -1.5799   -9.9322   18.3468 C   0  0  0  0  0  0  0  0  0  0  0  0
   -1.0871  -12.2214   17.8851 C   0  0  0  0  0  0  0  0  0  0  0  0
   -2.2706   -8.9669   19.0691 C   0  0  0  0  0  0  0  0  0  0  0  0
    3.0279   -5.3073   26.8197 C   0  0  0  0  0  0  0  0  0  0  0  0
    7.3282   -3.8948   29.1186 C   0  0  0  0  0  0  0  0  0  0  0  0
  1  3  4  0
  1  7  4  0
  2  3  1  0
  2  6  4  0
  2 16  4  0
  3 22  4  0
  4  9  4  0
  4 10  1  0
  4 20  4  0
  5 16  4  0
  5 23  4  0
  6 15  4  0
  7 12  4  0
  8 13  4  0
  8 14  4  0
  9 11  4  0
 11 14  4  0
 11 19  4  0
 12 18  4  0
 13 21  4  0
 15 23  4  0
 17 19  4  0
 17 20  4  0
 18 22  4  0
 19 21  4  0
M  END
$$$$

 Created by Python create_sdf_string function

 23 25  0  0  0  0  0  0  0  0999 V2000
    2.4610   -5.3070   29.1240 C   0  0  0  0  0  0  0  0  0  0  0  0
    4.7710   -4.6952   28.4803 C   0  0  0  0  0  0  0  0  0  0  0  0
    3.4047   -5.1087   28.1314 C   0  0  0  0  0  0  0  0  0  0  0  0
   -0.2234  -11.8615   16.8874 C   0  0  0  0  0  0  0  0  0  0  0  0
    6.4491   -4.1532   30.1213 C   0  0  0  0  0  0  0  0  0  0  0  0
    5.7060   -4.4340   27.4975 C   0  0  0  0  0  0  0  0  0  0  0  0
    1.1818   -5.6612   28.8399 C   0  0  0  0  0  0  0  0  0  0  0  0
   -1.2067   -7.3287   17.7772 C   0  0  0  0  0  0  0  0  0  0  0  0
   -0.0206  -10.5585   16.6210 C   0  0  0  0  0  0  0  0  0  0  0  0
    0.3696  -12.7626   16.2169 O   0  0  0  0  0  0  0  0  0  0  0  0
   -0.6895   -9.5676   17.3297 C   0  0  0  0  0  0  0  0  0  0  0  0
    0.8388   -5.8417   27.5264 C   0  0  0  0  0  0  0  0  0  0  0  0
   -2.0709   -7.6637   18.7817 C   0  0  0  0  0  0  0  0  0  0  0  0
   -0.5279   -8.2168   17.0717 C   0  0  0  0  0  0  0  0  0  0  0  0
    6.9694   -4.0191   27.8190 C   0  0  0  0  0  0  0  0  0  0  0  0
    5.1733   -4.5469   29.8123 C   0  0  0  0  0  0  0  0  0  0  0  0
   -1.7508  -11.3016   18.6072 C   0  0  0  0  0  0  0  0  0  0  0  0
    1.7497   -5.6771   26.4971 C   0  0  0  0  0  0  0  0  0  0  0  0
   -1.5799   -9.9322   18.3468 C   0  0  0  0  0  0  0  0  0  0  0  0
   -1.0871  -12.2214   17.8851 C   0  0  0  0  0  0  0  0  0  0  0  0
   -2.2706   -8.9669   19.0691 C   0  0  0  0  0  0  0  0  0  0  0  0
    3.0279   -5.3073   26.8197 C   0  0  0  0  0  0  0  0  0  0  0  0
    7.3282   -3.8948   29.1186 C   0  0  0  0  0  0  0  0  0  0  0  0
  1  3  4  0
  1  7  4  0
  2  3  1  0
  2  6  4  0
  2 16  4  0
  3 22  4  0
  4  9  4  0
  4 10  1  0
  4 20  4  0
  5 16  4  0
  5 23  4  0
  6 15  4  0
  7 12  4  0
  8 13  4  0
  8 14  4  0
  9 11  4  0
 11 14  4  0
 11 19  4  0
 12 18  4  0
 13 21  4  0
 15 23  4  0
 17 19  4  0
 17 20  4  0
 18 22  4  0
 19 21  4  0
M  END
$$$$

 Created by Python create_sdf_string function

 23 25  0  0  0  0  0  0  0  0999 V2000
    2.4610   -5.3070   29.1240 C   0  0  0  0  0  0  0  0  0  0  0  0
    4.7710   -4.6952   28.4803 C   0  0  0  0  0  0  0  0  0  0  0  0
    3.4047   -5.1087   28.1314 C   0  0  0  0  0  0  0  0  0  0  0  0
   -0.2234  -11.8615   16.8874 C   0  0  0  0  0  0  0  0  0  0  0  0
    6.4491   -4.1532   30.1213 C   0  0  0  0  0  0  0  0  0  0  0  0
    5.7060   -4.4340   27.4975 C   0  0  0  0  0  0  0  0  0  0  0  0
    1.1818   -5.6612   28.8399 C   0  0  0  0  0  0  0  0  0  0  0  0
   -1.2067   -7.3287   17.7772 C   0  0  0  0  0  0  0  0  0  0  0  0
   -0.0206  -10.5585   16.6210 C   0  0  0  0  0  0  0  0  0  0  0  0
    0.3696  -12.7626   16.2169 O   0  0  0  0  0  0  0  0  0  0  0  0
   -0.6895   -9.5676   17.3297 C   0  0  0  0  0  0  0  0  0  0  0  0
    0.8388   -5.8417   27.5264 C   0  0  0  0  0  0  0  0  0  0  0  0
   -2.0709   -7.6637   18.7817 C   0  0  0  0  0  0  0  0  0  0  0  0
   -0.5279   -8.2168   17.0717 C   0  0  0  0  0  0  0  0  0  0  0  0
    6.9694   -4.0191   27.8190 C   0  0  0  0  0  0  0  0  0  0  0  0
    5.1733   -4.5469   29.8123 C   0  0  0  0  0  0  0  0  0  0  0  0
   -1.7508  -11.3016   18.6072 C   0  0  0  0  0  0  0  0  0  0  0  0
    1.7497   -5.6771   26.4971 C   0  0  0  0  0  0  0  0  0  0  0  0
   -1.5799   -9.9322   18.3468 C   0  0  0  0  0  0  0  0  0  0  0  0
   -1.0871  -12.2214   17.8851 C   0  0  0  0  0  0  0  0  0  0  0  0
   -2.2706   -8.9669   19.0691 C   0  0  0  0  0  0  0  0  0  0  0  0
    3.0279   -5.3073   26.8197 C   0  0  0  0  0  0  0  0  0  0  0  0
    7.3282   -3.8948   29.1186 C   0  0  0  0  0  0  0  0  0  0  0  0
  1  3  4  0
  1  7  4  0
  2  3  1  0
  2  6  4  0
  2 16  4  0
  3 22  4  0
  4  9  4  0
  4 10  1  0
  4 20  4  0
  5 16  4  0
  5 23  4  0
  6 15  4  0
  7 12  4  0
  8 13  4  0
  8 14  4  0
  9 11  4  0
 11 14  4  0
 11 19  4  0
 12 18  4  0
 13 21  4  0
 15 23  4  0
 17 19  4  0
 17 20  4  0
 18 22  4  0
 19 21  4  0
M  END
$$$$

 Created by Python create_sdf_string function

 23 25  0  0  0  0  0  0  0  0999 V2000
    2.4610   -5.3070   29.1240 C   0  0  0  0  0  0  0  0  0  0  0  0
    4.7710   -4.6952   28.4803 C   0  0  0  0  0  0  0  0  0  0  0  0
    3.4047   -5.1087   28.1314 C   0  0  0  0  0  0  0  0  0  0  0  0
   -0.2234  -11.8615   16.8874 C   0  0  0  0  0  0  0  0  0  0  0  0
    6.4491   -4.1532   30.1213 C   0  0  0  0  0  0  0  0  0  0  0  0
    5.7060   -4.4340   27.4975 C   0  0  0  0  0  0  0  0  0  0  0  0
    1.1818   -5.6612   28.8399 C   0  0  0  0  0  0  0  0  0  0  0  0
   -1.2067   -7.3287   17.7772 C   0  0  0  0  0  0  0  0  0  0  0  0
   -0.0206  -10.5585   16.6210 C   0  0  0  0  0  0  0  0  0  0  0  0
    0.3696  -12.7626   16.2169 O   0  0  0  0  0  0  0  0  0  0  0  0
   -0.6895   -9.5676   17.3297 C   0  0  0  0  0  0  0  0  0  0  0  0
    0.8388   -5.8417   27.5264 C   0  0  0  0  0  0  0  0  0  0  0  0
   -2.0709   -7.6637   18.7817 C   0  0  0  0  0  0  0  0  0  0  0  0
   -0.5279   -8.2168   17.0717 C   0  0  0  0  0  0  0  0  0  0  0  0
    6.9694   -4.0191   27.8190 C   0  0  0  0  0  0  0  0  0  0  0  0
    5.1733   -4.5469   29.8123 C   0  0  0  0  0  0  0  0  0  0  0  0
   -1.7508  -11.3016   18.6072 C   0  0  0  0  0  0  0  0  0  0  0  0
    1.7497   -5.6771   26.4971 C   0  0  0  0  0  0  0  0  0  0  0  0
   -1.5799   -9.9322   18.3468 C   0  0  0  0  0  0  0  0  0  0  0  0
   -1.0871  -12.2214   17.8851 C   0  0  0  0  0  0  0  0  0  0  0  0
   -2.2706   -8.9669   19.0691 C   0  0  0  0  0  0  0  0  0  0  0  0
    3.0279   -5.3073   26.8197 C   0  0  0  0  0  0  0  0  0  0  0  0
    7.3282   -3.8948   29.1186 C   0  0  0  0  0  0  0  0  0  0  0  0
  1  3  4  0
  1  7  4  0
  2  3  1  0
  2  6  4  0
  2 16  4  0
  3 22  4  0
  4  9  4  0
  4 10  1  0
  4 20  4  0
  5 16  4  0
  5 23  4  0
  6 15  4  0
  7 12  4  0
  8 13  4  0
  8 14  4  0
  9 11  4  0
 11 14  4  0
 11 19  4  0
 12 18  4  0
 13 21  4  0
 15 23  4  0
 17 19  4  0
 17 20  4  0
 18 22  4  0
 19 21  4  0
M  END
$$$$

 Created by Python create_sdf_string function

 23 25  0  0  0  0  0  0  0  0999 V2000
    2.4610   -5.3070   29.1240 C   0  0  0  0  0  0  0  0  0  0  0  0
    4.7710   -4.6952   28.4803 C   0  0  0  0  0  0  0  0  0  0  0  0
    3.4047   -5.1087   28.1314 C   0  0  0  0  0  0  0  0  0  0  0  0
   -0.2234  -11.8615   16.8874 C   0  0  0  0  0  0  0  0  0  0  0  0
    6.4491   -4.1532   30.1213 C   0  0  0  0  0  0  0  0  0  0  0  0
    5.7060   -4.4340   27.4975 C   0  0  0  0  0  0  0  0  0  0  0  0
    1.1818   -5.6612   28.8399 C   0  0  0  0  0  0  0  0  0  0  0  0
   -1.2067   -7.3287   17.7772 C   0  0  0  0  0  0  0  0  0  0  0  0
   -0.0206  -10.5585   16.6210 C   0  0  0  0  0  0  0  0  0  0  0  0
    0.3696  -12.7626   16.2169 O   0  0  0  0  0  0  0  0  0  0  0  0
   -0.6895   -9.5676   17.3297 C   0  0  0  0  0  0  0  0  0  0  0  0
    0.8388   -5.8417   27.5264 C   0  0  0  0  0  0  0  0  0  0  0  0
   -2.0709   -7.6637   18.7817 C   0  0  0  0  0  0  0  0  0  0  0  0
   -0.5279   -8.2168   17.0717 C   0  0  0  0  0  0  0  0  0  0  0  0
    6.9694   -4.0191   27.8190 C   0  0  0  0  0  0  0  0  0  0  0  0
    5.1733   -4.5469   29.8123 C   0  0  0  0  0  0  0  0  0  0  0  0
   -1.7508  -11.3016   18.6072 C   0  0  0  0  0  0  0  0  0  0  0  0
    1.7497   -5.6771   26.4971 C   0  0  0  0  0  0  0  0  0  0  0  0
   -1.5799   -9.9322   18.3468 C   0  0  0  0  0  0  0  0  0  0  0  0
   -1.0871  -12.2214   17.8851 C   0  0  0  0  0  0  0  0  0  0  0  0
   -2.2706   -8.9669   19.0691 C   0  0  0  0  0  0  0  0  0  0  0  0
    3.0279   -5.3073   26.8197 C   0  0  0  0  0  0  0  0  0  0  0  0
    7.3282   -3.8948   29.1186 C   0  0  0  0  0  0  0  0  0  0  0  0
  1  3  4  0
  1  7  4  0
  2  3  1  0
  2  6  4  0
  2 16  4  0
  3 22  4  0
  4  9  4  0
  4 10  1  0
  4 20  4  0
  5 16  4  0
  5 23  4  0
  6 15  4  0
  7 12  4  0
  8 13  4  0
  8 14  4  0
  9 11  4  0
 11 14  4  0
 11 19  4  0
 12 18  4  0
 13 21  4  0
 15 23  4  0
 17 19  4  0
 17 20  4  0
 18 22  4  0
 19 21  4  0
M  END
$$$$

 Created by Python create_sdf_string function

 23 25  0  0  0  0  0  0  0  0999 V2000
    2.4610   -5.3070   29.1240 C   0  0  0  0  0  0  0  0  0  0  0  0
    4.7710   -4.6952   28.4803 C   0  0  0  0  0  0  0  0  0  0  0  0
    3.4047   -5.1087   28.1314 C   0  0  0  0  0  0  0  0  0  0  0  0
   -0.2234  -11.8615   16.8874 C   0  0  0  0  0  0  0  0  0  0  0  0
    6.4491   -4.1532   30.1213 C   0  0  0  0  0  0  0  0  0  0  0  0
    5.7060   -4.4340   27.4975 C   0  0  0  0  0  0  0  0  0  0  0  0
    1.1818   -5.6612   28.8399 C   0  0  0  0  0  0  0  0  0  0  0  0
   -1.2067   -7.3287   17.7772 C   0  0  0  0  0  0  0  0  0  0  0  0
   -0.0206  -10.5585   16.6210 C   0  0  0  0  0  0  0  0  0  0  0  0
    0.3696  -12.7626   16.2169 O   0  0  0  0  0  0  0  0  0  0  0  0
   -0.6895   -9.5676   17.3297 C   0  0  0  0  0  0  0  0  0  0  0  0
    0.8388   -5.8417   27.5264 C   0  0  0  0  0  0  0  0  0  0  0  0
   -2.0709   -7.6637   18.7817 C   0  0  0  0  0  0  0  0  0  0  0  0
   -0.5279   -8.2168   17.0717 C   0  0  0  0  0  0  0  0  0  0  0  0
    6.9694   -4.0191   27.8190 C   0  0  0  0  0  0  0  0  0  0  0  0
    5.1733   -4.5469   29.8123 C   0  0  0  0  0  0  0  0  0  0  0  0
   -1.7508  -11.3016   18.6072 C   0  0  0  0  0  0  0  0  0  0  0  0
    1.7497   -5.6771   26.4971 C   0  0  0  0  0  0  0  0  0  0  0  0
   -1.5799   -9.9322   18.3468 C   0  0  0  0  0  0  0  0  0  0  0  0
   -1.0871  -12.2214   17.8851 C   0  0  0  0  0  0  0  0  0  0  0  0
   -2.2706   -8.9669   19.0691 C   0  0  0  0  0  0  0  0  0  0  0  0
    3.0279   -5.3073   26.8197 C   0  0  0  0  0  0  0  0  0  0  0  0
    7.3282   -3.8948   29.1186 C   0  0  0  0  0  0  0  0  0  0  0  0
  1  3  4  0
  1  7  4  0
  2  3  1  0
  2  6  4  0
  2 16  4  0
  3 22  4  0
  4  9  4  0
  4 10  1  0
  4 20  4  0
  5 16  4  0
  5 23  4  0
  6 15  4  0
  7 12  4  0
  8 13  4  0
  8 14  4  0
  9 11  4  0
 11 14  4  0
 11 19  4  0
 12 18  4  0
 13 21  4  0
 15 23  4  0
 17 19  4  0
 17 20  4  0
 18 22  4  0
 19 21  4  0
M  END
$$$$

 Created by Python create_sdf_string function

 23 25  0  0  0  0  0  0  0  0999 V2000
    2.4610   -5.3070   29.1240 C   0  0  0  0  0  0  0  0  0  0  0  0
    4.7710   -4.6952   28.4803 C   0  0  0  0  0  0  0  0  0  0  0  0
    3.4047   -5.1087   28.1314 C   0  0  0  0  0  0  0  0  0  0  0  0
   -0.2234  -11.8615   16.8874 C   0  0  0  0  0  0  0  0  0  0  0  0
    6.4491   -4.1532   30.1213 C   0  0  0  0  0  0  0  0  0  0  0  0
    5.7060   -4.4340   27.4975 C   0  0  0  0  0  0  0  0  0  0  0  0
    1.1818   -5.6612   28.8399 C   0  0  0  0  0  0  0  0  0  0  0  0
   -1.2067   -7.3287   17.7772 C   0  0  0  0  0  0  0  0  0  0  0  0
   -0.0206  -10.5585   16.6210 C   0  0  0  0  0  0  0  0  0  0  0  0
    0.3696  -12.7626   16.2169 O   0  0  0  0  0  0  0  0  0  0  0  0
   -0.6895   -9.5676   17.3297 C   0  0  0  0  0  0  0  0  0  0  0  0
    0.8388   -5.8417   27.5264 C   0  0  0  0  0  0  0  0  0  0  0  0
   -2.0709   -7.6637   18.7817 C   0  0  0  0  0  0  0  0  0  0  0  0
   -0.5279   -8.2168   17.0717 C   0  0  0  0  0  0  0  0  0  0  0  0
    6.9694   -4.0191   27.8190 C   0  0  0  0  0  0  0  0  0  0  0  0
    5.1733   -4.5469   29.8123 C   0  0  0  0  0  0  0  0  0  0  0  0
   -1.7508  -11.3016   18.6072 C   0  0  0  0  0  0  0  0  0  0  0  0
    1.7497   -5.6771   26.4971 C   0  0  0  0  0  0  0  0  0  0  0  0
   -1.5799   -9.9322   18.3468 C   0  0  0  0  0  0  0  0  0  0  0  0
   -1.0871  -12.2214   17.8851 C   0  0  0  0  0  0  0  0  0  0  0  0
   -2.2706   -8.9669   19.0691 C   0  0  0  0  0  0  0  0  0  0  0  0
    3.0279   -5.3073   26.8197 C   0  0  0  0  0  0  0  0  0  0  0  0
    7.3282   -3.8948   29.1186 C   0  0  0  0  0  0  0  0  0  0  0  0
  1  3  4  0
  1  7  4  0
  2  3  1  0
  2  6  4  0
  2 16  4  0
  3 22  4  0
  4  9  4  0
  4 10  1  0
  4 20  4  0
  5 16  4  0
  5 23  4  0
  6 15  4  0
  7 12  4  0
  8 13  4  0
  8 14  4  0
  9 11  4  0
 11 14  4  0
 11 19  4  0
 12 18  4  0
 13 21  4  0
 15 23  4  0
 17 19  4  0
 17 20  4  0
 18 22  4  0
 19 21  4  0
M  END
$$$$

 Created by Python create_sdf_string function

 23 25  0  0  0  0  0  0  0  0999 V2000
    2.4610   -5.3070   29.1240 C   0  0  0  0  0  0  0  0  0  0  0  0
    4.7710   -4.6952   28.4803 C   0  0  0  0  0  0  0  0  0  0  0  0
    3.4047   -5.1087   28.1314 C   0  0  0  0  0  0  0  0  0  0  0  0
   -0.2234  -11.8615   16.8874 C   0  0  0  0  0  0  0  0  0  0  0  0
    6.4491   -4.1532   30.1213 C   0  0  0  0  0  0  0  0  0  0  0  0
    5.7060   -4.4340   27.4975 C   0  0  0  0  0  0  0  0  0  0  0  0
    1.1818   -5.6612   28.8399 C   0  0  0  0  0  0  0  0  0  0  0  0
   -1.2067   -7.3287   17.7772 C   0  0  0  0  0  0  0  0  0  0  0  0
   -0.0206  -10.5585   16.6210 C   0  0  0  0  0  0  0  0  0  0  0  0
    0.3696  -12.7626   16.2169 O   0  0  0  0  0  0  0  0  0  0  0  0
   -0.6895   -9.5676   17.3297 C   0  0  0  0  0  0  0  0  0  0  0  0
    0.8388   -5.8417   27.5264 C   0  0  0  0  0  0  0  0  0  0  0  0
   -2.0709   -7.6637   18.7817 C   0  0  0  0  0  0  0  0  0  0  0  0
   -0.5279   -8.2168   17.0717 C   0  0  0  0  0  0  0  0  0  0  0  0
    6.9694   -4.0191   27.8190 C   0  0  0  0  0  0  0  0  0  0  0  0
    5.1733   -4.5469   29.8123 C   0  0  0  0  0  0  0  0  0  0  0  0
   -1.7508  -11.3016   18.6072 C   0  0  0  0  0  0  0  0  0  0  0  0
    1.7497   -5.6771   26.4971 C   0  0  0  0  0  0  0  0  0  0  0  0
   -1.5799   -9.9322   18.3468 C   0  0  0  0  0  0  0  0  0  0  0  0
   -1.0871  -12.2214   17.8851 C   0  0  0  0  0  0  0  0  0  0  0  0
   -2.2706   -8.9669   19.0691 C   0  0  0  0  0  0  0  0  0  0  0  0
    3.0279   -5.3073   26.8197 C   0  0  0  0  0  0  0  0  0  0  0  0
    7.3282   -3.8948   29.1186 C   0  0  0  0  0  0  0  0  0  0  0  0
  1  3  4  0
  1  7  4  0
  2  3  1  0
  2  6  4  0
  2 16  4  0
  3 22  4  0
  4  9  4  0
  4 10  1  0
  4 20  4  0
  5 16  4  0
  5 23  4  0
  6 15  4  0
  7 12  4  0
  8 13  4  0
  8 14  4  0
  9 11  4  0
 11 14  4  0
 11 19  4  0
 12 18  4  0
 13 21  4  0
 15 23  4  0
 17 19  4  0
 17 20  4  0
 18 22  4  0
 19 21  4  0
M  END
$$$$

 Created by Python create_sdf_string function

 23 25  0  0  0  0  0  0  0  0999 V2000
    2.4610   -5.3070   29.1240 C   0  0  0  0  0  0  0  0  0  0  0  0
    4.7710   -4.6952   28.4803 C   0  0  0  0  0  0  0  0  0  0  0  0
    3.4047   -5.1087   28.1314 C   0  0  0  0  0  0  0  0  0  0  0  0
   -0.2234  -11.8615   16.8874 C   0  0  0  0  0  0  0  0  0  0  0  0
    6.4491   -4.1532   30.1213 C   0  0  0  0  0  0  0  0  0  0  0  0
    5.7060   -4.4340   27.4975 C   0  0  0  0  0  0  0  0  0  0  0  0
    1.1818   -5.6612   28.8399 C   0  0  0  0  0  0  0  0  0  0  0  0
   -1.2067   -7.3287   17.7772 C   0  0  0  0  0  0  0  0  0  0  0  0
   -0.0206  -10.5585   16.6210 C   0  0  0  0  0  0  0  0  0  0  0  0
    0.3696  -12.7626   16.2169 O   0  0  0  0  0  0  0  0  0  0  0  0
   -0.6895   -9.5676   17.3297 C   0  0  0  0  0  0  0  0  0  0  0  0
    0.8388   -5.8417   27.5264 C   0  0  0  0  0  0  0  0  0  0  0  0
   -2.0709   -7.6637   18.7817 C   0  0  0  0  0  0  0  0  0  0  0  0
   -0.5279   -8.2168   17.0717 C   0  0  0  0  0  0  0  0  0  0  0  0
    6.9694   -4.0191   27.8190 C   0  0  0  0  0  0  0  0  0  0  0  0
    5.1733   -4.5469   29.8123 C   0  0  0  0  0  0  0  0  0  0  0  0
   -1.7508  -11.3016   18.6072 C   0  0  0  0  0  0  0  0  0  0  0  0
    1.7497   -5.6771   26.4971 C   0  0  0  0  0  0  0  0  0  0  0  0
   -1.5799   -9.9322   18.3468 C   0  0  0  0  0  0  0  0  0  0  0  0
   -1.0871  -12.2214   17.8851 C   0  0  0  0  0  0  0  0  0  0  0  0
   -2.2706   -8.9669   19.0691 C   0  0  0  0  0  0  0  0  0  0  0  0
    3.0279   -5.3073   26.8197 C   0  0  0  0  0  0  0  0  0  0  0  0
    7.3282   -3.8948   29.1186 C   0  0  0  0  0  0  0  0  0  0  0  0
  1  3  4  0
  1  7  4  0
  2  3  1  0
  2  6  4  0
  2 16  4  0
  3 22  4  0
  4  9  4  0
  4 10  1  0
  4 20  4  0
  5 16  4  0
  5 23  4  0
  6 15  4  0
  7 12  4  0
  8 13  4  0
  8 14  4  0
  9 11  4  0
 11 14  4  0
 11 19  4  0
 12 18  4  0
 13 21  4  0
 15 23  4  0
 17 19  4  0
 17 20  4  0
 18 22  4  0
 19 21  4  0
M  END
$$$$

 Created by Python create_sdf_string function

 23 25  0  0  0  0  0  0  0  0999 V2000
    2.4610   -5.3070   29.1240 C   0  0  0  0  0  0  0  0  0  0  0  0
    4.7710   -4.6952   28.4803 C   0  0  0  0  0  0  0  0  0  0  0  0
    3.4047   -5.1087   28.1314 C   0  0  0  0  0  0  0  0  0  0  0  0
   -0.2234  -11.8615   16.8874 C   0  0  0  0  0  0  0  0  0  0  0  0
    6.4491   -4.1532   30.1213 C   0  0  0  0  0  0  0  0  0  0  0  0
    5.7060   -4.4340   27.4975 C   0  0  0  0  0  0  0  0  0  0  0  0
    1.1818   -5.6612   28.8399 C   0  0  0  0  0  0  0  0  0  0  0  0
   -1.2067   -7.3287   17.7772 C   0  0  0  0  0  0  0  0  0  0  0  0
   -0.0206  -10.5585   16.6210 C   0  0  0  0  0  0  0  0  0  0  0  0
    0.3696  -12.7626   16.2169 O   0  0  0  0  0  0  0  0  0  0  0  0
   -0.6895   -9.5676   17.3297 C   0  0  0  0  0  0  0  0  0  0  0  0
    0.8388   -5.8417   27.5264 C   0  0  0  0  0  0  0  0  0  0  0  0
   -2.0709   -7.6637   18.7817 C   0  0  0  0  0  0  0  0  0  0  0  0
   -0.5279   -8.2168   17.0717 C   0  0  0  0  0  0  0  0  0  0  0  0
    6.9694   -4.0191   27.8190 C   0  0  0  0  0  0  0  0  0  0  0  0
    5.1733   -4.5469   29.8123 C   0  0  0  0  0  0  0  0  0  0  0  0
   -1.7508  -11.3016   18.6072 C   0  0  0  0  0  0  0  0  0  0  0  0
    1.7497   -5.6771   26.4971 C   0  0  0  0  0  0  0  0  0  0  0  0
   -1.5799   -9.9322   18.3468 C   0  0  0  0  0  0  0  0  0  0  0  0
   -1.0871  -12.2214   17.8851 C   0  0  0  0  0  0  0  0  0  0  0  0
   -2.2706   -8.9669   19.0691 C   0  0  0  0  0  0  0  0  0  0  0  0
    3.0279   -5.3073   26.8197 C   0  0  0  0  0  0  0  0  0  0  0  0
    7.3282   -3.8948   29.1186 C   0  0  0  0  0  0  0  0  0  0  0  0
  1  3  4  0
  1  7  4  0
  2  3  1  0
  2  6  4  0
  2 16  4  0
  3 22  4  0
  4  9  4  0
  4 10  1  0
  4 20  4  0
  5 16  4  0
  5 23  4  0
  6 15  4  0
  7 12  4  0
  8 13  4  0
  8 14  4  0
  9 11  4  0
 11 14  4  0
 11 19  4  0
 12 18  4  0
 13 21  4  0
 15 23  4  0
 17 19  4  0
 17 20  4  0
 18 22  4  0
 19 21  4  0
M  END
$$$$

 Created by Python create_sdf_string function

 23 25  0  0  0  0  0  0  0  0999 V2000
    2.4610   -5.3070   29.1240 C   0  0  0  0  0  0  0  0  0  0  0  0
    4.7710   -4.6952   28.4803 C   0  0  0  0  0  0  0  0  0  0  0  0
    3.4047   -5.1087   28.1314 C   0  0  0  0  0  0  0  0  0  0  0  0
   -0.2234  -11.8615   16.8874 C   0  0  0  0  0  0  0  0  0  0  0  0
    6.4491   -4.1532   30.1213 C   0  0  0  0  0  0  0  0  0  0  0  0
    5.7060   -4.4340   27.4975 C   0  0  0  0  0  0  0  0  0  0  0  0
    1.1818   -5.6612   28.8399 C   0  0  0  0  0  0  0  0  0  0  0  0
   -1.2067   -7.3287   17.7772 C   0  0  0  0  0  0  0  0  0  0  0  0
   -0.0206  -10.5585   16.6210 C   0  0  0  0  0  0  0  0  0  0  0  0
    0.3696  -12.7626   16.2169 O   0  0  0  0  0  0  0  0  0  0  0  0
   -0.6895   -9.5676   17.3297 C   0  0  0  0  0  0  0  0  0  0  0  0
    0.8388   -5.8417   27.5264 C   0  0  0  0  0  0  0  0  0  0  0  0
   -2.0709   -7.6637   18.7817 C   0  0  0  0  0  0  0  0  0  0  0  0
   -0.5279   -8.2168   17.0717 C   0  0  0  0  0  0  0  0  0  0  0  0
    6.9694   -4.0191   27.8190 C   0  0  0  0  0  0  0  0  0  0  0  0
    5.1733   -4.5469   29.8123 C   0  0  0  0  0  0  0  0  0  0  0  0
   -1.7508  -11.3016   18.6072 C   0  0  0  0  0  0  0  0  0  0  0  0
    1.7497   -5.6771   26.4971 C   0  0  0  0  0  0  0  0  0  0  0  0
   -1.5799   -9.9322   18.3468 C   0  0  0  0  0  0  0  0  0  0  0  0
   -1.0871  -12.2214   17.8851 C   0  0  0  0  0  0  0  0  0  0  0  0
   -2.2706   -8.9669   19.0691 C   0  0  0  0  0  0  0  0  0  0  0  0
    3.0279   -5.3073   26.8197 C   0  0  0  0  0  0  0  0  0  0  0  0
    7.3282   -3.8948   29.1186 C   0  0  0  0  0  0  0  0  0  0  0  0
  1  3  4  0
  1  7  4  0
  2  3  1  0
  2  6  4  0
  2 16  4  0
  3 22  4  0
  4  9  4  0
  4 10  1  0
  4 20  4  0
  5 16  4  0
  5 23  4  0
  6 15  4  0
  7 12  4  0
  8 13  4  0
  8 14  4  0
  9 11  4  0
 11 14  4  0
 11 19  4  0
 12 18  4  0
 13 21  4  0
 15 23  4  0
 17 19  4  0
 17 20  4  0
 18 22  4  0
 19 21  4  0
M  END
$$$$

 Created by Python create_sdf_string function

 23 25  0  0  0  0  0  0  0  0999 V2000
    2.4610   -5.3070   29.1240 C   0  0  0  0  0  0  0  0  0  0  0  0
    4.7710   -4.6952   28.4803 C   0  0  0  0  0  0  0  0  0  0  0  0
    3.4047   -5.1087   28.1314 C   0  0  0  0  0  0  0  0  0  0  0  0
   -0.2234  -11.8615   16.8874 C   0  0  0  0  0  0  0  0  0  0  0  0
    6.4491   -4.1532   30.1213 C   0  0  0  0  0  0  0  0  0  0  0  0
    5.7060   -4.4340   27.4975 C   0  0  0  0  0  0  0  0  0  0  0  0
    1.1818   -5.6612   28.8399 C   0  0  0  0  0  0  0  0  0  0  0  0
   -1.2067   -7.3287   17.7772 C   0  0  0  0  0  0  0  0  0  0  0  0
   -0.0206  -10.5585   16.6210 C   0  0  0  0  0  0  0  0  0  0  0  0
    0.3696  -12.7626   16.2169 O   0  0  0  0  0  0  0  0  0  0  0  0
   -0.6895   -9.5676   17.3297 C   0  0  0  0  0  0  0  0  0  0  0  0
    0.8388   -5.8417   27.5264 C   0  0  0  0  0  0  0  0  0  0  0  0
   -2.0709   -7.6637   18.7817 C   0  0  0  0  0  0  0  0  0  0  0  0
   -0.5279   -8.2168   17.0717 C   0  0  0  0  0  0  0  0  0  0  0  0
    6.9694   -4.0191   27.8190 C   0  0  0  0  0  0  0  0  0  0  0  0
    5.1733   -4.5469   29.8123 C   0  0  0  0  0  0  0  0  0  0  0  0
   -1.7508  -11.3016   18.6072 C   0  0  0  0  0  0  0  0  0  0  0  0
    1.7497   -5.6771   26.4971 C   0  0  0  0  0  0  0  0  0  0  0  0
   -1.5799   -9.9322   18.3468 C   0  0  0  0  0  0  0  0  0  0  0  0
   -1.0871  -12.2214   17.8851 C   0  0  0  0  0  0  0  0  0  0  0  0
   -2.2706   -8.9669   19.0691 C   0  0  0  0  0  0  0  0  0  0  0  0
    3.0279   -5.3073   26.8197 C   0  0  0  0  0  0  0  0  0  0  0  0
    7.3282   -3.8948   29.1186 C   0  0  0  0  0  0  0  0  0  0  0  0
  1  3  4  0
  1  7  4  0
  2  3  1  0
  2  6  4  0
  2 16  4  0
  3 22  4  0
  4  9  4  0
  4 10  1  0
  4 20  4  0
  5 16  4  0
  5 23  4  0
  6 15  4  0
  7 12  4  0
  8 13  4  0
  8 14  4  0
  9 11  4  0
 11 14  4  0
 11 19  4  0
 12 18  4  0
 13 21  4  0
 15 23  4  0
 17 19  4  0
 17 20  4  0
 18 22  4  0
 19 21  4  0
M  END
$$$$

 Created by Python create_sdf_string function

 23 25  0  0  0  0  0  0  0  0999 V2000
    2.4610   -5.3070   29.1240 C   0  0  0  0  0  0  0  0  0  0  0  0
    4.7710   -4.6952   28.4803 C   0  0  0  0  0  0  0  0  0  0  0  0
    3.4047   -5.1087   28.1314 C   0  0  0  0  0  0  0  0  0  0  0  0
   -0.2234  -11.8615   16.8874 C   0  0  0  0  0  0  0  0  0  0  0  0
    6.4491   -4.1532   30.1213 C   0  0  0  0  0  0  0  0  0  0  0  0
    5.7060   -4.4340   27.4975 C   0  0  0  0  0  0  0  0  0  0  0  0
    1.1818   -5.6612   28.8399 C   0  0  0  0  0  0  0  0  0  0  0  0
   -1.2067   -7.3287   17.7772 C   0  0  0  0  0  0  0  0  0  0  0  0
   -0.0206  -10.5585   16.6210 C   0  0  0  0  0  0  0  0  0  0  0  0
    0.3696  -12.7626   16.2169 O   0  0  0  0  0  0  0  0  0  0  0  0
   -0.6895   -9.5676   17.3297 C   0  0  0  0  0  0  0  0  0  0  0  0
    0.8388   -5.8417   27.5264 C   0  0  0  0  0  0  0  0  0  0  0  0
   -2.0709   -7.6637   18.7817 C   0  0  0  0  0  0  0  0  0  0  0  0
   -0.5279   -8.2168   17.0717 C   0  0  0  0  0  0  0  0  0  0  0  0
    6.9694   -4.0191   27.8190 C   0  0  0  0  0  0  0  0  0  0  0  0
    5.1733   -4.5469   29.8123 C   0  0  0  0  0  0  0  0  0  0  0  0
   -1.7508  -11.3016   18.6072 C   0  0  0  0  0  0  0  0  0  0  0  0
    1.7497   -5.6771   26.4971 C   0  0  0  0  0  0  0  0  0  0  0  0
   -1.5799   -9.9322   18.3468 C   0  0  0  0  0  0  0  0  0  0  0  0
   -1.0871  -12.2214   17.8851 C   0  0  0  0  0  0  0  0  0  0  0  0
   -2.2706   -8.9669   19.0691 C   0  0  0  0  0  0  0  0  0  0  0  0
    3.0279   -5.3073   26.8197 C   0  0  0  0  0  0  0  0  0  0  0  0
    7.3282   -3.8948   29.1186 C   0  0  0  0  0  0  0  0  0  0  0  0
  1  3  4  0
  1  7  4  0
  2  3  1  0
  2  6  4  0
  2 16  4  0
  3 22  4  0
  4  9  4  0
  4 10  1  0
  4 20  4  0
  5 16  4  0
  5 23  4  0
  6 15  4  0
  7 12  4  0
  8 13  4  0
  8 14  4  0
  9 11  4  0
 11 14  4  0
 11 19  4  0
 12 18  4  0
 13 21  4  0
 15 23  4  0
 17 19  4  0
 17 20  4  0
 18 22  4  0
 19 21  4  0
M  END
$$$$

 Created by Python create_sdf_string function

 23 25  0  0  0  0  0  0  0  0999 V2000
    2.4610   -5.3070   29.1240 C   0  0  0  0  0  0  0  0  0  0  0  0
    4.7710   -4.6952   28.4803 C   0  0  0  0  0  0  0  0  0  0  0  0
    3.4047   -5.1087   28.1314 C   0  0  0  0  0  0  0  0  0  0  0  0
   -0.2234  -11.8615   16.8874 C   0  0  0  0  0  0  0  0  0  0  0  0
    6.4491   -4.1532   30.1213 C   0  0  0  0  0  0  0  0  0  0  0  0
    5.7060   -4.4340   27.4975 C   0  0  0  0  0  0  0  0  0  0  0  0
    1.1818   -5.6612   28.8399 C   0  0  0  0  0  0  0  0  0  0  0  0
   -1.2067   -7.3287   17.7772 C   0  0  0  0  0  0  0  0  0  0  0  0
   -0.0206  -10.5585   16.6210 C   0  0  0  0  0  0  0  0  0  0  0  0
    0.3696  -12.7626   16.2169 O   0  0  0  0  0  0  0  0  0  0  0  0
   -0.6895   -9.5676   17.3297 C   0  0  0  0  0  0  0  0  0  0  0  0
    0.8388   -5.8417   27.5264 C   0  0  0  0  0  0  0  0  0  0  0  0
   -2.0709   -7.6637   18.7817 C   0  0  0  0  0  0  0  0  0  0  0  0
   -0.5279   -8.2168   17.0717 C   0  0  0  0  0  0  0  0  0  0  0  0
    6.9694   -4.0191   27.8190 C   0  0  0  0  0  0  0  0  0  0  0  0
    5.1733   -4.5469   29.8123 C   0  0  0  0  0  0  0  0  0  0  0  0
   -1.7508  -11.3016   18.6072 C   0  0  0  0  0  0  0  0  0  0  0  0
    1.7497   -5.6771   26.4971 C   0  0  0  0  0  0  0  0  0  0  0  0
   -1.5799   -9.9322   18.3468 C   0  0  0  0  0  0  0  0  0  0  0  0
   -1.0871  -12.2214   17.8851 C   0  0  0  0  0  0  0  0  0  0  0  0
   -2.2706   -8.9669   19.0691 C   0  0  0  0  0  0  0  0  0  0  0  0
    3.0279   -5.3073   26.8197 C   0  0  0  0  0  0  0  0  0  0  0  0
    7.3282   -3.8948   29.1186 C   0  0  0  0  0  0  0  0  0  0  0  0
  1  3  4  0
  1  7  4  0
  2  3  1  0
  2  6  4  0
  2 16  4  0
  3 22  4  0
  4  9  4  0
  4 10  1  0
  4 20  4  0
  5 16  4  0
  5 23  4  0
  6 15  4  0
  7 12  4  0
  8 13  4  0
  8 14  4  0
  9 11  4  0
 11 14  4  0
 11 19  4  0
 12 18  4  0
 13 21  4  0
 15 23  4  0
 17 19  4  0
 17 20  4  0
 18 22  4  0
 19 21  4  0
M  END
$$$$

 Created by Python create_sdf_string function

 23 25  0  0  0  0  0  0  0  0999 V2000
    2.4610   -5.3070   29.1240 C   0  0  0  0  0  0  0  0  0  0  0  0
    4.7710   -4.6952   28.4803 C   0  0  0  0  0  0  0  0  0  0  0  0
    3.4047   -5.1087   28.1314 C   0  0  0  0  0  0  0  0  0  0  0  0
   -0.2234  -11.8615   16.8874 C   0  0  0  0  0  0  0  0  0  0  0  0
    6.4491   -4.1532   30.1213 C   0  0  0  0  0  0  0  0  0  0  0  0
    5.7060   -4.4340   27.4975 C   0  0  0  0  0  0  0  0  0  0  0  0
    1.1818   -5.6612   28.8399 C   0  0  0  0  0  0  0  0  0  0  0  0
   -1.2067   -7.3287   17.7772 C   0  0  0  0  0  0  0  0  0  0  0  0
   -0.0206  -10.5585   16.6210 C   0  0  0  0  0  0  0  0  0  0  0  0
    0.3696  -12.7626   16.2169 O   0  0  0  0  0  0  0  0  0  0  0  0
   -0.6895   -9.5676   17.3297 C   0  0  0  0  0  0  0  0  0  0  0  0
    0.8388   -5.8417   27.5264 C   0  0  0  0  0  0  0  0  0  0  0  0
   -2.0709   -7.6637   18.7817 C   0  0  0  0  0  0  0  0  0  0  0  0
   -0.5279   -8.2168   17.0717 C   0  0  0  0  0  0  0  0  0  0  0  0
    6.9694   -4.0191   27.8190 C   0  0  0  0  0  0  0  0  0  0  0  0
    5.1733   -4.5469   29.8123 C   0  0  0  0  0  0  0  0  0  0  0  0
   -1.7508  -11.3016   18.6072 C   0  0  0  0  0  0  0  0  0  0  0  0
    1.7497   -5.6771   26.4971 C   0  0  0  0  0  0  0  0  0  0  0  0
   -1.5799   -9.9322   18.3468 C   0  0  0  0  0  0  0  0  0  0  0  0
   -1.0871  -12.2214   17.8851 C   0  0  0  0  0  0  0  0  0  0  0  0
   -2.2706   -8.9669   19.0691 C   0  0  0  0  0  0  0  0  0  0  0  0
    3.0279   -5.3073   26.8197 C   0  0  0  0  0  0  0  0  0  0  0  0
    7.3282   -3.8948   29.1186 C   0  0  0  0  0  0  0  0  0  0  0  0
  1  3  4  0
  1  7  4  0
  2  3  1  0
  2  6  4  0
  2 16  4  0
  3 22  4  0
  4  9  4  0
  4 10  1  0
  4 20  4  0
  5 16  4  0
  5 23  4  0
  6 15  4  0
  7 12  4  0
  8 13  4  0
  8 14  4  0
  9 11  4  0
 11 14  4  0
 11 19  4  0
 12 18  4  0
 13 21  4  0
 15 23  4  0
 17 19  4  0
 17 20  4  0
 18 22  4  0
 19 21  4  0
M  END
$$$$

 Created by Python create_sdf_string function

 23 25  0  0  0  0  0  0  0  0999 V2000
    2.4610   -5.3070   29.1240 C   0  0  0  0  0  0  0  0  0  0  0  0
    4.7710   -4.6952   28.4803 C   0  0  0  0  0  0  0  0  0  0  0  0
    3.4047   -5.1087   28.1314 C   0  0  0  0  0  0  0  0  0  0  0  0
   -0.2234  -11.8615   16.8874 C   0  0  0  0  0  0  0  0  0  0  0  0
    6.4491   -4.1532   30.1213 C   0  0  0  0  0  0  0  0  0  0  0  0
    5.7060   -4.4340   27.4975 C   0  0  0  0  0  0  0  0  0  0  0  0
    1.1818   -5.6612   28.8399 C   0  0  0  0  0  0  0  0  0  0  0  0
   -1.2067   -7.3287   17.7772 C   0  0  0  0  0  0  0  0  0  0  0  0
   -0.0206  -10.5585   16.6210 C   0  0  0  0  0  0  0  0  0  0  0  0
    0.3696  -12.7626   16.2169 O   0  0  0  0  0  0  0  0  0  0  0  0
   -0.6895   -9.5676   17.3297 C   0  0  0  0  0  0  0  0  0  0  0  0
    0.8388   -5.8417   27.5264 C   0  0  0  0  0  0  0  0  0  0  0  0
   -2.0709   -7.6637   18.7817 C   0  0  0  0  0  0  0  0  0  0  0  0
   -0.5279   -8.2168   17.0717 C   0  0  0  0  0  0  0  0  0  0  0  0
    6.9694   -4.0191   27.8190 C   0  0  0  0  0  0  0  0  0  0  0  0
    5.1733   -4.5469   29.8123 C   0  0  0  0  0  0  0  0  0  0  0  0
   -1.7508  -11.3016   18.6072 C   0  0  0  0  0  0  0  0  0  0  0  0
    1.7497   -5.6771   26.4971 C   0  0  0  0  0  0  0  0  0  0  0  0
   -1.5799   -9.9322   18.3468 C   0  0  0  0  0  0  0  0  0  0  0  0
   -1.0871  -12.2214   17.8851 C   0  0  0  0  0  0  0  0  0  0  0  0
   -2.2706   -8.9669   19.0691 C   0  0  0  0  0  0  0  0  0  0  0  0
    3.0279   -5.3073   26.8197 C   0  0  0  0  0  0  0  0  0  0  0  0
    7.3282   -3.8948   29.1186 C   0  0  0  0  0  0  0  0  0  0  0  0
  1  3  4  0
  1  7  4  0
  2  3  1  0
  2  6  4  0
  2 16  4  0
  3 22  4  0
  4  9  4  0
  4 10  1  0
  4 20  4  0
  5 16  4  0
  5 23  4  0
  6 15  4  0
  7 12  4  0
  8 13  4  0
  8 14  4  0
  9 11  4  0
 11 14  4  0
 11 19  4  0
 12 18  4  0
 13 21  4  0
 15 23  4  0
 17 19  4  0
 17 20  4  0
 18 22  4  0
 19 21  4  0
M  END
$$$$

 Created by Python create_sdf_string function

 23 25  0  0  0  0  0  0  0  0999 V2000
    2.4610   -5.3070   29.1240 C   0  0  0  0  0  0  0  0  0  0  0  0
    4.7710   -4.6952   28.4803 C   0  0  0  0  0  0  0  0  0  0  0  0
    3.4047   -5.1087   28.1314 C   0  0  0  0  0  0  0  0  0  0  0  0
   -0.2234  -11.8615   16.8874 C   0  0  0  0  0  0  0  0  0  0  0  0
    6.4491   -4.1532   30.1213 C   0  0  0  0  0  0  0  0  0  0  0  0
    5.7060   -4.4340   27.4975 C   0  0  0  0  0  0  0  0  0  0  0  0
    1.1818   -5.6612   28.8399 C   0  0  0  0  0  0  0  0  0  0  0  0
   -1.2067   -7.3287   17.7772 C   0  0  0  0  0  0  0  0  0  0  0  0
   -0.0206  -10.5585   16.6210 C   0  0  0  0  0  0  0  0  0  0  0  0
    0.3696  -12.7626   16.2169 O   0  0  0  0  0  0  0  0  0  0  0  0
   -0.6895   -9.5676   17.3297 C   0  0  0  0  0  0  0  0  0  0  0  0
    0.8388   -5.8417   27.5264 C   0  0  0  0  0  0  0  0  0  0  0  0
   -2.0709   -7.6637   18.7817 C   0  0  0  0  0  0  0  0  0  0  0  0
   -0.5279   -8.2168   17.0717 C   0  0  0  0  0  0  0  0  0  0  0  0
    6.9694   -4.0191   27.8190 C   0  0  0  0  0  0  0  0  0  0  0  0
    5.1733   -4.5469   29.8123 C   0  0  0  0  0  0  0  0  0  0  0  0
   -1.7508  -11.3016   18.6072 C   0  0  0  0  0  0  0  0  0  0  0  0
    1.7497   -5.6771   26.4971 C   0  0  0  0  0  0  0  0  0  0  0  0
   -1.5799   -9.9322   18.3468 C   0  0  0  0  0  0  0  0  0  0  0  0
   -1.0871  -12.2214   17.8851 C   0  0  0  0  0  0  0  0  0  0  0  0
   -2.2706   -8.9669   19.0691 C   0  0  0  0  0  0  0  0  0  0  0  0
    3.0279   -5.3073   26.8197 C   0  0  0  0  0  0  0  0  0  0  0  0
    7.3282   -3.8948   29.1186 C   0  0  0  0  0  0  0  0  0  0  0  0
  1  3  4  0
  1  7  4  0
  2  3  1  0
  2  6  4  0
  2 16  4  0
  3 22  4  0
  4  9  4  0
  4 10  1  0
  4 20  4  0
  5 16  4  0
  5 23  4  0
  6 15  4  0
  7 12  4  0
  8 13  4  0
  8 14  4  0
  9 11  4  0
 11 14  4  0
 11 19  4  0
 12 18  4  0
 13 21  4  0
 15 23  4  0
 17 19  4  0
 17 20  4  0
 18 22  4  0
 19 21  4  0
M  END
$$$$

 Created by Python create_sdf_string function

 23 25  0  0  0  0  0  0  0  0999 V2000
    2.4610   -5.3070   29.1240 C   0  0  0  0  0  0  0  0  0  0  0  0
    4.7710   -4.6952   28.4803 C   0  0  0  0  0  0  0  0  0  0  0  0
    3.4047   -5.1087   28.1314 C   0  0  0  0  0  0  0  0  0  0  0  0
   -0.2234  -11.8615   16.8874 C   0  0  0  0  0  0  0  0  0  0  0  0
    6.4491   -4.1532   30.1213 C   0  0  0  0  0  0  0  0  0  0  0  0
    5.7060   -4.4340   27.4975 C   0  0  0  0  0  0  0  0  0  0  0  0
    1.1818   -5.6612   28.8399 C   0  0  0  0  0  0  0  0  0  0  0  0
   -1.2067   -7.3287   17.7772 C   0  0  0  0  0  0  0  0  0  0  0  0
   -0.0206  -10.5585   16.6210 C   0  0  0  0  0  0  0  0  0  0  0  0
    0.3696  -12.7626   16.2169 O   0  0  0  0  0  0  0  0  0  0  0  0
   -0.6895   -9.5676   17.3297 C   0  0  0  0  0  0  0  0  0  0  0  0
    0.8388   -5.8417   27.5264 C   0  0  0  0  0  0  0  0  0  0  0  0
   -2.0709   -7.6637   18.7817 C   0  0  0  0  0  0  0  0  0  0  0  0
   -0.5279   -8.2168   17.0717 C   0  0  0  0  0  0  0  0  0  0  0  0
    6.9694   -4.0191   27.8190 C   0  0  0  0  0  0  0  0  0  0  0  0
    5.1733   -4.5469   29.8123 C   0  0  0  0  0  0  0  0  0  0  0  0
   -1.7508  -11.3016   18.6072 C   0  0  0  0  0  0  0  0  0  0  0  0
    1.7497   -5.6771   26.4971 C   0  0  0  0  0  0  0  0  0  0  0  0
   -1.5799   -9.9322   18.3468 C   0  0  0  0  0  0  0  0  0  0  0  0
   -1.0871  -12.2214   17.8851 C   0  0  0  0  0  0  0  0  0  0  0  0
   -2.2706   -8.9669   19.0691 C   0  0  0  0  0  0  0  0  0  0  0  0
    3.0279   -5.3073   26.8197 C   0  0  0  0  0  0  0  0  0  0  0  0
    7.3282   -3.8948   29.1186 C   0  0  0  0  0  0  0  0  0  0  0  0
  1  3  4  0
  1  7  4  0
  2  3  1  0
  2  6  4  0
  2 16  4  0
  3 22  4  0
  4  9  4  0
  4 10  1  0
  4 20  4  0
  5 16  4  0
  5 23  4  0
  6 15  4  0
  7 12  4  0
  8 13  4  0
  8 14  4  0
  9 11  4  0
 11 14  4  0
 11 19  4  0
 12 18  4  0
 13 21  4  0
 15 23  4  0
 17 19  4  0
 17 20  4  0
 18 22  4  0
 19 21  4  0
M  END
$$$$

 Created by Python create_sdf_string function

 23 25  0  0  0  0  0  0  0  0999 V2000
    2.4610   -5.3070   29.1240 C   0  0  0  0  0  0  0  0  0  0  0  0
    4.7710   -4.6952   28.4803 C   0  0  0  0  0  0  0  0  0  0  0  0
    3.4047   -5.1087   28.1314 C   0  0  0  0  0  0  0  0  0  0  0  0
   -0.2234  -11.8615   16.8874 C   0  0  0  0  0  0  0  0  0  0  0  0
    6.4491   -4.1532   30.1213 C   0  0  0  0  0  0  0  0  0  0  0  0
    5.7060   -4.4340   27.4975 C   0  0  0  0  0  0  0  0  0  0  0  0
    1.1818   -5.6612   28.8399 C   0  0  0  0  0  0  0  0  0  0  0  0
   -1.2067   -7.3287   17.7772 C   0  0  0  0  0  0  0  0  0  0  0  0
   -0.0206  -10.5585   16.6210 C   0  0  0  0  0  0  0  0  0  0  0  0
    0.3696  -12.7626   16.2169 O   0  0  0  0  0  0  0  0  0  0  0  0
   -0.6895   -9.5676   17.3297 C   0  0  0  0  0  0  0  0  0  0  0  0
    0.8388   -5.8417   27.5264 C   0  0  0  0  0  0  0  0  0  0  0  0
   -2.0709   -7.6637   18.7817 C   0  0  0  0  0  0  0  0  0  0  0  0
   -0.5279   -8.2168   17.0717 C   0  0  0  0  0  0  0  0  0  0  0  0
    6.9694   -4.0191   27.8190 C   0  0  0  0  0  0  0  0  0  0  0  0
    5.1733   -4.5469   29.8123 C   0  0  0  0  0  0  0  0  0  0  0  0
   -1.7508  -11.3016   18.6072 C   0  0  0  0  0  0  0  0  0  0  0  0
    1.7497   -5.6771   26.4971 C   0  0  0  0  0  0  0  0  0  0  0  0
   -1.5799   -9.9322   18.3468 C   0  0  0  0  0  0  0  0  0  0  0  0
   -1.0871  -12.2214   17.8851 C   0  0  0  0  0  0  0  0  0  0  0  0
   -2.2706   -8.9669   19.0691 C   0  0  0  0  0  0  0  0  0  0  0  0
    3.0279   -5.3073   26.8197 C   0  0  0  0  0  0  0  0  0  0  0  0
    7.3282   -3.8948   29.1186 C   0  0  0  0  0  0  0  0  0  0  0  0
  1  3  4  0
  1  7  4  0
  2  3  1  0
  2  6  4  0
  2 16  4  0
  3 22  4  0
  4  9  4  0
  4 10  1  0
  4 20  4  0
  5 16  4  0
  5 23  4  0
  6 15  4  0
  7 12  4  0
  8 13  4  0
  8 14  4  0
  9 11  4  0
 11 14  4  0
 11 19  4  0
 12 18  4  0
 13 21  4  0
 15 23  4  0
 17 19  4  0
 17 20  4  0
 18 22  4  0
 19 21  4  0
M  END
$$$$

 Created by Python create_sdf_string function

 23 25  0  0  0  0  0  0  0  0999 V2000
    2.4610   -5.3070   29.1240 C   0  0  0  0  0  0  0  0  0  0  0  0
    4.7710   -4.6952   28.4803 C   0  0  0  0  0  0  0  0  0  0  0  0
    3.4047   -5.1087   28.1314 C   0  0  0  0  0  0  0  0  0  0  0  0
   -0.2234  -11.8615   16.8874 C   0  0  0  0  0  0  0  0  0  0  0  0
    6.4491   -4.1532   30.1213 C   0  0  0  0  0  0  0  0  0  0  0  0
    5.7060   -4.4340   27.4975 C   0  0  0  0  0  0  0  0  0  0  0  0
    1.1818   -5.6612   28.8399 C   0  0  0  0  0  0  0  0  0  0  0  0
   -1.2067   -7.3287   17.7772 C   0  0  0  0  0  0  0  0  0  0  0  0
   -0.0206  -10.5585   16.6210 C   0  0  0  0  0  0  0  0  0  0  0  0
    0.3696  -12.7626   16.2169 O   0  0  0  0  0  0  0  0  0  0  0  0
   -0.6895   -9.5676   17.3297 C   0  0  0  0  0  0  0  0  0  0  0  0
    0.8388   -5.8417   27.5264 C   0  0  0  0  0  0  0  0  0  0  0  0
   -2.0709   -7.6637   18.7817 C   0  0  0  0  0  0  0  0  0  0  0  0
   -0.5279   -8.2168   17.0717 C   0  0  0  0  0  0  0  0  0  0  0  0
    6.9694   -4.0191   27.8190 C   0  0  0  0  0  0  0  0  0  0  0  0
    5.1733   -4.5469   29.8123 C   0  0  0  0  0  0  0  0  0  0  0  0
   -1.7508  -11.3016   18.6072 C   0  0  0  0  0  0  0  0  0  0  0  0
    1.7497   -5.6771   26.4971 C   0  0  0  0  0  0  0  0  0  0  0  0
   -1.5799   -9.9322   18.3468 C   0  0  0  0  0  0  0  0  0  0  0  0
   -1.0871  -12.2214   17.8851 C   0  0  0  0  0  0  0  0  0  0  0  0
   -2.2706   -8.9669   19.0691 C   0  0  0  0  0  0  0  0  0  0  0  0
    3.0279   -5.3073   26.8197 C   0  0  0  0  0  0  0  0  0  0  0  0
    7.3282   -3.8948   29.1186 C   0  0  0  0  0  0  0  0  0  0  0  0
  1  3  4  0
  1  7  4  0
  2  3  1  0
  2  6  4  0
  2 16  4  0
  3 22  4  0
  4  9  4  0
  4 10  1  0
  4 20  4  0
  5 16  4  0
  5 23  4  0
  6 15  4  0
  7 12  4  0
  8 13  4  0
  8 14  4  0
  9 11  4  0
 11 14  4  0
 11 19  4  0
 12 18  4  0
 13 21  4  0
 15 23  4  0
 17 19  4  0
 17 20  4  0
 18 22  4  0
 19 21  4  0
M  END
$$$$

 Created by Python create_sdf_string function

 23 25  0  0  0  0  0  0  0  0999 V2000
    2.4610   -5.3070   29.1240 C   0  0  0  0  0  0  0  0  0  0  0  0
    4.7710   -4.6952   28.4803 C   0  0  0  0  0  0  0  0  0  0  0  0
    3.4047   -5.1087   28.1314 C   0  0  0  0  0  0  0  0  0  0  0  0
   -0.2234  -11.8615   16.8874 C   0  0  0  0  0  0  0  0  0  0  0  0
    6.4491   -4.1532   30.1213 C   0  0  0  0  0  0  0  0  0  0  0  0
    5.7060   -4.4340   27.4975 C   0  0  0  0  0  0  0  0  0  0  0  0
    1.1818   -5.6612   28.8399 C   0  0  0  0  0  0  0  0  0  0  0  0
   -1.2067   -7.3287   17.7772 C   0  0  0  0  0  0  0  0  0  0  0  0
   -0.0206  -10.5585   16.6210 C   0  0  0  0  0  0  0  0  0  0  0  0
    0.3696  -12.7626   16.2169 O   0  0  0  0  0  0  0  0  0  0  0  0
   -0.6895   -9.5676   17.3297 C   0  0  0  0  0  0  0  0  0  0  0  0
    0.8388   -5.8417   27.5264 C   0  0  0  0  0  0  0  0  0  0  0  0
   -2.0709   -7.6637   18.7817 C   0  0  0  0  0  0  0  0  0  0  0  0
   -0.5279   -8.2168   17.0717 C   0  0  0  0  0  0  0  0  0  0  0  0
    6.9694   -4.0191   27.8190 C   0  0  0  0  0  0  0  0  0  0  0  0
    5.1733   -4.5469   29.8123 C   0  0  0  0  0  0  0  0  0  0  0  0
   -1.7508  -11.3016   18.6072 C   0  0  0  0  0  0  0  0  0  0  0  0
    1.7497   -5.6771   26.4971 C   0  0  0  0  0  0  0  0  0  0  0  0
   -1.5799   -9.9322   18.3468 C   0  0  0  0  0  0  0  0  0  0  0  0
   -1.0871  -12.2214   17.8851 C   0  0  0  0  0  0  0  0  0  0  0  0
   -2.2706   -8.9669   19.0691 C   0  0  0  0  0  0  0  0  0  0  0  0
    3.0279   -5.3073   26.8197 C   0  0  0  0  0  0  0  0  0  0  0  0
    7.3282   -3.8948   29.1186 C   0  0  0  0  0  0  0  0  0  0  0  0
  1  3  4  0
  1  7  4  0
  2  3  1  0
  2  6  4  0
  2 16  4  0
  3 22  4  0
  4  9  4  0
  4 10  1  0
  4 20  4  0
  5 16  4  0
  5 23  4  0
  6 15  4  0
  7 12  4  0
  8 13  4  0
  8 14  4  0
  9 11  4  0
 11 14  4  0
 11 19  4  0
 12 18  4  0
 13 21  4  0
 15 23  4  0
 17 19  4  0
 17 20  4  0
 18 22  4  0
 19 21  4  0
M  END
$$$$

 Created by Python create_sdf_string function

 23 25  0  0  0  0  0  0  0  0999 V2000
    2.4610   -5.3070   29.1240 C   0  0  0  0  0  0  0  0  0  0  0  0
    4.7710   -4.6952   28.4803 C   0  0  0  0  0  0  0  0  0  0  0  0
    3.4047   -5.1087   28.1314 C   0  0  0  0  0  0  0  0  0  0  0  0
   -0.2234  -11.8615   16.8874 C   0  0  0  0  0  0  0  0  0  0  0  0
    6.4491   -4.1532   30.1213 C   0  0  0  0  0  0  0  0  0  0  0  0
    5.7060   -4.4340   27.4975 C   0  0  0  0  0  0  0  0  0  0  0  0
    1.1818   -5.6612   28.8399 C   0  0  0  0  0  0  0  0  0  0  0  0
   -1.2067   -7.3287   17.7772 C   0  0  0  0  0  0  0  0  0  0  0  0
   -0.0206  -10.5585   16.6210 C   0  0  0  0  0  0  0  0  0  0  0  0
    0.3696  -12.7626   16.2169 O   0  0  0  0  0  0  0  0  0  0  0  0
   -0.6895   -9.5676   17.3297 C   0  0  0  0  0  0  0  0  0  0  0  0
    0.8388   -5.8417   27.5264 C   0  0  0  0  0  0  0  0  0  0  0  0
   -2.0709   -7.6637   18.7817 C   0  0  0  0  0  0  0  0  0  0  0  0
   -0.5279   -8.2168   17.0717 C   0  0  0  0  0  0  0  0  0  0  0  0
    6.9694   -4.0191   27.8190 C   0  0  0  0  0  0  0  0  0  0  0  0
    5.1733   -4.5469   29.8123 C   0  0  0  0  0  0  0  0  0  0  0  0
   -1.7508  -11.3016   18.6072 C   0  0  0  0  0  0  0  0  0  0  0  0
    1.7497   -5.6771   26.4971 C   0  0  0  0  0  0  0  0  0  0  0  0
   -1.5799   -9.9322   18.3468 C   0  0  0  0  0  0  0  0  0  0  0  0
   -1.0871  -12.2214   17.8851 C   0  0  0  0  0  0  0  0  0  0  0  0
   -2.2706   -8.9669   19.0691 C   0  0  0  0  0  0  0  0  0  0  0  0
    3.0279   -5.3073   26.8197 C   0  0  0  0  0  0  0  0  0  0  0  0
    7.3282   -3.8948   29.1186 C   0  0  0  0  0  0  0  0  0  0  0  0
  1  3  4  0
  1  7  4  0
  2  3  1  0
  2  6  4  0
  2 16  4  0
  3 22  4  0
  4  9  4  0
  4 10  1  0
  4 20  4  0
  5 16  4  0
  5 23  4  0
  6 15  4  0
  7 12  4  0
  8 13  4  0
  8 14  4  0
  9 11  4  0
 11 14  4  0
 11 19  4  0
 12 18  4  0
 13 21  4  0
 15 23  4  0
 17 19  4  0
 17 20  4  0
 18 22  4  0
 19 21  4  0
M  END
$$$$

 Created by Python create_sdf_string function

 23 25  0  0  0  0  0  0  0  0999 V2000
    2.4610   -5.3070   29.1240 C   0  0  0  0  0  0  0  0  0  0  0  0
    4.7710   -4.6952   28.4803 C   0  0  0  0  0  0  0  0  0  0  0  0
    3.4047   -5.1087   28.1314 C   0  0  0  0  0  0  0  0  0  0  0  0
   -0.2234  -11.8615   16.8874 C   0  0  0  0  0  0  0  0  0  0  0  0
    6.4491   -4.1532   30.1213 C   0  0  0  0  0  0  0  0  0  0  0  0
    5.7060   -4.4340   27.4975 C   0  0  0  0  0  0  0  0  0  0  0  0
    1.1818   -5.6612   28.8399 C   0  0  0  0  0  0  0  0  0  0  0  0
   -1.2067   -7.3287   17.7772 C   0  0  0  0  0  0  0  0  0  0  0  0
   -0.0206  -10.5585   16.6210 C   0  0  0  0  0  0  0  0  0  0  0  0
    0.3696  -12.7626   16.2169 O   0  0  0  0  0  0  0  0  0  0  0  0
   -0.6895   -9.5676   17.3297 C   0  0  0  0  0  0  0  0  0  0  0  0
    0.8388   -5.8417   27.5264 C   0  0  0  0  0  0  0  0  0  0  0  0
   -2.0709   -7.6637   18.7817 C   0  0  0  0  0  0  0  0  0  0  0  0
   -0.5279   -8.2168   17.0717 C   0  0  0  0  0  0  0  0  0  0  0  0
    6.9694   -4.0191   27.8190 C   0  0  0  0  0  0  0  0  0  0  0  0
    5.1733   -4.5469   29.8123 C   0  0  0  0  0  0  0  0  0  0  0  0
   -1.7508  -11.3016   18.6072 C   0  0  0  0  0  0  0  0  0  0  0  0
    1.7497   -5.6771   26.4971 C   0  0  0  0  0  0  0  0  0  0  0  0
   -1.5799   -9.9322   18.3468 C   0  0  0  0  0  0  0  0  0  0  0  0
   -1.0871  -12.2214   17.8851 C   0  0  0  0  0  0  0  0  0  0  0  0
   -2.2706   -8.9669   19.0691 C   0  0  0  0  0  0  0  0  0  0  0  0
    3.0279   -5.3073   26.8197 C   0  0  0  0  0  0  0  0  0  0  0  0
    7.3282   -3.8948   29.1186 C   0  0  0  0  0  0  0  0  0  0  0  0
  1  3  4  0
  1  7  4  0
  2  3  1  0
  2  6  4  0
  2 16  4  0
  3 22  4  0
  4  9  4  0
  4 10  1  0
  4 20  4  0
  5 16  4  0
  5 23  4  0
  6 15  4  0
  7 12  4  0
  8 13  4  0
  8 14  4  0
  9 11  4  0
 11 14  4  0
 11 19  4  0
 12 18  4  0
 13 21  4  0
 15 23  4  0
 17 19  4  0
 17 20  4  0
 18 22  4  0
 19 21  4  0
M  END
$$$$

 Created by Python create_sdf_string function

 23 25  0  0  0  0  0  0  0  0999 V2000
    2.4610   -5.3070   29.1240 C   0  0  0  0  0  0  0  0  0  0  0  0
    4.7710   -4.6952   28.4803 C   0  0  0  0  0  0  0  0  0  0  0  0
    3.4047   -5.1087   28.1314 C   0  0  0  0  0  0  0  0  0  0  0  0
   -0.2234  -11.8615   16.8874 C   0  0  0  0  0  0  0  0  0  0  0  0
    6.4491   -4.1532   30.1213 C   0  0  0  0  0  0  0  0  0  0  0  0
    5.7060   -4.4340   27.4975 C   0  0  0  0  0  0  0  0  0  0  0  0
    1.1818   -5.6612   28.8399 C   0  0  0  0  0  0  0  0  0  0  0  0
   -1.2067   -7.3287   17.7772 C   0  0  0  0  0  0  0  0  0  0  0  0
   -0.0206  -10.5585   16.6210 C   0  0  0  0  0  0  0  0  0  0  0  0
    0.3696  -12.7626   16.2169 O   0  0  0  0  0  0  0  0  0  0  0  0
   -0.6895   -9.5676   17.3297 C   0  0  0  0  0  0  0  0  0  0  0  0
    0.8388   -5.8417   27.5264 C   0  0  0  0  0  0  0  0  0  0  0  0
   -2.0709   -7.6637   18.7817 C   0  0  0  0  0  0  0  0  0  0  0  0
   -0.5279   -8.2168   17.0717 C   0  0  0  0  0  0  0  0  0  0  0  0
    6.9694   -4.0191   27.8190 C   0  0  0  0  0  0  0  0  0  0  0  0
    5.1733   -4.5469   29.8123 C   0  0  0  0  0  0  0  0  0  0  0  0
   -1.7508  -11.3016   18.6072 C   0  0  0  0  0  0  0  0  0  0  0  0
    1.7497   -5.6771   26.4971 C   0  0  0  0  0  0  0  0  0  0  0  0
   -1.5799   -9.9322   18.3468 C   0  0  0  0  0  0  0  0  0  0  0  0
   -1.0871  -12.2214   17.8851 C   0  0  0  0  0  0  0  0  0  0  0  0
   -2.2706   -8.9669   19.0691 C   0  0  0  0  0  0  0  0  0  0  0  0
    3.0279   -5.3073   26.8197 C   0  0  0  0  0  0  0  0  0  0  0  0
    7.3282   -3.8948   29.1186 C   0  0  0  0  0  0  0  0  0  0  0  0
  1  3  4  0
  1  7  4  0
  2  3  1  0
  2  6  4  0
  2 16  4  0
  3 22  4  0
  4  9  4  0
  4 10  1  0
  4 20  4  0
  5 16  4  0
  5 23  4  0
  6 15  4  0
  7 12  4  0
  8 13  4  0
  8 14  4  0
  9 11  4  0
 11 14  4  0
 11 19  4  0
 12 18  4  0
 13 21  4  0
 15 23  4  0
 17 19  4  0
 17 20  4  0
 18 22  4  0
 19 21  4  0
M  END
$$$$

 Created by Python create_sdf_string function

 23 25  0  0  0  0  0  0  0  0999 V2000
    2.4610   -5.3070   29.1240 C   0  0  0  0  0  0  0  0  0  0  0  0
    4.7710   -4.6952   28.4803 C   0  0  0  0  0  0  0  0  0  0  0  0
    3.4047   -5.1087   28.1314 C   0  0  0  0  0  0  0  0  0  0  0  0
   -0.2234  -11.8615   16.8874 C   0  0  0  0  0  0  0  0  0  0  0  0
    6.4491   -4.1532   30.1213 C   0  0  0  0  0  0  0  0  0  0  0  0
    5.7060   -4.4340   27.4975 C   0  0  0  0  0  0  0  0  0  0  0  0
    1.1818   -5.6612   28.8399 C   0  0  0  0  0  0  0  0  0  0  0  0
   -1.2067   -7.3287   17.7772 C   0  0  0  0  0  0  0  0  0  0  0  0
   -0.0206  -10.5585   16.6210 C   0  0  0  0  0  0  0  0  0  0  0  0
    0.3696  -12.7626   16.2169 O   0  0  0  0  0  0  0  0  0  0  0  0
   -0.6895   -9.5676   17.3297 C   0  0  0  0  0  0  0  0  0  0  0  0
    0.8388   -5.8417   27.5264 C   0  0  0  0  0  0  0  0  0  0  0  0
   -2.0709   -7.6637   18.7817 C   0  0  0  0  0  0  0  0  0  0  0  0
   -0.5279   -8.2168   17.0717 C   0  0  0  0  0  0  0  0  0  0  0  0
    6.9694   -4.0191   27.8190 C   0  0  0  0  0  0  0  0  0  0  0  0
    5.1733   -4.5469   29.8123 C   0  0  0  0  0  0  0  0  0  0  0  0
   -1.7508  -11.3016   18.6072 C   0  0  0  0  0  0  0  0  0  0  0  0
    1.7497   -5.6771   26.4971 C   0  0  0  0  0  0  0  0  0  0  0  0
   -1.5799   -9.9322   18.3468 C   0  0  0  0  0  0  0  0  0  0  0  0
   -1.0871  -12.2214   17.8851 C   0  0  0  0  0  0  0  0  0  0  0  0
   -2.2706   -8.9669   19.0691 C   0  0  0  0  0  0  0  0  0  0  0  0
    3.0279   -5.3073   26.8197 C   0  0  0  0  0  0  0  0  0  0  0  0
    7.3282   -3.8948   29.1186 C   0  0  0  0  0  0  0  0  0  0  0  0
  1  3  4  0
  1  7  4  0
  2  3  1  0
  2  6  4  0
  2 16  4  0
  3 22  4  0
  4  9  4  0
  4 10  1  0
  4 20  4  0
  5 16  4  0
  5 23  4  0
  6 15  4  0
  7 12  4  0
  8 13  4  0
  8 14  4  0
  9 11  4  0
 11 14  4  0
 11 19  4  0
 12 18  4  0
 13 21  4  0
 15 23  4  0
 17 19  4  0
 17 20  4  0
 18 22  4  0
 19 21  4  0
M  END
$$$$

 Created by Python create_sdf_string function

 23 25  0  0  0  0  0  0  0  0999 V2000
    2.4610   -5.3070   29.1240 C   0  0  0  0  0  0  0  0  0  0  0  0
    4.7710   -4.6952   28.4803 C   0  0  0  0  0  0  0  0  0  0  0  0
    3.4047   -5.1087   28.1314 C   0  0  0  0  0  0  0  0  0  0  0  0
   -0.2234  -11.8615   16.8874 C   0  0  0  0  0  0  0  0  0  0  0  0
    6.4491   -4.1532   30.1213 C   0  0  0  0  0  0  0  0  0  0  0  0
    5.7060   -4.4340   27.4975 C   0  0  0  0  0  0  0  0  0  0  0  0
    1.1818   -5.6612   28.8399 C   0  0  0  0  0  0  0  0  0  0  0  0
   -1.2067   -7.3287   17.7772 C   0  0  0  0  0  0  0  0  0  0  0  0
   -0.0206  -10.5585   16.6210 C   0  0  0  0  0  0  0  0  0  0  0  0
    0.3696  -12.7626   16.2169 O   0  0  0  0  0  0  0  0  0  0  0  0
   -0.6895   -9.5676   17.3297 C   0  0  0  0  0  0  0  0  0  0  0  0
    0.8388   -5.8417   27.5264 C   0  0  0  0  0  0  0  0  0  0  0  0
   -2.0709   -7.6637   18.7817 C   0  0  0  0  0  0  0  0  0  0  0  0
   -0.5279   -8.2168   17.0717 C   0  0  0  0  0  0  0  0  0  0  0  0
    6.9694   -4.0191   27.8190 C   0  0  0  0  0  0  0  0  0  0  0  0
    5.1733   -4.5469   29.8123 C   0  0  0  0  0  0  0  0  0  0  0  0
   -1.7508  -11.3016   18.6072 C   0  0  0  0  0  0  0  0  0  0  0  0
    1.7497   -5.6771   26.4971 C   0  0  0  0  0  0  0  0  0  0  0  0
   -1.5799   -9.9322   18.3468 C   0  0  0  0  0  0  0  0  0  0  0  0
   -1.0871  -12.2214   17.8851 C   0  0  0  0  0  0  0  0  0  0  0  0
   -2.2706   -8.9669   19.0691 C   0  0  0  0  0  0  0  0  0  0  0  0
    3.0279   -5.3073   26.8197 C   0  0  0  0  0  0  0  0  0  0  0  0
    7.3282   -3.8948   29.1186 C   0  0  0  0  0  0  0  0  0  0  0  0
  1  3  4  0
  1  7  4  0
  2  3  1  0
  2  6  4  0
  2 16  4  0
  3 22  4  0
  4  9  4  0
  4 10  1  0
  4 20  4  0
  5 16  4  0
  5 23  4  0
  6 15  4  0
  7 12  4  0
  8 13  4  0
  8 14  4  0
  9 11  4  0
 11 14  4  0
 11 19  4  0
 12 18  4  0
 13 21  4  0
 15 23  4  0
 17 19  4  0
 17 20  4  0
 18 22  4  0
 19 21  4  0
M  END
$$$$

 Created by Python create_sdf_string function

 23 25  0  0  0  0  0  0  0  0999 V2000
    2.4610   -5.3070   29.1240 C   0  0  0  0  0  0  0  0  0  0  0  0
    4.7710   -4.6952   28.4803 C   0  0  0  0  0  0  0  0  0  0  0  0
    3.4047   -5.1087   28.1314 C   0  0  0  0  0  0  0  0  0  0  0  0
   -0.2234  -11.8615   16.8874 C   0  0  0  0  0  0  0  0  0  0  0  0
    6.4491   -4.1532   30.1213 C   0  0  0  0  0  0  0  0  0  0  0  0
    5.7060   -4.4340   27.4975 C   0  0  0  0  0  0  0  0  0  0  0  0
    1.1818   -5.6612   28.8399 C   0  0  0  0  0  0  0  0  0  0  0  0
   -1.2067   -7.3287   17.7772 C   0  0  0  0  0  0  0  0  0  0  0  0
   -0.0206  -10.5585   16.6210 C   0  0  0  0  0  0  0  0  0  0  0  0
    0.3696  -12.7626   16.2169 O   0  0  0  0  0  0  0  0  0  0  0  0
   -0.6895   -9.5676   17.3297 C   0  0  0  0  0  0  0  0  0  0  0  0
    0.8388   -5.8417   27.5264 C   0  0  0  0  0  0  0  0  0  0  0  0
   -2.0709   -7.6637   18.7817 C   0  0  0  0  0  0  0  0  0  0  0  0
   -0.5279   -8.2168   17.0717 C   0  0  0  0  0  0  0  0  0  0  0  0
    6.9694   -4.0191   27.8190 C   0  0  0  0  0  0  0  0  0  0  0  0
    5.1733   -4.5469   29.8123 C   0  0  0  0  0  0  0  0  0  0  0  0
   -1.7508  -11.3016   18.6072 C   0  0  0  0  0  0  0  0  0  0  0  0
    1.7497   -5.6771   26.4971 C   0  0  0  0  0  0  0  0  0  0  0  0
   -1.5799   -9.9322   18.3468 C   0  0  0  0  0  0  0  0  0  0  0  0
   -1.0871  -12.2214   17.8851 C   0  0  0  0  0  0  0  0  0  0  0  0
   -2.2706   -8.9669   19.0691 C   0  0  0  0  0  0  0  0  0  0  0  0
    3.0279   -5.3073   26.8197 C   0  0  0  0  0  0  0  0  0  0  0  0
    7.3282   -3.8948   29.1186 C   0  0  0  0  0  0  0  0  0  0  0  0
  1  3  4  0
  1  7  4  0
  2  3  1  0
  2  6  4  0
  2 16  4  0
  3 22  4  0
  4  9  4  0
  4 10  1  0
  4 20  4  0
  5 16  4  0
  5 23  4  0
  6 15  4  0
  7 12  4  0
  8 13  4  0
  8 14  4  0
  9 11  4  0
 11 14  4  0
 11 19  4  0
 12 18  4  0
 13 21  4  0
 15 23  4  0
 17 19  4  0
 17 20  4  0
 18 22  4  0
 19 21  4  0
M  END
$$$$

 Created by Python create_sdf_string function

 23 25  0  0  0  0  0  0  0  0999 V2000
    2.4610   -5.3070   29.1240 C   0  0  0  0  0  0  0  0  0  0  0  0
    4.7710   -4.6952   28.4803 C   0  0  0  0  0  0  0  0  0  0  0  0
    3.4047   -5.1087   28.1314 C   0  0  0  0  0  0  0  0  0  0  0  0
   -0.2234  -11.8615   16.8874 C   0  0  0  0  0  0  0  0  0  0  0  0
    6.4491   -4.1532   30.1213 C   0  0  0  0  0  0  0  0  0  0  0  0
    5.7060   -4.4340   27.4975 C   0  0  0  0  0  0  0  0  0  0  0  0
    1.1818   -5.6612   28.8399 C   0  0  0  0  0  0  0  0  0  0  0  0
   -1.2067   -7.3287   17.7772 C   0  0  0  0  0  0  0  0  0  0  0  0
   -0.0206  -10.5585   16.6210 C   0  0  0  0  0  0  0  0  0  0  0  0
    0.3696  -12.7626   16.2169 O   0  0  0  0  0  0  0  0  0  0  0  0
   -0.6895   -9.5676   17.3297 C   0  0  0  0  0  0  0  0  0  0  0  0
    0.8388   -5.8417   27.5264 C   0  0  0  0  0  0  0  0  0  0  0  0
   -2.0709   -7.6637   18.7817 C   0  0  0  0  0  0  0  0  0  0  0  0
   -0.5279   -8.2168   17.0717 C   0  0  0  0  0  0  0  0  0  0  0  0
    6.9694   -4.0191   27.8190 C   0  0  0  0  0  0  0  0  0  0  0  0
    5.1733   -4.5469   29.8123 C   0  0  0  0  0  0  0  0  0  0  0  0
   -1.7508  -11.3016   18.6072 C   0  0  0  0  0  0  0  0  0  0  0  0
    1.7497   -5.6771   26.4971 C   0  0  0  0  0  0  0  0  0  0  0  0
   -1.5799   -9.9322   18.3468 C   0  0  0  0  0  0  0  0  0  0  0  0
   -1.0871  -12.2214   17.8851 C   0  0  0  0  0  0  0  0  0  0  0  0
   -2.2706   -8.9669   19.0691 C   0  0  0  0  0  0  0  0  0  0  0  0
    3.0279   -5.3073   26.8197 C   0  0  0  0  0  0  0  0  0  0  0  0
    7.3282   -3.8948   29.1186 C   0  0  0  0  0  0  0  0  0  0  0  0
  1  3  4  0
  1  7  4  0
  2  3  1  0
  2  6  4  0
  2 16  4  0
  3 22  4  0
  4  9  4  0
  4 10  1  0
  4 20  4  0
  5 16  4  0
  5 23  4  0
  6 15  4  0
  7 12  4  0
  8 13  4  0
  8 14  4  0
  9 11  4  0
 11 14  4  0
 11 19  4  0
 12 18  4  0
 13 21  4  0
 15 23  4  0
 17 19  4  0
 17 20  4  0
 18 22  4  0
 19 21  4  0
M  END
$$$$

 Created by Python create_sdf_string function

 23 25  0  0  0  0  0  0  0  0999 V2000
    2.4610   -5.3070   29.1240 C   0  0  0  0  0  0  0  0  0  0  0  0
    4.7710   -4.6952   28.4803 C   0  0  0  0  0  0  0  0  0  0  0  0
    3.4047   -5.1087   28.1314 C   0  0  0  0  0  0  0  0  0  0  0  0
   -0.2234  -11.8615   16.8874 C   0  0  0  0  0  0  0  0  0  0  0  0
    6.4491   -4.1532   30.1213 C   0  0  0  0  0  0  0  0  0  0  0  0
    5.7060   -4.4340   27.4975 C   0  0  0  0  0  0  0  0  0  0  0  0
    1.1818   -5.6612   28.8399 C   0  0  0  0  0  0  0  0  0  0  0  0
   -1.2067   -7.3287   17.7772 C   0  0  0  0  0  0  0  0  0  0  0  0
   -0.0206  -10.5585   16.6210 C   0  0  0  0  0  0  0  0  0  0  0  0
    0.3696  -12.7626   16.2169 O   0  0  0  0  0  0  0  0  0  0  0  0
   -0.6895   -9.5676   17.3297 C   0  0  0  0  0  0  0  0  0  0  0  0
    0.8388   -5.8417   27.5264 C   0  0  0  0  0  0  0  0  0  0  0  0
   -2.0709   -7.6637   18.7817 C   0  0  0  0  0  0  0  0  0  0  0  0
   -0.5279   -8.2168   17.0717 C   0  0  0  0  0  0  0  0  0  0  0  0
    6.9694   -4.0191   27.8190 C   0  0  0  0  0  0  0  0  0  0  0  0
    5.1733   -4.5469   29.8123 C   0  0  0  0  0  0  0  0  0  0  0  0
   -1.7508  -11.3016   18.6072 C   0  0  0  0  0  0  0  0  0  0  0  0
    1.7497   -5.6771   26.4971 C   0  0  0  0  0  0  0  0  0  0  0  0
   -1.5799   -9.9322   18.3468 C   0  0  0  0  0  0  0  0  0  0  0  0
   -1.0871  -12.2214   17.8851 C   0  0  0  0  0  0  0  0  0  0  0  0
   -2.2706   -8.9669   19.0691 C   0  0  0  0  0  0  0  0  0  0  0  0
    3.0279   -5.3073   26.8197 C   0  0  0  0  0  0  0  0  0  0  0  0
    7.3282   -3.8948   29.1186 C   0  0  0  0  0  0  0  0  0  0  0  0
  1  3  4  0
  1  7  4  0
  2  3  1  0
  2  6  4  0
  2 16  4  0
  3 22  4  0
  4  9  4  0
  4 10  1  0
  4 20  4  0
  5 16  4  0
  5 23  4  0
  6 15  4  0
  7 12  4  0
  8 13  4  0
  8 14  4  0
  9 11  4  0
 11 14  4  0
 11 19  4  0
 12 18  4  0
 13 21  4  0
 15 23  4  0
 17 19  4  0
 17 20  4  0
 18 22  4  0
 19 21  4  0
M  END
$$$$

 Created by Python create_sdf_string function

 23 25  0  0  0  0  0  0  0  0999 V2000
    2.4610   -5.3070   29.1240 C   0  0  0  0  0  0  0  0  0  0  0  0
    4.7710   -4.6952   28.4803 C   0  0  0  0  0  0  0  0  0  0  0  0
    3.4047   -5.1087   28.1314 C   0  0  0  0  0  0  0  0  0  0  0  0
   -0.2234  -11.8615   16.8874 C   0  0  0  0  0  0  0  0  0  0  0  0
    6.4491   -4.1532   30.1213 C   0  0  0  0  0  0  0  0  0  0  0  0
    5.7060   -4.4340   27.4975 C   0  0  0  0  0  0  0  0  0  0  0  0
    1.1818   -5.6612   28.8399 C   0  0  0  0  0  0  0  0  0  0  0  0
   -1.2067   -7.3287   17.7772 C   0  0  0  0  0  0  0  0  0  0  0  0
   -0.0206  -10.5585   16.6210 C   0  0  0  0  0  0  0  0  0  0  0  0
    0.3696  -12.7626   16.2169 O   0  0  0  0  0  0  0  0  0  0  0  0
   -0.6895   -9.5676   17.3297 C   0  0  0  0  0  0  0  0  0  0  0  0
    0.8388   -5.8417   27.5264 C   0  0  0  0  0  0  0  0  0  0  0  0
   -2.0709   -7.6637   18.7817 C   0  0  0  0  0  0  0  0  0  0  0  0
   -0.5279   -8.2168   17.0717 C   0  0  0  0  0  0  0  0  0  0  0  0
    6.9694   -4.0191   27.8190 C   0  0  0  0  0  0  0  0  0  0  0  0
    5.1733   -4.5469   29.8123 C   0  0  0  0  0  0  0  0  0  0  0  0
   -1.7508  -11.3016   18.6072 C   0  0  0  0  0  0  0  0  0  0  0  0
    1.7497   -5.6771   26.4971 C   0  0  0  0  0  0  0  0  0  0  0  0
   -1.5799   -9.9322   18.3468 C   0  0  0  0  0  0  0  0  0  0  0  0
   -1.0871  -12.2214   17.8851 C   0  0  0  0  0  0  0  0  0  0  0  0
   -2.2706   -8.9669   19.0691 C   0  0  0  0  0  0  0  0  0  0  0  0
    3.0279   -5.3073   26.8197 C   0  0  0  0  0  0  0  0  0  0  0  0
    7.3282   -3.8948   29.1186 C   0  0  0  0  0  0  0  0  0  0  0  0
  1  3  4  0
  1  7  4  0
  2  3  1  0
  2  6  4  0
  2 16  4  0
  3 22  4  0
  4  9  4  0
  4 10  1  0
  4 20  4  0
  5 16  4  0
  5 23  4  0
  6 15  4  0
  7 12  4  0
  8 13  4  0
  8 14  4  0
  9 11  4  0
 11 14  4  0
 11 19  4  0
 12 18  4  0
 13 21  4  0
 15 23  4  0
 17 19  4  0
 17 20  4  0
 18 22  4  0
 19 21  4  0
M  END
$$$$

 Created by Python create_sdf_string function

 23 25  0  0  0  0  0  0  0  0999 V2000
    2.4610   -5.3070   29.1240 C   0  0  0  0  0  0  0  0  0  0  0  0
    4.7710   -4.6952   28.4803 C   0  0  0  0  0  0  0  0  0  0  0  0
    3.4047   -5.1087   28.1314 C   0  0  0  0  0  0  0  0  0  0  0  0
   -0.2234  -11.8615   16.8874 C   0  0  0  0  0  0  0  0  0  0  0  0
    6.4491   -4.1532   30.1213 C   0  0  0  0  0  0  0  0  0  0  0  0
    5.7060   -4.4340   27.4975 C   0  0  0  0  0  0  0  0  0  0  0  0
    1.1818   -5.6612   28.8399 C   0  0  0  0  0  0  0  0  0  0  0  0
   -1.2067   -7.3287   17.7772 C   0  0  0  0  0  0  0  0  0  0  0  0
   -0.0206  -10.5585   16.6210 C   0  0  0  0  0  0  0  0  0  0  0  0
    0.3696  -12.7626   16.2169 O   0  0  0  0  0  0  0  0  0  0  0  0
   -0.6895   -9.5676   17.3297 C   0  0  0  0  0  0  0  0  0  0  0  0
    0.8388   -5.8417   27.5264 C   0  0  0  0  0  0  0  0  0  0  0  0
   -2.0709   -7.6637   18.7817 C   0  0  0  0  0  0  0  0  0  0  0  0
   -0.5279   -8.2168   17.0717 C   0  0  0  0  0  0  0  0  0  0  0  0
    6.9694   -4.0191   27.8190 C   0  0  0  0  0  0  0  0  0  0  0  0
    5.1733   -4.5469   29.8123 C   0  0  0  0  0  0  0  0  0  0  0  0
   -1.7508  -11.3016   18.6072 C   0  0  0  0  0  0  0  0  0  0  0  0
    1.7497   -5.6771   26.4971 C   0  0  0  0  0  0  0  0  0  0  0  0
   -1.5799   -9.9322   18.3468 C   0  0  0  0  0  0  0  0  0  0  0  0
   -1.0871  -12.2214   17.8851 C   0  0  0  0  0  0  0  0  0  0  0  0
   -2.2706   -8.9669   19.0691 C   0  0  0  0  0  0  0  0  0  0  0  0
    3.0279   -5.3073   26.8197 C   0  0  0  0  0  0  0  0  0  0  0  0
    7.3282   -3.8948   29.1186 C   0  0  0  0  0  0  0  0  0  0  0  0
  1  3  4  0
  1  7  4  0
  2  3  1  0
  2  6  4  0
  2 16  4  0
  3 22  4  0
  4  9  4  0
  4 10  1  0
  4 20  4  0
  5 16  4  0
  5 23  4  0
  6 15  4  0
  7 12  4  0
  8 13  4  0
  8 14  4  0
  9 11  4  0
 11 14  4  0
 11 19  4  0
 12 18  4  0
 13 21  4  0
 15 23  4  0
 17 19  4  0
 17 20  4  0
 18 22  4  0
 19 21  4  0
M  END
$$$$

 Created by Python create_sdf_string function

 23 25  0  0  0  0  0  0  0  0999 V2000
    2.4610   -5.3070   29.1240 C   0  0  0  0  0  0  0  0  0  0  0  0
    4.7710   -4.6952   28.4803 C   0  0  0  0  0  0  0  0  0  0  0  0
    3.4047   -5.1087   28.1314 C   0  0  0  0  0  0  0  0  0  0  0  0
   -0.2234  -11.8615   16.8874 C   0  0  0  0  0  0  0  0  0  0  0  0
    6.4491   -4.1532   30.1213 C   0  0  0  0  0  0  0  0  0  0  0  0
    5.7060   -4.4340   27.4975 C   0  0  0  0  0  0  0  0  0  0  0  0
    1.1818   -5.6612   28.8399 C   0  0  0  0  0  0  0  0  0  0  0  0
   -1.2067   -7.3287   17.7772 C   0  0  0  0  0  0  0  0  0  0  0  0
   -0.0206  -10.5585   16.6210 C   0  0  0  0  0  0  0  0  0  0  0  0
    0.3696  -12.7626   16.2169 O   0  0  0  0  0  0  0  0  0  0  0  0
   -0.6895   -9.5676   17.3297 C   0  0  0  0  0  0  0  0  0  0  0  0
    0.8388   -5.8417   27.5264 C   0  0  0  0  0  0  0  0  0  0  0  0
   -2.0709   -7.6637   18.7817 C   0  0  0  0  0  0  0  0  0  0  0  0
   -0.5279   -8.2168   17.0717 C   0  0  0  0  0  0  0  0  0  0  0  0
    6.9694   -4.0191   27.8190 C   0  0  0  0  0  0  0  0  0  0  0  0
    5.1733   -4.5469   29.8123 C   0  0  0  0  0  0  0  0  0  0  0  0
   -1.7508  -11.3016   18.6072 C   0  0  0  0  0  0  0  0  0  0  0  0
    1.7497   -5.6771   26.4971 C   0  0  0  0  0  0  0  0  0  0  0  0
   -1.5799   -9.9322   18.3468 C   0  0  0  0  0  0  0  0  0  0  0  0
   -1.0871  -12.2214   17.8851 C   0  0  0  0  0  0  0  0  0  0  0  0
   -2.2706   -8.9669   19.0691 C   0  0  0  0  0  0  0  0  0  0  0  0
    3.0279   -5.3073   26.8197 C   0  0  0  0  0  0  0  0  0  0  0  0
    7.3282   -3.8948   29.1186 C   0  0  0  0  0  0  0  0  0  0  0  0
  1  3  4  0
  1  7  4  0
  2  3  1  0
  2  6  4  0
  2 16  4  0
  3 22  4  0
  4  9  4  0
  4 10  1  0
  4 20  4  0
  5 16  4  0
  5 23  4  0
  6 15  4  0
  7 12  4  0
  8 13  4  0
  8 14  4  0
  9 11  4  0
 11 14  4  0
 11 19  4  0
 12 18  4  0
 13 21  4  0
 15 23  4  0
 17 19  4  0
 17 20  4  0
 18 22  4  0
 19 21  4  0
M  END
$$$$

 Created by Python create_sdf_string function

 23 25  0  0  0  0  0  0  0  0999 V2000
    2.4610   -5.3070   29.1240 C   0  0  0  0  0  0  0  0  0  0  0  0
    4.7710   -4.6952   28.4803 C   0  0  0  0  0  0  0  0  0  0  0  0
    3.4047   -5.1087   28.1314 C   0  0  0  0  0  0  0  0  0  0  0  0
   -0.2234  -11.8615   16.8874 C   0  0  0  0  0  0  0  0  0  0  0  0
    6.4491   -4.1532   30.1213 C   0  0  0  0  0  0  0  0  0  0  0  0
    5.7060   -4.4340   27.4975 C   0  0  0  0  0  0  0  0  0  0  0  0
    1.1818   -5.6612   28.8399 C   0  0  0  0  0  0  0  0  0  0  0  0
   -1.2067   -7.3287   17.7772 C   0  0  0  0  0  0  0  0  0  0  0  0
   -0.0206  -10.5585   16.6210 C   0  0  0  0  0  0  0  0  0  0  0  0
    0.3696  -12.7626   16.2169 O   0  0  0  0  0  0  0  0  0  0  0  0
   -0.6895   -9.5676   17.3297 C   0  0  0  0  0  0  0  0  0  0  0  0
    0.8388   -5.8417   27.5264 C   0  0  0  0  0  0  0  0  0  0  0  0
   -2.0709   -7.6637   18.7817 C   0  0  0  0  0  0  0  0  0  0  0  0
   -0.5279   -8.2168   17.0717 C   0  0  0  0  0  0  0  0  0  0  0  0
    6.9694   -4.0191   27.8190 C   0  0  0  0  0  0  0  0  0  0  0  0
    5.1733   -4.5469   29.8123 C   0  0  0  0  0  0  0  0  0  0  0  0
   -1.7508  -11.3016   18.6072 C   0  0  0  0  0  0  0  0  0  0  0  0
    1.7497   -5.6771   26.4971 C   0  0  0  0  0  0  0  0  0  0  0  0
   -1.5799   -9.9322   18.3468 C   0  0  0  0  0  0  0  0  0  0  0  0
   -1.0871  -12.2214   17.8851 C   0  0  0  0  0  0  0  0  0  0  0  0
   -2.2706   -8.9669   19.0691 C   0  0  0  0  0  0  0  0  0  0  0  0
    3.0279   -5.3073   26.8197 C   0  0  0  0  0  0  0  0  0  0  0  0
    7.3282   -3.8948   29.1186 C   0  0  0  0  0  0  0  0  0  0  0  0
  1  3  4  0
  1  7  4  0
  2  3  1  0
  2  6  4  0
  2 16  4  0
  3 22  4  0
  4  9  4  0
  4 10  1  0
  4 20  4  0
  5 16  4  0
  5 23  4  0
  6 15  4  0
  7 12  4  0
  8 13  4  0
  8 14  4  0
  9 11  4  0
 11 14  4  0
 11 19  4  0
 12 18  4  0
 13 21  4  0
 15 23  4  0
 17 19  4  0
 17 20  4  0
 18 22  4  0
 19 21  4  0
M  END
$$$$

 Created by Python create_sdf_string function

 23 25  0  0  0  0  0  0  0  0999 V2000
    2.4610   -5.3070   29.1240 C   0  0  0  0  0  0  0  0  0  0  0  0
    4.7710   -4.6952   28.4803 C   0  0  0  0  0  0  0  0  0  0  0  0
    3.4047   -5.1087   28.1314 C   0  0  0  0  0  0  0  0  0  0  0  0
   -0.2234  -11.8615   16.8874 C   0  0  0  0  0  0  0  0  0  0  0  0
    6.4491   -4.1532   30.1213 C   0  0  0  0  0  0  0  0  0  0  0  0
    5.7060   -4.4340   27.4975 C   0  0  0  0  0  0  0  0  0  0  0  0
    1.1818   -5.6612   28.8399 C   0  0  0  0  0  0  0  0  0  0  0  0
   -1.2067   -7.3287   17.7772 C   0  0  0  0  0  0  0  0  0  0  0  0
   -0.0206  -10.5585   16.6210 C   0  0  0  0  0  0  0  0  0  0  0  0
    0.3696  -12.7626   16.2169 O   0  0  0  0  0  0  0  0  0  0  0  0
   -0.6895   -9.5676   17.3297 C   0  0  0  0  0  0  0  0  0  0  0  0
    0.8388   -5.8417   27.5264 C   0  0  0  0  0  0  0  0  0  0  0  0
   -2.0709   -7.6637   18.7817 C   0  0  0  0  0  0  0  0  0  0  0  0
   -0.5279   -8.2168   17.0717 C   0  0  0  0  0  0  0  0  0  0  0  0
    6.9694   -4.0191   27.8190 C   0  0  0  0  0  0  0  0  0  0  0  0
    5.1733   -4.5469   29.8123 C   0  0  0  0  0  0  0  0  0  0  0  0
   -1.7508  -11.3016   18.6072 C   0  0  0  0  0  0  0  0  0  0  0  0
    1.7497   -5.6771   26.4971 C   0  0  0  0  0  0  0  0  0  0  0  0
   -1.5799   -9.9322   18.3468 C   0  0  0  0  0  0  0  0  0  0  0  0
   -1.0871  -12.2214   17.8851 C   0  0  0  0  0  0  0  0  0  0  0  0
   -2.2706   -8.9669   19.0691 C   0  0  0  0  0  0  0  0  0  0  0  0
    3.0279   -5.3073   26.8197 C   0  0  0  0  0  0  0  0  0  0  0  0
    7.3282   -3.8948   29.1186 C   0  0  0  0  0  0  0  0  0  0  0  0
  1  3  4  0
  1  7  4  0
  2  3  1  0
  2  6  4  0
  2 16  4  0
  3 22  4  0
  4  9  4  0
  4 10  1  0
  4 20  4  0
  5 16  4  0
  5 23  4  0
  6 15  4  0
  7 12  4  0
  8 13  4  0
  8 14  4  0
  9 11  4  0
 11 14  4  0
 11 19  4  0
 12 18  4  0
 13 21  4  0
 15 23  4  0
 17 19  4  0
 17 20  4  0
 18 22  4  0
 19 21  4  0
M  END
$$$$

 Created by Python create_sdf_string function

 23 25  0  0  0  0  0  0  0  0999 V2000
    2.4610   -5.3070   29.1240 C   0  0  0  0  0  0  0  0  0  0  0  0
    4.7710   -4.6952   28.4803 C   0  0  0  0  0  0  0  0  0  0  0  0
    3.4047   -5.1087   28.1314 C   0  0  0  0  0  0  0  0  0  0  0  0
   -0.2234  -11.8615   16.8874 C   0  0  0  0  0  0  0  0  0  0  0  0
    6.4491   -4.1532   30.1213 C   0  0  0  0  0  0  0  0  0  0  0  0
    5.7060   -4.4340   27.4975 C   0  0  0  0  0  0  0  0  0  0  0  0
    1.1818   -5.6612   28.8399 C   0  0  0  0  0  0  0  0  0  0  0  0
   -1.2067   -7.3287   17.7772 C   0  0  0  0  0  0  0  0  0  0  0  0
   -0.0206  -10.5585   16.6210 C   0  0  0  0  0  0  0  0  0  0  0  0
    0.3696  -12.7626   16.2169 O   0  0  0  0  0  0  0  0  0  0  0  0
   -0.6895   -9.5676   17.3297 C   0  0  0  0  0  0  0  0  0  0  0  0
    0.8388   -5.8417   27.5264 C   0  0  0  0  0  0  0  0  0  0  0  0
   -2.0709   -7.6637   18.7817 C   0  0  0  0  0  0  0  0  0  0  0  0
   -0.5279   -8.2168   17.0717 C   0  0  0  0  0  0  0  0  0  0  0  0
    6.9694   -4.0191   27.8190 C   0  0  0  0  0  0  0  0  0  0  0  0
    5.1733   -4.5469   29.8123 C   0  0  0  0  0  0  0  0  0  0  0  0
   -1.7508  -11.3016   18.6072 C   0  0  0  0  0  0  0  0  0  0  0  0
    1.7497   -5.6771   26.4971 C   0  0  0  0  0  0  0  0  0  0  0  0
   -1.5799   -9.9322   18.3468 C   0  0  0  0  0  0  0  0  0  0  0  0
   -1.0871  -12.2214   17.8851 C   0  0  0  0  0  0  0  0  0  0  0  0
   -2.2706   -8.9669   19.0691 C   0  0  0  0  0  0  0  0  0  0  0  0
    3.0279   -5.3073   26.8197 C   0  0  0  0  0  0  0  0  0  0  0  0
    7.3282   -3.8948   29.1186 C   0  0  0  0  0  0  0  0  0  0  0  0
  1  3  4  0
  1  7  4  0
  2  3  1  0
  2  6  4  0
  2 16  4  0
  3 22  4  0
  4  9  4  0
  4 10  1  0
  4 20  4  0
  5 16  4  0
  5 23  4  0
  6 15  4  0
  7 12  4  0
  8 13  4  0
  8 14  4  0
  9 11  4  0
 11 14  4  0
 11 19  4  0
 12 18  4  0
 13 21  4  0
 15 23  4  0
 17 19  4  0
 17 20  4  0
 18 22  4  0
 19 21  4  0
M  END
$$$$

 Created by Python create_sdf_string function

 23 25  0  0  0  0  0  0  0  0999 V2000
    2.4610   -5.3070   29.1240 C   0  0  0  0  0  0  0  0  0  0  0  0
    4.7710   -4.6952   28.4803 C   0  0  0  0  0  0  0  0  0  0  0  0
    3.4047   -5.1087   28.1314 C   0  0  0  0  0  0  0  0  0  0  0  0
   -0.2234  -11.8615   16.8874 C   0  0  0  0  0  0  0  0  0  0  0  0
    6.4491   -4.1532   30.1213 C   0  0  0  0  0  0  0  0  0  0  0  0
    5.7060   -4.4340   27.4975 C   0  0  0  0  0  0  0  0  0  0  0  0
    1.1818   -5.6612   28.8399 C   0  0  0  0  0  0  0  0  0  0  0  0
   -1.2067   -7.3287   17.7772 C   0  0  0  0  0  0  0  0  0  0  0  0
   -0.0206  -10.5585   16.6210 C   0  0  0  0  0  0  0  0  0  0  0  0
    0.3696  -12.7626   16.2169 O   0  0  0  0  0  0  0  0  0  0  0  0
   -0.6895   -9.5676   17.3297 C   0  0  0  0  0  0  0  0  0  0  0  0
    0.8388   -5.8417   27.5264 C   0  0  0  0  0  0  0  0  0  0  0  0
   -2.0709   -7.6637   18.7817 C   0  0  0  0  0  0  0  0  0  0  0  0
   -0.5279   -8.2168   17.0717 C   0  0  0  0  0  0  0  0  0  0  0  0
    6.9694   -4.0191   27.8190 C   0  0  0  0  0  0  0  0  0  0  0  0
    5.1733   -4.5469   29.8123 C   0  0  0  0  0  0  0  0  0  0  0  0
   -1.7508  -11.3016   18.6072 C   0  0  0  0  0  0  0  0  0  0  0  0
    1.7497   -5.6771   26.4971 C   0  0  0  0  0  0  0  0  0  0  0  0
   -1.5799   -9.9322   18.3468 C   0  0  0  0  0  0  0  0  0  0  0  0
   -1.0871  -12.2214   17.8851 C   0  0  0  0  0  0  0  0  0  0  0  0
   -2.2706   -8.9669   19.0691 C   0  0  0  0  0  0  0  0  0  0  0  0
    3.0279   -5.3073   26.8197 C   0  0  0  0  0  0  0  0  0  0  0  0
    7.3282   -3.8948   29.1186 C   0  0  0  0  0  0  0  0  0  0  0  0
  1  3  4  0
  1  7  4  0
  2  3  1  0
  2  6  4  0
  2 16  4  0
  3 22  4  0
  4  9  4  0
  4 10  1  0
  4 20  4  0
  5 16  4  0
  5 23  4  0
  6 15  4  0
  7 12  4  0
  8 13  4  0
  8 14  4  0
  9 11  4  0
 11 14  4  0
 11 19  4  0
 12 18  4  0
 13 21  4  0
 15 23  4  0
 17 19  4  0
 17 20  4  0
 18 22  4  0
 19 21  4  0
M  END
$$$$

 Created by Python create_sdf_string function

 23 25  0  0  0  0  0  0  0  0999 V2000
    2.4610   -5.3070   29.1240 C   0  0  0  0  0  0  0  0  0  0  0  0
    4.7710   -4.6952   28.4803 C   0  0  0  0  0  0  0  0  0  0  0  0
    3.4047   -5.1087   28.1314 C   0  0  0  0  0  0  0  0  0  0  0  0
   -0.2234  -11.8615   16.8874 C   0  0  0  0  0  0  0  0  0  0  0  0
    6.4491   -4.1532   30.1213 C   0  0  0  0  0  0  0  0  0  0  0  0
    5.7060   -4.4340   27.4975 C   0  0  0  0  0  0  0  0  0  0  0  0
    1.1818   -5.6612   28.8399 C   0  0  0  0  0  0  0  0  0  0  0  0
   -1.2067   -7.3287   17.7772 C   0  0  0  0  0  0  0  0  0  0  0  0
   -0.0206  -10.5585   16.6210 C   0  0  0  0  0  0  0  0  0  0  0  0
    0.3696  -12.7626   16.2169 O   0  0  0  0  0  0  0  0  0  0  0  0
   -0.6895   -9.5676   17.3297 C   0  0  0  0  0  0  0  0  0  0  0  0
    0.8388   -5.8417   27.5264 C   0  0  0  0  0  0  0  0  0  0  0  0
   -2.0709   -7.6637   18.7817 C   0  0  0  0  0  0  0  0  0  0  0  0
   -0.5279   -8.2168   17.0717 C   0  0  0  0  0  0  0  0  0  0  0  0
    6.9694   -4.0191   27.8190 C   0  0  0  0  0  0  0  0  0  0  0  0
    5.1733   -4.5469   29.8123 C   0  0  0  0  0  0  0  0  0  0  0  0
   -1.7508  -11.3016   18.6072 C   0  0  0  0  0  0  0  0  0  0  0  0
    1.7497   -5.6771   26.4971 C   0  0  0  0  0  0  0  0  0  0  0  0
   -1.5799   -9.9322   18.3468 C   0  0  0  0  0  0  0  0  0  0  0  0
   -1.0871  -12.2214   17.8851 C   0  0  0  0  0  0  0  0  0  0  0  0
   -2.2706   -8.9669   19.0691 C   0  0  0  0  0  0  0  0  0  0  0  0
    3.0279   -5.3073   26.8197 C   0  0  0  0  0  0  0  0  0  0  0  0
    7.3282   -3.8948   29.1186 C   0  0  0  0  0  0  0  0  0  0  0  0
  1  3  4  0
  1  7  4  0
  2  3  1  0
  2  6  4  0
  2 16  4  0
  3 22  4  0
  4  9  4  0
  4 10  1  0
  4 20  4  0
  5 16  4  0
  5 23  4  0
  6 15  4  0
  7 12  4  0
  8 13  4  0
  8 14  4  0
  9 11  4  0
 11 14  4  0
 11 19  4  0
 12 18  4  0
 13 21  4  0
 15 23  4  0
 17 19  4  0
 17 20  4  0
 18 22  4  0
 19 21  4  0
M  END
$$$$

 Created by Python create_sdf_string function

 23 25  0  0  0  0  0  0  0  0999 V2000
    2.4610   -5.3070   29.1240 C   0  0  0  0  0  0  0  0  0  0  0  0
    4.7710   -4.6952   28.4803 C   0  0  0  0  0  0  0  0  0  0  0  0
    3.4047   -5.1087   28.1314 C   0  0  0  0  0  0  0  0  0  0  0  0
   -0.2234  -11.8615   16.8874 C   0  0  0  0  0  0  0  0  0  0  0  0
    6.4491   -4.1532   30.1213 C   0  0  0  0  0  0  0  0  0  0  0  0
    5.7060   -4.4340   27.4975 C   0  0  0  0  0  0  0  0  0  0  0  0
    1.1818   -5.6612   28.8399 C   0  0  0  0  0  0  0  0  0  0  0  0
   -1.2067   -7.3287   17.7772 C   0  0  0  0  0  0  0  0  0  0  0  0
   -0.0206  -10.5585   16.6210 C   0  0  0  0  0  0  0  0  0  0  0  0
    0.3696  -12.7626   16.2169 O   0  0  0  0  0  0  0  0  0  0  0  0
   -0.6895   -9.5676   17.3297 C   0  0  0  0  0  0  0  0  0  0  0  0
    0.8388   -5.8417   27.5264 C   0  0  0  0  0  0  0  0  0  0  0  0
   -2.0709   -7.6637   18.7817 C   0  0  0  0  0  0  0  0  0  0  0  0
   -0.5279   -8.2168   17.0717 C   0  0  0  0  0  0  0  0  0  0  0  0
    6.9694   -4.0191   27.8190 C   0  0  0  0  0  0  0  0  0  0  0  0
    5.1733   -4.5469   29.8123 C   0  0  0  0  0  0  0  0  0  0  0  0
   -1.7508  -11.3016   18.6072 C   0  0  0  0  0  0  0  0  0  0  0  0
    1.7497   -5.6771   26.4971 C   0  0  0  0  0  0  0  0  0  0  0  0
   -1.5799   -9.9322   18.3468 C   0  0  0  0  0  0  0  0  0  0  0  0
   -1.0871  -12.2214   17.8851 C   0  0  0  0  0  0  0  0  0  0  0  0
   -2.2706   -8.9669   19.0691 C   0  0  0  0  0  0  0  0  0  0  0  0
    3.0279   -5.3073   26.8197 C   0  0  0  0  0  0  0  0  0  0  0  0
    7.3282   -3.8948   29.1186 C   0  0  0  0  0  0  0  0  0  0  0  0
  1  3  4  0
  1  7  4  0
  2  3  1  0
  2  6  4  0
  2 16  4  0
  3 22  4  0
  4  9  4  0
  4 10  1  0
  4 20  4  0
  5 16  4  0
  5 23  4  0
  6 15  4  0
  7 12  4  0
  8 13  4  0
  8 14  4  0
  9 11  4  0
 11 14  4  0
 11 19  4  0
 12 18  4  0
 13 21  4  0
 15 23  4  0
 17 19  4  0
 17 20  4  0
 18 22  4  0
 19 21  4  0
M  END
$$$$

 Created by Python create_sdf_string function

 23 25  0  0  0  0  0  0  0  0999 V2000
    2.4610   -5.3070   29.1240 C   0  0  0  0  0  0  0  0  0  0  0  0
    4.7710   -4.6952   28.4803 C   0  0  0  0  0  0  0  0  0  0  0  0
    3.4047   -5.1087   28.1314 C   0  0  0  0  0  0  0  0  0  0  0  0
   -0.2234  -11.8615   16.8874 C   0  0  0  0  0  0  0  0  0  0  0  0
    6.4491   -4.1532   30.1213 C   0  0  0  0  0  0  0  0  0  0  0  0
    5.7060   -4.4340   27.4975 C   0  0  0  0  0  0  0  0  0  0  0  0
    1.1818   -5.6612   28.8399 C   0  0  0  0  0  0  0  0  0  0  0  0
   -1.2067   -7.3287   17.7772 C   0  0  0  0  0  0  0  0  0  0  0  0
   -0.0206  -10.5585   16.6210 C   0  0  0  0  0  0  0  0  0  0  0  0
    0.3696  -12.7626   16.2169 O   0  0  0  0  0  0  0  0  0  0  0  0
   -0.6895   -9.5676   17.3297 C   0  0  0  0  0  0  0  0  0  0  0  0
    0.8388   -5.8417   27.5264 C   0  0  0  0  0  0  0  0  0  0  0  0
   -2.0709   -7.6637   18.7817 C   0  0  0  0  0  0  0  0  0  0  0  0
   -0.5279   -8.2168   17.0717 C   0  0  0  0  0  0  0  0  0  0  0  0
    6.9694   -4.0191   27.8190 C   0  0  0  0  0  0  0  0  0  0  0  0
    5.1733   -4.5469   29.8123 C   0  0  0  0  0  0  0  0  0  0  0  0
   -1.7508  -11.3016   18.6072 C   0  0  0  0  0  0  0  0  0  0  0  0
    1.7497   -5.6771   26.4971 C   0  0  0  0  0  0  0  0  0  0  0  0
   -1.5799   -9.9322   18.3468 C   0  0  0  0  0  0  0  0  0  0  0  0
   -1.0871  -12.2214   17.8851 C   0  0  0  0  0  0  0  0  0  0  0  0
   -2.2706   -8.9669   19.0691 C   0  0  0  0  0  0  0  0  0  0  0  0
    3.0279   -5.3073   26.8197 C   0  0  0  0  0  0  0  0  0  0  0  0
    7.3282   -3.8948   29.1186 C   0  0  0  0  0  0  0  0  0  0  0  0
  1  3  4  0
  1  7  4  0
  2  3  1  0
  2  6  4  0
  2 16  4  0
  3 22  4  0
  4  9  4  0
  4 10  1  0
  4 20  4  0
  5 16  4  0
  5 23  4  0
  6 15  4  0
  7 12  4  0
  8 13  4  0
  8 14  4  0
  9 11  4  0
 11 14  4  0
 11 19  4  0
 12 18  4  0
 13 21  4  0
 15 23  4  0
 17 19  4  0
 17 20  4  0
 18 22  4  0
 19 21  4  0
M  END
$$$$

 Created by Python create_sdf_string function

 23 25  0  0  0  0  0  0  0  0999 V2000
    2.4610   -5.3070   29.1240 C   0  0  0  0  0  0  0  0  0  0  0  0
    4.7710   -4.6952   28.4803 C   0  0  0  0  0  0  0  0  0  0  0  0
    3.4047   -5.1087   28.1314 C   0  0  0  0  0  0  0  0  0  0  0  0
   -0.2234  -11.8615   16.8874 C   0  0  0  0  0  0  0  0  0  0  0  0
    6.4491   -4.1532   30.1213 C   0  0  0  0  0  0  0  0  0  0  0  0
    5.7060   -4.4340   27.4975 C   0  0  0  0  0  0  0  0  0  0  0  0
    1.1818   -5.6612   28.8399 C   0  0  0  0  0  0  0  0  0  0  0  0
   -1.2067   -7.3287   17.7772 C   0  0  0  0  0  0  0  0  0  0  0  0
   -0.0206  -10.5585   16.6210 C   0  0  0  0  0  0  0  0  0  0  0  0
    0.3696  -12.7626   16.2169 O   0  0  0  0  0  0  0  0  0  0  0  0
   -0.6895   -9.5676   17.3297 C   0  0  0  0  0  0  0  0  0  0  0  0
    0.8388   -5.8417   27.5264 C   0  0  0  0  0  0  0  0  0  0  0  0
   -2.0709   -7.6637   18.7817 C   0  0  0  0  0  0  0  0  0  0  0  0
   -0.5279   -8.2168   17.0717 C   0  0  0  0  0  0  0  0  0  0  0  0
    6.9694   -4.0191   27.8190 C   0  0  0  0  0  0  0  0  0  0  0  0
    5.1733   -4.5469   29.8123 C   0  0  0  0  0  0  0  0  0  0  0  0
   -1.7508  -11.3016   18.6072 C   0  0  0  0  0  0  0  0  0  0  0  0
    1.7497   -5.6771   26.4971 C   0  0  0  0  0  0  0  0  0  0  0  0
   -1.5799   -9.9322   18.3468 C   0  0  0  0  0  0  0  0  0  0  0  0
   -1.0871  -12.2214   17.8851 C   0  0  0  0  0  0  0  0  0  0  0  0
   -2.2706   -8.9669   19.0691 C   0  0  0  0  0  0  0  0  0  0  0  0
    3.0279   -5.3073   26.8197 C   0  0  0  0  0  0  0  0  0  0  0  0
    7.3282   -3.8948   29.1186 C   0  0  0  0  0  0  0  0  0  0  0  0
  1  3  4  0
  1  7  4  0
  2  3  1  0
  2  6  4  0
  2 16  4  0
  3 22  4  0
  4  9  4  0
  4 10  1  0
  4 20  4  0
  5 16  4  0
  5 23  4  0
  6 15  4  0
  7 12  4  0
  8 13  4  0
  8 14  4  0
  9 11  4  0
 11 14  4  0
 11 19  4  0
 12 18  4  0
 13 21  4  0
 15 23  4  0
 17 19  4  0
 17 20  4  0
 18 22  4  0
 19 21  4  0
M  END
$$$$

 Created by Python create_sdf_string function

 23 25  0  0  0  0  0  0  0  0999 V2000
    2.4610   -5.3070   29.1240 C   0  0  0  0  0  0  0  0  0  0  0  0
    4.7710   -4.6952   28.4803 C   0  0  0  0  0  0  0  0  0  0  0  0
    3.4047   -5.1087   28.1314 C   0  0  0  0  0  0  0  0  0  0  0  0
   -0.2234  -11.8615   16.8874 C   0  0  0  0  0  0  0  0  0  0  0  0
    6.4491   -4.1532   30.1213 C   0  0  0  0  0  0  0  0  0  0  0  0
    5.7060   -4.4340   27.4975 C   0  0  0  0  0  0  0  0  0  0  0  0
    1.1818   -5.6612   28.8399 C   0  0  0  0  0  0  0  0  0  0  0  0
   -1.2067   -7.3287   17.7772 C   0  0  0  0  0  0  0  0  0  0  0  0
   -0.0206  -10.5585   16.6210 C   0  0  0  0  0  0  0  0  0  0  0  0
    0.3696  -12.7626   16.2169 O   0  0  0  0  0  0  0  0  0  0  0  0
   -0.6895   -9.5676   17.3297 C   0  0  0  0  0  0  0  0  0  0  0  0
    0.8388   -5.8417   27.5264 C   0  0  0  0  0  0  0  0  0  0  0  0
   -2.0709   -7.6637   18.7817 C   0  0  0  0  0  0  0  0  0  0  0  0
   -0.5279   -8.2168   17.0717 C   0  0  0  0  0  0  0  0  0  0  0  0
    6.9694   -4.0191   27.8190 C   0  0  0  0  0  0  0  0  0  0  0  0
    5.1733   -4.5469   29.8123 C   0  0  0  0  0  0  0  0  0  0  0  0
   -1.7508  -11.3016   18.6072 C   0  0  0  0  0  0  0  0  0  0  0  0
    1.7497   -5.6771   26.4971 C   0  0  0  0  0  0  0  0  0  0  0  0
   -1.5799   -9.9322   18.3468 C   0  0  0  0  0  0  0  0  0  0  0  0
   -1.0871  -12.2214   17.8851 C   0  0  0  0  0  0  0  0  0  0  0  0
   -2.2706   -8.9669   19.0691 C   0  0  0  0  0  0  0  0  0  0  0  0
    3.0279   -5.3073   26.8197 C   0  0  0  0  0  0  0  0  0  0  0  0
    7.3282   -3.8948   29.1186 C   0  0  0  0  0  0  0  0  0  0  0  0
  1  3  4  0
  1  7  4  0
  2  3  1  0
  2  6  4  0
  2 16  4  0
  3 22  4  0
  4  9  4  0
  4 10  1  0
  4 20  4  0
  5 16  4  0
  5 23  4  0
  6 15  4  0
  7 12  4  0
  8 13  4  0
  8 14  4  0
  9 11  4  0
 11 14  4  0
 11 19  4  0
 12 18  4  0
 13 21  4  0
 15 23  4  0
 17 19  4  0
 17 20  4  0
 18 22  4  0
 19 21  4  0
M  END
$$$$

 Created by Python create_sdf_string function

 23 25  0  0  0  0  0  0  0  0999 V2000
    2.4610   -5.3070   29.1240 C   0  0  0  0  0  0  0  0  0  0  0  0
    4.7710   -4.6952   28.4803 C   0  0  0  0  0  0  0  0  0  0  0  0
    3.4047   -5.1087   28.1314 C   0  0  0  0  0  0  0  0  0  0  0  0
   -0.2234  -11.8615   16.8874 C   0  0  0  0  0  0  0  0  0  0  0  0
    6.4491   -4.1532   30.1213 C   0  0  0  0  0  0  0  0  0  0  0  0
    5.7060   -4.4340   27.4975 C   0  0  0  0  0  0  0  0  0  0  0  0
    1.1818   -5.6612   28.8399 C   0  0  0  0  0  0  0  0  0  0  0  0
   -1.2067   -7.3287   17.7772 C   0  0  0  0  0  0  0  0  0  0  0  0
   -0.0206  -10.5585   16.6210 C   0  0  0  0  0  0  0  0  0  0  0  0
    0.3696  -12.7626   16.2169 O   0  0  0  0  0  0  0  0  0  0  0  0
   -0.6895   -9.5676   17.3297 C   0  0  0  0  0  0  0  0  0  0  0  0
    0.8388   -5.8417   27.5264 C   0  0  0  0  0  0  0  0  0  0  0  0
   -2.0709   -7.6637   18.7817 C   0  0  0  0  0  0  0  0  0  0  0  0
   -0.5279   -8.2168   17.0717 C   0  0  0  0  0  0  0  0  0  0  0  0
    6.9694   -4.0191   27.8190 C   0  0  0  0  0  0  0  0  0  0  0  0
    5.1733   -4.5469   29.8123 C   0  0  0  0  0  0  0  0  0  0  0  0
   -1.7508  -11.3016   18.6072 C   0  0  0  0  0  0  0  0  0  0  0  0
    1.7497   -5.6771   26.4971 C   0  0  0  0  0  0  0  0  0  0  0  0
   -1.5799   -9.9322   18.3468 C   0  0  0  0  0  0  0  0  0  0  0  0
   -1.0871  -12.2214   17.8851 C   0  0  0  0  0  0  0  0  0  0  0  0
   -2.2706   -8.9669   19.0691 C   0  0  0  0  0  0  0  0  0  0  0  0
    3.0279   -5.3073   26.8197 C   0  0  0  0  0  0  0  0  0  0  0  0
    7.3282   -3.8948   29.1186 C   0  0  0  0  0  0  0  0  0  0  0  0
  1  3  4  0
  1  7  4  0
  2  3  1  0
  2  6  4  0
  2 16  4  0
  3 22  4  0
  4  9  4  0
  4 10  1  0
  4 20  4  0
  5 16  4  0
  5 23  4  0
  6 15  4  0
  7 12  4  0
  8 13  4  0
  8 14  4  0
  9 11  4  0
 11 14  4  0
 11 19  4  0
 12 18  4  0
 13 21  4  0
 15 23  4  0
 17 19  4  0
 17 20  4  0
 18 22  4  0
 19 21  4  0
M  END
$$$$

 Created by Python create_sdf_string function

 23 25  0  0  0  0  0  0  0  0999 V2000
    2.4610   -5.3070   29.1240 C   0  0  0  0  0  0  0  0  0  0  0  0
    4.7710   -4.6952   28.4803 C   0  0  0  0  0  0  0  0  0  0  0  0
    3.4047   -5.1087   28.1314 C   0  0  0  0  0  0  0  0  0  0  0  0
   -0.2234  -11.8615   16.8874 C   0  0  0  0  0  0  0  0  0  0  0  0
    6.4491   -4.1532   30.1213 C   0  0  0  0  0  0  0  0  0  0  0  0
    5.7060   -4.4340   27.4975 C   0  0  0  0  0  0  0  0  0  0  0  0
    1.1818   -5.6612   28.8399 C   0  0  0  0  0  0  0  0  0  0  0  0
   -1.2067   -7.3287   17.7772 C   0  0  0  0  0  0  0  0  0  0  0  0
   -0.0206  -10.5585   16.6210 C   0  0  0  0  0  0  0  0  0  0  0  0
    0.3696  -12.7626   16.2169 O   0  0  0  0  0  0  0  0  0  0  0  0
   -0.6895   -9.5676   17.3297 C   0  0  0  0  0  0  0  0  0  0  0  0
    0.8388   -5.8417   27.5264 C   0  0  0  0  0  0  0  0  0  0  0  0
   -2.0709   -7.6637   18.7817 C   0  0  0  0  0  0  0  0  0  0  0  0
   -0.5279   -8.2168   17.0717 C   0  0  0  0  0  0  0  0  0  0  0  0
    6.9694   -4.0191   27.8190 C   0  0  0  0  0  0  0  0  0  0  0  0
    5.1733   -4.5469   29.8123 C   0  0  0  0  0  0  0  0  0  0  0  0
   -1.7508  -11.3016   18.6072 C   0  0  0  0  0  0  0  0  0  0  0  0
    1.7497   -5.6771   26.4971 C   0  0  0  0  0  0  0  0  0  0  0  0
   -1.5799   -9.9322   18.3468 C   0  0  0  0  0  0  0  0  0  0  0  0
   -1.0871  -12.2214   17.8851 C   0  0  0  0  0  0  0  0  0  0  0  0
   -2.2706   -8.9669   19.0691 C   0  0  0  0  0  0  0  0  0  0  0  0
    3.0279   -5.3073   26.8197 C   0  0  0  0  0  0  0  0  0  0  0  0
    7.3282   -3.8948   29.1186 C   0  0  0  0  0  0  0  0  0  0  0  0
  1  3  4  0
  1  7  4  0
  2  3  1  0
  2  6  4  0
  2 16  4  0
  3 22  4  0
  4  9  4  0
  4 10  1  0
  4 20  4  0
  5 16  4  0
  5 23  4  0
  6 15  4  0
  7 12  4  0
  8 13  4  0
  8 14  4  0
  9 11  4  0
 11 14  4  0
 11 19  4  0
 12 18  4  0
 13 21  4  0
 15 23  4  0
 17 19  4  0
 17 20  4  0
 18 22  4  0
 19 21  4  0
M  END
$$$$

 Created by Python create_sdf_string function

 23 25  0  0  0  0  0  0  0  0999 V2000
    2.4610   -5.3070   29.1240 C   0  0  0  0  0  0  0  0  0  0  0  0
    4.7710   -4.6952   28.4803 C   0  0  0  0  0  0  0  0  0  0  0  0
    3.4047   -5.1087   28.1314 C   0  0  0  0  0  0  0  0  0  0  0  0
   -0.2234  -11.8615   16.8874 C   0  0  0  0  0  0  0  0  0  0  0  0
    6.4491   -4.1532   30.1213 C   0  0  0  0  0  0  0  0  0  0  0  0
    5.7060   -4.4340   27.4975 C   0  0  0  0  0  0  0  0  0  0  0  0
    1.1818   -5.6612   28.8399 C   0  0  0  0  0  0  0  0  0  0  0  0
   -1.2067   -7.3287   17.7772 C   0  0  0  0  0  0  0  0  0  0  0  0
   -0.0206  -10.5585   16.6210 C   0  0  0  0  0  0  0  0  0  0  0  0
    0.3696  -12.7626   16.2169 O   0  0  0  0  0  0  0  0  0  0  0  0
   -0.6895   -9.5676   17.3297 C   0  0  0  0  0  0  0  0  0  0  0  0
    0.8388   -5.8417   27.5264 C   0  0  0  0  0  0  0  0  0  0  0  0
   -2.0709   -7.6637   18.7817 C   0  0  0  0  0  0  0  0  0  0  0  0
   -0.5279   -8.2168   17.0717 C   0  0  0  0  0  0  0  0  0  0  0  0
    6.9694   -4.0191   27.8190 C   0  0  0  0  0  0  0  0  0  0  0  0
    5.1733   -4.5469   29.8123 C   0  0  0  0  0  0  0  0  0  0  0  0
   -1.7508  -11.3016   18.6072 C   0  0  0  0  0  0  0  0  0  0  0  0
    1.7497   -5.6771   26.4971 C   0  0  0  0  0  0  0  0  0  0  0  0
   -1.5799   -9.9322   18.3468 C   0  0  0  0  0  0  0  0  0  0  0  0
   -1.0871  -12.2214   17.8851 C   0  0  0  0  0  0  0  0  0  0  0  0
   -2.2706   -8.9669   19.0691 C   0  0  0  0  0  0  0  0  0  0  0  0
    3.0279   -5.3073   26.8197 C   0  0  0  0  0  0  0  0  0  0  0  0
    7.3282   -3.8948   29.1186 C   0  0  0  0  0  0  0  0  0  0  0  0
  1  3  4  0
  1  7  4  0
  2  3  1  0
  2  6  4  0
  2 16  4  0
  3 22  4  0
  4  9  4  0
  4 10  1  0
  4 20  4  0
  5 16  4  0
  5 23  4  0
  6 15  4  0
  7 12  4  0
  8 13  4  0
  8 14  4  0
  9 11  4  0
 11 14  4  0
 11 19  4  0
 12 18  4  0
 13 21  4  0
 15 23  4  0
 17 19  4  0
 17 20  4  0
 18 22  4  0
 19 21  4  0
M  END
$$$$

 Created by Python create_sdf_string function

 23 25  0  0  0  0  0  0  0  0999 V2000
    2.4610   -5.3070   29.1240 C   0  0  0  0  0  0  0  0  0  0  0  0
    4.7710   -4.6952   28.4803 C   0  0  0  0  0  0  0  0  0  0  0  0
    3.4047   -5.1087   28.1314 C   0  0  0  0  0  0  0  0  0  0  0  0
   -0.2234  -11.8615   16.8874 C   0  0  0  0  0  0  0  0  0  0  0  0
    6.4491   -4.1532   30.1213 C   0  0  0  0  0  0  0  0  0  0  0  0
    5.7060   -4.4340   27.4975 C   0  0  0  0  0  0  0  0  0  0  0  0
    1.1818   -5.6612   28.8399 C   0  0  0  0  0  0  0  0  0  0  0  0
   -1.2067   -7.3287   17.7772 C   0  0  0  0  0  0  0  0  0  0  0  0
   -0.0206  -10.5585   16.6210 C   0  0  0  0  0  0  0  0  0  0  0  0
    0.3696  -12.7626   16.2169 O   0  0  0  0  0  0  0  0  0  0  0  0
   -0.6895   -9.5676   17.3297 C   0  0  0  0  0  0  0  0  0  0  0  0
    0.8388   -5.8417   27.5264 C   0  0  0  0  0  0  0  0  0  0  0  0
   -2.0709   -7.6637   18.7817 C   0  0  0  0  0  0  0  0  0  0  0  0
   -0.5279   -8.2168   17.0717 C   0  0  0  0  0  0  0  0  0  0  0  0
    6.9694   -4.0191   27.8190 C   0  0  0  0  0  0  0  0  0  0  0  0
    5.1733   -4.5469   29.8123 C   0  0  0  0  0  0  0  0  0  0  0  0
   -1.7508  -11.3016   18.6072 C   0  0  0  0  0  0  0  0  0  0  0  0
    1.7497   -5.6771   26.4971 C   0  0  0  0  0  0  0  0  0  0  0  0
   -1.5799   -9.9322   18.3468 C   0  0  0  0  0  0  0  0  0  0  0  0
   -1.0871  -12.2214   17.8851 C   0  0  0  0  0  0  0  0  0  0  0  0
   -2.2706   -8.9669   19.0691 C   0  0  0  0  0  0  0  0  0  0  0  0
    3.0279   -5.3073   26.8197 C   0  0  0  0  0  0  0  0  0  0  0  0
    7.3282   -3.8948   29.1186 C   0  0  0  0  0  0  0  0  0  0  0  0
  1  3  4  0
  1  7  4  0
  2  3  1  0
  2  6  4  0
  2 16  4  0
  3 22  4  0
  4  9  4  0
  4 10  1  0
  4 20  4  0
  5 16  4  0
  5 23  4  0
  6 15  4  0
  7 12  4  0
  8 13  4  0
  8 14  4  0
  9 11  4  0
 11 14  4  0
 11 19  4  0
 12 18  4  0
 13 21  4  0
 15 23  4  0
 17 19  4  0
 17 20  4  0
 18 22  4  0
 19 21  4  0
M  END
$$$$

 Created by Python create_sdf_string function

 23 25  0  0  0  0  0  0  0  0999 V2000
    2.4610   -5.3070   29.1240 C   0  0  0  0  0  0  0  0  0  0  0  0
    4.7710   -4.6952   28.4803 C   0  0  0  0  0  0  0  0  0  0  0  0
    3.4047   -5.1087   28.1314 C   0  0  0  0  0  0  0  0  0  0  0  0
   -0.2234  -11.8615   16.8874 C   0  0  0  0  0  0  0  0  0  0  0  0
    6.4491   -4.1532   30.1213 C   0  0  0  0  0  0  0  0  0  0  0  0
    5.7060   -4.4340   27.4975 C   0  0  0  0  0  0  0  0  0  0  0  0
    1.1818   -5.6612   28.8399 C   0  0  0  0  0  0  0  0  0  0  0  0
   -1.2067   -7.3287   17.7772 C   0  0  0  0  0  0  0  0  0  0  0  0
   -0.0206  -10.5585   16.6210 C   0  0  0  0  0  0  0  0  0  0  0  0
    0.3696  -12.7626   16.2169 O   0  0  0  0  0  0  0  0  0  0  0  0
   -0.6895   -9.5676   17.3297 C   0  0  0  0  0  0  0  0  0  0  0  0
    0.8388   -5.8417   27.5264 C   0  0  0  0  0  0  0  0  0  0  0  0
   -2.0709   -7.6637   18.7817 C   0  0  0  0  0  0  0  0  0  0  0  0
   -0.5279   -8.2168   17.0717 C   0  0  0  0  0  0  0  0  0  0  0  0
    6.9694   -4.0191   27.8190 C   0  0  0  0  0  0  0  0  0  0  0  0
    5.1733   -4.5469   29.8123 C   0  0  0  0  0  0  0  0  0  0  0  0
   -1.7508  -11.3016   18.6072 C   0  0  0  0  0  0  0  0  0  0  0  0
    1.7497   -5.6771   26.4971 C   0  0  0  0  0  0  0  0  0  0  0  0
   -1.5799   -9.9322   18.3468 C   0  0  0  0  0  0  0  0  0  0  0  0
   -1.0871  -12.2214   17.8851 C   0  0  0  0  0  0  0  0  0  0  0  0
   -2.2706   -8.9669   19.0691 C   0  0  0  0  0  0  0  0  0  0  0  0
    3.0279   -5.3073   26.8197 C   0  0  0  0  0  0  0  0  0  0  0  0
    7.3282   -3.8948   29.1186 C   0  0  0  0  0  0  0  0  0  0  0  0
  1  3  4  0
  1  7  4  0
  2  3  1  0
  2  6  4  0
  2 16  4  0
  3 22  4  0
  4  9  4  0
  4 10  1  0
  4 20  4  0
  5 16  4  0
  5 23  4  0
  6 15  4  0
  7 12  4  0
  8 13  4  0
  8 14  4  0
  9 11  4  0
 11 14  4  0
 11 19  4  0
 12 18  4  0
 13 21  4  0
 15 23  4  0
 17 19  4  0
 17 20  4  0
 18 22  4  0
 19 21  4  0
M  END
$$$$

 Created by Python create_sdf_string function

 23 25  0  0  0  0  0  0  0  0999 V2000
    2.4610   -5.3070   29.1240 C   0  0  0  0  0  0  0  0  0  0  0  0
    4.7710   -4.6952   28.4803 C   0  0  0  0  0  0  0  0  0  0  0  0
    3.4047   -5.1087   28.1314 C   0  0  0  0  0  0  0  0  0  0  0  0
   -0.2234  -11.8615   16.8874 C   0  0  0  0  0  0  0  0  0  0  0  0
    6.4491   -4.1532   30.1213 C   0  0  0  0  0  0  0  0  0  0  0  0
    5.7060   -4.4340   27.4975 C   0  0  0  0  0  0  0  0  0  0  0  0
    1.1818   -5.6612   28.8399 C   0  0  0  0  0  0  0  0  0  0  0  0
   -1.2067   -7.3287   17.7772 C   0  0  0  0  0  0  0  0  0  0  0  0
   -0.0206  -10.5585   16.6210 C   0  0  0  0  0  0  0  0  0  0  0  0
    0.3696  -12.7626   16.2169 O   0  0  0  0  0  0  0  0  0  0  0  0
   -0.6895   -9.5676   17.3297 C   0  0  0  0  0  0  0  0  0  0  0  0
    0.8388   -5.8417   27.5264 C   0  0  0  0  0  0  0  0  0  0  0  0
   -2.0709   -7.6637   18.7817 C   0  0  0  0  0  0  0  0  0  0  0  0
   -0.5279   -8.2168   17.0717 C   0  0  0  0  0  0  0  0  0  0  0  0
    6.9694   -4.0191   27.8190 C   0  0  0  0  0  0  0  0  0  0  0  0
    5.1733   -4.5469   29.8123 C   0  0  0  0  0  0  0  0  0  0  0  0
   -1.7508  -11.3016   18.6072 C   0  0  0  0  0  0  0  0  0  0  0  0
    1.7497   -5.6771   26.4971 C   0  0  0  0  0  0  0  0  0  0  0  0
   -1.5799   -9.9322   18.3468 C   0  0  0  0  0  0  0  0  0  0  0  0
   -1.0871  -12.2214   17.8851 C   0  0  0  0  0  0  0  0  0  0  0  0
   -2.2706   -8.9669   19.0691 C   0  0  0  0  0  0  0  0  0  0  0  0
    3.0279   -5.3073   26.8197 C   0  0  0  0  0  0  0  0  0  0  0  0
    7.3282   -3.8948   29.1186 C   0  0  0  0  0  0  0  0  0  0  0  0
  1  3  4  0
  1  7  4  0
  2  3  1  0
  2  6  4  0
  2 16  4  0
  3 22  4  0
  4  9  4  0
  4 10  1  0
  4 20  4  0
  5 16  4  0
  5 23  4  0
  6 15  4  0
  7 12  4  0
  8 13  4  0
  8 14  4  0
  9 11  4  0
 11 14  4  0
 11 19  4  0
 12 18  4  0
 13 21  4  0
 15 23  4  0
 17 19  4  0
 17 20  4  0
 18 22  4  0
 19 21  4  0
M  END
$$$$

 Created by Python create_sdf_string function

 23 25  0  0  0  0  0  0  0  0999 V2000
    2.4610   -5.3070   29.1240 C   0  0  0  0  0  0  0  0  0  0  0  0
    4.7710   -4.6952   28.4803 C   0  0  0  0  0  0  0  0  0  0  0  0
    3.4047   -5.1087   28.1314 C   0  0  0  0  0  0  0  0  0  0  0  0
   -0.2234  -11.8615   16.8874 C   0  0  0  0  0  0  0  0  0  0  0  0
    6.4491   -4.1532   30.1213 C   0  0  0  0  0  0  0  0  0  0  0  0
    5.7060   -4.4340   27.4975 C   0  0  0  0  0  0  0  0  0  0  0  0
    1.1818   -5.6612   28.8399 C   0  0  0  0  0  0  0  0  0  0  0  0
   -1.2067   -7.3287   17.7772 C   0  0  0  0  0  0  0  0  0  0  0  0
   -0.0206  -10.5585   16.6210 C   0  0  0  0  0  0  0  0  0  0  0  0
    0.3696  -12.7626   16.2169 O   0  0  0  0  0  0  0  0  0  0  0  0
   -0.6895   -9.5676   17.3297 C   0  0  0  0  0  0  0  0  0  0  0  0
    0.8388   -5.8417   27.5264 C   0  0  0  0  0  0  0  0  0  0  0  0
   -2.0709   -7.6637   18.7817 C   0  0  0  0  0  0  0  0  0  0  0  0
   -0.5279   -8.2168   17.0717 C   0  0  0  0  0  0  0  0  0  0  0  0
    6.9694   -4.0191   27.8190 C   0  0  0  0  0  0  0  0  0  0  0  0
    5.1733   -4.5469   29.8123 C   0  0  0  0  0  0  0  0  0  0  0  0
   -1.7508  -11.3016   18.6072 C   0  0  0  0  0  0  0  0  0  0  0  0
    1.7497   -5.6771   26.4971 C   0  0  0  0  0  0  0  0  0  0  0  0
   -1.5799   -9.9322   18.3468 C   0  0  0  0  0  0  0  0  0  0  0  0
   -1.0871  -12.2214   17.8851 C   0  0  0  0  0  0  0  0  0  0  0  0
   -2.2706   -8.9669   19.0691 C   0  0  0  0  0  0  0  0  0  0  0  0
    3.0279   -5.3073   26.8197 C   0  0  0  0  0  0  0  0  0  0  0  0
    7.3282   -3.8948   29.1186 C   0  0  0  0  0  0  0  0  0  0  0  0
  1  3  4  0
  1  7  4  0
  2  3  1  0
  2  6  4  0
  2 16  4  0
  3 22  4  0
  4  9  4  0
  4 10  1  0
  4 20  4  0
  5 16  4  0
  5 23  4  0
  6 15  4  0
  7 12  4  0
  8 13  4  0
  8 14  4  0
  9 11  4  0
 11 14  4  0
 11 19  4  0
 12 18  4  0
 13 21  4  0
 15 23  4  0
 17 19  4  0
 17 20  4  0
 18 22  4  0
 19 21  4  0
M  END
$$$$

 Created by Python create_sdf_string function

 23 25  0  0  0  0  0  0  0  0999 V2000
    2.4610   -5.3070   29.1240 C   0  0  0  0  0  0  0  0  0  0  0  0
    4.7710   -4.6952   28.4803 C   0  0  0  0  0  0  0  0  0  0  0  0
    3.4047   -5.1087   28.1314 C   0  0  0  0  0  0  0  0  0  0  0  0
   -0.2234  -11.8615   16.8874 C   0  0  0  0  0  0  0  0  0  0  0  0
    6.4491   -4.1532   30.1213 C   0  0  0  0  0  0  0  0  0  0  0  0
    5.7060   -4.4340   27.4975 C   0  0  0  0  0  0  0  0  0  0  0  0
    1.1818   -5.6612   28.8399 C   0  0  0  0  0  0  0  0  0  0  0  0
   -1.2067   -7.3287   17.7772 C   0  0  0  0  0  0  0  0  0  0  0  0
   -0.0206  -10.5585   16.6210 C   0  0  0  0  0  0  0  0  0  0  0  0
    0.3696  -12.7626   16.2169 O   0  0  0  0  0  0  0  0  0  0  0  0
   -0.6895   -9.5676   17.3297 C   0  0  0  0  0  0  0  0  0  0  0  0
    0.8388   -5.8417   27.5264 C   0  0  0  0  0  0  0  0  0  0  0  0
   -2.0709   -7.6637   18.7817 C   0  0  0  0  0  0  0  0  0  0  0  0
   -0.5279   -8.2168   17.0717 C   0  0  0  0  0  0  0  0  0  0  0  0
    6.9694   -4.0191   27.8190 C   0  0  0  0  0  0  0  0  0  0  0  0
    5.1733   -4.5469   29.8123 C   0  0  0  0  0  0  0  0  0  0  0  0
   -1.7508  -11.3016   18.6072 C   0  0  0  0  0  0  0  0  0  0  0  0
    1.7497   -5.6771   26.4971 C   0  0  0  0  0  0  0  0  0  0  0  0
   -1.5799   -9.9322   18.3468 C   0  0  0  0  0  0  0  0  0  0  0  0
   -1.0871  -12.2214   17.8851 C   0  0  0  0  0  0  0  0  0  0  0  0
   -2.2706   -8.9669   19.0691 C   0  0  0  0  0  0  0  0  0  0  0  0
    3.0279   -5.3073   26.8197 C   0  0  0  0  0  0  0  0  0  0  0  0
    7.3282   -3.8948   29.1186 C   0  0  0  0  0  0  0  0  0  0  0  0
  1  3  4  0
  1  7  4  0
  2  3  1  0
  2  6  4  0
  2 16  4  0
  3 22  4  0
  4  9  4  0
  4 10  1  0
  4 20  4  0
  5 16  4  0
  5 23  4  0
  6 15  4  0
  7 12  4  0
  8 13  4  0
  8 14  4  0
  9 11  4  0
 11 14  4  0
 11 19  4  0
 12 18  4  0
 13 21  4  0
 15 23  4  0
 17 19  4  0
 17 20  4  0
 18 22  4  0
 19 21  4  0
M  END
$$$$

 Created by Python create_sdf_string function

 23 25  0  0  0  0  0  0  0  0999 V2000
    2.4610   -5.3070   29.1240 C   0  0  0  0  0  0  0  0  0  0  0  0
    4.7710   -4.6952   28.4803 C   0  0  0  0  0  0  0  0  0  0  0  0
    3.4047   -5.1087   28.1314 C   0  0  0  0  0  0  0  0  0  0  0  0
   -0.2234  -11.8615   16.8874 C   0  0  0  0  0  0  0  0  0  0  0  0
    6.4491   -4.1532   30.1213 C   0  0  0  0  0  0  0  0  0  0  0  0
    5.7060   -4.4340   27.4975 C   0  0  0  0  0  0  0  0  0  0  0  0
    1.1818   -5.6612   28.8399 C   0  0  0  0  0  0  0  0  0  0  0  0
   -1.2067   -7.3287   17.7772 C   0  0  0  0  0  0  0  0  0  0  0  0
   -0.0206  -10.5585   16.6210 C   0  0  0  0  0  0  0  0  0  0  0  0
    0.3696  -12.7626   16.2169 O   0  0  0  0  0  0  0  0  0  0  0  0
   -0.6895   -9.5676   17.3297 C   0  0  0  0  0  0  0  0  0  0  0  0
    0.8388   -5.8417   27.5264 C   0  0  0  0  0  0  0  0  0  0  0  0
   -2.0709   -7.6637   18.7817 C   0  0  0  0  0  0  0  0  0  0  0  0
   -0.5279   -8.2168   17.0717 C   0  0  0  0  0  0  0  0  0  0  0  0
    6.9694   -4.0191   27.8190 C   0  0  0  0  0  0  0  0  0  0  0  0
    5.1733   -4.5469   29.8123 C   0  0  0  0  0  0  0  0  0  0  0  0
   -1.7508  -11.3016   18.6072 C   0  0  0  0  0  0  0  0  0  0  0  0
    1.7497   -5.6771   26.4971 C   0  0  0  0  0  0  0  0  0  0  0  0
   -1.5799   -9.9322   18.3468 C   0  0  0  0  0  0  0  0  0  0  0  0
   -1.0871  -12.2214   17.8851 C   0  0  0  0  0  0  0  0  0  0  0  0
   -2.2706   -8.9669   19.0691 C   0  0  0  0  0  0  0  0  0  0  0  0
    3.0279   -5.3073   26.8197 C   0  0  0  0  0  0  0  0  0  0  0  0
    7.3282   -3.8948   29.1186 C   0  0  0  0  0  0  0  0  0  0  0  0
  1  3  4  0
  1  7  4  0
  2  3  1  0
  2  6  4  0
  2 16  4  0
  3 22  4  0
  4  9  4  0
  4 10  1  0
  4 20  4  0
  5 16  4  0
  5 23  4  0
  6 15  4  0
  7 12  4  0
  8 13  4  0
  8 14  4  0
  9 11  4  0
 11 14  4  0
 11 19  4  0
 12 18  4  0
 13 21  4  0
 15 23  4  0
 17 19  4  0
 17 20  4  0
 18 22  4  0
 19 21  4  0
M  END
$$$$

 Created by Python create_sdf_string function

 23 25  0  0  0  0  0  0  0  0999 V2000
    2.4610   -5.3070   29.1240 C   0  0  0  0  0  0  0  0  0  0  0  0
    4.7710   -4.6952   28.4803 C   0  0  0  0  0  0  0  0  0  0  0  0
    3.4047   -5.1087   28.1314 C   0  0  0  0  0  0  0  0  0  0  0  0
   -0.2234  -11.8615   16.8874 C   0  0  0  0  0  0  0  0  0  0  0  0
    6.4491   -4.1532   30.1213 C   0  0  0  0  0  0  0  0  0  0  0  0
    5.7060   -4.4340   27.4975 C   0  0  0  0  0  0  0  0  0  0  0  0
    1.1818   -5.6612   28.8399 C   0  0  0  0  0  0  0  0  0  0  0  0
   -1.2067   -7.3287   17.7772 C   0  0  0  0  0  0  0  0  0  0  0  0
   -0.0206  -10.5585   16.6210 C   0  0  0  0  0  0  0  0  0  0  0  0
    0.3696  -12.7626   16.2169 O   0  0  0  0  0  0  0  0  0  0  0  0
   -0.6895   -9.5676   17.3297 C   0  0  0  0  0  0  0  0  0  0  0  0
    0.8388   -5.8417   27.5264 C   0  0  0  0  0  0  0  0  0  0  0  0
   -2.0709   -7.6637   18.7817 C   0  0  0  0  0  0  0  0  0  0  0  0
   -0.5279   -8.2168   17.0717 C   0  0  0  0  0  0  0  0  0  0  0  0
    6.9694   -4.0191   27.8190 C   0  0  0  0  0  0  0  0  0  0  0  0
    5.1733   -4.5469   29.8123 C   0  0  0  0  0  0  0  0  0  0  0  0
   -1.7508  -11.3016   18.6072 C   0  0  0  0  0  0  0  0  0  0  0  0
    1.7497   -5.6771   26.4971 C   0  0  0  0  0  0  0  0  0  0  0  0
   -1.5799   -9.9322   18.3468 C   0  0  0  0  0  0  0  0  0  0  0  0
   -1.0871  -12.2214   17.8851 C   0  0  0  0  0  0  0  0  0  0  0  0
   -2.2706   -8.9669   19.0691 C   0  0  0  0  0  0  0  0  0  0  0  0
    3.0279   -5.3073   26.8197 C   0  0  0  0  0  0  0  0  0  0  0  0
    7.3282   -3.8948   29.1186 C   0  0  0  0  0  0  0  0  0  0  0  0
  1  3  4  0
  1  7  4  0
  2  3  1  0
  2  6  4  0
  2 16  4  0
  3 22  4  0
  4  9  4  0
  4 10  1  0
  4 20  4  0
  5 16  4  0
  5 23  4  0
  6 15  4  0
  7 12  4  0
  8 13  4  0
  8 14  4  0
  9 11  4  0
 11 14  4  0
 11 19  4  0
 12 18  4  0
 13 21  4  0
 15 23  4  0
 17 19  4  0
 17 20  4  0
 18 22  4  0
 19 21  4  0
M  END
$$$$

 Created by Python create_sdf_string function

 23 25  0  0  0  0  0  0  0  0999 V2000
    2.4610   -5.3070   29.1240 C   0  0  0  0  0  0  0  0  0  0  0  0
    4.7710   -4.6952   28.4803 C   0  0  0  0  0  0  0  0  0  0  0  0
    3.4047   -5.1087   28.1314 C   0  0  0  0  0  0  0  0  0  0  0  0
   -0.2234  -11.8615   16.8874 C   0  0  0  0  0  0  0  0  0  0  0  0
    6.4491   -4.1532   30.1213 C   0  0  0  0  0  0  0  0  0  0  0  0
    5.7060   -4.4340   27.4975 C   0  0  0  0  0  0  0  0  0  0  0  0
    1.1818   -5.6612   28.8399 C   0  0  0  0  0  0  0  0  0  0  0  0
   -1.2067   -7.3287   17.7772 C   0  0  0  0  0  0  0  0  0  0  0  0
   -0.0206  -10.5585   16.6210 C   0  0  0  0  0  0  0  0  0  0  0  0
    0.3696  -12.7626   16.2169 O   0  0  0  0  0  0  0  0  0  0  0  0
   -0.6895   -9.5676   17.3297 C   0  0  0  0  0  0  0  0  0  0  0  0
    0.8388   -5.8417   27.5264 C   0  0  0  0  0  0  0  0  0  0  0  0
   -2.0709   -7.6637   18.7817 C   0  0  0  0  0  0  0  0  0  0  0  0
   -0.5279   -8.2168   17.0717 C   0  0  0  0  0  0  0  0  0  0  0  0
    6.9694   -4.0191   27.8190 C   0  0  0  0  0  0  0  0  0  0  0  0
    5.1733   -4.5469   29.8123 C   0  0  0  0  0  0  0  0  0  0  0  0
   -1.7508  -11.3016   18.6072 C   0  0  0  0  0  0  0  0  0  0  0  0
    1.7497   -5.6771   26.4971 C   0  0  0  0  0  0  0  0  0  0  0  0
   -1.5799   -9.9322   18.3468 C   0  0  0  0  0  0  0  0  0  0  0  0
   -1.0871  -12.2214   17.8851 C   0  0  0  0  0  0  0  0  0  0  0  0
   -2.2706   -8.9669   19.0691 C   0  0  0  0  0  0  0  0  0  0  0  0
    3.0279   -5.3073   26.8197 C   0  0  0  0  0  0  0  0  0  0  0  0
    7.3282   -3.8948   29.1186 C   0  0  0  0  0  0  0  0  0  0  0  0
  1  3  4  0
  1  7  4  0
  2  3  1  0
  2  6  4  0
  2 16  4  0
  3 22  4  0
  4  9  4  0
  4 10  1  0
  4 20  4  0
  5 16  4  0
  5 23  4  0
  6 15  4  0
  7 12  4  0
  8 13  4  0
  8 14  4  0
  9 11  4  0
 11 14  4  0
 11 19  4  0
 12 18  4  0
 13 21  4  0
 15 23  4  0
 17 19  4  0
 17 20  4  0
 18 22  4  0
 19 21  4  0
M  END
$$$$

 Created by Python create_sdf_string function

 23 25  0  0  0  0  0  0  0  0999 V2000
    2.4610   -5.3070   29.1240 C   0  0  0  0  0  0  0  0  0  0  0  0
    4.7710   -4.6952   28.4803 C   0  0  0  0  0  0  0  0  0  0  0  0
    3.4047   -5.1087   28.1314 C   0  0  0  0  0  0  0  0  0  0  0  0
   -0.2234  -11.8615   16.8874 C   0  0  0  0  0  0  0  0  0  0  0  0
    6.4491   -4.1532   30.1213 C   0  0  0  0  0  0  0  0  0  0  0  0
    5.7060   -4.4340   27.4975 C   0  0  0  0  0  0  0  0  0  0  0  0
    1.1818   -5.6612   28.8399 C   0  0  0  0  0  0  0  0  0  0  0  0
   -1.2067   -7.3287   17.7772 C   0  0  0  0  0  0  0  0  0  0  0  0
   -0.0206  -10.5585   16.6210 C   0  0  0  0  0  0  0  0  0  0  0  0
    0.3696  -12.7626   16.2169 O   0  0  0  0  0  0  0  0  0  0  0  0
   -0.6895   -9.5676   17.3297 C   0  0  0  0  0  0  0  0  0  0  0  0
    0.8388   -5.8417   27.5264 C   0  0  0  0  0  0  0  0  0  0  0  0
   -2.0709   -7.6637   18.7817 C   0  0  0  0  0  0  0  0  0  0  0  0
   -0.5279   -8.2168   17.0717 C   0  0  0  0  0  0  0  0  0  0  0  0
    6.9694   -4.0191   27.8190 C   0  0  0  0  0  0  0  0  0  0  0  0
    5.1733   -4.5469   29.8123 C   0  0  0  0  0  0  0  0  0  0  0  0
   -1.7508  -11.3016   18.6072 C   0  0  0  0  0  0  0  0  0  0  0  0
    1.7497   -5.6771   26.4971 C   0  0  0  0  0  0  0  0  0  0  0  0
   -1.5799   -9.9322   18.3468 C   0  0  0  0  0  0  0  0  0  0  0  0
   -1.0871  -12.2214   17.8851 C   0  0  0  0  0  0  0  0  0  0  0  0
   -2.2706   -8.9669   19.0691 C   0  0  0  0  0  0  0  0  0  0  0  0
    3.0279   -5.3073   26.8197 C   0  0  0  0  0  0  0  0  0  0  0  0
    7.3282   -3.8948   29.1186 C   0  0  0  0  0  0  0  0  0  0  0  0
  1  3  4  0
  1  7  4  0
  2  3  1  0
  2  6  4  0
  2 16  4  0
  3 22  4  0
  4  9  4  0
  4 10  1  0
  4 20  4  0
  5 16  4  0
  5 23  4  0
  6 15  4  0
  7 12  4  0
  8 13  4  0
  8 14  4  0
  9 11  4  0
 11 14  4  0
 11 19  4  0
 12 18  4  0
 13 21  4  0
 15 23  4  0
 17 19  4  0
 17 20  4  0
 18 22  4  0
 19 21  4  0
M  END
$$$$

 Created by Python create_sdf_string function

 23 25  0  0  0  0  0  0  0  0999 V2000
    2.4610   -5.3070   29.1240 C   0  0  0  0  0  0  0  0  0  0  0  0
    4.7710   -4.6952   28.4803 C   0  0  0  0  0  0  0  0  0  0  0  0
    3.4047   -5.1087   28.1314 C   0  0  0  0  0  0  0  0  0  0  0  0
   -0.2234  -11.8615   16.8874 C   0  0  0  0  0  0  0  0  0  0  0  0
    6.4491   -4.1532   30.1213 C   0  0  0  0  0  0  0  0  0  0  0  0
    5.7060   -4.4340   27.4975 C   0  0  0  0  0  0  0  0  0  0  0  0
    1.1818   -5.6612   28.8399 C   0  0  0  0  0  0  0  0  0  0  0  0
   -1.2067   -7.3287   17.7772 C   0  0  0  0  0  0  0  0  0  0  0  0
   -0.0206  -10.5585   16.6210 C   0  0  0  0  0  0  0  0  0  0  0  0
    0.3696  -12.7626   16.2169 O   0  0  0  0  0  0  0  0  0  0  0  0
   -0.6895   -9.5676   17.3297 C   0  0  0  0  0  0  0  0  0  0  0  0
    0.8388   -5.8417   27.5264 C   0  0  0  0  0  0  0  0  0  0  0  0
   -2.0709   -7.6637   18.7817 C   0  0  0  0  0  0  0  0  0  0  0  0
   -0.5279   -8.2168   17.0717 C   0  0  0  0  0  0  0  0  0  0  0  0
    6.9694   -4.0191   27.8190 C   0  0  0  0  0  0  0  0  0  0  0  0
    5.1733   -4.5469   29.8123 C   0  0  0  0  0  0  0  0  0  0  0  0
   -1.7508  -11.3016   18.6072 C   0  0  0  0  0  0  0  0  0  0  0  0
    1.7497   -5.6771   26.4971 C   0  0  0  0  0  0  0  0  0  0  0  0
   -1.5799   -9.9322   18.3468 C   0  0  0  0  0  0  0  0  0  0  0  0
   -1.0871  -12.2214   17.8851 C   0  0  0  0  0  0  0  0  0  0  0  0
   -2.2706   -8.9669   19.0691 C   0  0  0  0  0  0  0  0  0  0  0  0
    3.0279   -5.3073   26.8197 C   0  0  0  0  0  0  0  0  0  0  0  0
    7.3282   -3.8948   29.1186 C   0  0  0  0  0  0  0  0  0  0  0  0
  1  3  4  0
  1  7  4  0
  2  3  1  0
  2  6  4  0
  2 16  4  0
  3 22  4  0
  4  9  4  0
  4 10  1  0
  4 20  4  0
  5 16  4  0
  5 23  4  0
  6 15  4  0
  7 12  4  0
  8 13  4  0
  8 14  4  0
  9 11  4  0
 11 14  4  0
 11 19  4  0
 12 18  4  0
 13 21  4  0
 15 23  4  0
 17 19  4  0
 17 20  4  0
 18 22  4  0
 19 21  4  0
M  END
$$$$

 Created by Python create_sdf_string function

 23 25  0  0  0  0  0  0  0  0999 V2000
    2.4610   -5.3070   29.1240 C   0  0  0  0  0  0  0  0  0  0  0  0
    4.7710   -4.6952   28.4803 C   0  0  0  0  0  0  0  0  0  0  0  0
    3.4047   -5.1087   28.1314 C   0  0  0  0  0  0  0  0  0  0  0  0
   -0.2234  -11.8615   16.8874 C   0  0  0  0  0  0  0  0  0  0  0  0
    6.4491   -4.1532   30.1213 C   0  0  0  0  0  0  0  0  0  0  0  0
    5.7060   -4.4340   27.4975 C   0  0  0  0  0  0  0  0  0  0  0  0
    1.1818   -5.6612   28.8399 C   0  0  0  0  0  0  0  0  0  0  0  0
   -1.2067   -7.3287   17.7772 C   0  0  0  0  0  0  0  0  0  0  0  0
   -0.0206  -10.5585   16.6210 C   0  0  0  0  0  0  0  0  0  0  0  0
    0.3696  -12.7626   16.2169 O   0  0  0  0  0  0  0  0  0  0  0  0
   -0.6895   -9.5676   17.3297 C   0  0  0  0  0  0  0  0  0  0  0  0
    0.8388   -5.8417   27.5264 C   0  0  0  0  0  0  0  0  0  0  0  0
   -2.0709   -7.6637   18.7817 C   0  0  0  0  0  0  0  0  0  0  0  0
   -0.5279   -8.2168   17.0717 C   0  0  0  0  0  0  0  0  0  0  0  0
    6.9694   -4.0191   27.8190 C   0  0  0  0  0  0  0  0  0  0  0  0
    5.1733   -4.5469   29.8123 C   0  0  0  0  0  0  0  0  0  0  0  0
   -1.7508  -11.3016   18.6072 C   0  0  0  0  0  0  0  0  0  0  0  0
    1.7497   -5.6771   26.4971 C   0  0  0  0  0  0  0  0  0  0  0  0
   -1.5799   -9.9322   18.3468 C   0  0  0  0  0  0  0  0  0  0  0  0
   -1.0871  -12.2214   17.8851 C   0  0  0  0  0  0  0  0  0  0  0  0
   -2.2706   -8.9669   19.0691 C   0  0  0  0  0  0  0  0  0  0  0  0
    3.0279   -5.3073   26.8197 C   0  0  0  0  0  0  0  0  0  0  0  0
    7.3282   -3.8948   29.1186 C   0  0  0  0  0  0  0  0  0  0  0  0
  1  3  4  0
  1  7  4  0
  2  3  1  0
  2  6  4  0
  2 16  4  0
  3 22  4  0
  4  9  4  0
  4 10  1  0
  4 20  4  0
  5 16  4  0
  5 23  4  0
  6 15  4  0
  7 12  4  0
  8 13  4  0
  8 14  4  0
  9 11  4  0
 11 14  4  0
 11 19  4  0
 12 18  4  0
 13 21  4  0
 15 23  4  0
 17 19  4  0
 17 20  4  0
 18 22  4  0
 19 21  4  0
M  END
$$$$

 Created by Python create_sdf_string function

 23 25  0  0  0  0  0  0  0  0999 V2000
    2.4610   -5.3070   29.1240 C   0  0  0  0  0  0  0  0  0  0  0  0
    4.7710   -4.6952   28.4803 C   0  0  0  0  0  0  0  0  0  0  0  0
    3.4047   -5.1087   28.1314 C   0  0  0  0  0  0  0  0  0  0  0  0
   -0.2234  -11.8615   16.8874 C   0  0  0  0  0  0  0  0  0  0  0  0
    6.4491   -4.1532   30.1213 C   0  0  0  0  0  0  0  0  0  0  0  0
    5.7060   -4.4340   27.4975 C   0  0  0  0  0  0  0  0  0  0  0  0
    1.1818   -5.6612   28.8399 C   0  0  0  0  0  0  0  0  0  0  0  0
   -1.2067   -7.3287   17.7772 C   0  0  0  0  0  0  0  0  0  0  0  0
   -0.0206  -10.5585   16.6210 C   0  0  0  0  0  0  0  0  0  0  0  0
    0.3696  -12.7626   16.2169 O   0  0  0  0  0  0  0  0  0  0  0  0
   -0.6895   -9.5676   17.3297 C   0  0  0  0  0  0  0  0  0  0  0  0
    0.8388   -5.8417   27.5264 C   0  0  0  0  0  0  0  0  0  0  0  0
   -2.0709   -7.6637   18.7817 C   0  0  0  0  0  0  0  0  0  0  0  0
   -0.5279   -8.2168   17.0717 C   0  0  0  0  0  0  0  0  0  0  0  0
    6.9694   -4.0191   27.8190 C   0  0  0  0  0  0  0  0  0  0  0  0
    5.1733   -4.5469   29.8123 C   0  0  0  0  0  0  0  0  0  0  0  0
   -1.7508  -11.3016   18.6072 C   0  0  0  0  0  0  0  0  0  0  0  0
    1.7497   -5.6771   26.4971 C   0  0  0  0  0  0  0  0  0  0  0  0
   -1.5799   -9.9322   18.3468 C   0  0  0  0  0  0  0  0  0  0  0  0
   -1.0871  -12.2214   17.8851 C   0  0  0  0  0  0  0  0  0  0  0  0
   -2.2706   -8.9669   19.0691 C   0  0  0  0  0  0  0  0  0  0  0  0
    3.0279   -5.3073   26.8197 C   0  0  0  0  0  0  0  0  0  0  0  0
    7.3282   -3.8948   29.1186 C   0  0  0  0  0  0  0  0  0  0  0  0
  1  3  4  0
  1  7  4  0
  2  3  1  0
  2  6  4  0
  2 16  4  0
  3 22  4  0
  4  9  4  0
  4 10  1  0
  4 20  4  0
  5 16  4  0
  5 23  4  0
  6 15  4  0
  7 12  4  0
  8 13  4  0
  8 14  4  0
  9 11  4  0
 11 14  4  0
 11 19  4  0
 12 18  4  0
 13 21  4  0
 15 23  4  0
 17 19  4  0
 17 20  4  0
 18 22  4  0
 19 21  4  0
M  END
$$$$

 Created by Python create_sdf_string function

 23 25  0  0  0  0  0  0  0  0999 V2000
    2.4610   -5.3070   29.1240 C   0  0  0  0  0  0  0  0  0  0  0  0
    4.7710   -4.6952   28.4803 C   0  0  0  0  0  0  0  0  0  0  0  0
    3.4047   -5.1087   28.1314 C   0  0  0  0  0  0  0  0  0  0  0  0
   -0.2234  -11.8615   16.8874 C   0  0  0  0  0  0  0  0  0  0  0  0
    6.4491   -4.1532   30.1213 C   0  0  0  0  0  0  0  0  0  0  0  0
    5.7060   -4.4340   27.4975 C   0  0  0  0  0  0  0  0  0  0  0  0
    1.1818   -5.6612   28.8399 C   0  0  0  0  0  0  0  0  0  0  0  0
   -1.2067   -7.3287   17.7772 C   0  0  0  0  0  0  0  0  0  0  0  0
   -0.0206  -10.5585   16.6210 C   0  0  0  0  0  0  0  0  0  0  0  0
    0.3696  -12.7626   16.2169 O   0  0  0  0  0  0  0  0  0  0  0  0
   -0.6895   -9.5676   17.3297 C   0  0  0  0  0  0  0  0  0  0  0  0
    0.8388   -5.8417   27.5264 C   0  0  0  0  0  0  0  0  0  0  0  0
   -2.0709   -7.6637   18.7817 C   0  0  0  0  0  0  0  0  0  0  0  0
   -0.5279   -8.2168   17.0717 C   0  0  0  0  0  0  0  0  0  0  0  0
    6.9694   -4.0191   27.8190 C   0  0  0  0  0  0  0  0  0  0  0  0
    5.1733   -4.5469   29.8123 C   0  0  0  0  0  0  0  0  0  0  0  0
   -1.7508  -11.3016   18.6072 C   0  0  0  0  0  0  0  0  0  0  0  0
    1.7497   -5.6771   26.4971 C   0  0  0  0  0  0  0  0  0  0  0  0
   -1.5799   -9.9322   18.3468 C   0  0  0  0  0  0  0  0  0  0  0  0
   -1.0871  -12.2214   17.8851 C   0  0  0  0  0  0  0  0  0  0  0  0
   -2.2706   -8.9669   19.0691 C   0  0  0  0  0  0  0  0  0  0  0  0
    3.0279   -5.3073   26.8197 C   0  0  0  0  0  0  0  0  0  0  0  0
    7.3282   -3.8948   29.1186 C   0  0  0  0  0  0  0  0  0  0  0  0
  1  3  4  0
  1  7  4  0
  2  3  1  0
  2  6  4  0
  2 16  4  0
  3 22  4  0
  4  9  4  0
  4 10  1  0
  4 20  4  0
  5 16  4  0
  5 23  4  0
  6 15  4  0
  7 12  4  0
  8 13  4  0
  8 14  4  0
  9 11  4  0
 11 14  4  0
 11 19  4  0
 12 18  4  0
 13 21  4  0
 15 23  4  0
 17 19  4  0
 17 20  4  0
 18 22  4  0
 19 21  4  0
M  END
$$$$

 Created by Python create_sdf_string function

 23 25  0  0  0  0  0  0  0  0999 V2000
    2.4610   -5.3070   29.1240 C   0  0  0  0  0  0  0  0  0  0  0  0
    4.7710   -4.6952   28.4803 C   0  0  0  0  0  0  0  0  0  0  0  0
    3.4047   -5.1087   28.1314 C   0  0  0  0  0  0  0  0  0  0  0  0
   -0.2234  -11.8615   16.8874 C   0  0  0  0  0  0  0  0  0  0  0  0
    6.4491   -4.1532   30.1213 C   0  0  0  0  0  0  0  0  0  0  0  0
    5.7060   -4.4340   27.4975 C   0  0  0  0  0  0  0  0  0  0  0  0
    1.1818   -5.6612   28.8399 C   0  0  0  0  0  0  0  0  0  0  0  0
   -1.2067   -7.3287   17.7772 C   0  0  0  0  0  0  0  0  0  0  0  0
   -0.0206  -10.5585   16.6210 C   0  0  0  0  0  0  0  0  0  0  0  0
    0.3696  -12.7626   16.2169 O   0  0  0  0  0  0  0  0  0  0  0  0
   -0.6895   -9.5676   17.3297 C   0  0  0  0  0  0  0  0  0  0  0  0
    0.8388   -5.8417   27.5264 C   0  0  0  0  0  0  0  0  0  0  0  0
   -2.0709   -7.6637   18.7817 C   0  0  0  0  0  0  0  0  0  0  0  0
   -0.5279   -8.2168   17.0717 C   0  0  0  0  0  0  0  0  0  0  0  0
    6.9694   -4.0191   27.8190 C   0  0  0  0  0  0  0  0  0  0  0  0
    5.1733   -4.5469   29.8123 C   0  0  0  0  0  0  0  0  0  0  0  0
   -1.7508  -11.3016   18.6072 C   0  0  0  0  0  0  0  0  0  0  0  0
    1.7497   -5.6771   26.4971 C   0  0  0  0  0  0  0  0  0  0  0  0
   -1.5799   -9.9322   18.3468 C   0  0  0  0  0  0  0  0  0  0  0  0
   -1.0871  -12.2214   17.8851 C   0  0  0  0  0  0  0  0  0  0  0  0
   -2.2706   -8.9669   19.0691 C   0  0  0  0  0  0  0  0  0  0  0  0
    3.0279   -5.3073   26.8197 C   0  0  0  0  0  0  0  0  0  0  0  0
    7.3282   -3.8948   29.1186 C   0  0  0  0  0  0  0  0  0  0  0  0
  1  3  4  0
  1  7  4  0
  2  3  1  0
  2  6  4  0
  2 16  4  0
  3 22  4  0
  4  9  4  0
  4 10  1  0
  4 20  4  0
  5 16  4  0
  5 23  4  0
  6 15  4  0
  7 12  4  0
  8 13  4  0
  8 14  4  0
  9 11  4  0
 11 14  4  0
 11 19  4  0
 12 18  4  0
 13 21  4  0
 15 23  4  0
 17 19  4  0
 17 20  4  0
 18 22  4  0
 19 21  4  0
M  END
$$$$

 Created by Python create_sdf_string function

 23 25  0  0  0  0  0  0  0  0999 V2000
    2.4610   -5.3070   29.1240 C   0  0  0  0  0  0  0  0  0  0  0  0
    4.7710   -4.6952   28.4803 C   0  0  0  0  0  0  0  0  0  0  0  0
    3.4047   -5.1087   28.1314 C   0  0  0  0  0  0  0  0  0  0  0  0
   -0.2234  -11.8615   16.8874 C   0  0  0  0  0  0  0  0  0  0  0  0
    6.4491   -4.1532   30.1213 C   0  0  0  0  0  0  0  0  0  0  0  0
    5.7060   -4.4340   27.4975 C   0  0  0  0  0  0  0  0  0  0  0  0
    1.1818   -5.6612   28.8399 C   0  0  0  0  0  0  0  0  0  0  0  0
   -1.2067   -7.3287   17.7772 C   0  0  0  0  0  0  0  0  0  0  0  0
   -0.0206  -10.5585   16.6210 C   0  0  0  0  0  0  0  0  0  0  0  0
    0.3696  -12.7626   16.2169 O   0  0  0  0  0  0  0  0  0  0  0  0
   -0.6895   -9.5676   17.3297 C   0  0  0  0  0  0  0  0  0  0  0  0
    0.8388   -5.8417   27.5264 C   0  0  0  0  0  0  0  0  0  0  0  0
   -2.0709   -7.6637   18.7817 C   0  0  0  0  0  0  0  0  0  0  0  0
   -0.5279   -8.2168   17.0717 C   0  0  0  0  0  0  0  0  0  0  0  0
    6.9694   -4.0191   27.8190 C   0  0  0  0  0  0  0  0  0  0  0  0
    5.1733   -4.5469   29.8123 C   0  0  0  0  0  0  0  0  0  0  0  0
   -1.7508  -11.3016   18.6072 C   0  0  0  0  0  0  0  0  0  0  0  0
    1.7497   -5.6771   26.4971 C   0  0  0  0  0  0  0  0  0  0  0  0
   -1.5799   -9.9322   18.3468 C   0  0  0  0  0  0  0  0  0  0  0  0
   -1.0871  -12.2214   17.8851 C   0  0  0  0  0  0  0  0  0  0  0  0
   -2.2706   -8.9669   19.0691 C   0  0  0  0  0  0  0  0  0  0  0  0
    3.0279   -5.3073   26.8197 C   0  0  0  0  0  0  0  0  0  0  0  0
    7.3282   -3.8948   29.1186 C   0  0  0  0  0  0  0  0  0  0  0  0
  1  3  4  0
  1  7  4  0
  2  3  1  0
  2  6  4  0
  2 16  4  0
  3 22  4  0
  4  9  4  0
  4 10  1  0
  4 20  4  0
  5 16  4  0
  5 23  4  0
  6 15  4  0
  7 12  4  0
  8 13  4  0
  8 14  4  0
  9 11  4  0
 11 14  4  0
 11 19  4  0
 12 18  4  0
 13 21  4  0
 15 23  4  0
 17 19  4  0
 17 20  4  0
 18 22  4  0
 19 21  4  0
M  END
$$$$

 Created by Python create_sdf_string function

 23 25  0  0  0  0  0  0  0  0999 V2000
    2.4610   -5.3070   29.1240 C   0  0  0  0  0  0  0  0  0  0  0  0
    4.7710   -4.6952   28.4803 C   0  0  0  0  0  0  0  0  0  0  0  0
    3.4047   -5.1087   28.1314 C   0  0  0  0  0  0  0  0  0  0  0  0
   -0.2234  -11.8615   16.8874 C   0  0  0  0  0  0  0  0  0  0  0  0
    6.4491   -4.1532   30.1213 C   0  0  0  0  0  0  0  0  0  0  0  0
    5.7060   -4.4340   27.4975 C   0  0  0  0  0  0  0  0  0  0  0  0
    1.1818   -5.6612   28.8399 C   0  0  0  0  0  0  0  0  0  0  0  0
   -1.2067   -7.3287   17.7772 C   0  0  0  0  0  0  0  0  0  0  0  0
   -0.0206  -10.5585   16.6210 C   0  0  0  0  0  0  0  0  0  0  0  0
    0.3696  -12.7626   16.2169 O   0  0  0  0  0  0  0  0  0  0  0  0
   -0.6895   -9.5676   17.3297 C   0  0  0  0  0  0  0  0  0  0  0  0
    0.8388   -5.8417   27.5264 C   0  0  0  0  0  0  0  0  0  0  0  0
   -2.0709   -7.6637   18.7817 C   0  0  0  0  0  0  0  0  0  0  0  0
   -0.5279   -8.2168   17.0717 C   0  0  0  0  0  0  0  0  0  0  0  0
    6.9694   -4.0191   27.8190 C   0  0  0  0  0  0  0  0  0  0  0  0
    5.1733   -4.5469   29.8123 C   0  0  0  0  0  0  0  0  0  0  0  0
   -1.7508  -11.3016   18.6072 C   0  0  0  0  0  0  0  0  0  0  0  0
    1.7497   -5.6771   26.4971 C   0  0  0  0  0  0  0  0  0  0  0  0
   -1.5799   -9.9322   18.3468 C   0  0  0  0  0  0  0  0  0  0  0  0
   -1.0871  -12.2214   17.8851 C   0  0  0  0  0  0  0  0  0  0  0  0
   -2.2706   -8.9669   19.0691 C   0  0  0  0  0  0  0  0  0  0  0  0
    3.0279   -5.3073   26.8197 C   0  0  0  0  0  0  0  0  0  0  0  0
    7.3282   -3.8948   29.1186 C   0  0  0  0  0  0  0  0  0  0  0  0
  1  3  4  0
  1  7  4  0
  2  3  1  0
  2  6  4  0
  2 16  4  0
  3 22  4  0
  4  9  4  0
  4 10  1  0
  4 20  4  0
  5 16  4  0
  5 23  4  0
  6 15  4  0
  7 12  4  0
  8 13  4  0
  8 14  4  0
  9 11  4  0
 11 14  4  0
 11 19  4  0
 12 18  4  0
 13 21  4  0
 15 23  4  0
 17 19  4  0
 17 20  4  0
 18 22  4  0
 19 21  4  0
M  END
$$$$

 Created by Python create_sdf_string function

 23 25  0  0  0  0  0  0  0  0999 V2000
    2.4610   -5.3070   29.1240 C   0  0  0  0  0  0  0  0  0  0  0  0
    4.7710   -4.6952   28.4803 C   0  0  0  0  0  0  0  0  0  0  0  0
    3.4047   -5.1087   28.1314 C   0  0  0  0  0  0  0  0  0  0  0  0
   -0.2234  -11.8615   16.8874 C   0  0  0  0  0  0  0  0  0  0  0  0
    6.4491   -4.1532   30.1213 C   0  0  0  0  0  0  0  0  0  0  0  0
    5.7060   -4.4340   27.4975 C   0  0  0  0  0  0  0  0  0  0  0  0
    1.1818   -5.6612   28.8399 C   0  0  0  0  0  0  0  0  0  0  0  0
   -1.2067   -7.3287   17.7772 C   0  0  0  0  0  0  0  0  0  0  0  0
   -0.0206  -10.5585   16.6210 C   0  0  0  0  0  0  0  0  0  0  0  0
    0.3696  -12.7626   16.2169 O   0  0  0  0  0  0  0  0  0  0  0  0
   -0.6895   -9.5676   17.3297 C   0  0  0  0  0  0  0  0  0  0  0  0
    0.8388   -5.8417   27.5264 C   0  0  0  0  0  0  0  0  0  0  0  0
   -2.0709   -7.6637   18.7817 C   0  0  0  0  0  0  0  0  0  0  0  0
   -0.5279   -8.2168   17.0717 C   0  0  0  0  0  0  0  0  0  0  0  0
    6.9694   -4.0191   27.8190 C   0  0  0  0  0  0  0  0  0  0  0  0
    5.1733   -4.5469   29.8123 C   0  0  0  0  0  0  0  0  0  0  0  0
   -1.7508  -11.3016   18.6072 C   0  0  0  0  0  0  0  0  0  0  0  0
    1.7497   -5.6771   26.4971 C   0  0  0  0  0  0  0  0  0  0  0  0
   -1.5799   -9.9322   18.3468 C   0  0  0  0  0  0  0  0  0  0  0  0
   -1.0871  -12.2214   17.8851 C   0  0  0  0  0  0  0  0  0  0  0  0
   -2.2706   -8.9669   19.0691 C   0  0  0  0  0  0  0  0  0  0  0  0
    3.0279   -5.3073   26.8197 C   0  0  0  0  0  0  0  0  0  0  0  0
    7.3282   -3.8948   29.1186 C   0  0  0  0  0  0  0  0  0  0  0  0
  1  3  4  0
  1  7  4  0
  2  3  1  0
  2  6  4  0
  2 16  4  0
  3 22  4  0
  4  9  4  0
  4 10  1  0
  4 20  4  0
  5 16  4  0
  5 23  4  0
  6 15  4  0
  7 12  4  0
  8 13  4  0
  8 14  4  0
  9 11  4  0
 11 14  4  0
 11 19  4  0
 12 18  4  0
 13 21  4  0
 15 23  4  0
 17 19  4  0
 17 20  4  0
 18 22  4  0
 19 21  4  0
M  END
$$$$

 Created by Python create_sdf_string function

 23 25  0  0  0  0  0  0  0  0999 V2000
    2.4610   -5.3070   29.1240 C   0  0  0  0  0  0  0  0  0  0  0  0
    4.7710   -4.6952   28.4803 C   0  0  0  0  0  0  0  0  0  0  0  0
    3.4047   -5.1087   28.1314 C   0  0  0  0  0  0  0  0  0  0  0  0
   -0.2234  -11.8615   16.8874 C   0  0  0  0  0  0  0  0  0  0  0  0
    6.4491   -4.1532   30.1213 C   0  0  0  0  0  0  0  0  0  0  0  0
    5.7060   -4.4340   27.4975 C   0  0  0  0  0  0  0  0  0  0  0  0
    1.1818   -5.6612   28.8399 C   0  0  0  0  0  0  0  0  0  0  0  0
   -1.2067   -7.3287   17.7772 C   0  0  0  0  0  0  0  0  0  0  0  0
   -0.0206  -10.5585   16.6210 C   0  0  0  0  0  0  0  0  0  0  0  0
    0.3696  -12.7626   16.2169 O   0  0  0  0  0  0  0  0  0  0  0  0
   -0.6895   -9.5676   17.3297 C   0  0  0  0  0  0  0  0  0  0  0  0
    0.8388   -5.8417   27.5264 C   0  0  0  0  0  0  0  0  0  0  0  0
   -2.0709   -7.6637   18.7817 C   0  0  0  0  0  0  0  0  0  0  0  0
   -0.5279   -8.2168   17.0717 C   0  0  0  0  0  0  0  0  0  0  0  0
    6.9694   -4.0191   27.8190 C   0  0  0  0  0  0  0  0  0  0  0  0
    5.1733   -4.5469   29.8123 C   0  0  0  0  0  0  0  0  0  0  0  0
   -1.7508  -11.3016   18.6072 C   0  0  0  0  0  0  0  0  0  0  0  0
    1.7497   -5.6771   26.4971 C   0  0  0  0  0  0  0  0  0  0  0  0
   -1.5799   -9.9322   18.3468 C   0  0  0  0  0  0  0  0  0  0  0  0
   -1.0871  -12.2214   17.8851 C   0  0  0  0  0  0  0  0  0  0  0  0
   -2.2706   -8.9669   19.0691 C   0  0  0  0  0  0  0  0  0  0  0  0
    3.0279   -5.3073   26.8197 C   0  0  0  0  0  0  0  0  0  0  0  0
    7.3282   -3.8948   29.1186 C   0  0  0  0  0  0  0  0  0  0  0  0
  1  3  4  0
  1  7  4  0
  2  3  1  0
  2  6  4  0
  2 16  4  0
  3 22  4  0
  4  9  4  0
  4 10  1  0
  4 20  4  0
  5 16  4  0
  5 23  4  0
  6 15  4  0
  7 12  4  0
  8 13  4  0
  8 14  4  0
  9 11  4  0
 11 14  4  0
 11 19  4  0
 12 18  4  0
 13 21  4  0
 15 23  4  0
 17 19  4  0
 17 20  4  0
 18 22  4  0
 19 21  4  0
M  END
$$$$

 Created by Python create_sdf_string function

 23 25  0  0  0  0  0  0  0  0999 V2000
    2.4610   -5.3070   29.1240 C   0  0  0  0  0  0  0  0  0  0  0  0
    4.7710   -4.6952   28.4803 C   0  0  0  0  0  0  0  0  0  0  0  0
    3.4047   -5.1087   28.1314 C   0  0  0  0  0  0  0  0  0  0  0  0
   -0.2234  -11.8615   16.8874 C   0  0  0  0  0  0  0  0  0  0  0  0
    6.4491   -4.1532   30.1213 C   0  0  0  0  0  0  0  0  0  0  0  0
    5.7060   -4.4340   27.4975 C   0  0  0  0  0  0  0  0  0  0  0  0
    1.1818   -5.6612   28.8399 C   0  0  0  0  0  0  0  0  0  0  0  0
   -1.2067   -7.3287   17.7772 C   0  0  0  0  0  0  0  0  0  0  0  0
   -0.0206  -10.5585   16.6210 C   0  0  0  0  0  0  0  0  0  0  0  0
    0.3696  -12.7626   16.2169 O   0  0  0  0  0  0  0  0  0  0  0  0
   -0.6895   -9.5676   17.3297 C   0  0  0  0  0  0  0  0  0  0  0  0
    0.8388   -5.8417   27.5264 C   0  0  0  0  0  0  0  0  0  0  0  0
   -2.0709   -7.6637   18.7817 C   0  0  0  0  0  0  0  0  0  0  0  0
   -0.5279   -8.2168   17.0717 C   0  0  0  0  0  0  0  0  0  0  0  0
    6.9694   -4.0191   27.8190 C   0  0  0  0  0  0  0  0  0  0  0  0
    5.1733   -4.5469   29.8123 C   0  0  0  0  0  0  0  0  0  0  0  0
   -1.7508  -11.3016   18.6072 C   0  0  0  0  0  0  0  0  0  0  0  0
    1.7497   -5.6771   26.4971 C   0  0  0  0  0  0  0  0  0  0  0  0
   -1.5799   -9.9322   18.3468 C   0  0  0  0  0  0  0  0  0  0  0  0
   -1.0871  -12.2214   17.8851 C   0  0  0  0  0  0  0  0  0  0  0  0
   -2.2706   -8.9669   19.0691 C   0  0  0  0  0  0  0  0  0  0  0  0
    3.0279   -5.3073   26.8197 C   0  0  0  0  0  0  0  0  0  0  0  0
    7.3282   -3.8948   29.1186 C   0  0  0  0  0  0  0  0  0  0  0  0
  1  3  4  0
  1  7  4  0
  2  3  1  0
  2  6  4  0
  2 16  4  0
  3 22  4  0
  4  9  4  0
  4 10  1  0
  4 20  4  0
  5 16  4  0
  5 23  4  0
  6 15  4  0
  7 12  4  0
  8 13  4  0
  8 14  4  0
  9 11  4  0
 11 14  4  0
 11 19  4  0
 12 18  4  0
 13 21  4  0
 15 23  4  0
 17 19  4  0
 17 20  4  0
 18 22  4  0
 19 21  4  0
M  END
$$$$

 Created by Python create_sdf_string function

 23 25  0  0  0  0  0  0  0  0999 V2000
    2.4610   -5.3070   29.1240 C   0  0  0  0  0  0  0  0  0  0  0  0
    4.7710   -4.6952   28.4803 C   0  0  0  0  0  0  0  0  0  0  0  0
    3.4047   -5.1087   28.1314 C   0  0  0  0  0  0  0  0  0  0  0  0
   -0.2234  -11.8615   16.8874 C   0  0  0  0  0  0  0  0  0  0  0  0
    6.4491   -4.1532   30.1213 C   0  0  0  0  0  0  0  0  0  0  0  0
    5.7060   -4.4340   27.4975 C   0  0  0  0  0  0  0  0  0  0  0  0
    1.1818   -5.6612   28.8399 C   0  0  0  0  0  0  0  0  0  0  0  0
   -1.2067   -7.3287   17.7772 C   0  0  0  0  0  0  0  0  0  0  0  0
   -0.0206  -10.5585   16.6210 C   0  0  0  0  0  0  0  0  0  0  0  0
    0.3696  -12.7626   16.2169 O   0  0  0  0  0  0  0  0  0  0  0  0
   -0.6895   -9.5676   17.3297 C   0  0  0  0  0  0  0  0  0  0  0  0
    0.8388   -5.8417   27.5264 C   0  0  0  0  0  0  0  0  0  0  0  0
   -2.0709   -7.6637   18.7817 C   0  0  0  0  0  0  0  0  0  0  0  0
   -0.5279   -8.2168   17.0717 C   0  0  0  0  0  0  0  0  0  0  0  0
    6.9694   -4.0191   27.8190 C   0  0  0  0  0  0  0  0  0  0  0  0
    5.1733   -4.5469   29.8123 C   0  0  0  0  0  0  0  0  0  0  0  0
   -1.7508  -11.3016   18.6072 C   0  0  0  0  0  0  0  0  0  0  0  0
    1.7497   -5.6771   26.4971 C   0  0  0  0  0  0  0  0  0  0  0  0
   -1.5799   -9.9322   18.3468 C   0  0  0  0  0  0  0  0  0  0  0  0
   -1.0871  -12.2214   17.8851 C   0  0  0  0  0  0  0  0  0  0  0  0
   -2.2706   -8.9669   19.0691 C   0  0  0  0  0  0  0  0  0  0  0  0
    3.0279   -5.3073   26.8197 C   0  0  0  0  0  0  0  0  0  0  0  0
    7.3282   -3.8948   29.1186 C   0  0  0  0  0  0  0  0  0  0  0  0
  1  3  4  0
  1  7  4  0
  2  3  1  0
  2  6  4  0
  2 16  4  0
  3 22  4  0
  4  9  4  0
  4 10  1  0
  4 20  4  0
  5 16  4  0
  5 23  4  0
  6 15  4  0
  7 12  4  0
  8 13  4  0
  8 14  4  0
  9 11  4  0
 11 14  4  0
 11 19  4  0
 12 18  4  0
 13 21  4  0
 15 23  4  0
 17 19  4  0
 17 20  4  0
 18 22  4  0
 19 21  4  0
M  END
$$$$

 Created by Python create_sdf_string function

 23 25  0  0  0  0  0  0  0  0999 V2000
    2.4610   -5.3070   29.1240 C   0  0  0  0  0  0  0  0  0  0  0  0
    4.7710   -4.6952   28.4803 C   0  0  0  0  0  0  0  0  0  0  0  0
    3.4047   -5.1087   28.1314 C   0  0  0  0  0  0  0  0  0  0  0  0
   -0.2234  -11.8615   16.8874 C   0  0  0  0  0  0  0  0  0  0  0  0
    6.4491   -4.1532   30.1213 C   0  0  0  0  0  0  0  0  0  0  0  0
    5.7060   -4.4340   27.4975 C   0  0  0  0  0  0  0  0  0  0  0  0
    1.1818   -5.6612   28.8399 C   0  0  0  0  0  0  0  0  0  0  0  0
   -1.2067   -7.3287   17.7772 C   0  0  0  0  0  0  0  0  0  0  0  0
   -0.0206  -10.5585   16.6210 C   0  0  0  0  0  0  0  0  0  0  0  0
    0.3696  -12.7626   16.2169 O   0  0  0  0  0  0  0  0  0  0  0  0
   -0.6895   -9.5676   17.3297 C   0  0  0  0  0  0  0  0  0  0  0  0
    0.8388   -5.8417   27.5264 C   0  0  0  0  0  0  0  0  0  0  0  0
   -2.0709   -7.6637   18.7817 C   0  0  0  0  0  0  0  0  0  0  0  0
   -0.5279   -8.2168   17.0717 C   0  0  0  0  0  0  0  0  0  0  0  0
    6.9694   -4.0191   27.8190 C   0  0  0  0  0  0  0  0  0  0  0  0
    5.1733   -4.5469   29.8123 C   0  0  0  0  0  0  0  0  0  0  0  0
   -1.7508  -11.3016   18.6072 C   0  0  0  0  0  0  0  0  0  0  0  0
    1.7497   -5.6771   26.4971 C   0  0  0  0  0  0  0  0  0  0  0  0
   -1.5799   -9.9322   18.3468 C   0  0  0  0  0  0  0  0  0  0  0  0
   -1.0871  -12.2214   17.8851 C   0  0  0  0  0  0  0  0  0  0  0  0
   -2.2706   -8.9669   19.0691 C   0  0  0  0  0  0  0  0  0  0  0  0
    3.0279   -5.3073   26.8197 C   0  0  0  0  0  0  0  0  0  0  0  0
    7.3282   -3.8948   29.1186 C   0  0  0  0  0  0  0  0  0  0  0  0
  1  3  4  0
  1  7  4  0
  2  3  1  0
  2  6  4  0
  2 16  4  0
  3 22  4  0
  4  9  4  0
  4 10  1  0
  4 20  4  0
  5 16  4  0
  5 23  4  0
  6 15  4  0
  7 12  4  0
  8 13  4  0
  8 14  4  0
  9 11  4  0
 11 14  4  0
 11 19  4  0
 12 18  4  0
 13 21  4  0
 15 23  4  0
 17 19  4  0
 17 20  4  0
 18 22  4  0
 19 21  4  0
M  END
$$$$

 Created by Python create_sdf_string function

 23 25  0  0  0  0  0  0  0  0999 V2000
    2.4610   -5.3070   29.1240 C   0  0  0  0  0  0  0  0  0  0  0  0
    4.7710   -4.6952   28.4803 C   0  0  0  0  0  0  0  0  0  0  0  0
    3.4047   -5.1087   28.1314 C   0  0  0  0  0  0  0  0  0  0  0  0
   -0.2234  -11.8615   16.8874 C   0  0  0  0  0  0  0  0  0  0  0  0
    6.4491   -4.1532   30.1213 C   0  0  0  0  0  0  0  0  0  0  0  0
    5.7060   -4.4340   27.4975 C   0  0  0  0  0  0  0  0  0  0  0  0
    1.1818   -5.6612   28.8399 C   0  0  0  0  0  0  0  0  0  0  0  0
   -1.2067   -7.3287   17.7772 C   0  0  0  0  0  0  0  0  0  0  0  0
   -0.0206  -10.5585   16.6210 C   0  0  0  0  0  0  0  0  0  0  0  0
    0.3696  -12.7626   16.2169 O   0  0  0  0  0  0  0  0  0  0  0  0
   -0.6895   -9.5676   17.3297 C   0  0  0  0  0  0  0  0  0  0  0  0
    0.8388   -5.8417   27.5264 C   0  0  0  0  0  0  0  0  0  0  0  0
   -2.0709   -7.6637   18.7817 C   0  0  0  0  0  0  0  0  0  0  0  0
   -0.5279   -8.2168   17.0717 C   0  0  0  0  0  0  0  0  0  0  0  0
    6.9694   -4.0191   27.8190 C   0  0  0  0  0  0  0  0  0  0  0  0
    5.1733   -4.5469   29.8123 C   0  0  0  0  0  0  0  0  0  0  0  0
   -1.7508  -11.3016   18.6072 C   0  0  0  0  0  0  0  0  0  0  0  0
    1.7497   -5.6771   26.4971 C   0  0  0  0  0  0  0  0  0  0  0  0
   -1.5799   -9.9322   18.3468 C   0  0  0  0  0  0  0  0  0  0  0  0
   -1.0871  -12.2214   17.8851 C   0  0  0  0  0  0  0  0  0  0  0  0
   -2.2706   -8.9669   19.0691 C   0  0  0  0  0  0  0  0  0  0  0  0
    3.0279   -5.3073   26.8197 C   0  0  0  0  0  0  0  0  0  0  0  0
    7.3282   -3.8948   29.1186 C   0  0  0  0  0  0  0  0  0  0  0  0
  1  3  4  0
  1  7  4  0
  2  3  1  0
  2  6  4  0
  2 16  4  0
  3 22  4  0
  4  9  4  0
  4 10  1  0
  4 20  4  0
  5 16  4  0
  5 23  4  0
  6 15  4  0
  7 12  4  0
  8 13  4  0
  8 14  4  0
  9 11  4  0
 11 14  4  0
 11 19  4  0
 12 18  4  0
 13 21  4  0
 15 23  4  0
 17 19  4  0
 17 20  4  0
 18 22  4  0
 19 21  4  0
M  END
$$$$

 Created by Python create_sdf_string function

 23 25  0  0  0  0  0  0  0  0999 V2000
    2.4610   -5.3070   29.1240 C   0  0  0  0  0  0  0  0  0  0  0  0
    4.7710   -4.6952   28.4803 C   0  0  0  0  0  0  0  0  0  0  0  0
    3.4047   -5.1087   28.1314 C   0  0  0  0  0  0  0  0  0  0  0  0
   -0.2234  -11.8615   16.8874 C   0  0  0  0  0  0  0  0  0  0  0  0
    6.4491   -4.1532   30.1213 C   0  0  0  0  0  0  0  0  0  0  0  0
    5.7060   -4.4340   27.4975 C   0  0  0  0  0  0  0  0  0  0  0  0
    1.1818   -5.6612   28.8399 C   0  0  0  0  0  0  0  0  0  0  0  0
   -1.2067   -7.3287   17.7772 C   0  0  0  0  0  0  0  0  0  0  0  0
   -0.0206  -10.5585   16.6210 C   0  0  0  0  0  0  0  0  0  0  0  0
    0.3696  -12.7626   16.2169 O   0  0  0  0  0  0  0  0  0  0  0  0
   -0.6895   -9.5676   17.3297 C   0  0  0  0  0  0  0  0  0  0  0  0
    0.8388   -5.8417   27.5264 C   0  0  0  0  0  0  0  0  0  0  0  0
   -2.0709   -7.6637   18.7817 C   0  0  0  0  0  0  0  0  0  0  0  0
   -0.5279   -8.2168   17.0717 C   0  0  0  0  0  0  0  0  0  0  0  0
    6.9694   -4.0191   27.8190 C   0  0  0  0  0  0  0  0  0  0  0  0
    5.1733   -4.5469   29.8123 C   0  0  0  0  0  0  0  0  0  0  0  0
   -1.7508  -11.3016   18.6072 C   0  0  0  0  0  0  0  0  0  0  0  0
    1.7497   -5.6771   26.4971 C   0  0  0  0  0  0  0  0  0  0  0  0
   -1.5799   -9.9322   18.3468 C   0  0  0  0  0  0  0  0  0  0  0  0
   -1.0871  -12.2214   17.8851 C   0  0  0  0  0  0  0  0  0  0  0  0
   -2.2706   -8.9669   19.0691 C   0  0  0  0  0  0  0  0  0  0  0  0
    3.0279   -5.3073   26.8197 C   0  0  0  0  0  0  0  0  0  0  0  0
    7.3282   -3.8948   29.1186 C   0  0  0  0  0  0  0  0  0  0  0  0
  1  3  4  0
  1  7  4  0
  2  3  1  0
  2  6  4  0
  2 16  4  0
  3 22  4  0
  4  9  4  0
  4 10  1  0
  4 20  4  0
  5 16  4  0
  5 23  4  0
  6 15  4  0
  7 12  4  0
  8 13  4  0
  8 14  4  0
  9 11  4  0
 11 14  4  0
 11 19  4  0
 12 18  4  0
 13 21  4  0
 15 23  4  0
 17 19  4  0
 17 20  4  0
 18 22  4  0
 19 21  4  0
M  END
$$$$

 Created by Python create_sdf_string function

 23 25  0  0  0  0  0  0  0  0999 V2000
    2.4610   -5.3070   29.1240 C   0  0  0  0  0  0  0  0  0  0  0  0
    4.7710   -4.6952   28.4803 C   0  0  0  0  0  0  0  0  0  0  0  0
    3.4047   -5.1087   28.1314 C   0  0  0  0  0  0  0  0  0  0  0  0
   -0.2234  -11.8615   16.8874 C   0  0  0  0  0  0  0  0  0  0  0  0
    6.4491   -4.1532   30.1213 C   0  0  0  0  0  0  0  0  0  0  0  0
    5.7060   -4.4340   27.4975 C   0  0  0  0  0  0  0  0  0  0  0  0
    1.1818   -5.6612   28.8399 C   0  0  0  0  0  0  0  0  0  0  0  0
   -1.2067   -7.3287   17.7772 C   0  0  0  0  0  0  0  0  0  0  0  0
   -0.0206  -10.5585   16.6210 C   0  0  0  0  0  0  0  0  0  0  0  0
    0.3696  -12.7626   16.2169 O   0  0  0  0  0  0  0  0  0  0  0  0
   -0.6895   -9.5676   17.3297 C   0  0  0  0  0  0  0  0  0  0  0  0
    0.8388   -5.8417   27.5264 C   0  0  0  0  0  0  0  0  0  0  0  0
   -2.0709   -7.6637   18.7817 C   0  0  0  0  0  0  0  0  0  0  0  0
   -0.5279   -8.2168   17.0717 C   0  0  0  0  0  0  0  0  0  0  0  0
    6.9694   -4.0191   27.8190 C   0  0  0  0  0  0  0  0  0  0  0  0
    5.1733   -4.5469   29.8123 C   0  0  0  0  0  0  0  0  0  0  0  0
   -1.7508  -11.3016   18.6072 C   0  0  0  0  0  0  0  0  0  0  0  0
    1.7497   -5.6771   26.4971 C   0  0  0  0  0  0  0  0  0  0  0  0
   -1.5799   -9.9322   18.3468 C   0  0  0  0  0  0  0  0  0  0  0  0
   -1.0871  -12.2214   17.8851 C   0  0  0  0  0  0  0  0  0  0  0  0
   -2.2706   -8.9669   19.0691 C   0  0  0  0  0  0  0  0  0  0  0  0
    3.0279   -5.3073   26.8197 C   0  0  0  0  0  0  0  0  0  0  0  0
    7.3282   -3.8948   29.1186 C   0  0  0  0  0  0  0  0  0  0  0  0
  1  3  4  0
  1  7  4  0
  2  3  1  0
  2  6  4  0
  2 16  4  0
  3 22  4  0
  4  9  4  0
  4 10  1  0
  4 20  4  0
  5 16  4  0
  5 23  4  0
  6 15  4  0
  7 12  4  0
  8 13  4  0
  8 14  4  0
  9 11  4  0
 11 14  4  0
 11 19  4  0
 12 18  4  0
 13 21  4  0
 15 23  4  0
 17 19  4  0
 17 20  4  0
 18 22  4  0
 19 21  4  0
M  END
$$$$

 Created by Python create_sdf_string function

 23 25  0  0  0  0  0  0  0  0999 V2000
    2.4610   -5.3070   29.1240 C   0  0  0  0  0  0  0  0  0  0  0  0
    4.7710   -4.6952   28.4803 C   0  0  0  0  0  0  0  0  0  0  0  0
    3.4047   -5.1087   28.1314 C   0  0  0  0  0  0  0  0  0  0  0  0
   -0.2234  -11.8615   16.8874 C   0  0  0  0  0  0  0  0  0  0  0  0
    6.4491   -4.1532   30.1213 C   0  0  0  0  0  0  0  0  0  0  0  0
    5.7060   -4.4340   27.4975 C   0  0  0  0  0  0  0  0  0  0  0  0
    1.1818   -5.6612   28.8399 C   0  0  0  0  0  0  0  0  0  0  0  0
   -1.2067   -7.3287   17.7772 C   0  0  0  0  0  0  0  0  0  0  0  0
   -0.0206  -10.5585   16.6210 C   0  0  0  0  0  0  0  0  0  0  0  0
    0.3696  -12.7626   16.2169 O   0  0  0  0  0  0  0  0  0  0  0  0
   -0.6895   -9.5676   17.3297 C   0  0  0  0  0  0  0  0  0  0  0  0
    0.8388   -5.8417   27.5264 C   0  0  0  0  0  0  0  0  0  0  0  0
   -2.0709   -7.6637   18.7817 C   0  0  0  0  0  0  0  0  0  0  0  0
   -0.5279   -8.2168   17.0717 C   0  0  0  0  0  0  0  0  0  0  0  0
    6.9694   -4.0191   27.8190 C   0  0  0  0  0  0  0  0  0  0  0  0
    5.1733   -4.5469   29.8123 C   0  0  0  0  0  0  0  0  0  0  0  0
   -1.7508  -11.3016   18.6072 C   0  0  0  0  0  0  0  0  0  0  0  0
    1.7497   -5.6771   26.4971 C   0  0  0  0  0  0  0  0  0  0  0  0
   -1.5799   -9.9322   18.3468 C   0  0  0  0  0  0  0  0  0  0  0  0
   -1.0871  -12.2214   17.8851 C   0  0  0  0  0  0  0  0  0  0  0  0
   -2.2706   -8.9669   19.0691 C   0  0  0  0  0  0  0  0  0  0  0  0
    3.0279   -5.3073   26.8197 C   0  0  0  0  0  0  0  0  0  0  0  0
    7.3282   -3.8948   29.1186 C   0  0  0  0  0  0  0  0  0  0  0  0
  1  3  4  0
  1  7  4  0
  2  3  1  0
  2  6  4  0
  2 16  4  0
  3 22  4  0
  4  9  4  0
  4 10  1  0
  4 20  4  0
  5 16  4  0
  5 23  4  0
  6 15  4  0
  7 12  4  0
  8 13  4  0
  8 14  4  0
  9 11  4  0
 11 14  4  0
 11 19  4  0
 12 18  4  0
 13 21  4  0
 15 23  4  0
 17 19  4  0
 17 20  4  0
 18 22  4  0
 19 21  4  0
M  END
$$$$

 Created by Python create_sdf_string function

 23 25  0  0  0  0  0  0  0  0999 V2000
    2.4610   -5.3070   29.1240 C   0  0  0  0  0  0  0  0  0  0  0  0
    4.7710   -4.6952   28.4803 C   0  0  0  0  0  0  0  0  0  0  0  0
    3.4047   -5.1087   28.1314 C   0  0  0  0  0  0  0  0  0  0  0  0
   -0.2234  -11.8615   16.8874 C   0  0  0  0  0  0  0  0  0  0  0  0
    6.4491   -4.1532   30.1213 C   0  0  0  0  0  0  0  0  0  0  0  0
    5.7060   -4.4340   27.4975 C   0  0  0  0  0  0  0  0  0  0  0  0
    1.1818   -5.6612   28.8399 C   0  0  0  0  0  0  0  0  0  0  0  0
   -1.2067   -7.3287   17.7772 C   0  0  0  0  0  0  0  0  0  0  0  0
   -0.0206  -10.5585   16.6210 C   0  0  0  0  0  0  0  0  0  0  0  0
    0.3696  -12.7626   16.2169 O   0  0  0  0  0  0  0  0  0  0  0  0
   -0.6895   -9.5676   17.3297 C   0  0  0  0  0  0  0  0  0  0  0  0
    0.8388   -5.8417   27.5264 C   0  0  0  0  0  0  0  0  0  0  0  0
   -2.0709   -7.6637   18.7817 C   0  0  0  0  0  0  0  0  0  0  0  0
   -0.5279   -8.2168   17.0717 C   0  0  0  0  0  0  0  0  0  0  0  0
    6.9694   -4.0191   27.8190 C   0  0  0  0  0  0  0  0  0  0  0  0
    5.1733   -4.5469   29.8123 C   0  0  0  0  0  0  0  0  0  0  0  0
   -1.7508  -11.3016   18.6072 C   0  0  0  0  0  0  0  0  0  0  0  0
    1.7497   -5.6771   26.4971 C   0  0  0  0  0  0  0  0  0  0  0  0
   -1.5799   -9.9322   18.3468 C   0  0  0  0  0  0  0  0  0  0  0  0
   -1.0871  -12.2214   17.8851 C   0  0  0  0  0  0  0  0  0  0  0  0
   -2.2706   -8.9669   19.0691 C   0  0  0  0  0  0  0  0  0  0  0  0
    3.0279   -5.3073   26.8197 C   0  0  0  0  0  0  0  0  0  0  0  0
    7.3282   -3.8948   29.1186 C   0  0  0  0  0  0  0  0  0  0  0  0
  1  3  4  0
  1  7  4  0
  2  3  1  0
  2  6  4  0
  2 16  4  0
  3 22  4  0
  4  9  4  0
  4 10  1  0
  4 20  4  0
  5 16  4  0
  5 23  4  0
  6 15  4  0
  7 12  4  0
  8 13  4  0
  8 14  4  0
  9 11  4  0
 11 14  4  0
 11 19  4  0
 12 18  4  0
 13 21  4  0
 15 23  4  0
 17 19  4  0
 17 20  4  0
 18 22  4  0
 19 21  4  0
M  END
$$$$

 Created by Python create_sdf_string function

 23 25  0  0  0  0  0  0  0  0999 V2000
    2.4610   -5.3070   29.1240 C   0  0  0  0  0  0  0  0  0  0  0  0
    4.7710   -4.6952   28.4803 C   0  0  0  0  0  0  0  0  0  0  0  0
    3.4047   -5.1087   28.1314 C   0  0  0  0  0  0  0  0  0  0  0  0
   -0.2234  -11.8615   16.8874 C   0  0  0  0  0  0  0  0  0  0  0  0
    6.4491   -4.1532   30.1213 C   0  0  0  0  0  0  0  0  0  0  0  0
    5.7060   -4.4340   27.4975 C   0  0  0  0  0  0  0  0  0  0  0  0
    1.1818   -5.6612   28.8399 C   0  0  0  0  0  0  0  0  0  0  0  0
   -1.2067   -7.3287   17.7772 C   0  0  0  0  0  0  0  0  0  0  0  0
   -0.0206  -10.5585   16.6210 C   0  0  0  0  0  0  0  0  0  0  0  0
    0.3696  -12.7626   16.2169 O   0  0  0  0  0  0  0  0  0  0  0  0
   -0.6895   -9.5676   17.3297 C   0  0  0  0  0  0  0  0  0  0  0  0
    0.8388   -5.8417   27.5264 C   0  0  0  0  0  0  0  0  0  0  0  0
   -2.0709   -7.6637   18.7817 C   0  0  0  0  0  0  0  0  0  0  0  0
   -0.5279   -8.2168   17.0717 C   0  0  0  0  0  0  0  0  0  0  0  0
    6.9694   -4.0191   27.8190 C   0  0  0  0  0  0  0  0  0  0  0  0
    5.1733   -4.5469   29.8123 C   0  0  0  0  0  0  0  0  0  0  0  0
   -1.7508  -11.3016   18.6072 C   0  0  0  0  0  0  0  0  0  0  0  0
    1.7497   -5.6771   26.4971 C   0  0  0  0  0  0  0  0  0  0  0  0
   -1.5799   -9.9322   18.3468 C   0  0  0  0  0  0  0  0  0  0  0  0
   -1.0871  -12.2214   17.8851 C   0  0  0  0  0  0  0  0  0  0  0  0
   -2.2706   -8.9669   19.0691 C   0  0  0  0  0  0  0  0  0  0  0  0
    3.0279   -5.3073   26.8197 C   0  0  0  0  0  0  0  0  0  0  0  0
    7.3282   -3.8948   29.1186 C   0  0  0  0  0  0  0  0  0  0  0  0
  1  3  4  0
  1  7  4  0
  2  3  1  0
  2  6  4  0
  2 16  4  0
  3 22  4  0
  4  9  4  0
  4 10  1  0
  4 20  4  0
  5 16  4  0
  5 23  4  0
  6 15  4  0
  7 12  4  0
  8 13  4  0
  8 14  4  0
  9 11  4  0
 11 14  4  0
 11 19  4  0
 12 18  4  0
 13 21  4  0
 15 23  4  0
 17 19  4  0
 17 20  4  0
 18 22  4  0
 19 21  4  0
M  END
$$$$

 Created by Python create_sdf_string function

 23 25  0  0  0  0  0  0  0  0999 V2000
    2.4610   -5.3070   29.1240 C   0  0  0  0  0  0  0  0  0  0  0  0
    4.7710   -4.6952   28.4803 C   0  0  0  0  0  0  0  0  0  0  0  0
    3.4047   -5.1087   28.1314 C   0  0  0  0  0  0  0  0  0  0  0  0
   -0.2234  -11.8615   16.8874 C   0  0  0  0  0  0  0  0  0  0  0  0
    6.4491   -4.1532   30.1213 C   0  0  0  0  0  0  0  0  0  0  0  0
    5.7060   -4.4340   27.4975 C   0  0  0  0  0  0  0  0  0  0  0  0
    1.1818   -5.6612   28.8399 C   0  0  0  0  0  0  0  0  0  0  0  0
   -1.2067   -7.3287   17.7772 C   0  0  0  0  0  0  0  0  0  0  0  0
   -0.0206  -10.5585   16.6210 C   0  0  0  0  0  0  0  0  0  0  0  0
    0.3696  -12.7626   16.2169 O   0  0  0  0  0  0  0  0  0  0  0  0
   -0.6895   -9.5676   17.3297 C   0  0  0  0  0  0  0  0  0  0  0  0
    0.8388   -5.8417   27.5264 C   0  0  0  0  0  0  0  0  0  0  0  0
   -2.0709   -7.6637   18.7817 C   0  0  0  0  0  0  0  0  0  0  0  0
   -0.5279   -8.2168   17.0717 C   0  0  0  0  0  0  0  0  0  0  0  0
    6.9694   -4.0191   27.8190 C   0  0  0  0  0  0  0  0  0  0  0  0
    5.1733   -4.5469   29.8123 C   0  0  0  0  0  0  0  0  0  0  0  0
   -1.7508  -11.3016   18.6072 C   0  0  0  0  0  0  0  0  0  0  0  0
    1.7497   -5.6771   26.4971 C   0  0  0  0  0  0  0  0  0  0  0  0
   -1.5799   -9.9322   18.3468 C   0  0  0  0  0  0  0  0  0  0  0  0
   -1.0871  -12.2214   17.8851 C   0  0  0  0  0  0  0  0  0  0  0  0
   -2.2706   -8.9669   19.0691 C   0  0  0  0  0  0  0  0  0  0  0  0
    3.0279   -5.3073   26.8197 C   0  0  0  0  0  0  0  0  0  0  0  0
    7.3282   -3.8948   29.1186 C   0  0  0  0  0  0  0  0  0  0  0  0
  1  3  4  0
  1  7  4  0
  2  3  1  0
  2  6  4  0
  2 16  4  0
  3 22  4  0
  4  9  4  0
  4 10  1  0
  4 20  4  0
  5 16  4  0
  5 23  4  0
  6 15  4  0
  7 12  4  0
  8 13  4  0
  8 14  4  0
  9 11  4  0
 11 14  4  0
 11 19  4  0
 12 18  4  0
 13 21  4  0
 15 23  4  0
 17 19  4  0
 17 20  4  0
 18 22  4  0
 19 21  4  0
M  END
$$$$

 Created by Python create_sdf_string function

 23 25  0  0  0  0  0  0  0  0999 V2000
    2.4610   -5.3070   29.1240 C   0  0  0  0  0  0  0  0  0  0  0  0
    4.7710   -4.6952   28.4803 C   0  0  0  0  0  0  0  0  0  0  0  0
    3.4047   -5.1087   28.1314 C   0  0  0  0  0  0  0  0  0  0  0  0
   -0.2234  -11.8615   16.8874 C   0  0  0  0  0  0  0  0  0  0  0  0
    6.4491   -4.1532   30.1213 C   0  0  0  0  0  0  0  0  0  0  0  0
    5.7060   -4.4340   27.4975 C   0  0  0  0  0  0  0  0  0  0  0  0
    1.1818   -5.6612   28.8399 C   0  0  0  0  0  0  0  0  0  0  0  0
   -1.2067   -7.3287   17.7772 C   0  0  0  0  0  0  0  0  0  0  0  0
   -0.0206  -10.5585   16.6210 C   0  0  0  0  0  0  0  0  0  0  0  0
    0.3696  -12.7626   16.2169 O   0  0  0  0  0  0  0  0  0  0  0  0
   -0.6895   -9.5676   17.3297 C   0  0  0  0  0  0  0  0  0  0  0  0
    0.8388   -5.8417   27.5264 C   0  0  0  0  0  0  0  0  0  0  0  0
   -2.0709   -7.6637   18.7817 C   0  0  0  0  0  0  0  0  0  0  0  0
   -0.5279   -8.2168   17.0717 C   0  0  0  0  0  0  0  0  0  0  0  0
    6.9694   -4.0191   27.8190 C   0  0  0  0  0  0  0  0  0  0  0  0
    5.1733   -4.5469   29.8123 C   0  0  0  0  0  0  0  0  0  0  0  0
   -1.7508  -11.3016   18.6072 C   0  0  0  0  0  0  0  0  0  0  0  0
    1.7497   -5.6771   26.4971 C   0  0  0  0  0  0  0  0  0  0  0  0
   -1.5799   -9.9322   18.3468 C   0  0  0  0  0  0  0  0  0  0  0  0
   -1.0871  -12.2214   17.8851 C   0  0  0  0  0  0  0  0  0  0  0  0
   -2.2706   -8.9669   19.0691 C   0  0  0  0  0  0  0  0  0  0  0  0
    3.0279   -5.3073   26.8197 C   0  0  0  0  0  0  0  0  0  0  0  0
    7.3282   -3.8948   29.1186 C   0  0  0  0  0  0  0  0  0  0  0  0
  1  3  4  0
  1  7  4  0
  2  3  1  0
  2  6  4  0
  2 16  4  0
  3 22  4  0
  4  9  4  0
  4 10  1  0
  4 20  4  0
  5 16  4  0
  5 23  4  0
  6 15  4  0
  7 12  4  0
  8 13  4  0
  8 14  4  0
  9 11  4  0
 11 14  4  0
 11 19  4  0
 12 18  4  0
 13 21  4  0
 15 23  4  0
 17 19  4  0
 17 20  4  0
 18 22  4  0
 19 21  4  0
M  END
$$$$

 Created by Python create_sdf_string function

 23 25  0  0  0  0  0  0  0  0999 V2000
    2.4610   -5.3070   29.1240 C   0  0  0  0  0  0  0  0  0  0  0  0
    4.7710   -4.6952   28.4803 C   0  0  0  0  0  0  0  0  0  0  0  0
    3.4047   -5.1087   28.1314 C   0  0  0  0  0  0  0  0  0  0  0  0
   -0.2234  -11.8615   16.8874 C   0  0  0  0  0  0  0  0  0  0  0  0
    6.4491   -4.1532   30.1213 C   0  0  0  0  0  0  0  0  0  0  0  0
    5.7060   -4.4340   27.4975 C   0  0  0  0  0  0  0  0  0  0  0  0
    1.1818   -5.6612   28.8399 C   0  0  0  0  0  0  0  0  0  0  0  0
   -1.2067   -7.3287   17.7772 C   0  0  0  0  0  0  0  0  0  0  0  0
   -0.0206  -10.5585   16.6210 C   0  0  0  0  0  0  0  0  0  0  0  0
    0.3696  -12.7626   16.2169 O   0  0  0  0  0  0  0  0  0  0  0  0
   -0.6895   -9.5676   17.3297 C   0  0  0  0  0  0  0  0  0  0  0  0
    0.8388   -5.8417   27.5264 C   0  0  0  0  0  0  0  0  0  0  0  0
   -2.0709   -7.6637   18.7817 C   0  0  0  0  0  0  0  0  0  0  0  0
   -0.5279   -8.2168   17.0717 C   0  0  0  0  0  0  0  0  0  0  0  0
    6.9694   -4.0191   27.8190 C   0  0  0  0  0  0  0  0  0  0  0  0
    5.1733   -4.5469   29.8123 C   0  0  0  0  0  0  0  0  0  0  0  0
   -1.7508  -11.3016   18.6072 C   0  0  0  0  0  0  0  0  0  0  0  0
    1.7497   -5.6771   26.4971 C   0  0  0  0  0  0  0  0  0  0  0  0
   -1.5799   -9.9322   18.3468 C   0  0  0  0  0  0  0  0  0  0  0  0
   -1.0871  -12.2214   17.8851 C   0  0  0  0  0  0  0  0  0  0  0  0
   -2.2706   -8.9669   19.0691 C   0  0  0  0  0  0  0  0  0  0  0  0
    3.0279   -5.3073   26.8197 C   0  0  0  0  0  0  0  0  0  0  0  0
    7.3282   -3.8948   29.1186 C   0  0  0  0  0  0  0  0  0  0  0  0
  1  3  4  0
  1  7  4  0
  2  3  1  0
  2  6  4  0
  2 16  4  0
  3 22  4  0
  4  9  4  0
  4 10  1  0
  4 20  4  0
  5 16  4  0
  5 23  4  0
  6 15  4  0
  7 12  4  0
  8 13  4  0
  8 14  4  0
  9 11  4  0
 11 14  4  0
 11 19  4  0
 12 18  4  0
 13 21  4  0
 15 23  4  0
 17 19  4  0
 17 20  4  0
 18 22  4  0
 19 21  4  0
M  END
$$$$

 Created by Python create_sdf_string function

 23 25  0  0  0  0  0  0  0  0999 V2000
    2.4610   -5.3070   29.1240 C   0  0  0  0  0  0  0  0  0  0  0  0
    4.7710   -4.6952   28.4803 C   0  0  0  0  0  0  0  0  0  0  0  0
    3.4047   -5.1087   28.1314 C   0  0  0  0  0  0  0  0  0  0  0  0
   -0.2234  -11.8615   16.8874 C   0  0  0  0  0  0  0  0  0  0  0  0
    6.4491   -4.1532   30.1213 C   0  0  0  0  0  0  0  0  0  0  0  0
    5.7060   -4.4340   27.4975 C   0  0  0  0  0  0  0  0  0  0  0  0
    1.1818   -5.6612   28.8399 C   0  0  0  0  0  0  0  0  0  0  0  0
   -1.2067   -7.3287   17.7772 C   0  0  0  0  0  0  0  0  0  0  0  0
   -0.0206  -10.5585   16.6210 C   0  0  0  0  0  0  0  0  0  0  0  0
    0.3696  -12.7626   16.2169 O   0  0  0  0  0  0  0  0  0  0  0  0
   -0.6895   -9.5676   17.3297 C   0  0  0  0  0  0  0  0  0  0  0  0
    0.8388   -5.8417   27.5264 C   0  0  0  0  0  0  0  0  0  0  0  0
   -2.0709   -7.6637   18.7817 C   0  0  0  0  0  0  0  0  0  0  0  0
   -0.5279   -8.2168   17.0717 C   0  0  0  0  0  0  0  0  0  0  0  0
    6.9694   -4.0191   27.8190 C   0  0  0  0  0  0  0  0  0  0  0  0
    5.1733   -4.5469   29.8123 C   0  0  0  0  0  0  0  0  0  0  0  0
   -1.7508  -11.3016   18.6072 C   0  0  0  0  0  0  0  0  0  0  0  0
    1.7497   -5.6771   26.4971 C   0  0  0  0  0  0  0  0  0  0  0  0
   -1.5799   -9.9322   18.3468 C   0  0  0  0  0  0  0  0  0  0  0  0
   -1.0871  -12.2214   17.8851 C   0  0  0  0  0  0  0  0  0  0  0  0
   -2.2706   -8.9669   19.0691 C   0  0  0  0  0  0  0  0  0  0  0  0
    3.0279   -5.3073   26.8197 C   0  0  0  0  0  0  0  0  0  0  0  0
    7.3282   -3.8948   29.1186 C   0  0  0  0  0  0  0  0  0  0  0  0
  1  3  4  0
  1  7  4  0
  2  3  1  0
  2  6  4  0
  2 16  4  0
  3 22  4  0
  4  9  4  0
  4 10  1  0
  4 20  4  0
  5 16  4  0
  5 23  4  0
  6 15  4  0
  7 12  4  0
  8 13  4  0
  8 14  4  0
  9 11  4  0
 11 14  4  0
 11 19  4  0
 12 18  4  0
 13 21  4  0
 15 23  4  0
 17 19  4  0
 17 20  4  0
 18 22  4  0
 19 21  4  0
M  END
$$$$

 Created by Python create_sdf_string function

 23 25  0  0  0  0  0  0  0  0999 V2000
    2.4610   -5.3070   29.1240 C   0  0  0  0  0  0  0  0  0  0  0  0
    4.7710   -4.6952   28.4803 C   0  0  0  0  0  0  0  0  0  0  0  0
    3.4047   -5.1087   28.1314 C   0  0  0  0  0  0  0  0  0  0  0  0
   -0.2234  -11.8615   16.8874 C   0  0  0  0  0  0  0  0  0  0  0  0
    6.4491   -4.1532   30.1213 C   0  0  0  0  0  0  0  0  0  0  0  0
    5.7060   -4.4340   27.4975 C   0  0  0  0  0  0  0  0  0  0  0  0
    1.1818   -5.6612   28.8399 C   0  0  0  0  0  0  0  0  0  0  0  0
   -1.2067   -7.3287   17.7772 C   0  0  0  0  0  0  0  0  0  0  0  0
   -0.0206  -10.5585   16.6210 C   0  0  0  0  0  0  0  0  0  0  0  0
    0.3696  -12.7626   16.2169 O   0  0  0  0  0  0  0  0  0  0  0  0
   -0.6895   -9.5676   17.3297 C   0  0  0  0  0  0  0  0  0  0  0  0
    0.8388   -5.8417   27.5264 C   0  0  0  0  0  0  0  0  0  0  0  0
   -2.0709   -7.6637   18.7817 C   0  0  0  0  0  0  0  0  0  0  0  0
   -0.5279   -8.2168   17.0717 C   0  0  0  0  0  0  0  0  0  0  0  0
    6.9694   -4.0191   27.8190 C   0  0  0  0  0  0  0  0  0  0  0  0
    5.1733   -4.5469   29.8123 C   0  0  0  0  0  0  0  0  0  0  0  0
   -1.7508  -11.3016   18.6072 C   0  0  0  0  0  0  0  0  0  0  0  0
    1.7497   -5.6771   26.4971 C   0  0  0  0  0  0  0  0  0  0  0  0
   -1.5799   -9.9322   18.3468 C   0  0  0  0  0  0  0  0  0  0  0  0
   -1.0871  -12.2214   17.8851 C   0  0  0  0  0  0  0  0  0  0  0  0
   -2.2706   -8.9669   19.0691 C   0  0  0  0  0  0  0  0  0  0  0  0
    3.0279   -5.3073   26.8197 C   0  0  0  0  0  0  0  0  0  0  0  0
    7.3282   -3.8948   29.1186 C   0  0  0  0  0  0  0  0  0  0  0  0
  1  3  4  0
  1  7  4  0
  2  3  1  0
  2  6  4  0
  2 16  4  0
  3 22  4  0
  4  9  4  0
  4 10  1  0
  4 20  4  0
  5 16  4  0
  5 23  4  0
  6 15  4  0
  7 12  4  0
  8 13  4  0
  8 14  4  0
  9 11  4  0
 11 14  4  0
 11 19  4  0
 12 18  4  0
 13 21  4  0
 15 23  4  0
 17 19  4  0
 17 20  4  0
 18 22  4  0
 19 21  4  0
M  END
$$$$

 Created by Python create_sdf_string function

 23 25  0  0  0  0  0  0  0  0999 V2000
    2.4610   -5.3070   29.1240 C   0  0  0  0  0  0  0  0  0  0  0  0
    4.7710   -4.6952   28.4803 C   0  0  0  0  0  0  0  0  0  0  0  0
    3.4047   -5.1087   28.1314 C   0  0  0  0  0  0  0  0  0  0  0  0
   -0.2234  -11.8615   16.8874 C   0  0  0  0  0  0  0  0  0  0  0  0
    6.4491   -4.1532   30.1213 C   0  0  0  0  0  0  0  0  0  0  0  0
    5.7060   -4.4340   27.4975 C   0  0  0  0  0  0  0  0  0  0  0  0
    1.1818   -5.6612   28.8399 C   0  0  0  0  0  0  0  0  0  0  0  0
   -1.2067   -7.3287   17.7772 C   0  0  0  0  0  0  0  0  0  0  0  0
   -0.0206  -10.5585   16.6210 C   0  0  0  0  0  0  0  0  0  0  0  0
    0.3696  -12.7626   16.2169 O   0  0  0  0  0  0  0  0  0  0  0  0
   -0.6895   -9.5676   17.3297 C   0  0  0  0  0  0  0  0  0  0  0  0
    0.8388   -5.8417   27.5264 C   0  0  0  0  0  0  0  0  0  0  0  0
   -2.0709   -7.6637   18.7817 C   0  0  0  0  0  0  0  0  0  0  0  0
   -0.5279   -8.2168   17.0717 C   0  0  0  0  0  0  0  0  0  0  0  0
    6.9694   -4.0191   27.8190 C   0  0  0  0  0  0  0  0  0  0  0  0
    5.1733   -4.5469   29.8123 C   0  0  0  0  0  0  0  0  0  0  0  0
   -1.7508  -11.3016   18.6072 C   0  0  0  0  0  0  0  0  0  0  0  0
    1.7497   -5.6771   26.4971 C   0  0  0  0  0  0  0  0  0  0  0  0
   -1.5799   -9.9322   18.3468 C   0  0  0  0  0  0  0  0  0  0  0  0
   -1.0871  -12.2214   17.8851 C   0  0  0  0  0  0  0  0  0  0  0  0
   -2.2706   -8.9669   19.0691 C   0  0  0  0  0  0  0  0  0  0  0  0
    3.0279   -5.3073   26.8197 C   0  0  0  0  0  0  0  0  0  0  0  0
    7.3282   -3.8948   29.1186 C   0  0  0  0  0  0  0  0  0  0  0  0
  1  3  4  0
  1  7  4  0
  2  3  1  0
  2  6  4  0
  2 16  4  0
  3 22  4  0
  4  9  4  0
  4 10  1  0
  4 20  4  0
  5 16  4  0
  5 23  4  0
  6 15  4  0
  7 12  4  0
  8 13  4  0
  8 14  4  0
  9 11  4  0
 11 14  4  0
 11 19  4  0
 12 18  4  0
 13 21  4  0
 15 23  4  0
 17 19  4  0
 17 20  4  0
 18 22  4  0
 19 21  4  0
M  END
$$$$

 Created by Python create_sdf_string function

 23 25  0  0  0  0  0  0  0  0999 V2000
    2.4610   -5.3070   29.1240 C   0  0  0  0  0  0  0  0  0  0  0  0
    4.7710   -4.6952   28.4803 C   0  0  0  0  0  0  0  0  0  0  0  0
    3.4047   -5.1087   28.1314 C   0  0  0  0  0  0  0  0  0  0  0  0
   -0.2234  -11.8615   16.8874 C   0  0  0  0  0  0  0  0  0  0  0  0
    6.4491   -4.1532   30.1213 C   0  0  0  0  0  0  0  0  0  0  0  0
    5.7060   -4.4340   27.4975 C   0  0  0  0  0  0  0  0  0  0  0  0
    1.1818   -5.6612   28.8399 C   0  0  0  0  0  0  0  0  0  0  0  0
   -1.2067   -7.3287   17.7772 C   0  0  0  0  0  0  0  0  0  0  0  0
   -0.0206  -10.5585   16.6210 C   0  0  0  0  0  0  0  0  0  0  0  0
    0.3696  -12.7626   16.2169 O   0  0  0  0  0  0  0  0  0  0  0  0
   -0.6895   -9.5676   17.3297 C   0  0  0  0  0  0  0  0  0  0  0  0
    0.8388   -5.8417   27.5264 C   0  0  0  0  0  0  0  0  0  0  0  0
   -2.0709   -7.6637   18.7817 C   0  0  0  0  0  0  0  0  0  0  0  0
   -0.5279   -8.2168   17.0717 C   0  0  0  0  0  0  0  0  0  0  0  0
    6.9694   -4.0191   27.8190 C   0  0  0  0  0  0  0  0  0  0  0  0
    5.1733   -4.5469   29.8123 C   0  0  0  0  0  0  0  0  0  0  0  0
   -1.7508  -11.3016   18.6072 C   0  0  0  0  0  0  0  0  0  0  0  0
    1.7497   -5.6771   26.4971 C   0  0  0  0  0  0  0  0  0  0  0  0
   -1.5799   -9.9322   18.3468 C   0  0  0  0  0  0  0  0  0  0  0  0
   -1.0871  -12.2214   17.8851 C   0  0  0  0  0  0  0  0  0  0  0  0
   -2.2706   -8.9669   19.0691 C   0  0  0  0  0  0  0  0  0  0  0  0
    3.0279   -5.3073   26.8197 C   0  0  0  0  0  0  0  0  0  0  0  0
    7.3282   -3.8948   29.1186 C   0  0  0  0  0  0  0  0  0  0  0  0
  1  3  4  0
  1  7  4  0
  2  3  1  0
  2  6  4  0
  2 16  4  0
  3 22  4  0
  4  9  4  0
  4 10  1  0
  4 20  4  0
  5 16  4  0
  5 23  4  0
  6 15  4  0
  7 12  4  0
  8 13  4  0
  8 14  4  0
  9 11  4  0
 11 14  4  0
 11 19  4  0
 12 18  4  0
 13 21  4  0
 15 23  4  0
 17 19  4  0
 17 20  4  0
 18 22  4  0
 19 21  4  0
M  END
$$$$

 Created by Python create_sdf_string function

 23 25  0  0  0  0  0  0  0  0999 V2000
    2.4610   -5.3070   29.1240 C   0  0  0  0  0  0  0  0  0  0  0  0
    4.7710   -4.6952   28.4803 C   0  0  0  0  0  0  0  0  0  0  0  0
    3.4047   -5.1087   28.1314 C   0  0  0  0  0  0  0  0  0  0  0  0
   -0.2234  -11.8615   16.8874 C   0  0  0  0  0  0  0  0  0  0  0  0
    6.4491   -4.1532   30.1213 C   0  0  0  0  0  0  0  0  0  0  0  0
    5.7060   -4.4340   27.4975 C   0  0  0  0  0  0  0  0  0  0  0  0
    1.1818   -5.6612   28.8399 C   0  0  0  0  0  0  0  0  0  0  0  0
   -1.2067   -7.3287   17.7772 C   0  0  0  0  0  0  0  0  0  0  0  0
   -0.0206  -10.5585   16.6210 C   0  0  0  0  0  0  0  0  0  0  0  0
    0.3696  -12.7626   16.2169 O   0  0  0  0  0  0  0  0  0  0  0  0
   -0.6895   -9.5676   17.3297 C   0  0  0  0  0  0  0  0  0  0  0  0
    0.8388   -5.8417   27.5264 C   0  0  0  0  0  0  0  0  0  0  0  0
   -2.0709   -7.6637   18.7817 C   0  0  0  0  0  0  0  0  0  0  0  0
   -0.5279   -8.2168   17.0717 C   0  0  0  0  0  0  0  0  0  0  0  0
    6.9694   -4.0191   27.8190 C   0  0  0  0  0  0  0  0  0  0  0  0
    5.1733   -4.5469   29.8123 C   0  0  0  0  0  0  0  0  0  0  0  0
   -1.7508  -11.3016   18.6072 C   0  0  0  0  0  0  0  0  0  0  0  0
    1.7497   -5.6771   26.4971 C   0  0  0  0  0  0  0  0  0  0  0  0
   -1.5799   -9.9322   18.3468 C   0  0  0  0  0  0  0  0  0  0  0  0
   -1.0871  -12.2214   17.8851 C   0  0  0  0  0  0  0  0  0  0  0  0
   -2.2706   -8.9669   19.0691 C   0  0  0  0  0  0  0  0  0  0  0  0
    3.0279   -5.3073   26.8197 C   0  0  0  0  0  0  0  0  0  0  0  0
    7.3282   -3.8948   29.1186 C   0  0  0  0  0  0  0  0  0  0  0  0
  1  3  4  0
  1  7  4  0
  2  3  1  0
  2  6  4  0
  2 16  4  0
  3 22  4  0
  4  9  4  0
  4 10  1  0
  4 20  4  0
  5 16  4  0
  5 23  4  0
  6 15  4  0
  7 12  4  0
  8 13  4  0
  8 14  4  0
  9 11  4  0
 11 14  4  0
 11 19  4  0
 12 18  4  0
 13 21  4  0
 15 23  4  0
 17 19  4  0
 17 20  4  0
 18 22  4  0
 19 21  4  0
M  END
$$$$

 Created by Python create_sdf_string function

 23 25  0  0  0  0  0  0  0  0999 V2000
    2.4610   -5.3070   29.1240 C   0  0  0  0  0  0  0  0  0  0  0  0
    4.7710   -4.6952   28.4803 C   0  0  0  0  0  0  0  0  0  0  0  0
    3.4047   -5.1087   28.1314 C   0  0  0  0  0  0  0  0  0  0  0  0
   -0.2234  -11.8615   16.8874 C   0  0  0  0  0  0  0  0  0  0  0  0
    6.4491   -4.1532   30.1213 C   0  0  0  0  0  0  0  0  0  0  0  0
    5.7060   -4.4340   27.4975 C   0  0  0  0  0  0  0  0  0  0  0  0
    1.1818   -5.6612   28.8399 C   0  0  0  0  0  0  0  0  0  0  0  0
   -1.2067   -7.3287   17.7772 C   0  0  0  0  0  0  0  0  0  0  0  0
   -0.0206  -10.5585   16.6210 C   0  0  0  0  0  0  0  0  0  0  0  0
    0.3696  -12.7626   16.2169 O   0  0  0  0  0  0  0  0  0  0  0  0
   -0.6895   -9.5676   17.3297 C   0  0  0  0  0  0  0  0  0  0  0  0
    0.8388   -5.8417   27.5264 C   0  0  0  0  0  0  0  0  0  0  0  0
   -2.0709   -7.6637   18.7817 C   0  0  0  0  0  0  0  0  0  0  0  0
   -0.5279   -8.2168   17.0717 C   0  0  0  0  0  0  0  0  0  0  0  0
    6.9694   -4.0191   27.8190 C   0  0  0  0  0  0  0  0  0  0  0  0
    5.1733   -4.5469   29.8123 C   0  0  0  0  0  0  0  0  0  0  0  0
   -1.7508  -11.3016   18.6072 C   0  0  0  0  0  0  0  0  0  0  0  0
    1.7497   -5.6771   26.4971 C   0  0  0  0  0  0  0  0  0  0  0  0
   -1.5799   -9.9322   18.3468 C   0  0  0  0  0  0  0  0  0  0  0  0
   -1.0871  -12.2214   17.8851 C   0  0  0  0  0  0  0  0  0  0  0  0
   -2.2706   -8.9669   19.0691 C   0  0  0  0  0  0  0  0  0  0  0  0
    3.0279   -5.3073   26.8197 C   0  0  0  0  0  0  0  0  0  0  0  0
    7.3282   -3.8948   29.1186 C   0  0  0  0  0  0  0  0  0  0  0  0
  1  3  4  0
  1  7  4  0
  2  3  1  0
  2  6  4  0
  2 16  4  0
  3 22  4  0
  4  9  4  0
  4 10  1  0
  4 20  4  0
  5 16  4  0
  5 23  4  0
  6 15  4  0
  7 12  4  0
  8 13  4  0
  8 14  4  0
  9 11  4  0
 11 14  4  0
 11 19  4  0
 12 18  4  0
 13 21  4  0
 15 23  4  0
 17 19  4  0
 17 20  4  0
 18 22  4  0
 19 21  4  0
M  END
$$$$

 Created by Python create_sdf_string function

 23 25  0  0  0  0  0  0  0  0999 V2000
    2.4610   -5.3070   29.1240 C   0  0  0  0  0  0  0  0  0  0  0  0
    4.7710   -4.6952   28.4803 C   0  0  0  0  0  0  0  0  0  0  0  0
    3.4047   -5.1087   28.1314 C   0  0  0  0  0  0  0  0  0  0  0  0
   -0.2234  -11.8615   16.8874 C   0  0  0  0  0  0  0  0  0  0  0  0
    6.4491   -4.1532   30.1213 C   0  0  0  0  0  0  0  0  0  0  0  0
    5.7060   -4.4340   27.4975 C   0  0  0  0  0  0  0  0  0  0  0  0
    1.1818   -5.6612   28.8399 C   0  0  0  0  0  0  0  0  0  0  0  0
   -1.2067   -7.3287   17.7772 C   0  0  0  0  0  0  0  0  0  0  0  0
   -0.0206  -10.5585   16.6210 C   0  0  0  0  0  0  0  0  0  0  0  0
    0.3696  -12.7626   16.2169 O   0  0  0  0  0  0  0  0  0  0  0  0
   -0.6895   -9.5676   17.3297 C   0  0  0  0  0  0  0  0  0  0  0  0
    0.8388   -5.8417   27.5264 C   0  0  0  0  0  0  0  0  0  0  0  0
   -2.0709   -7.6637   18.7817 C   0  0  0  0  0  0  0  0  0  0  0  0
   -0.5279   -8.2168   17.0717 C   0  0  0  0  0  0  0  0  0  0  0  0
    6.9694   -4.0191   27.8190 C   0  0  0  0  0  0  0  0  0  0  0  0
    5.1733   -4.5469   29.8123 C   0  0  0  0  0  0  0  0  0  0  0  0
   -1.7508  -11.3016   18.6072 C   0  0  0  0  0  0  0  0  0  0  0  0
    1.7497   -5.6771   26.4971 C   0  0  0  0  0  0  0  0  0  0  0  0
   -1.5799   -9.9322   18.3468 C   0  0  0  0  0  0  0  0  0  0  0  0
   -1.0871  -12.2214   17.8851 C   0  0  0  0  0  0  0  0  0  0  0  0
   -2.2706   -8.9669   19.0691 C   0  0  0  0  0  0  0  0  0  0  0  0
    3.0279   -5.3073   26.8197 C   0  0  0  0  0  0  0  0  0  0  0  0
    7.3282   -3.8948   29.1186 C   0  0  0  0  0  0  0  0  0  0  0  0
  1  3  4  0
  1  7  4  0
  2  3  1  0
  2  6  4  0
  2 16  4  0
  3 22  4  0
  4  9  4  0
  4 10  1  0
  4 20  4  0
  5 16  4  0
  5 23  4  0
  6 15  4  0
  7 12  4  0
  8 13  4  0
  8 14  4  0
  9 11  4  0
 11 14  4  0
 11 19  4  0
 12 18  4  0
 13 21  4  0
 15 23  4  0
 17 19  4  0
 17 20  4  0
 18 22  4  0
 19 21  4  0
M  END
$$$$

 Created by Python create_sdf_string function

 23 25  0  0  0  0  0  0  0  0999 V2000
    2.4610   -5.3070   29.1240 C   0  0  0  0  0  0  0  0  0  0  0  0
    4.7710   -4.6952   28.4803 C   0  0  0  0  0  0  0  0  0  0  0  0
    3.4047   -5.1087   28.1314 C   0  0  0  0  0  0  0  0  0  0  0  0
   -0.2234  -11.8615   16.8874 C   0  0  0  0  0  0  0  0  0  0  0  0
    6.4491   -4.1532   30.1213 C   0  0  0  0  0  0  0  0  0  0  0  0
    5.7060   -4.4340   27.4975 C   0  0  0  0  0  0  0  0  0  0  0  0
    1.1818   -5.6612   28.8399 C   0  0  0  0  0  0  0  0  0  0  0  0
   -1.2067   -7.3287   17.7772 C   0  0  0  0  0  0  0  0  0  0  0  0
   -0.0206  -10.5585   16.6210 C   0  0  0  0  0  0  0  0  0  0  0  0
    0.3696  -12.7626   16.2169 O   0  0  0  0  0  0  0  0  0  0  0  0
   -0.6895   -9.5676   17.3297 C   0  0  0  0  0  0  0  0  0  0  0  0
    0.8388   -5.8417   27.5264 C   0  0  0  0  0  0  0  0  0  0  0  0
   -2.0709   -7.6637   18.7817 C   0  0  0  0  0  0  0  0  0  0  0  0
   -0.5279   -8.2168   17.0717 C   0  0  0  0  0  0  0  0  0  0  0  0
    6.9694   -4.0191   27.8190 C   0  0  0  0  0  0  0  0  0  0  0  0
    5.1733   -4.5469   29.8123 C   0  0  0  0  0  0  0  0  0  0  0  0
   -1.7508  -11.3016   18.6072 C   0  0  0  0  0  0  0  0  0  0  0  0
    1.7497   -5.6771   26.4971 C   0  0  0  0  0  0  0  0  0  0  0  0
   -1.5799   -9.9322   18.3468 C   0  0  0  0  0  0  0  0  0  0  0  0
   -1.0871  -12.2214   17.8851 C   0  0  0  0  0  0  0  0  0  0  0  0
   -2.2706   -8.9669   19.0691 C   0  0  0  0  0  0  0  0  0  0  0  0
    3.0279   -5.3073   26.8197 C   0  0  0  0  0  0  0  0  0  0  0  0
    7.3282   -3.8948   29.1186 C   0  0  0  0  0  0  0  0  0  0  0  0
  1  3  4  0
  1  7  4  0
  2  3  1  0
  2  6  4  0
  2 16  4  0
  3 22  4  0
  4  9  4  0
  4 10  1  0
  4 20  4  0
  5 16  4  0
  5 23  4  0
  6 15  4  0
  7 12  4  0
  8 13  4  0
  8 14  4  0
  9 11  4  0
 11 14  4  0
 11 19  4  0
 12 18  4  0
 13 21  4  0
 15 23  4  0
 17 19  4  0
 17 20  4  0
 18 22  4  0
 19 21  4  0
M  END
$$$$

 Created by Python create_sdf_string function

 23 25  0  0  0  0  0  0  0  0999 V2000
    2.4610   -5.3070   29.1240 C   0  0  0  0  0  0  0  0  0  0  0  0
    4.7710   -4.6952   28.4803 C   0  0  0  0  0  0  0  0  0  0  0  0
    3.4047   -5.1087   28.1314 C   0  0  0  0  0  0  0  0  0  0  0  0
   -0.2234  -11.8615   16.8874 C   0  0  0  0  0  0  0  0  0  0  0  0
    6.4491   -4.1532   30.1213 C   0  0  0  0  0  0  0  0  0  0  0  0
    5.7060   -4.4340   27.4975 C   0  0  0  0  0  0  0  0  0  0  0  0
    1.1818   -5.6612   28.8399 C   0  0  0  0  0  0  0  0  0  0  0  0
   -1.2067   -7.3287   17.7772 C   0  0  0  0  0  0  0  0  0  0  0  0
   -0.0206  -10.5585   16.6210 C   0  0  0  0  0  0  0  0  0  0  0  0
    0.3696  -12.7626   16.2169 O   0  0  0  0  0  0  0  0  0  0  0  0
   -0.6895   -9.5676   17.3297 C   0  0  0  0  0  0  0  0  0  0  0  0
    0.8388   -5.8417   27.5264 C   0  0  0  0  0  0  0  0  0  0  0  0
   -2.0709   -7.6637   18.7817 C   0  0  0  0  0  0  0  0  0  0  0  0
   -0.5279   -8.2168   17.0717 C   0  0  0  0  0  0  0  0  0  0  0  0
    6.9694   -4.0191   27.8190 C   0  0  0  0  0  0  0  0  0  0  0  0
    5.1733   -4.5469   29.8123 C   0  0  0  0  0  0  0  0  0  0  0  0
   -1.7508  -11.3016   18.6072 C   0  0  0  0  0  0  0  0  0  0  0  0
    1.7497   -5.6771   26.4971 C   0  0  0  0  0  0  0  0  0  0  0  0
   -1.5799   -9.9322   18.3468 C   0  0  0  0  0  0  0  0  0  0  0  0
   -1.0871  -12.2214   17.8851 C   0  0  0  0  0  0  0  0  0  0  0  0
   -2.2706   -8.9669   19.0691 C   0  0  0  0  0  0  0  0  0  0  0  0
    3.0279   -5.3073   26.8197 C   0  0  0  0  0  0  0  0  0  0  0  0
    7.3282   -3.8948   29.1186 C   0  0  0  0  0  0  0  0  0  0  0  0
  1  3  4  0
  1  7  4  0
  2  3  1  0
  2  6  4  0
  2 16  4  0
  3 22  4  0
  4  9  4  0
  4 10  1  0
  4 20  4  0
  5 16  4  0
  5 23  4  0
  6 15  4  0
  7 12  4  0
  8 13  4  0
  8 14  4  0
  9 11  4  0
 11 14  4  0
 11 19  4  0
 12 18  4  0
 13 21  4  0
 15 23  4  0
 17 19  4  0
 17 20  4  0
 18 22  4  0
 19 21  4  0
M  END
$$$$

 Created by Python create_sdf_string function

 23 25  0  0  0  0  0  0  0  0999 V2000
    2.4610   -5.3070   29.1240 C   0  0  0  0  0  0  0  0  0  0  0  0
    4.7710   -4.6952   28.4803 C   0  0  0  0  0  0  0  0  0  0  0  0
    3.4047   -5.1087   28.1314 C   0  0  0  0  0  0  0  0  0  0  0  0
   -0.2234  -11.8615   16.8874 C   0  0  0  0  0  0  0  0  0  0  0  0
    6.4491   -4.1532   30.1213 C   0  0  0  0  0  0  0  0  0  0  0  0
    5.7060   -4.4340   27.4975 C   0  0  0  0  0  0  0  0  0  0  0  0
    1.1818   -5.6612   28.8399 C   0  0  0  0  0  0  0  0  0  0  0  0
   -1.2067   -7.3287   17.7772 C   0  0  0  0  0  0  0  0  0  0  0  0
   -0.0206  -10.5585   16.6210 C   0  0  0  0  0  0  0  0  0  0  0  0
    0.3696  -12.7626   16.2169 O   0  0  0  0  0  0  0  0  0  0  0  0
   -0.6895   -9.5676   17.3297 C   0  0  0  0  0  0  0  0  0  0  0  0
    0.8388   -5.8417   27.5264 C   0  0  0  0  0  0  0  0  0  0  0  0
   -2.0709   -7.6637   18.7817 C   0  0  0  0  0  0  0  0  0  0  0  0
   -0.5279   -8.2168   17.0717 C   0  0  0  0  0  0  0  0  0  0  0  0
    6.9694   -4.0191   27.8190 C   0  0  0  0  0  0  0  0  0  0  0  0
    5.1733   -4.5469   29.8123 C   0  0  0  0  0  0  0  0  0  0  0  0
   -1.7508  -11.3016   18.6072 C   0  0  0  0  0  0  0  0  0  0  0  0
    1.7497   -5.6771   26.4971 C   0  0  0  0  0  0  0  0  0  0  0  0
   -1.5799   -9.9322   18.3468 C   0  0  0  0  0  0  0  0  0  0  0  0
   -1.0871  -12.2214   17.8851 C   0  0  0  0  0  0  0  0  0  0  0  0
   -2.2706   -8.9669   19.0691 C   0  0  0  0  0  0  0  0  0  0  0  0
    3.0279   -5.3073   26.8197 C   0  0  0  0  0  0  0  0  0  0  0  0
    7.3282   -3.8948   29.1186 C   0  0  0  0  0  0  0  0  0  0  0  0
  1  3  4  0
  1  7  4  0
  2  3  1  0
  2  6  4  0
  2 16  4  0
  3 22  4  0
  4  9  4  0
  4 10  1  0
  4 20  4  0
  5 16  4  0
  5 23  4  0
  6 15  4  0
  7 12  4  0
  8 13  4  0
  8 14  4  0
  9 11  4  0
 11 14  4  0
 11 19  4  0
 12 18  4  0
 13 21  4  0
 15 23  4  0
 17 19  4  0
 17 20  4  0
 18 22  4  0
 19 21  4  0
M  END
$$$$

 Created by Python create_sdf_string function

 23 25  0  0  0  0  0  0  0  0999 V2000
    2.4610   -5.3070   29.1240 C   0  0  0  0  0  0  0  0  0  0  0  0
    4.7710   -4.6952   28.4803 C   0  0  0  0  0  0  0  0  0  0  0  0
    3.4047   -5.1087   28.1314 C   0  0  0  0  0  0  0  0  0  0  0  0
   -0.2234  -11.8615   16.8874 C   0  0  0  0  0  0  0  0  0  0  0  0
    6.4491   -4.1532   30.1213 C   0  0  0  0  0  0  0  0  0  0  0  0
    5.7060   -4.4340   27.4975 C   0  0  0  0  0  0  0  0  0  0  0  0
    1.1818   -5.6612   28.8399 C   0  0  0  0  0  0  0  0  0  0  0  0
   -1.2067   -7.3287   17.7772 C   0  0  0  0  0  0  0  0  0  0  0  0
   -0.0206  -10.5585   16.6210 C   0  0  0  0  0  0  0  0  0  0  0  0
    0.3696  -12.7626   16.2169 O   0  0  0  0  0  0  0  0  0  0  0  0
   -0.6895   -9.5676   17.3297 C   0  0  0  0  0  0  0  0  0  0  0  0
    0.8388   -5.8417   27.5264 C   0  0  0  0  0  0  0  0  0  0  0  0
   -2.0709   -7.6637   18.7817 C   0  0  0  0  0  0  0  0  0  0  0  0
   -0.5279   -8.2168   17.0717 C   0  0  0  0  0  0  0  0  0  0  0  0
    6.9694   -4.0191   27.8190 C   0  0  0  0  0  0  0  0  0  0  0  0
    5.1733   -4.5469   29.8123 C   0  0  0  0  0  0  0  0  0  0  0  0
   -1.7508  -11.3016   18.6072 C   0  0  0  0  0  0  0  0  0  0  0  0
    1.7497   -5.6771   26.4971 C   0  0  0  0  0  0  0  0  0  0  0  0
   -1.5799   -9.9322   18.3468 C   0  0  0  0  0  0  0  0  0  0  0  0
   -1.0871  -12.2214   17.8851 C   0  0  0  0  0  0  0  0  0  0  0  0
   -2.2706   -8.9669   19.0691 C   0  0  0  0  0  0  0  0  0  0  0  0
    3.0279   -5.3073   26.8197 C   0  0  0  0  0  0  0  0  0  0  0  0
    7.3282   -3.8948   29.1186 C   0  0  0  0  0  0  0  0  0  0  0  0
  1  3  4  0
  1  7  4  0
  2  3  1  0
  2  6  4  0
  2 16  4  0
  3 22  4  0
  4  9  4  0
  4 10  1  0
  4 20  4  0
  5 16  4  0
  5 23  4  0
  6 15  4  0
  7 12  4  0
  8 13  4  0
  8 14  4  0
  9 11  4  0
 11 14  4  0
 11 19  4  0
 12 18  4  0
 13 21  4  0
 15 23  4  0
 17 19  4  0
 17 20  4  0
 18 22  4  0
 19 21  4  0
M  END
$$$$

 Created by Python create_sdf_string function

 23 25  0  0  0  0  0  0  0  0999 V2000
    2.4610   -5.3070   29.1240 C   0  0  0  0  0  0  0  0  0  0  0  0
    4.7710   -4.6952   28.4803 C   0  0  0  0  0  0  0  0  0  0  0  0
    3.4047   -5.1087   28.1314 C   0  0  0  0  0  0  0  0  0  0  0  0
   -0.2234  -11.8615   16.8874 C   0  0  0  0  0  0  0  0  0  0  0  0
    6.4491   -4.1532   30.1213 C   0  0  0  0  0  0  0  0  0  0  0  0
    5.7060   -4.4340   27.4975 C   0  0  0  0  0  0  0  0  0  0  0  0
    1.1818   -5.6612   28.8399 C   0  0  0  0  0  0  0  0  0  0  0  0
   -1.2067   -7.3287   17.7772 C   0  0  0  0  0  0  0  0  0  0  0  0
   -0.0206  -10.5585   16.6210 C   0  0  0  0  0  0  0  0  0  0  0  0
    0.3696  -12.7626   16.2169 O   0  0  0  0  0  0  0  0  0  0  0  0
   -0.6895   -9.5676   17.3297 C   0  0  0  0  0  0  0  0  0  0  0  0
    0.8388   -5.8417   27.5264 C   0  0  0  0  0  0  0  0  0  0  0  0
   -2.0709   -7.6637   18.7817 C   0  0  0  0  0  0  0  0  0  0  0  0
   -0.5279   -8.2168   17.0717 C   0  0  0  0  0  0  0  0  0  0  0  0
    6.9694   -4.0191   27.8190 C   0  0  0  0  0  0  0  0  0  0  0  0
    5.1733   -4.5469   29.8123 C   0  0  0  0  0  0  0  0  0  0  0  0
   -1.7508  -11.3016   18.6072 C   0  0  0  0  0  0  0  0  0  0  0  0
    1.7497   -5.6771   26.4971 C   0  0  0  0  0  0  0  0  0  0  0  0
   -1.5799   -9.9322   18.3468 C   0  0  0  0  0  0  0  0  0  0  0  0
   -1.0871  -12.2214   17.8851 C   0  0  0  0  0  0  0  0  0  0  0  0
   -2.2706   -8.9669   19.0691 C   0  0  0  0  0  0  0  0  0  0  0  0
    3.0279   -5.3073   26.8197 C   0  0  0  0  0  0  0  0  0  0  0  0
    7.3282   -3.8948   29.1186 C   0  0  0  0  0  0  0  0  0  0  0  0
  1  3  4  0
  1  7  4  0
  2  3  1  0
  2  6  4  0
  2 16  4  0
  3 22  4  0
  4  9  4  0
  4 10  1  0
  4 20  4  0
  5 16  4  0
  5 23  4  0
  6 15  4  0
  7 12  4  0
  8 13  4  0
  8 14  4  0
  9 11  4  0
 11 14  4  0
 11 19  4  0
 12 18  4  0
 13 21  4  0
 15 23  4  0
 17 19  4  0
 17 20  4  0
 18 22  4  0
 19 21  4  0
M  END
$$$$

 Created by Python create_sdf_string function

 23 25  0  0  0  0  0  0  0  0999 V2000
    2.4610   -5.3070   29.1240 C   0  0  0  0  0  0  0  0  0  0  0  0
    4.7710   -4.6952   28.4803 C   0  0  0  0  0  0  0  0  0  0  0  0
    3.4047   -5.1087   28.1314 C   0  0  0  0  0  0  0  0  0  0  0  0
   -0.2234  -11.8615   16.8874 C   0  0  0  0  0  0  0  0  0  0  0  0
    6.4491   -4.1532   30.1213 C   0  0  0  0  0  0  0  0  0  0  0  0
    5.7060   -4.4340   27.4975 C   0  0  0  0  0  0  0  0  0  0  0  0
    1.1818   -5.6612   28.8399 C   0  0  0  0  0  0  0  0  0  0  0  0
   -1.2067   -7.3287   17.7772 C   0  0  0  0  0  0  0  0  0  0  0  0
   -0.0206  -10.5585   16.6210 C   0  0  0  0  0  0  0  0  0  0  0  0
    0.3696  -12.7626   16.2169 O   0  0  0  0  0  0  0  0  0  0  0  0
   -0.6895   -9.5676   17.3297 C   0  0  0  0  0  0  0  0  0  0  0  0
    0.8388   -5.8417   27.5264 C   0  0  0  0  0  0  0  0  0  0  0  0
   -2.0709   -7.6637   18.7817 C   0  0  0  0  0  0  0  0  0  0  0  0
   -0.5279   -8.2168   17.0717 C   0  0  0  0  0  0  0  0  0  0  0  0
    6.9694   -4.0191   27.8190 C   0  0  0  0  0  0  0  0  0  0  0  0
    5.1733   -4.5469   29.8123 C   0  0  0  0  0  0  0  0  0  0  0  0
   -1.7508  -11.3016   18.6072 C   0  0  0  0  0  0  0  0  0  0  0  0
    1.7497   -5.6771   26.4971 C   0  0  0  0  0  0  0  0  0  0  0  0
   -1.5799   -9.9322   18.3468 C   0  0  0  0  0  0  0  0  0  0  0  0
   -1.0871  -12.2214   17.8851 C   0  0  0  0  0  0  0  0  0  0  0  0
   -2.2706   -8.9669   19.0691 C   0  0  0  0  0  0  0  0  0  0  0  0
    3.0279   -5.3073   26.8197 C   0  0  0  0  0  0  0  0  0  0  0  0
    7.3282   -3.8948   29.1186 C   0  0  0  0  0  0  0  0  0  0  0  0
  1  3  4  0
  1  7  4  0
  2  3  1  0
  2  6  4  0
  2 16  4  0
  3 22  4  0
  4  9  4  0
  4 10  1  0
  4 20  4  0
  5 16  4  0
  5 23  4  0
  6 15  4  0
  7 12  4  0
  8 13  4  0
  8 14  4  0
  9 11  4  0
 11 14  4  0
 11 19  4  0
 12 18  4  0
 13 21  4  0
 15 23  4  0
 17 19  4  0
 17 20  4  0
 18 22  4  0
 19 21  4  0
M  END
$$$$

 Created by Python create_sdf_string function

 23 25  0  0  0  0  0  0  0  0999 V2000
    2.4610   -5.3070   29.1240 C   0  0  0  0  0  0  0  0  0  0  0  0
    4.7710   -4.6952   28.4803 C   0  0  0  0  0  0  0  0  0  0  0  0
    3.4047   -5.1087   28.1314 C   0  0  0  0  0  0  0  0  0  0  0  0
   -0.2234  -11.8615   16.8874 C   0  0  0  0  0  0  0  0  0  0  0  0
    6.4491   -4.1532   30.1213 C   0  0  0  0  0  0  0  0  0  0  0  0
    5.7060   -4.4340   27.4975 C   0  0  0  0  0  0  0  0  0  0  0  0
    1.1818   -5.6612   28.8399 C   0  0  0  0  0  0  0  0  0  0  0  0
   -1.2067   -7.3287   17.7772 C   0  0  0  0  0  0  0  0  0  0  0  0
   -0.0206  -10.5585   16.6210 C   0  0  0  0  0  0  0  0  0  0  0  0
    0.3696  -12.7626   16.2169 O   0  0  0  0  0  0  0  0  0  0  0  0
   -0.6895   -9.5676   17.3297 C   0  0  0  0  0  0  0  0  0  0  0  0
    0.8388   -5.8417   27.5264 C   0  0  0  0  0  0  0  0  0  0  0  0
   -2.0709   -7.6637   18.7817 C   0  0  0  0  0  0  0  0  0  0  0  0
   -0.5279   -8.2168   17.0717 C   0  0  0  0  0  0  0  0  0  0  0  0
    6.9694   -4.0191   27.8190 C   0  0  0  0  0  0  0  0  0  0  0  0
    5.1733   -4.5469   29.8123 C   0  0  0  0  0  0  0  0  0  0  0  0
   -1.7508  -11.3016   18.6072 C   0  0  0  0  0  0  0  0  0  0  0  0
    1.7497   -5.6771   26.4971 C   0  0  0  0  0  0  0  0  0  0  0  0
   -1.5799   -9.9322   18.3468 C   0  0  0  0  0  0  0  0  0  0  0  0
   -1.0871  -12.2214   17.8851 C   0  0  0  0  0  0  0  0  0  0  0  0
   -2.2706   -8.9669   19.0691 C   0  0  0  0  0  0  0  0  0  0  0  0
    3.0279   -5.3073   26.8197 C   0  0  0  0  0  0  0  0  0  0  0  0
    7.3282   -3.8948   29.1186 C   0  0  0  0  0  0  0  0  0  0  0  0
  1  3  4  0
  1  7  4  0
  2  3  1  0
  2  6  4  0
  2 16  4  0
  3 22  4  0
  4  9  4  0
  4 10  1  0
  4 20  4  0
  5 16  4  0
  5 23  4  0
  6 15  4  0
  7 12  4  0
  8 13  4  0
  8 14  4  0
  9 11  4  0
 11 14  4  0
 11 19  4  0
 12 18  4  0
 13 21  4  0
 15 23  4  0
 17 19  4  0
 17 20  4  0
 18 22  4  0
 19 21  4  0
M  END
$$$$

 Created by Python create_sdf_string function

 23 25  0  0  0  0  0  0  0  0999 V2000
    2.4610   -5.3070   29.1240 C   0  0  0  0  0  0  0  0  0  0  0  0
    4.7710   -4.6952   28.4803 C   0  0  0  0  0  0  0  0  0  0  0  0
    3.4047   -5.1087   28.1314 C   0  0  0  0  0  0  0  0  0  0  0  0
   -0.2234  -11.8615   16.8874 C   0  0  0  0  0  0  0  0  0  0  0  0
    6.4491   -4.1532   30.1213 C   0  0  0  0  0  0  0  0  0  0  0  0
    5.7060   -4.4340   27.4975 C   0  0  0  0  0  0  0  0  0  0  0  0
    1.1818   -5.6612   28.8399 C   0  0  0  0  0  0  0  0  0  0  0  0
   -1.2067   -7.3287   17.7772 C   0  0  0  0  0  0  0  0  0  0  0  0
   -0.0206  -10.5585   16.6210 C   0  0  0  0  0  0  0  0  0  0  0  0
    0.3696  -12.7626   16.2169 O   0  0  0  0  0  0  0  0  0  0  0  0
   -0.6895   -9.5676   17.3297 C   0  0  0  0  0  0  0  0  0  0  0  0
    0.8388   -5.8417   27.5264 C   0  0  0  0  0  0  0  0  0  0  0  0
   -2.0709   -7.6637   18.7817 C   0  0  0  0  0  0  0  0  0  0  0  0
   -0.5279   -8.2168   17.0717 C   0  0  0  0  0  0  0  0  0  0  0  0
    6.9694   -4.0191   27.8190 C   0  0  0  0  0  0  0  0  0  0  0  0
    5.1733   -4.5469   29.8123 C   0  0  0  0  0  0  0  0  0  0  0  0
   -1.7508  -11.3016   18.6072 C   0  0  0  0  0  0  0  0  0  0  0  0
    1.7497   -5.6771   26.4971 C   0  0  0  0  0  0  0  0  0  0  0  0
   -1.5799   -9.9322   18.3468 C   0  0  0  0  0  0  0  0  0  0  0  0
   -1.0871  -12.2214   17.8851 C   0  0  0  0  0  0  0  0  0  0  0  0
   -2.2706   -8.9669   19.0691 C   0  0  0  0  0  0  0  0  0  0  0  0
    3.0279   -5.3073   26.8197 C   0  0  0  0  0  0  0  0  0  0  0  0
    7.3282   -3.8948   29.1186 C   0  0  0  0  0  0  0  0  0  0  0  0
  1  3  4  0
  1  7  4  0
  2  3  1  0
  2  6  4  0
  2 16  4  0
  3 22  4  0
  4  9  4  0
  4 10  1  0
  4 20  4  0
  5 16  4  0
  5 23  4  0
  6 15  4  0
  7 12  4  0
  8 13  4  0
  8 14  4  0
  9 11  4  0
 11 14  4  0
 11 19  4  0
 12 18  4  0
 13 21  4  0
 15 23  4  0
 17 19  4  0
 17 20  4  0
 18 22  4  0
 19 21  4  0
M  END
$$$$

 Created by Python create_sdf_string function

 23 25  0  0  0  0  0  0  0  0999 V2000
    2.4610   -5.3070   29.1240 C   0  0  0  0  0  0  0  0  0  0  0  0
    4.7710   -4.6952   28.4803 C   0  0  0  0  0  0  0  0  0  0  0  0
    3.4047   -5.1087   28.1314 C   0  0  0  0  0  0  0  0  0  0  0  0
   -0.2234  -11.8615   16.8874 C   0  0  0  0  0  0  0  0  0  0  0  0
    6.4491   -4.1532   30.1213 C   0  0  0  0  0  0  0  0  0  0  0  0
    5.7060   -4.4340   27.4975 C   0  0  0  0  0  0  0  0  0  0  0  0
    1.1818   -5.6612   28.8399 C   0  0  0  0  0  0  0  0  0  0  0  0
   -1.2067   -7.3287   17.7772 C   0  0  0  0  0  0  0  0  0  0  0  0
   -0.0206  -10.5585   16.6210 C   0  0  0  0  0  0  0  0  0  0  0  0
    0.3696  -12.7626   16.2169 O   0  0  0  0  0  0  0  0  0  0  0  0
   -0.6895   -9.5676   17.3297 C   0  0  0  0  0  0  0  0  0  0  0  0
    0.8388   -5.8417   27.5264 C   0  0  0  0  0  0  0  0  0  0  0  0
   -2.0709   -7.6637   18.7817 C   0  0  0  0  0  0  0  0  0  0  0  0
   -0.5279   -8.2168   17.0717 C   0  0  0  0  0  0  0  0  0  0  0  0
    6.9694   -4.0191   27.8190 C   0  0  0  0  0  0  0  0  0  0  0  0
    5.1733   -4.5469   29.8123 C   0  0  0  0  0  0  0  0  0  0  0  0
   -1.7508  -11.3016   18.6072 C   0  0  0  0  0  0  0  0  0  0  0  0
    1.7497   -5.6771   26.4971 C   0  0  0  0  0  0  0  0  0  0  0  0
   -1.5799   -9.9322   18.3468 C   0  0  0  0  0  0  0  0  0  0  0  0
   -1.0871  -12.2214   17.8851 C   0  0  0  0  0  0  0  0  0  0  0  0
   -2.2706   -8.9669   19.0691 C   0  0  0  0  0  0  0  0  0  0  0  0
    3.0279   -5.3073   26.8197 C   0  0  0  0  0  0  0  0  0  0  0  0
    7.3282   -3.8948   29.1186 C   0  0  0  0  0  0  0  0  0  0  0  0
  1  3  4  0
  1  7  4  0
  2  3  1  0
  2  6  4  0
  2 16  4  0
  3 22  4  0
  4  9  4  0
  4 10  1  0
  4 20  4  0
  5 16  4  0
  5 23  4  0
  6 15  4  0
  7 12  4  0
  8 13  4  0
  8 14  4  0
  9 11  4  0
 11 14  4  0
 11 19  4  0
 12 18  4  0
 13 21  4  0
 15 23  4  0
 17 19  4  0
 17 20  4  0
 18 22  4  0
 19 21  4  0
M  END
$$$$

 Created by Python create_sdf_string function

 23 25  0  0  0  0  0  0  0  0999 V2000
    2.4610   -5.3070   29.1240 C   0  0  0  0  0  0  0  0  0  0  0  0
    4.7710   -4.6952   28.4803 C   0  0  0  0  0  0  0  0  0  0  0  0
    3.4047   -5.1087   28.1314 C   0  0  0  0  0  0  0  0  0  0  0  0
   -0.2234  -11.8615   16.8874 C   0  0  0  0  0  0  0  0  0  0  0  0
    6.4491   -4.1532   30.1213 C   0  0  0  0  0  0  0  0  0  0  0  0
    5.7060   -4.4340   27.4975 C   0  0  0  0  0  0  0  0  0  0  0  0
    1.1818   -5.6612   28.8399 C   0  0  0  0  0  0  0  0  0  0  0  0
   -1.2067   -7.3287   17.7772 C   0  0  0  0  0  0  0  0  0  0  0  0
   -0.0206  -10.5585   16.6210 C   0  0  0  0  0  0  0  0  0  0  0  0
    0.3696  -12.7626   16.2169 O   0  0  0  0  0  0  0  0  0  0  0  0
   -0.6895   -9.5676   17.3297 C   0  0  0  0  0  0  0  0  0  0  0  0
    0.8388   -5.8417   27.5264 C   0  0  0  0  0  0  0  0  0  0  0  0
   -2.0709   -7.6637   18.7817 C   0  0  0  0  0  0  0  0  0  0  0  0
   -0.5279   -8.2168   17.0717 C   0  0  0  0  0  0  0  0  0  0  0  0
    6.9694   -4.0191   27.8190 C   0  0  0  0  0  0  0  0  0  0  0  0
    5.1733   -4.5469   29.8123 C   0  0  0  0  0  0  0  0  0  0  0  0
   -1.7508  -11.3016   18.6072 C   0  0  0  0  0  0  0  0  0  0  0  0
    1.7497   -5.6771   26.4971 C   0  0  0  0  0  0  0  0  0  0  0  0
   -1.5799   -9.9322   18.3468 C   0  0  0  0  0  0  0  0  0  0  0  0
   -1.0871  -12.2214   17.8851 C   0  0  0  0  0  0  0  0  0  0  0  0
   -2.2706   -8.9669   19.0691 C   0  0  0  0  0  0  0  0  0  0  0  0
    3.0279   -5.3073   26.8197 C   0  0  0  0  0  0  0  0  0  0  0  0
    7.3282   -3.8948   29.1186 C   0  0  0  0  0  0  0  0  0  0  0  0
  1  3  4  0
  1  7  4  0
  2  3  1  0
  2  6  4  0
  2 16  4  0
  3 22  4  0
  4  9  4  0
  4 10  1  0
  4 20  4  0
  5 16  4  0
  5 23  4  0
  6 15  4  0
  7 12  4  0
  8 13  4  0
  8 14  4  0
  9 11  4  0
 11 14  4  0
 11 19  4  0
 12 18  4  0
 13 21  4  0
 15 23  4  0
 17 19  4  0
 17 20  4  0
 18 22  4  0
 19 21  4  0
M  END
$$$$

 Created by Python create_sdf_string function

 23 25  0  0  0  0  0  0  0  0999 V2000
    2.4610   -5.3070   29.1240 C   0  0  0  0  0  0  0  0  0  0  0  0
    4.7710   -4.6952   28.4803 C   0  0  0  0  0  0  0  0  0  0  0  0
    3.4047   -5.1087   28.1314 C   0  0  0  0  0  0  0  0  0  0  0  0
   -0.2234  -11.8615   16.8874 C   0  0  0  0  0  0  0  0  0  0  0  0
    6.4491   -4.1532   30.1213 C   0  0  0  0  0  0  0  0  0  0  0  0
    5.7060   -4.4340   27.4975 C   0  0  0  0  0  0  0  0  0  0  0  0
    1.1818   -5.6612   28.8399 C   0  0  0  0  0  0  0  0  0  0  0  0
   -1.2067   -7.3287   17.7772 C   0  0  0  0  0  0  0  0  0  0  0  0
   -0.0206  -10.5585   16.6210 C   0  0  0  0  0  0  0  0  0  0  0  0
    0.3696  -12.7626   16.2169 O   0  0  0  0  0  0  0  0  0  0  0  0
   -0.6895   -9.5676   17.3297 C   0  0  0  0  0  0  0  0  0  0  0  0
    0.8388   -5.8417   27.5264 C   0  0  0  0  0  0  0  0  0  0  0  0
   -2.0709   -7.6637   18.7817 C   0  0  0  0  0  0  0  0  0  0  0  0
   -0.5279   -8.2168   17.0717 C   0  0  0  0  0  0  0  0  0  0  0  0
    6.9694   -4.0191   27.8190 C   0  0  0  0  0  0  0  0  0  0  0  0
    5.1733   -4.5469   29.8123 C   0  0  0  0  0  0  0  0  0  0  0  0
   -1.7508  -11.3016   18.6072 C   0  0  0  0  0  0  0  0  0  0  0  0
    1.7497   -5.6771   26.4971 C   0  0  0  0  0  0  0  0  0  0  0  0
   -1.5799   -9.9322   18.3468 C   0  0  0  0  0  0  0  0  0  0  0  0
   -1.0871  -12.2214   17.8851 C   0  0  0  0  0  0  0  0  0  0  0  0
   -2.2706   -8.9669   19.0691 C   0  0  0  0  0  0  0  0  0  0  0  0
    3.0279   -5.3073   26.8197 C   0  0  0  0  0  0  0  0  0  0  0  0
    7.3282   -3.8948   29.1186 C   0  0  0  0  0  0  0  0  0  0  0  0
  1  3  4  0
  1  7  4  0
  2  3  1  0
  2  6  4  0
  2 16  4  0
  3 22  4  0
  4  9  4  0
  4 10  1  0
  4 20  4  0
  5 16  4  0
  5 23  4  0
  6 15  4  0
  7 12  4  0
  8 13  4  0
  8 14  4  0
  9 11  4  0
 11 14  4  0
 11 19  4  0
 12 18  4  0
 13 21  4  0
 15 23  4  0
 17 19  4  0
 17 20  4  0
 18 22  4  0
 19 21  4  0
M  END
$$$$

 Created by Python create_sdf_string function

 23 25  0  0  0  0  0  0  0  0999 V2000
    2.4610   -5.3070   29.1240 C   0  0  0  0  0  0  0  0  0  0  0  0
    4.7710   -4.6952   28.4803 C   0  0  0  0  0  0  0  0  0  0  0  0
    3.4047   -5.1087   28.1314 C   0  0  0  0  0  0  0  0  0  0  0  0
   -0.2234  -11.8615   16.8874 C   0  0  0  0  0  0  0  0  0  0  0  0
    6.4491   -4.1532   30.1213 C   0  0  0  0  0  0  0  0  0  0  0  0
    5.7060   -4.4340   27.4975 C   0  0  0  0  0  0  0  0  0  0  0  0
    1.1818   -5.6612   28.8399 C   0  0  0  0  0  0  0  0  0  0  0  0
   -1.2067   -7.3287   17.7772 C   0  0  0  0  0  0  0  0  0  0  0  0
   -0.0206  -10.5585   16.6210 C   0  0  0  0  0  0  0  0  0  0  0  0
    0.3696  -12.7626   16.2169 O   0  0  0  0  0  0  0  0  0  0  0  0
   -0.6895   -9.5676   17.3297 C   0  0  0  0  0  0  0  0  0  0  0  0
    0.8388   -5.8417   27.5264 C   0  0  0  0  0  0  0  0  0  0  0  0
   -2.0709   -7.6637   18.7817 C   0  0  0  0  0  0  0  0  0  0  0  0
   -0.5279   -8.2168   17.0717 C   0  0  0  0  0  0  0  0  0  0  0  0
    6.9694   -4.0191   27.8190 C   0  0  0  0  0  0  0  0  0  0  0  0
    5.1733   -4.5469   29.8123 C   0  0  0  0  0  0  0  0  0  0  0  0
   -1.7508  -11.3016   18.6072 C   0  0  0  0  0  0  0  0  0  0  0  0
    1.7497   -5.6771   26.4971 C   0  0  0  0  0  0  0  0  0  0  0  0
   -1.5799   -9.9322   18.3468 C   0  0  0  0  0  0  0  0  0  0  0  0
   -1.0871  -12.2214   17.8851 C   0  0  0  0  0  0  0  0  0  0  0  0
   -2.2706   -8.9669   19.0691 C   0  0  0  0  0  0  0  0  0  0  0  0
    3.0279   -5.3073   26.8197 C   0  0  0  0  0  0  0  0  0  0  0  0
    7.3282   -3.8948   29.1186 C   0  0  0  0  0  0  0  0  0  0  0  0
  1  3  4  0
  1  7  4  0
  2  3  1  0
  2  6  4  0
  2 16  4  0
  3 22  4  0
  4  9  4  0
  4 10  1  0
  4 20  4  0
  5 16  4  0
  5 23  4  0
  6 15  4  0
  7 12  4  0
  8 13  4  0
  8 14  4  0
  9 11  4  0
 11 14  4  0
 11 19  4  0
 12 18  4  0
 13 21  4  0
 15 23  4  0
 17 19  4  0
 17 20  4  0
 18 22  4  0
 19 21  4  0
M  END
$$$$

 Created by Python create_sdf_string function

 23 25  0  0  0  0  0  0  0  0999 V2000
    2.4610   -5.3070   29.1240 C   0  0  0  0  0  0  0  0  0  0  0  0
    4.7710   -4.6952   28.4803 C   0  0  0  0  0  0  0  0  0  0  0  0
    3.4047   -5.1087   28.1314 C   0  0  0  0  0  0  0  0  0  0  0  0
   -0.2234  -11.8615   16.8874 C   0  0  0  0  0  0  0  0  0  0  0  0
    6.4491   -4.1532   30.1213 C   0  0  0  0  0  0  0  0  0  0  0  0
    5.7060   -4.4340   27.4975 C   0  0  0  0  0  0  0  0  0  0  0  0
    1.1818   -5.6612   28.8399 C   0  0  0  0  0  0  0  0  0  0  0  0
   -1.2067   -7.3287   17.7772 C   0  0  0  0  0  0  0  0  0  0  0  0
   -0.0206  -10.5585   16.6210 C   0  0  0  0  0  0  0  0  0  0  0  0
    0.3696  -12.7626   16.2169 O   0  0  0  0  0  0  0  0  0  0  0  0
   -0.6895   -9.5676   17.3297 C   0  0  0  0  0  0  0  0  0  0  0  0
    0.8388   -5.8417   27.5264 C   0  0  0  0  0  0  0  0  0  0  0  0
   -2.0709   -7.6637   18.7817 C   0  0  0  0  0  0  0  0  0  0  0  0
   -0.5279   -8.2168   17.0717 C   0  0  0  0  0  0  0  0  0  0  0  0
    6.9694   -4.0191   27.8190 C   0  0  0  0  0  0  0  0  0  0  0  0
    5.1733   -4.5469   29.8123 C   0  0  0  0  0  0  0  0  0  0  0  0
   -1.7508  -11.3016   18.6072 C   0  0  0  0  0  0  0  0  0  0  0  0
    1.7497   -5.6771   26.4971 C   0  0  0  0  0  0  0  0  0  0  0  0
   -1.5799   -9.9322   18.3468 C   0  0  0  0  0  0  0  0  0  0  0  0
   -1.0871  -12.2214   17.8851 C   0  0  0  0  0  0  0  0  0  0  0  0
   -2.2706   -8.9669   19.0691 C   0  0  0  0  0  0  0  0  0  0  0  0
    3.0279   -5.3073   26.8197 C   0  0  0  0  0  0  0  0  0  0  0  0
    7.3282   -3.8948   29.1186 C   0  0  0  0  0  0  0  0  0  0  0  0
  1  3  4  0
  1  7  4  0
  2  3  1  0
  2  6  4  0
  2 16  4  0
  3 22  4  0
  4  9  4  0
  4 10  1  0
  4 20  4  0
  5 16  4  0
  5 23  4  0
  6 15  4  0
  7 12  4  0
  8 13  4  0
  8 14  4  0
  9 11  4  0
 11 14  4  0
 11 19  4  0
 12 18  4  0
 13 21  4  0
 15 23  4  0
 17 19  4  0
 17 20  4  0
 18 22  4  0
 19 21  4  0
M  END
$$$$

 Created by Python create_sdf_string function

 23 25  0  0  0  0  0  0  0  0999 V2000
    2.4610   -5.3070   29.1240 C   0  0  0  0  0  0  0  0  0  0  0  0
    4.7710   -4.6952   28.4803 C   0  0  0  0  0  0  0  0  0  0  0  0
    3.4047   -5.1087   28.1314 C   0  0  0  0  0  0  0  0  0  0  0  0
   -0.2234  -11.8615   16.8874 C   0  0  0  0  0  0  0  0  0  0  0  0
    6.4491   -4.1532   30.1213 C   0  0  0  0  0  0  0  0  0  0  0  0
    5.7060   -4.4340   27.4975 C   0  0  0  0  0  0  0  0  0  0  0  0
    1.1818   -5.6612   28.8399 C   0  0  0  0  0  0  0  0  0  0  0  0
   -1.2067   -7.3287   17.7772 C   0  0  0  0  0  0  0  0  0  0  0  0
   -0.0206  -10.5585   16.6210 C   0  0  0  0  0  0  0  0  0  0  0  0
    0.3696  -12.7626   16.2169 O   0  0  0  0  0  0  0  0  0  0  0  0
   -0.6895   -9.5676   17.3297 C   0  0  0  0  0  0  0  0  0  0  0  0
    0.8388   -5.8417   27.5264 C   0  0  0  0  0  0  0  0  0  0  0  0
   -2.0709   -7.6637   18.7817 C   0  0  0  0  0  0  0  0  0  0  0  0
   -0.5279   -8.2168   17.0717 C   0  0  0  0  0  0  0  0  0  0  0  0
    6.9694   -4.0191   27.8190 C   0  0  0  0  0  0  0  0  0  0  0  0
    5.1733   -4.5469   29.8123 C   0  0  0  0  0  0  0  0  0  0  0  0
   -1.7508  -11.3016   18.6072 C   0  0  0  0  0  0  0  0  0  0  0  0
    1.7497   -5.6771   26.4971 C   0  0  0  0  0  0  0  0  0  0  0  0
   -1.5799   -9.9322   18.3468 C   0  0  0  0  0  0  0  0  0  0  0  0
   -1.0871  -12.2214   17.8851 C   0  0  0  0  0  0  0  0  0  0  0  0
   -2.2706   -8.9669   19.0691 C   0  0  0  0  0  0  0  0  0  0  0  0
    3.0279   -5.3073   26.8197 C   0  0  0  0  0  0  0  0  0  0  0  0
    7.3282   -3.8948   29.1186 C   0  0  0  0  0  0  0  0  0  0  0  0
  1  3  4  0
  1  7  4  0
  2  3  1  0
  2  6  4  0
  2 16  4  0
  3 22  4  0
  4  9  4  0
  4 10  1  0
  4 20  4  0
  5 16  4  0
  5 23  4  0
  6 15  4  0
  7 12  4  0
  8 13  4  0
  8 14  4  0
  9 11  4  0
 11 14  4  0
 11 19  4  0
 12 18  4  0
 13 21  4  0
 15 23  4  0
 17 19  4  0
 17 20  4  0
 18 22  4  0
 19 21  4  0
M  END
$$$$

 Created by Python create_sdf_string function

 23 25  0  0  0  0  0  0  0  0999 V2000
    2.4610   -5.3070   29.1240 C   0  0  0  0  0  0  0  0  0  0  0  0
    4.7710   -4.6952   28.4803 C   0  0  0  0  0  0  0  0  0  0  0  0
    3.4047   -5.1087   28.1314 C   0  0  0  0  0  0  0  0  0  0  0  0
   -0.2234  -11.8615   16.8874 C   0  0  0  0  0  0  0  0  0  0  0  0
    6.4491   -4.1532   30.1213 C   0  0  0  0  0  0  0  0  0  0  0  0
    5.7060   -4.4340   27.4975 C   0  0  0  0  0  0  0  0  0  0  0  0
    1.1818   -5.6612   28.8399 C   0  0  0  0  0  0  0  0  0  0  0  0
   -1.2067   -7.3287   17.7772 C   0  0  0  0  0  0  0  0  0  0  0  0
   -0.0206  -10.5585   16.6210 C   0  0  0  0  0  0  0  0  0  0  0  0
    0.3696  -12.7626   16.2169 O   0  0  0  0  0  0  0  0  0  0  0  0
   -0.6895   -9.5676   17.3297 C   0  0  0  0  0  0  0  0  0  0  0  0
    0.8388   -5.8417   27.5264 C   0  0  0  0  0  0  0  0  0  0  0  0
   -2.0709   -7.6637   18.7817 C   0  0  0  0  0  0  0  0  0  0  0  0
   -0.5279   -8.2168   17.0717 C   0  0  0  0  0  0  0  0  0  0  0  0
    6.9694   -4.0191   27.8190 C   0  0  0  0  0  0  0  0  0  0  0  0
    5.1733   -4.5469   29.8123 C   0  0  0  0  0  0  0  0  0  0  0  0
   -1.7508  -11.3016   18.6072 C   0  0  0  0  0  0  0  0  0  0  0  0
    1.7497   -5.6771   26.4971 C   0  0  0  0  0  0  0  0  0  0  0  0
   -1.5799   -9.9322   18.3468 C   0  0  0  0  0  0  0  0  0  0  0  0
   -1.0871  -12.2214   17.8851 C   0  0  0  0  0  0  0  0  0  0  0  0
   -2.2706   -8.9669   19.0691 C   0  0  0  0  0  0  0  0  0  0  0  0
    3.0279   -5.3073   26.8197 C   0  0  0  0  0  0  0  0  0  0  0  0
    7.3282   -3.8948   29.1186 C   0  0  0  0  0  0  0  0  0  0  0  0
  1  3  4  0
  1  7  4  0
  2  3  1  0
  2  6  4  0
  2 16  4  0
  3 22  4  0
  4  9  4  0
  4 10  1  0
  4 20  4  0
  5 16  4  0
  5 23  4  0
  6 15  4  0
  7 12  4  0
  8 13  4  0
  8 14  4  0
  9 11  4  0
 11 14  4  0
 11 19  4  0
 12 18  4  0
 13 21  4  0
 15 23  4  0
 17 19  4  0
 17 20  4  0
 18 22  4  0
 19 21  4  0
M  END
$$$$

 Created by Python create_sdf_string function

 23 25  0  0  0  0  0  0  0  0999 V2000
    2.4610   -5.3070   29.1240 C   0  0  0  0  0  0  0  0  0  0  0  0
    4.7710   -4.6952   28.4803 C   0  0  0  0  0  0  0  0  0  0  0  0
    3.4047   -5.1087   28.1314 C   0  0  0  0  0  0  0  0  0  0  0  0
   -0.2234  -11.8615   16.8874 C   0  0  0  0  0  0  0  0  0  0  0  0
    6.4491   -4.1532   30.1213 C   0  0  0  0  0  0  0  0  0  0  0  0
    5.7060   -4.4340   27.4975 C   0  0  0  0  0  0  0  0  0  0  0  0
    1.1818   -5.6612   28.8399 C   0  0  0  0  0  0  0  0  0  0  0  0
   -1.2067   -7.3287   17.7772 C   0  0  0  0  0  0  0  0  0  0  0  0
   -0.0206  -10.5585   16.6210 C   0  0  0  0  0  0  0  0  0  0  0  0
    0.3696  -12.7626   16.2169 O   0  0  0  0  0  0  0  0  0  0  0  0
   -0.6895   -9.5676   17.3297 C   0  0  0  0  0  0  0  0  0  0  0  0
    0.8388   -5.8417   27.5264 C   0  0  0  0  0  0  0  0  0  0  0  0
   -2.0709   -7.6637   18.7817 C   0  0  0  0  0  0  0  0  0  0  0  0
   -0.5279   -8.2168   17.0717 C   0  0  0  0  0  0  0  0  0  0  0  0
    6.9694   -4.0191   27.8190 C   0  0  0  0  0  0  0  0  0  0  0  0
    5.1733   -4.5469   29.8123 C   0  0  0  0  0  0  0  0  0  0  0  0
   -1.7508  -11.3016   18.6072 C   0  0  0  0  0  0  0  0  0  0  0  0
    1.7497   -5.6771   26.4971 C   0  0  0  0  0  0  0  0  0  0  0  0
   -1.5799   -9.9322   18.3468 C   0  0  0  0  0  0  0  0  0  0  0  0
   -1.0871  -12.2214   17.8851 C   0  0  0  0  0  0  0  0  0  0  0  0
   -2.2706   -8.9669   19.0691 C   0  0  0  0  0  0  0  0  0  0  0  0
    3.0279   -5.3073   26.8197 C   0  0  0  0  0  0  0  0  0  0  0  0
    7.3282   -3.8948   29.1186 C   0  0  0  0  0  0  0  0  0  0  0  0
  1  3  4  0
  1  7  4  0
  2  3  1  0
  2  6  4  0
  2 16  4  0
  3 22  4  0
  4  9  4  0
  4 10  1  0
  4 20  4  0
  5 16  4  0
  5 23  4  0
  6 15  4  0
  7 12  4  0
  8 13  4  0
  8 14  4  0
  9 11  4  0
 11 14  4  0
 11 19  4  0
 12 18  4  0
 13 21  4  0
 15 23  4  0
 17 19  4  0
 17 20  4  0
 18 22  4  0
 19 21  4  0
M  END
$$$$

 Created by Python create_sdf_string function

 23 25  0  0  0  0  0  0  0  0999 V2000
    2.4610   -5.3070   29.1240 C   0  0  0  0  0  0  0  0  0  0  0  0
    4.7710   -4.6952   28.4803 C   0  0  0  0  0  0  0  0  0  0  0  0
    3.4047   -5.1087   28.1314 C   0  0  0  0  0  0  0  0  0  0  0  0
   -0.2234  -11.8615   16.8874 C   0  0  0  0  0  0  0  0  0  0  0  0
    6.4491   -4.1532   30.1213 C   0  0  0  0  0  0  0  0  0  0  0  0
    5.7060   -4.4340   27.4975 C   0  0  0  0  0  0  0  0  0  0  0  0
    1.1818   -5.6612   28.8399 C   0  0  0  0  0  0  0  0  0  0  0  0
   -1.2067   -7.3287   17.7772 C   0  0  0  0  0  0  0  0  0  0  0  0
   -0.0206  -10.5585   16.6210 C   0  0  0  0  0  0  0  0  0  0  0  0
    0.3696  -12.7626   16.2169 O   0  0  0  0  0  0  0  0  0  0  0  0
   -0.6895   -9.5676   17.3297 C   0  0  0  0  0  0  0  0  0  0  0  0
    0.8388   -5.8417   27.5264 C   0  0  0  0  0  0  0  0  0  0  0  0
   -2.0709   -7.6637   18.7817 C   0  0  0  0  0  0  0  0  0  0  0  0
   -0.5279   -8.2168   17.0717 C   0  0  0  0  0  0  0  0  0  0  0  0
    6.9694   -4.0191   27.8190 C   0  0  0  0  0  0  0  0  0  0  0  0
    5.1733   -4.5469   29.8123 C   0  0  0  0  0  0  0  0  0  0  0  0
   -1.7508  -11.3016   18.6072 C   0  0  0  0  0  0  0  0  0  0  0  0
    1.7497   -5.6771   26.4971 C   0  0  0  0  0  0  0  0  0  0  0  0
   -1.5799   -9.9322   18.3468 C   0  0  0  0  0  0  0  0  0  0  0  0
   -1.0871  -12.2214   17.8851 C   0  0  0  0  0  0  0  0  0  0  0  0
   -2.2706   -8.9669   19.0691 C   0  0  0  0  0  0  0  0  0  0  0  0
    3.0279   -5.3073   26.8197 C   0  0  0  0  0  0  0  0  0  0  0  0
    7.3282   -3.8948   29.1186 C   0  0  0  0  0  0  0  0  0  0  0  0
  1  3  4  0
  1  7  4  0
  2  3  1  0
  2  6  4  0
  2 16  4  0
  3 22  4  0
  4  9  4  0
  4 10  1  0
  4 20  4  0
  5 16  4  0
  5 23  4  0
  6 15  4  0
  7 12  4  0
  8 13  4  0
  8 14  4  0
  9 11  4  0
 11 14  4  0
 11 19  4  0
 12 18  4  0
 13 21  4  0
 15 23  4  0
 17 19  4  0
 17 20  4  0
 18 22  4  0
 19 21  4  0
M  END
$$$$

 Created by Python create_sdf_string function

 23 25  0  0  0  0  0  0  0  0999 V2000
    2.4610   -5.3070   29.1240 C   0  0  0  0  0  0  0  0  0  0  0  0
    4.7710   -4.6952   28.4803 C   0  0  0  0  0  0  0  0  0  0  0  0
    3.4047   -5.1087   28.1314 C   0  0  0  0  0  0  0  0  0  0  0  0
   -0.2234  -11.8615   16.8874 C   0  0  0  0  0  0  0  0  0  0  0  0
    6.4491   -4.1532   30.1213 C   0  0  0  0  0  0  0  0  0  0  0  0
    5.7060   -4.4340   27.4975 C   0  0  0  0  0  0  0  0  0  0  0  0
    1.1818   -5.6612   28.8399 C   0  0  0  0  0  0  0  0  0  0  0  0
   -1.2067   -7.3287   17.7772 C   0  0  0  0  0  0  0  0  0  0  0  0
   -0.0206  -10.5585   16.6210 C   0  0  0  0  0  0  0  0  0  0  0  0
    0.3696  -12.7626   16.2169 O   0  0  0  0  0  0  0  0  0  0  0  0
   -0.6895   -9.5676   17.3297 C   0  0  0  0  0  0  0  0  0  0  0  0
    0.8388   -5.8417   27.5264 C   0  0  0  0  0  0  0  0  0  0  0  0
   -2.0709   -7.6637   18.7817 C   0  0  0  0  0  0  0  0  0  0  0  0
   -0.5279   -8.2168   17.0717 C   0  0  0  0  0  0  0  0  0  0  0  0
    6.9694   -4.0191   27.8190 C   0  0  0  0  0  0  0  0  0  0  0  0
    5.1733   -4.5469   29.8123 C   0  0  0  0  0  0  0  0  0  0  0  0
   -1.7508  -11.3016   18.6072 C   0  0  0  0  0  0  0  0  0  0  0  0
    1.7497   -5.6771   26.4971 C   0  0  0  0  0  0  0  0  0  0  0  0
   -1.5799   -9.9322   18.3468 C   0  0  0  0  0  0  0  0  0  0  0  0
   -1.0871  -12.2214   17.8851 C   0  0  0  0  0  0  0  0  0  0  0  0
   -2.2706   -8.9669   19.0691 C   0  0  0  0  0  0  0  0  0  0  0  0
    3.0279   -5.3073   26.8197 C   0  0  0  0  0  0  0  0  0  0  0  0
    7.3282   -3.8948   29.1186 C   0  0  0  0  0  0  0  0  0  0  0  0
  1  3  4  0
  1  7  4  0
  2  3  1  0
  2  6  4  0
  2 16  4  0
  3 22  4  0
  4  9  4  0
  4 10  1  0
  4 20  4  0
  5 16  4  0
  5 23  4  0
  6 15  4  0
  7 12  4  0
  8 13  4  0
  8 14  4  0
  9 11  4  0
 11 14  4  0
 11 19  4  0
 12 18  4  0
 13 21  4  0
 15 23  4  0
 17 19  4  0
 17 20  4  0
 18 22  4  0
 19 21  4  0
M  END
$$$$

 Created by Python create_sdf_string function

 23 25  0  0  0  0  0  0  0  0999 V2000
    2.4610   -5.3070   29.1240 C   0  0  0  0  0  0  0  0  0  0  0  0
    4.7710   -4.6952   28.4803 C   0  0  0  0  0  0  0  0  0  0  0  0
    3.4047   -5.1087   28.1314 C   0  0  0  0  0  0  0  0  0  0  0  0
   -0.2234  -11.8615   16.8874 C   0  0  0  0  0  0  0  0  0  0  0  0
    6.4491   -4.1532   30.1213 C   0  0  0  0  0  0  0  0  0  0  0  0
    5.7060   -4.4340   27.4975 C   0  0  0  0  0  0  0  0  0  0  0  0
    1.1818   -5.6612   28.8399 C   0  0  0  0  0  0  0  0  0  0  0  0
   -1.2067   -7.3287   17.7772 C   0  0  0  0  0  0  0  0  0  0  0  0
   -0.0206  -10.5585   16.6210 C   0  0  0  0  0  0  0  0  0  0  0  0
    0.3696  -12.7626   16.2169 O   0  0  0  0  0  0  0  0  0  0  0  0
   -0.6895   -9.5676   17.3297 C   0  0  0  0  0  0  0  0  0  0  0  0
    0.8388   -5.8417   27.5264 C   0  0  0  0  0  0  0  0  0  0  0  0
   -2.0709   -7.6637   18.7817 C   0  0  0  0  0  0  0  0  0  0  0  0
   -0.5279   -8.2168   17.0717 C   0  0  0  0  0  0  0  0  0  0  0  0
    6.9694   -4.0191   27.8190 C   0  0  0  0  0  0  0  0  0  0  0  0
    5.1733   -4.5469   29.8123 C   0  0  0  0  0  0  0  0  0  0  0  0
   -1.7508  -11.3016   18.6072 C   0  0  0  0  0  0  0  0  0  0  0  0
    1.7497   -5.6771   26.4971 C   0  0  0  0  0  0  0  0  0  0  0  0
   -1.5799   -9.9322   18.3468 C   0  0  0  0  0  0  0  0  0  0  0  0
   -1.0871  -12.2214   17.8851 C   0  0  0  0  0  0  0  0  0  0  0  0
   -2.2706   -8.9669   19.0691 C   0  0  0  0  0  0  0  0  0  0  0  0
    3.0279   -5.3073   26.8197 C   0  0  0  0  0  0  0  0  0  0  0  0
    7.3282   -3.8948   29.1186 C   0  0  0  0  0  0  0  0  0  0  0  0
  1  3  4  0
  1  7  4  0
  2  3  1  0
  2  6  4  0
  2 16  4  0
  3 22  4  0
  4  9  4  0
  4 10  1  0
  4 20  4  0
  5 16  4  0
  5 23  4  0
  6 15  4  0
  7 12  4  0
  8 13  4  0
  8 14  4  0
  9 11  4  0
 11 14  4  0
 11 19  4  0
 12 18  4  0
 13 21  4  0
 15 23  4  0
 17 19  4  0
 17 20  4  0
 18 22  4  0
 19 21  4  0
M  END
$$$$

 Created by Python create_sdf_string function

 23 25  0  0  0  0  0  0  0  0999 V2000
    2.4610   -5.3070   29.1240 C   0  0  0  0  0  0  0  0  0  0  0  0
    4.7710   -4.6952   28.4803 C   0  0  0  0  0  0  0  0  0  0  0  0
    3.4047   -5.1087   28.1314 C   0  0  0  0  0  0  0  0  0  0  0  0
   -0.2234  -11.8615   16.8874 C   0  0  0  0  0  0  0  0  0  0  0  0
    6.4491   -4.1532   30.1213 C   0  0  0  0  0  0  0  0  0  0  0  0
    5.7060   -4.4340   27.4975 C   0  0  0  0  0  0  0  0  0  0  0  0
    1.1818   -5.6612   28.8399 C   0  0  0  0  0  0  0  0  0  0  0  0
   -1.2067   -7.3287   17.7772 C   0  0  0  0  0  0  0  0  0  0  0  0
   -0.0206  -10.5585   16.6210 C   0  0  0  0  0  0  0  0  0  0  0  0
    0.3696  -12.7626   16.2169 O   0  0  0  0  0  0  0  0  0  0  0  0
   -0.6895   -9.5676   17.3297 C   0  0  0  0  0  0  0  0  0  0  0  0
    0.8388   -5.8417   27.5264 C   0  0  0  0  0  0  0  0  0  0  0  0
   -2.0709   -7.6637   18.7817 C   0  0  0  0  0  0  0  0  0  0  0  0
   -0.5279   -8.2168   17.0717 C   0  0  0  0  0  0  0  0  0  0  0  0
    6.9694   -4.0191   27.8190 C   0  0  0  0  0  0  0  0  0  0  0  0
    5.1733   -4.5469   29.8123 C   0  0  0  0  0  0  0  0  0  0  0  0
   -1.7508  -11.3016   18.6072 C   0  0  0  0  0  0  0  0  0  0  0  0
    1.7497   -5.6771   26.4971 C   0  0  0  0  0  0  0  0  0  0  0  0
   -1.5799   -9.9322   18.3468 C   0  0  0  0  0  0  0  0  0  0  0  0
   -1.0871  -12.2214   17.8851 C   0  0  0  0  0  0  0  0  0  0  0  0
   -2.2706   -8.9669   19.0691 C   0  0  0  0  0  0  0  0  0  0  0  0
    3.0279   -5.3073   26.8197 C   0  0  0  0  0  0  0  0  0  0  0  0
    7.3282   -3.8948   29.1186 C   0  0  0  0  0  0  0  0  0  0  0  0
  1  3  4  0
  1  7  4  0
  2  3  1  0
  2  6  4  0
  2 16  4  0
  3 22  4  0
  4  9  4  0
  4 10  1  0
  4 20  4  0
  5 16  4  0
  5 23  4  0
  6 15  4  0
  7 12  4  0
  8 13  4  0
  8 14  4  0
  9 11  4  0
 11 14  4  0
 11 19  4  0
 12 18  4  0
 13 21  4  0
 15 23  4  0
 17 19  4  0
 17 20  4  0
 18 22  4  0
 19 21  4  0
M  END
$$$$

 Created by Python create_sdf_string function

 23 25  0  0  0  0  0  0  0  0999 V2000
    2.4610   -5.3070   29.1240 C   0  0  0  0  0  0  0  0  0  0  0  0
    4.7710   -4.6952   28.4803 C   0  0  0  0  0  0  0  0  0  0  0  0
    3.4047   -5.1087   28.1314 C   0  0  0  0  0  0  0  0  0  0  0  0
   -0.2234  -11.8615   16.8874 C   0  0  0  0  0  0  0  0  0  0  0  0
    6.4491   -4.1532   30.1213 C   0  0  0  0  0  0  0  0  0  0  0  0
    5.7060   -4.4340   27.4975 C   0  0  0  0  0  0  0  0  0  0  0  0
    1.1818   -5.6612   28.8399 C   0  0  0  0  0  0  0  0  0  0  0  0
   -1.2067   -7.3287   17.7772 C   0  0  0  0  0  0  0  0  0  0  0  0
   -0.0206  -10.5585   16.6210 C   0  0  0  0  0  0  0  0  0  0  0  0
    0.3696  -12.7626   16.2169 O   0  0  0  0  0  0  0  0  0  0  0  0
   -0.6895   -9.5676   17.3297 C   0  0  0  0  0  0  0  0  0  0  0  0
    0.8388   -5.8417   27.5264 C   0  0  0  0  0  0  0  0  0  0  0  0
   -2.0709   -7.6637   18.7817 C   0  0  0  0  0  0  0  0  0  0  0  0
   -0.5279   -8.2168   17.0717 C   0  0  0  0  0  0  0  0  0  0  0  0
    6.9694   -4.0191   27.8190 C   0  0  0  0  0  0  0  0  0  0  0  0
    5.1733   -4.5469   29.8123 C   0  0  0  0  0  0  0  0  0  0  0  0
   -1.7508  -11.3016   18.6072 C   0  0  0  0  0  0  0  0  0  0  0  0
    1.7497   -5.6771   26.4971 C   0  0  0  0  0  0  0  0  0  0  0  0
   -1.5799   -9.9322   18.3468 C   0  0  0  0  0  0  0  0  0  0  0  0
   -1.0871  -12.2214   17.8851 C   0  0  0  0  0  0  0  0  0  0  0  0
   -2.2706   -8.9669   19.0691 C   0  0  0  0  0  0  0  0  0  0  0  0
    3.0279   -5.3073   26.8197 C   0  0  0  0  0  0  0  0  0  0  0  0
    7.3282   -3.8948   29.1186 C   0  0  0  0  0  0  0  0  0  0  0  0
  1  3  4  0
  1  7  4  0
  2  3  1  0
  2  6  4  0
  2 16  4  0
  3 22  4  0
  4  9  4  0
  4 10  1  0
  4 20  4  0
  5 16  4  0
  5 23  4  0
  6 15  4  0
  7 12  4  0
  8 13  4  0
  8 14  4  0
  9 11  4  0
 11 14  4  0
 11 19  4  0
 12 18  4  0
 13 21  4  0
 15 23  4  0
 17 19  4  0
 17 20  4  0
 18 22  4  0
 19 21  4  0
M  END
$$$$

 Created by Python create_sdf_string function

 23 25  0  0  0  0  0  0  0  0999 V2000
    2.4610   -5.3070   29.1240 C   0  0  0  0  0  0  0  0  0  0  0  0
    4.7710   -4.6952   28.4803 C   0  0  0  0  0  0  0  0  0  0  0  0
    3.4047   -5.1087   28.1314 C   0  0  0  0  0  0  0  0  0  0  0  0
   -0.2234  -11.8615   16.8874 C   0  0  0  0  0  0  0  0  0  0  0  0
    6.4491   -4.1532   30.1213 C   0  0  0  0  0  0  0  0  0  0  0  0
    5.7060   -4.4340   27.4975 C   0  0  0  0  0  0  0  0  0  0  0  0
    1.1818   -5.6612   28.8399 C   0  0  0  0  0  0  0  0  0  0  0  0
   -1.2067   -7.3287   17.7772 C   0  0  0  0  0  0  0  0  0  0  0  0
   -0.0206  -10.5585   16.6210 C   0  0  0  0  0  0  0  0  0  0  0  0
    0.3696  -12.7626   16.2169 O   0  0  0  0  0  0  0  0  0  0  0  0
   -0.6895   -9.5676   17.3297 C   0  0  0  0  0  0  0  0  0  0  0  0
    0.8388   -5.8417   27.5264 C   0  0  0  0  0  0  0  0  0  0  0  0
   -2.0709   -7.6637   18.7817 C   0  0  0  0  0  0  0  0  0  0  0  0
   -0.5279   -8.2168   17.0717 C   0  0  0  0  0  0  0  0  0  0  0  0
    6.9694   -4.0191   27.8190 C   0  0  0  0  0  0  0  0  0  0  0  0
    5.1733   -4.5469   29.8123 C   0  0  0  0  0  0  0  0  0  0  0  0
   -1.7508  -11.3016   18.6072 C   0  0  0  0  0  0  0  0  0  0  0  0
    1.7497   -5.6771   26.4971 C   0  0  0  0  0  0  0  0  0  0  0  0
   -1.5799   -9.9322   18.3468 C   0  0  0  0  0  0  0  0  0  0  0  0
   -1.0871  -12.2214   17.8851 C   0  0  0  0  0  0  0  0  0  0  0  0
   -2.2706   -8.9669   19.0691 C   0  0  0  0  0  0  0  0  0  0  0  0
    3.0279   -5.3073   26.8197 C   0  0  0  0  0  0  0  0  0  0  0  0
    7.3282   -3.8948   29.1186 C   0  0  0  0  0  0  0  0  0  0  0  0
  1  3  4  0
  1  7  4  0
  2  3  1  0
  2  6  4  0
  2 16  4  0
  3 22  4  0
  4  9  4  0
  4 10  1  0
  4 20  4  0
  5 16  4  0
  5 23  4  0
  6 15  4  0
  7 12  4  0
  8 13  4  0
  8 14  4  0
  9 11  4  0
 11 14  4  0
 11 19  4  0
 12 18  4  0
 13 21  4  0
 15 23  4  0
 17 19  4  0
 17 20  4  0
 18 22  4  0
 19 21  4  0
M  END
$$$$

 Created by Python create_sdf_string function

 23 25  0  0  0  0  0  0  0  0999 V2000
    2.4610   -5.3070   29.1240 C   0  0  0  0  0  0  0  0  0  0  0  0
    4.7710   -4.6952   28.4803 C   0  0  0  0  0  0  0  0  0  0  0  0
    3.4047   -5.1087   28.1314 C   0  0  0  0  0  0  0  0  0  0  0  0
   -0.2234  -11.8615   16.8874 C   0  0  0  0  0  0  0  0  0  0  0  0
    6.4491   -4.1532   30.1213 C   0  0  0  0  0  0  0  0  0  0  0  0
    5.7060   -4.4340   27.4975 C   0  0  0  0  0  0  0  0  0  0  0  0
    1.1818   -5.6612   28.8399 C   0  0  0  0  0  0  0  0  0  0  0  0
   -1.2067   -7.3287   17.7772 C   0  0  0  0  0  0  0  0  0  0  0  0
   -0.0206  -10.5585   16.6210 C   0  0  0  0  0  0  0  0  0  0  0  0
    0.3696  -12.7626   16.2169 O   0  0  0  0  0  0  0  0  0  0  0  0
   -0.6895   -9.5676   17.3297 C   0  0  0  0  0  0  0  0  0  0  0  0
    0.8388   -5.8417   27.5264 C   0  0  0  0  0  0  0  0  0  0  0  0
   -2.0709   -7.6637   18.7817 C   0  0  0  0  0  0  0  0  0  0  0  0
   -0.5279   -8.2168   17.0717 C   0  0  0  0  0  0  0  0  0  0  0  0
    6.9694   -4.0191   27.8190 C   0  0  0  0  0  0  0  0  0  0  0  0
    5.1733   -4.5469   29.8123 C   0  0  0  0  0  0  0  0  0  0  0  0
   -1.7508  -11.3016   18.6072 C   0  0  0  0  0  0  0  0  0  0  0  0
    1.7497   -5.6771   26.4971 C   0  0  0  0  0  0  0  0  0  0  0  0
   -1.5799   -9.9322   18.3468 C   0  0  0  0  0  0  0  0  0  0  0  0
   -1.0871  -12.2214   17.8851 C   0  0  0  0  0  0  0  0  0  0  0  0
   -2.2706   -8.9669   19.0691 C   0  0  0  0  0  0  0  0  0  0  0  0
    3.0279   -5.3073   26.8197 C   0  0  0  0  0  0  0  0  0  0  0  0
    7.3282   -3.8948   29.1186 C   0  0  0  0  0  0  0  0  0  0  0  0
  1  3  4  0
  1  7  4  0
  2  3  1  0
  2  6  4  0
  2 16  4  0
  3 22  4  0
  4  9  4  0
  4 10  1  0
  4 20  4  0
  5 16  4  0
  5 23  4  0
  6 15  4  0
  7 12  4  0
  8 13  4  0
  8 14  4  0
  9 11  4  0
 11 14  4  0
 11 19  4  0
 12 18  4  0
 13 21  4  0
 15 23  4  0
 17 19  4  0
 17 20  4  0
 18 22  4  0
 19 21  4  0
M  END
$$$$

 Created by Python create_sdf_string function

 23 25  0  0  0  0  0  0  0  0999 V2000
    2.4610   -5.3070   29.1240 C   0  0  0  0  0  0  0  0  0  0  0  0
    4.7710   -4.6952   28.4803 C   0  0  0  0  0  0  0  0  0  0  0  0
    3.4047   -5.1087   28.1314 C   0  0  0  0  0  0  0  0  0  0  0  0
   -0.2234  -11.8615   16.8874 C   0  0  0  0  0  0  0  0  0  0  0  0
    6.4491   -4.1532   30.1213 C   0  0  0  0  0  0  0  0  0  0  0  0
    5.7060   -4.4340   27.4975 C   0  0  0  0  0  0  0  0  0  0  0  0
    1.1818   -5.6612   28.8399 C   0  0  0  0  0  0  0  0  0  0  0  0
   -1.2067   -7.3287   17.7772 C   0  0  0  0  0  0  0  0  0  0  0  0
   -0.0206  -10.5585   16.6210 C   0  0  0  0  0  0  0  0  0  0  0  0
    0.3696  -12.7626   16.2169 O   0  0  0  0  0  0  0  0  0  0  0  0
   -0.6895   -9.5676   17.3297 C   0  0  0  0  0  0  0  0  0  0  0  0
    0.8388   -5.8417   27.5264 C   0  0  0  0  0  0  0  0  0  0  0  0
   -2.0709   -7.6637   18.7817 C   0  0  0  0  0  0  0  0  0  0  0  0
   -0.5279   -8.2168   17.0717 C   0  0  0  0  0  0  0  0  0  0  0  0
    6.9694   -4.0191   27.8190 C   0  0  0  0  0  0  0  0  0  0  0  0
    5.1733   -4.5469   29.8123 C   0  0  0  0  0  0  0  0  0  0  0  0
   -1.7508  -11.3016   18.6072 C   0  0  0  0  0  0  0  0  0  0  0  0
    1.7497   -5.6771   26.4971 C   0  0  0  0  0  0  0  0  0  0  0  0
   -1.5799   -9.9322   18.3468 C   0  0  0  0  0  0  0  0  0  0  0  0
   -1.0871  -12.2214   17.8851 C   0  0  0  0  0  0  0  0  0  0  0  0
   -2.2706   -8.9669   19.0691 C   0  0  0  0  0  0  0  0  0  0  0  0
    3.0279   -5.3073   26.8197 C   0  0  0  0  0  0  0  0  0  0  0  0
    7.3282   -3.8948   29.1186 C   0  0  0  0  0  0  0  0  0  0  0  0
  1  3  4  0
  1  7  4  0
  2  3  1  0
  2  6  4  0
  2 16  4  0
  3 22  4  0
  4  9  4  0
  4 10  1  0
  4 20  4  0
  5 16  4  0
  5 23  4  0
  6 15  4  0
  7 12  4  0
  8 13  4  0
  8 14  4  0
  9 11  4  0
 11 14  4  0
 11 19  4  0
 12 18  4  0
 13 21  4  0
 15 23  4  0
 17 19  4  0
 17 20  4  0
 18 22  4  0
 19 21  4  0
M  END
$$$$

 Created by Python create_sdf_string function

 23 25  0  0  0  0  0  0  0  0999 V2000
    2.4610   -5.3070   29.1240 C   0  0  0  0  0  0  0  0  0  0  0  0
    4.7710   -4.6952   28.4803 C   0  0  0  0  0  0  0  0  0  0  0  0
    3.4047   -5.1087   28.1314 C   0  0  0  0  0  0  0  0  0  0  0  0
   -0.2234  -11.8615   16.8874 C   0  0  0  0  0  0  0  0  0  0  0  0
    6.4491   -4.1532   30.1213 C   0  0  0  0  0  0  0  0  0  0  0  0
    5.7060   -4.4340   27.4975 C   0  0  0  0  0  0  0  0  0  0  0  0
    1.1818   -5.6612   28.8399 C   0  0  0  0  0  0  0  0  0  0  0  0
   -1.2067   -7.3287   17.7772 C   0  0  0  0  0  0  0  0  0  0  0  0
   -0.0206  -10.5585   16.6210 C   0  0  0  0  0  0  0  0  0  0  0  0
    0.3696  -12.7626   16.2169 O   0  0  0  0  0  0  0  0  0  0  0  0
   -0.6895   -9.5676   17.3297 C   0  0  0  0  0  0  0  0  0  0  0  0
    0.8388   -5.8417   27.5264 C   0  0  0  0  0  0  0  0  0  0  0  0
   -2.0709   -7.6637   18.7817 C   0  0  0  0  0  0  0  0  0  0  0  0
   -0.5279   -8.2168   17.0717 C   0  0  0  0  0  0  0  0  0  0  0  0
    6.9694   -4.0191   27.8190 C   0  0  0  0  0  0  0  0  0  0  0  0
    5.1733   -4.5469   29.8123 C   0  0  0  0  0  0  0  0  0  0  0  0
   -1.7508  -11.3016   18.6072 C   0  0  0  0  0  0  0  0  0  0  0  0
    1.7497   -5.6771   26.4971 C   0  0  0  0  0  0  0  0  0  0  0  0
   -1.5799   -9.9322   18.3468 C   0  0  0  0  0  0  0  0  0  0  0  0
   -1.0871  -12.2214   17.8851 C   0  0  0  0  0  0  0  0  0  0  0  0
   -2.2706   -8.9669   19.0691 C   0  0  0  0  0  0  0  0  0  0  0  0
    3.0279   -5.3073   26.8197 C   0  0  0  0  0  0  0  0  0  0  0  0
    7.3282   -3.8948   29.1186 C   0  0  0  0  0  0  0  0  0  0  0  0
  1  3  4  0
  1  7  4  0
  2  3  1  0
  2  6  4  0
  2 16  4  0
  3 22  4  0
  4  9  4  0
  4 10  1  0
  4 20  4  0
  5 16  4  0
  5 23  4  0
  6 15  4  0
  7 12  4  0
  8 13  4  0
  8 14  4  0
  9 11  4  0
 11 14  4  0
 11 19  4  0
 12 18  4  0
 13 21  4  0
 15 23  4  0
 17 19  4  0
 17 20  4  0
 18 22  4  0
 19 21  4  0
M  END
$$$$

 Created by Python create_sdf_string function

 23 25  0  0  0  0  0  0  0  0999 V2000
    2.4610   -5.3070   29.1240 C   0  0  0  0  0  0  0  0  0  0  0  0
    4.7710   -4.6952   28.4803 C   0  0  0  0  0  0  0  0  0  0  0  0
    3.4047   -5.1087   28.1314 C   0  0  0  0  0  0  0  0  0  0  0  0
   -0.2234  -11.8615   16.8874 C   0  0  0  0  0  0  0  0  0  0  0  0
    6.4491   -4.1532   30.1213 C   0  0  0  0  0  0  0  0  0  0  0  0
    5.7060   -4.4340   27.4975 C   0  0  0  0  0  0  0  0  0  0  0  0
    1.1818   -5.6612   28.8399 C   0  0  0  0  0  0  0  0  0  0  0  0
   -1.2067   -7.3287   17.7772 C   0  0  0  0  0  0  0  0  0  0  0  0
   -0.0206  -10.5585   16.6210 C   0  0  0  0  0  0  0  0  0  0  0  0
    0.3696  -12.7626   16.2169 O   0  0  0  0  0  0  0  0  0  0  0  0
   -0.6895   -9.5676   17.3297 C   0  0  0  0  0  0  0  0  0  0  0  0
    0.8388   -5.8417   27.5264 C   0  0  0  0  0  0  0  0  0  0  0  0
   -2.0709   -7.6637   18.7817 C   0  0  0  0  0  0  0  0  0  0  0  0
   -0.5279   -8.2168   17.0717 C   0  0  0  0  0  0  0  0  0  0  0  0
    6.9694   -4.0191   27.8190 C   0  0  0  0  0  0  0  0  0  0  0  0
    5.1733   -4.5469   29.8123 C   0  0  0  0  0  0  0  0  0  0  0  0
   -1.7508  -11.3016   18.6072 C   0  0  0  0  0  0  0  0  0  0  0  0
    1.7497   -5.6771   26.4971 C   0  0  0  0  0  0  0  0  0  0  0  0
   -1.5799   -9.9322   18.3468 C   0  0  0  0  0  0  0  0  0  0  0  0
   -1.0871  -12.2214   17.8851 C   0  0  0  0  0  0  0  0  0  0  0  0
   -2.2706   -8.9669   19.0691 C   0  0  0  0  0  0  0  0  0  0  0  0
    3.0279   -5.3073   26.8197 C   0  0  0  0  0  0  0  0  0  0  0  0
    7.3282   -3.8948   29.1186 C   0  0  0  0  0  0  0  0  0  0  0  0
  1  3  4  0
  1  7  4  0
  2  3  1  0
  2  6  4  0
  2 16  4  0
  3 22  4  0
  4  9  4  0
  4 10  1  0
  4 20  4  0
  5 16  4  0
  5 23  4  0
  6 15  4  0
  7 12  4  0
  8 13  4  0
  8 14  4  0
  9 11  4  0
 11 14  4  0
 11 19  4  0
 12 18  4  0
 13 21  4  0
 15 23  4  0
 17 19  4  0
 17 20  4  0
 18 22  4  0
 19 21  4  0
M  END
$$$$

 Created by Python create_sdf_string function

 23 25  0  0  0  0  0  0  0  0999 V2000
    2.4610   -5.3070   29.1240 C   0  0  0  0  0  0  0  0  0  0  0  0
    4.7710   -4.6952   28.4803 C   0  0  0  0  0  0  0  0  0  0  0  0
    3.4047   -5.1087   28.1314 C   0  0  0  0  0  0  0  0  0  0  0  0
   -0.2234  -11.8615   16.8874 C   0  0  0  0  0  0  0  0  0  0  0  0
    6.4491   -4.1532   30.1213 C   0  0  0  0  0  0  0  0  0  0  0  0
    5.7060   -4.4340   27.4975 C   0  0  0  0  0  0  0  0  0  0  0  0
    1.1818   -5.6612   28.8399 C   0  0  0  0  0  0  0  0  0  0  0  0
   -1.2067   -7.3287   17.7772 C   0  0  0  0  0  0  0  0  0  0  0  0
   -0.0206  -10.5585   16.6210 C   0  0  0  0  0  0  0  0  0  0  0  0
    0.3696  -12.7626   16.2169 O   0  0  0  0  0  0  0  0  0  0  0  0
   -0.6895   -9.5676   17.3297 C   0  0  0  0  0  0  0  0  0  0  0  0
    0.8388   -5.8417   27.5264 C   0  0  0  0  0  0  0  0  0  0  0  0
   -2.0709   -7.6637   18.7817 C   0  0  0  0  0  0  0  0  0  0  0  0
   -0.5279   -8.2168   17.0717 C   0  0  0  0  0  0  0  0  0  0  0  0
    6.9694   -4.0191   27.8190 C   0  0  0  0  0  0  0  0  0  0  0  0
    5.1733   -4.5469   29.8123 C   0  0  0  0  0  0  0  0  0  0  0  0
   -1.7508  -11.3016   18.6072 C   0  0  0  0  0  0  0  0  0  0  0  0
    1.7497   -5.6771   26.4971 C   0  0  0  0  0  0  0  0  0  0  0  0
   -1.5799   -9.9322   18.3468 C   0  0  0  0  0  0  0  0  0  0  0  0
   -1.0871  -12.2214   17.8851 C   0  0  0  0  0  0  0  0  0  0  0  0
   -2.2706   -8.9669   19.0691 C   0  0  0  0  0  0  0  0  0  0  0  0
    3.0279   -5.3073   26.8197 C   0  0  0  0  0  0  0  0  0  0  0  0
    7.3282   -3.8948   29.1186 C   0  0  0  0  0  0  0  0  0  0  0  0
  1  3  4  0
  1  7  4  0
  2  3  1  0
  2  6  4  0
  2 16  4  0
  3 22  4  0
  4  9  4  0
  4 10  1  0
  4 20  4  0
  5 16  4  0
  5 23  4  0
  6 15  4  0
  7 12  4  0
  8 13  4  0
  8 14  4  0
  9 11  4  0
 11 14  4  0
 11 19  4  0
 12 18  4  0
 13 21  4  0
 15 23  4  0
 17 19  4  0
 17 20  4  0
 18 22  4  0
 19 21  4  0
M  END
$$$$

 Created by Python create_sdf_string function

 23 25  0  0  0  0  0  0  0  0999 V2000
    2.4610   -5.3070   29.1240 C   0  0  0  0  0  0  0  0  0  0  0  0
    4.7710   -4.6952   28.4803 C   0  0  0  0  0  0  0  0  0  0  0  0
    3.4047   -5.1087   28.1314 C   0  0  0  0  0  0  0  0  0  0  0  0
   -0.2234  -11.8615   16.8874 C   0  0  0  0  0  0  0  0  0  0  0  0
    6.4491   -4.1532   30.1213 C   0  0  0  0  0  0  0  0  0  0  0  0
    5.7060   -4.4340   27.4975 C   0  0  0  0  0  0  0  0  0  0  0  0
    1.1818   -5.6612   28.8399 C   0  0  0  0  0  0  0  0  0  0  0  0
   -1.2067   -7.3287   17.7772 C   0  0  0  0  0  0  0  0  0  0  0  0
   -0.0206  -10.5585   16.6210 C   0  0  0  0  0  0  0  0  0  0  0  0
    0.3696  -12.7626   16.2169 O   0  0  0  0  0  0  0  0  0  0  0  0
   -0.6895   -9.5676   17.3297 C   0  0  0  0  0  0  0  0  0  0  0  0
    0.8388   -5.8417   27.5264 C   0  0  0  0  0  0  0  0  0  0  0  0
   -2.0709   -7.6637   18.7817 C   0  0  0  0  0  0  0  0  0  0  0  0
   -0.5279   -8.2168   17.0717 C   0  0  0  0  0  0  0  0  0  0  0  0
    6.9694   -4.0191   27.8190 C   0  0  0  0  0  0  0  0  0  0  0  0
    5.1733   -4.5469   29.8123 C   0  0  0  0  0  0  0  0  0  0  0  0
   -1.7508  -11.3016   18.6072 C   0  0  0  0  0  0  0  0  0  0  0  0
    1.7497   -5.6771   26.4971 C   0  0  0  0  0  0  0  0  0  0  0  0
   -1.5799   -9.9322   18.3468 C   0  0  0  0  0  0  0  0  0  0  0  0
   -1.0871  -12.2214   17.8851 C   0  0  0  0  0  0  0  0  0  0  0  0
   -2.2706   -8.9669   19.0691 C   0  0  0  0  0  0  0  0  0  0  0  0
    3.0279   -5.3073   26.8197 C   0  0  0  0  0  0  0  0  0  0  0  0
    7.3282   -3.8948   29.1186 C   0  0  0  0  0  0  0  0  0  0  0  0
  1  3  4  0
  1  7  4  0
  2  3  1  0
  2  6  4  0
  2 16  4  0
  3 22  4  0
  4  9  4  0
  4 10  1  0
  4 20  4  0
  5 16  4  0
  5 23  4  0
  6 15  4  0
  7 12  4  0
  8 13  4  0
  8 14  4  0
  9 11  4  0
 11 14  4  0
 11 19  4  0
 12 18  4  0
 13 21  4  0
 15 23  4  0
 17 19  4  0
 17 20  4  0
 18 22  4  0
 19 21  4  0
M  END
$$$$

 Created by Python create_sdf_string function

 23 25  0  0  0  0  0  0  0  0999 V2000
    2.4610   -5.3070   29.1240 C   0  0  0  0  0  0  0  0  0  0  0  0
    4.7710   -4.6952   28.4803 C   0  0  0  0  0  0  0  0  0  0  0  0
    3.4047   -5.1087   28.1314 C   0  0  0  0  0  0  0  0  0  0  0  0
   -0.2234  -11.8615   16.8874 C   0  0  0  0  0  0  0  0  0  0  0  0
    6.4491   -4.1532   30.1213 C   0  0  0  0  0  0  0  0  0  0  0  0
    5.7060   -4.4340   27.4975 C   0  0  0  0  0  0  0  0  0  0  0  0
    1.1818   -5.6612   28.8399 C   0  0  0  0  0  0  0  0  0  0  0  0
   -1.2067   -7.3287   17.7772 C   0  0  0  0  0  0  0  0  0  0  0  0
   -0.0206  -10.5585   16.6210 C   0  0  0  0  0  0  0  0  0  0  0  0
    0.3696  -12.7626   16.2169 O   0  0  0  0  0  0  0  0  0  0  0  0
   -0.6895   -9.5676   17.3297 C   0  0  0  0  0  0  0  0  0  0  0  0
    0.8388   -5.8417   27.5264 C   0  0  0  0  0  0  0  0  0  0  0  0
   -2.0709   -7.6637   18.7817 C   0  0  0  0  0  0  0  0  0  0  0  0
   -0.5279   -8.2168   17.0717 C   0  0  0  0  0  0  0  0  0  0  0  0
    6.9694   -4.0191   27.8190 C   0  0  0  0  0  0  0  0  0  0  0  0
    5.1733   -4.5469   29.8123 C   0  0  0  0  0  0  0  0  0  0  0  0
   -1.7508  -11.3016   18.6072 C   0  0  0  0  0  0  0  0  0  0  0  0
    1.7497   -5.6771   26.4971 C   0  0  0  0  0  0  0  0  0  0  0  0
   -1.5799   -9.9322   18.3468 C   0  0  0  0  0  0  0  0  0  0  0  0
   -1.0871  -12.2214   17.8851 C   0  0  0  0  0  0  0  0  0  0  0  0
   -2.2706   -8.9669   19.0691 C   0  0  0  0  0  0  0  0  0  0  0  0
    3.0279   -5.3073   26.8197 C   0  0  0  0  0  0  0  0  0  0  0  0
    7.3282   -3.8948   29.1186 C   0  0  0  0  0  0  0  0  0  0  0  0
  1  3  4  0
  1  7  4  0
  2  3  1  0
  2  6  4  0
  2 16  4  0
  3 22  4  0
  4  9  4  0
  4 10  1  0
  4 20  4  0
  5 16  4  0
  5 23  4  0
  6 15  4  0
  7 12  4  0
  8 13  4  0
  8 14  4  0
  9 11  4  0
 11 14  4  0
 11 19  4  0
 12 18  4  0
 13 21  4  0
 15 23  4  0
 17 19  4  0
 17 20  4  0
 18 22  4  0
 19 21  4  0
M  END
$$$$

 Created by Python create_sdf_string function

 23 25  0  0  0  0  0  0  0  0999 V2000
    2.4610   -5.3070   29.1240 C   0  0  0  0  0  0  0  0  0  0  0  0
    4.7710   -4.6952   28.4803 C   0  0  0  0  0  0  0  0  0  0  0  0
    3.4047   -5.1087   28.1314 C   0  0  0  0  0  0  0  0  0  0  0  0
   -0.2234  -11.8615   16.8874 C   0  0  0  0  0  0  0  0  0  0  0  0
    6.4491   -4.1532   30.1213 C   0  0  0  0  0  0  0  0  0  0  0  0
    5.7060   -4.4340   27.4975 C   0  0  0  0  0  0  0  0  0  0  0  0
    1.1818   -5.6612   28.8399 C   0  0  0  0  0  0  0  0  0  0  0  0
   -1.2067   -7.3287   17.7772 C   0  0  0  0  0  0  0  0  0  0  0  0
   -0.0206  -10.5585   16.6210 C   0  0  0  0  0  0  0  0  0  0  0  0
    0.3696  -12.7626   16.2169 O   0  0  0  0  0  0  0  0  0  0  0  0
   -0.6895   -9.5676   17.3297 C   0  0  0  0  0  0  0  0  0  0  0  0
    0.8388   -5.8417   27.5264 C   0  0  0  0  0  0  0  0  0  0  0  0
   -2.0709   -7.6637   18.7817 C   0  0  0  0  0  0  0  0  0  0  0  0
   -0.5279   -8.2168   17.0717 C   0  0  0  0  0  0  0  0  0  0  0  0
    6.9694   -4.0191   27.8190 C   0  0  0  0  0  0  0  0  0  0  0  0
    5.1733   -4.5469   29.8123 C   0  0  0  0  0  0  0  0  0  0  0  0
   -1.7508  -11.3016   18.6072 C   0  0  0  0  0  0  0  0  0  0  0  0
    1.7497   -5.6771   26.4971 C   0  0  0  0  0  0  0  0  0  0  0  0
   -1.5799   -9.9322   18.3468 C   0  0  0  0  0  0  0  0  0  0  0  0
   -1.0871  -12.2214   17.8851 C   0  0  0  0  0  0  0  0  0  0  0  0
   -2.2706   -8.9669   19.0691 C   0  0  0  0  0  0  0  0  0  0  0  0
    3.0279   -5.3073   26.8197 C   0  0  0  0  0  0  0  0  0  0  0  0
    7.3282   -3.8948   29.1186 C   0  0  0  0  0  0  0  0  0  0  0  0
  1  3  4  0
  1  7  4  0
  2  3  1  0
  2  6  4  0
  2 16  4  0
  3 22  4  0
  4  9  4  0
  4 10  1  0
  4 20  4  0
  5 16  4  0
  5 23  4  0
  6 15  4  0
  7 12  4  0
  8 13  4  0
  8 14  4  0
  9 11  4  0
 11 14  4  0
 11 19  4  0
 12 18  4  0
 13 21  4  0
 15 23  4  0
 17 19  4  0
 17 20  4  0
 18 22  4  0
 19 21  4  0
M  END
$$$$

 Created by Python create_sdf_string function

 23 25  0  0  0  0  0  0  0  0999 V2000
    2.4610   -5.3070   29.1240 C   0  0  0  0  0  0  0  0  0  0  0  0
    4.7710   -4.6952   28.4803 C   0  0  0  0  0  0  0  0  0  0  0  0
    3.4047   -5.1087   28.1314 C   0  0  0  0  0  0  0  0  0  0  0  0
   -0.2234  -11.8615   16.8874 C   0  0  0  0  0  0  0  0  0  0  0  0
    6.4491   -4.1532   30.1213 C   0  0  0  0  0  0  0  0  0  0  0  0
    5.7060   -4.4340   27.4975 C   0  0  0  0  0  0  0  0  0  0  0  0
    1.1818   -5.6612   28.8399 C   0  0  0  0  0  0  0  0  0  0  0  0
   -1.2067   -7.3287   17.7772 C   0  0  0  0  0  0  0  0  0  0  0  0
   -0.0206  -10.5585   16.6210 C   0  0  0  0  0  0  0  0  0  0  0  0
    0.3696  -12.7626   16.2169 O   0  0  0  0  0  0  0  0  0  0  0  0
   -0.6895   -9.5676   17.3297 C   0  0  0  0  0  0  0  0  0  0  0  0
    0.8388   -5.8417   27.5264 C   0  0  0  0  0  0  0  0  0  0  0  0
   -2.0709   -7.6637   18.7817 C   0  0  0  0  0  0  0  0  0  0  0  0
   -0.5279   -8.2168   17.0717 C   0  0  0  0  0  0  0  0  0  0  0  0
    6.9694   -4.0191   27.8190 C   0  0  0  0  0  0  0  0  0  0  0  0
    5.1733   -4.5469   29.8123 C   0  0  0  0  0  0  0  0  0  0  0  0
   -1.7508  -11.3016   18.6072 C   0  0  0  0  0  0  0  0  0  0  0  0
    1.7497   -5.6771   26.4971 C   0  0  0  0  0  0  0  0  0  0  0  0
   -1.5799   -9.9322   18.3468 C   0  0  0  0  0  0  0  0  0  0  0  0
   -1.0871  -12.2214   17.8851 C   0  0  0  0  0  0  0  0  0  0  0  0
   -2.2706   -8.9669   19.0691 C   0  0  0  0  0  0  0  0  0  0  0  0
    3.0279   -5.3073   26.8197 C   0  0  0  0  0  0  0  0  0  0  0  0
    7.3282   -3.8948   29.1186 C   0  0  0  0  0  0  0  0  0  0  0  0
  1  3  4  0
  1  7  4  0
  2  3  1  0
  2  6  4  0
  2 16  4  0
  3 22  4  0
  4  9  4  0
  4 10  1  0
  4 20  4  0
  5 16  4  0
  5 23  4  0
  6 15  4  0
  7 12  4  0
  8 13  4  0
  8 14  4  0
  9 11  4  0
 11 14  4  0
 11 19  4  0
 12 18  4  0
 13 21  4  0
 15 23  4  0
 17 19  4  0
 17 20  4  0
 18 22  4  0
 19 21  4  0
M  END
$$$$

 Created by Python create_sdf_string function

 23 25  0  0  0  0  0  0  0  0999 V2000
    2.4610   -5.3070   29.1240 C   0  0  0  0  0  0  0  0  0  0  0  0
    4.7710   -4.6952   28.4803 C   0  0  0  0  0  0  0  0  0  0  0  0
    3.4047   -5.1087   28.1314 C   0  0  0  0  0  0  0  0  0  0  0  0
   -0.2234  -11.8615   16.8874 C   0  0  0  0  0  0  0  0  0  0  0  0
    6.4491   -4.1532   30.1213 C   0  0  0  0  0  0  0  0  0  0  0  0
    5.7060   -4.4340   27.4975 C   0  0  0  0  0  0  0  0  0  0  0  0
    1.1818   -5.6612   28.8399 C   0  0  0  0  0  0  0  0  0  0  0  0
   -1.2067   -7.3287   17.7772 C   0  0  0  0  0  0  0  0  0  0  0  0
   -0.0206  -10.5585   16.6210 C   0  0  0  0  0  0  0  0  0  0  0  0
    0.3696  -12.7626   16.2169 O   0  0  0  0  0  0  0  0  0  0  0  0
   -0.6895   -9.5676   17.3297 C   0  0  0  0  0  0  0  0  0  0  0  0
    0.8388   -5.8417   27.5264 C   0  0  0  0  0  0  0  0  0  0  0  0
   -2.0709   -7.6637   18.7817 C   0  0  0  0  0  0  0  0  0  0  0  0
   -0.5279   -8.2168   17.0717 C   0  0  0  0  0  0  0  0  0  0  0  0
    6.9694   -4.0191   27.8190 C   0  0  0  0  0  0  0  0  0  0  0  0
    5.1733   -4.5469   29.8123 C   0  0  0  0  0  0  0  0  0  0  0  0
   -1.7508  -11.3016   18.6072 C   0  0  0  0  0  0  0  0  0  0  0  0
    1.7497   -5.6771   26.4971 C   0  0  0  0  0  0  0  0  0  0  0  0
   -1.5799   -9.9322   18.3468 C   0  0  0  0  0  0  0  0  0  0  0  0
   -1.0871  -12.2214   17.8851 C   0  0  0  0  0  0  0  0  0  0  0  0
   -2.2706   -8.9669   19.0691 C   0  0  0  0  0  0  0  0  0  0  0  0
    3.0279   -5.3073   26.8197 C   0  0  0  0  0  0  0  0  0  0  0  0
    7.3282   -3.8948   29.1186 C   0  0  0  0  0  0  0  0  0  0  0  0
  1  3  4  0
  1  7  4  0
  2  3  1  0
  2  6  4  0
  2 16  4  0
  3 22  4  0
  4  9  4  0
  4 10  1  0
  4 20  4  0
  5 16  4  0
  5 23  4  0
  6 15  4  0
  7 12  4  0
  8 13  4  0
  8 14  4  0
  9 11  4  0
 11 14  4  0
 11 19  4  0
 12 18  4  0
 13 21  4  0
 15 23  4  0
 17 19  4  0
 17 20  4  0
 18 22  4  0
 19 21  4  0
M  END
$$$$

 Created by Python create_sdf_string function

 23 25  0  0  0  0  0  0  0  0999 V2000
    2.4610   -5.3070   29.1240 C   0  0  0  0  0  0  0  0  0  0  0  0
    4.7710   -4.6952   28.4803 C   0  0  0  0  0  0  0  0  0  0  0  0
    3.4047   -5.1087   28.1314 C   0  0  0  0  0  0  0  0  0  0  0  0
   -0.2234  -11.8615   16.8874 C   0  0  0  0  0  0  0  0  0  0  0  0
    6.4491   -4.1532   30.1213 C   0  0  0  0  0  0  0  0  0  0  0  0
    5.7060   -4.4340   27.4975 C   0  0  0  0  0  0  0  0  0  0  0  0
    1.1818   -5.6612   28.8399 C   0  0  0  0  0  0  0  0  0  0  0  0
   -1.2067   -7.3287   17.7772 C   0  0  0  0  0  0  0  0  0  0  0  0
   -0.0206  -10.5585   16.6210 C   0  0  0  0  0  0  0  0  0  0  0  0
    0.3696  -12.7626   16.2169 O   0  0  0  0  0  0  0  0  0  0  0  0
   -0.6895   -9.5676   17.3297 C   0  0  0  0  0  0  0  0  0  0  0  0
    0.8388   -5.8417   27.5264 C   0  0  0  0  0  0  0  0  0  0  0  0
   -2.0709   -7.6637   18.7817 C   0  0  0  0  0  0  0  0  0  0  0  0
   -0.5279   -8.2168   17.0717 C   0  0  0  0  0  0  0  0  0  0  0  0
    6.9694   -4.0191   27.8190 C   0  0  0  0  0  0  0  0  0  0  0  0
    5.1733   -4.5469   29.8123 C   0  0  0  0  0  0  0  0  0  0  0  0
   -1.7508  -11.3016   18.6072 C   0  0  0  0  0  0  0  0  0  0  0  0
    1.7497   -5.6771   26.4971 C   0  0  0  0  0  0  0  0  0  0  0  0
   -1.5799   -9.9322   18.3468 C   0  0  0  0  0  0  0  0  0  0  0  0
   -1.0871  -12.2214   17.8851 C   0  0  0  0  0  0  0  0  0  0  0  0
   -2.2706   -8.9669   19.0691 C   0  0  0  0  0  0  0  0  0  0  0  0
    3.0279   -5.3073   26.8197 C   0  0  0  0  0  0  0  0  0  0  0  0
    7.3282   -3.8948   29.1186 C   0  0  0  0  0  0  0  0  0  0  0  0
  1  3  4  0
  1  7  4  0
  2  3  1  0
  2  6  4  0
  2 16  4  0
  3 22  4  0
  4  9  4  0
  4 10  1  0
  4 20  4  0
  5 16  4  0
  5 23  4  0
  6 15  4  0
  7 12  4  0
  8 13  4  0
  8 14  4  0
  9 11  4  0
 11 14  4  0
 11 19  4  0
 12 18  4  0
 13 21  4  0
 15 23  4  0
 17 19  4  0
 17 20  4  0
 18 22  4  0
 19 21  4  0
M  END
$$$$

 Created by Python create_sdf_string function

 23 25  0  0  0  0  0  0  0  0999 V2000
    2.4610   -5.3070   29.1240 C   0  0  0  0  0  0  0  0  0  0  0  0
    4.7710   -4.6952   28.4803 C   0  0  0  0  0  0  0  0  0  0  0  0
    3.4047   -5.1087   28.1314 C   0  0  0  0  0  0  0  0  0  0  0  0
   -0.2234  -11.8615   16.8874 C   0  0  0  0  0  0  0  0  0  0  0  0
    6.4491   -4.1532   30.1213 C   0  0  0  0  0  0  0  0  0  0  0  0
    5.7060   -4.4340   27.4975 C   0  0  0  0  0  0  0  0  0  0  0  0
    1.1818   -5.6612   28.8399 C   0  0  0  0  0  0  0  0  0  0  0  0
   -1.2067   -7.3287   17.7772 C   0  0  0  0  0  0  0  0  0  0  0  0
   -0.0206  -10.5585   16.6210 C   0  0  0  0  0  0  0  0  0  0  0  0
    0.3696  -12.7626   16.2169 O   0  0  0  0  0  0  0  0  0  0  0  0
   -0.6895   -9.5676   17.3297 C   0  0  0  0  0  0  0  0  0  0  0  0
    0.8388   -5.8417   27.5264 C   0  0  0  0  0  0  0  0  0  0  0  0
   -2.0709   -7.6637   18.7817 C   0  0  0  0  0  0  0  0  0  0  0  0
   -0.5279   -8.2168   17.0717 C   0  0  0  0  0  0  0  0  0  0  0  0
    6.9694   -4.0191   27.8190 C   0  0  0  0  0  0  0  0  0  0  0  0
    5.1733   -4.5469   29.8123 C   0  0  0  0  0  0  0  0  0  0  0  0
   -1.7508  -11.3016   18.6072 C   0  0  0  0  0  0  0  0  0  0  0  0
    1.7497   -5.6771   26.4971 C   0  0  0  0  0  0  0  0  0  0  0  0
   -1.5799   -9.9322   18.3468 C   0  0  0  0  0  0  0  0  0  0  0  0
   -1.0871  -12.2214   17.8851 C   0  0  0  0  0  0  0  0  0  0  0  0
   -2.2706   -8.9669   19.0691 C   0  0  0  0  0  0  0  0  0  0  0  0
    3.0279   -5.3073   26.8197 C   0  0  0  0  0  0  0  0  0  0  0  0
    7.3282   -3.8948   29.1186 C   0  0  0  0  0  0  0  0  0  0  0  0
  1  3  4  0
  1  7  4  0
  2  3  1  0
  2  6  4  0
  2 16  4  0
  3 22  4  0
  4  9  4  0
  4 10  1  0
  4 20  4  0
  5 16  4  0
  5 23  4  0
  6 15  4  0
  7 12  4  0
  8 13  4  0
  8 14  4  0
  9 11  4  0
 11 14  4  0
 11 19  4  0
 12 18  4  0
 13 21  4  0
 15 23  4  0
 17 19  4  0
 17 20  4  0
 18 22  4  0
 19 21  4  0
M  END
$$$$

 Created by Python create_sdf_string function

 23 25  0  0  0  0  0  0  0  0999 V2000
    2.4610   -5.3070   29.1240 C   0  0  0  0  0  0  0  0  0  0  0  0
    4.7710   -4.6952   28.4803 C   0  0  0  0  0  0  0  0  0  0  0  0
    3.4047   -5.1087   28.1314 C   0  0  0  0  0  0  0  0  0  0  0  0
   -0.2234  -11.8615   16.8874 C   0  0  0  0  0  0  0  0  0  0  0  0
    6.4491   -4.1532   30.1213 C   0  0  0  0  0  0  0  0  0  0  0  0
    5.7060   -4.4340   27.4975 C   0  0  0  0  0  0  0  0  0  0  0  0
    1.1818   -5.6612   28.8399 C   0  0  0  0  0  0  0  0  0  0  0  0
   -1.2067   -7.3287   17.7772 C   0  0  0  0  0  0  0  0  0  0  0  0
   -0.0206  -10.5585   16.6210 C   0  0  0  0  0  0  0  0  0  0  0  0
    0.3696  -12.7626   16.2169 O   0  0  0  0  0  0  0  0  0  0  0  0
   -0.6895   -9.5676   17.3297 C   0  0  0  0  0  0  0  0  0  0  0  0
    0.8388   -5.8417   27.5264 C   0  0  0  0  0  0  0  0  0  0  0  0
   -2.0709   -7.6637   18.7817 C   0  0  0  0  0  0  0  0  0  0  0  0
   -0.5279   -8.2168   17.0717 C   0  0  0  0  0  0  0  0  0  0  0  0
    6.9694   -4.0191   27.8190 C   0  0  0  0  0  0  0  0  0  0  0  0
    5.1733   -4.5469   29.8123 C   0  0  0  0  0  0  0  0  0  0  0  0
   -1.7508  -11.3016   18.6072 C   0  0  0  0  0  0  0  0  0  0  0  0
    1.7497   -5.6771   26.4971 C   0  0  0  0  0  0  0  0  0  0  0  0
   -1.5799   -9.9322   18.3468 C   0  0  0  0  0  0  0  0  0  0  0  0
   -1.0871  -12.2214   17.8851 C   0  0  0  0  0  0  0  0  0  0  0  0
   -2.2706   -8.9669   19.0691 C   0  0  0  0  0  0  0  0  0  0  0  0
    3.0279   -5.3073   26.8197 C   0  0  0  0  0  0  0  0  0  0  0  0
    7.3282   -3.8948   29.1186 C   0  0  0  0  0  0  0  0  0  0  0  0
  1  3  4  0
  1  7  4  0
  2  3  1  0
  2  6  4  0
  2 16  4  0
  3 22  4  0
  4  9  4  0
  4 10  1  0
  4 20  4  0
  5 16  4  0
  5 23  4  0
  6 15  4  0
  7 12  4  0
  8 13  4  0
  8 14  4  0
  9 11  4  0
 11 14  4  0
 11 19  4  0
 12 18  4  0
 13 21  4  0
 15 23  4  0
 17 19  4  0
 17 20  4  0
 18 22  4  0
 19 21  4  0
M  END
$$$$

 Created by Python create_sdf_string function

 23 25  0  0  0  0  0  0  0  0999 V2000
    2.4610   -5.3070   29.1240 C   0  0  0  0  0  0  0  0  0  0  0  0
    4.7710   -4.6952   28.4803 C   0  0  0  0  0  0  0  0  0  0  0  0
    3.4047   -5.1087   28.1314 C   0  0  0  0  0  0  0  0  0  0  0  0
   -0.2234  -11.8615   16.8874 C   0  0  0  0  0  0  0  0  0  0  0  0
    6.4491   -4.1532   30.1213 C   0  0  0  0  0  0  0  0  0  0  0  0
    5.7060   -4.4340   27.4975 C   0  0  0  0  0  0  0  0  0  0  0  0
    1.1818   -5.6612   28.8399 C   0  0  0  0  0  0  0  0  0  0  0  0
   -1.2067   -7.3287   17.7772 C   0  0  0  0  0  0  0  0  0  0  0  0
   -0.0206  -10.5585   16.6210 C   0  0  0  0  0  0  0  0  0  0  0  0
    0.3696  -12.7626   16.2169 O   0  0  0  0  0  0  0  0  0  0  0  0
   -0.6895   -9.5676   17.3297 C   0  0  0  0  0  0  0  0  0  0  0  0
    0.8388   -5.8417   27.5264 C   0  0  0  0  0  0  0  0  0  0  0  0
   -2.0709   -7.6637   18.7817 C   0  0  0  0  0  0  0  0  0  0  0  0
   -0.5279   -8.2168   17.0717 C   0  0  0  0  0  0  0  0  0  0  0  0
    6.9694   -4.0191   27.8190 C   0  0  0  0  0  0  0  0  0  0  0  0
    5.1733   -4.5469   29.8123 C   0  0  0  0  0  0  0  0  0  0  0  0
   -1.7508  -11.3016   18.6072 C   0  0  0  0  0  0  0  0  0  0  0  0
    1.7497   -5.6771   26.4971 C   0  0  0  0  0  0  0  0  0  0  0  0
   -1.5799   -9.9322   18.3468 C   0  0  0  0  0  0  0  0  0  0  0  0
   -1.0871  -12.2214   17.8851 C   0  0  0  0  0  0  0  0  0  0  0  0
   -2.2706   -8.9669   19.0691 C   0  0  0  0  0  0  0  0  0  0  0  0
    3.0279   -5.3073   26.8197 C   0  0  0  0  0  0  0  0  0  0  0  0
    7.3282   -3.8948   29.1186 C   0  0  0  0  0  0  0  0  0  0  0  0
  1  3  4  0
  1  7  4  0
  2  3  1  0
  2  6  4  0
  2 16  4  0
  3 22  4  0
  4  9  4  0
  4 10  1  0
  4 20  4  0
  5 16  4  0
  5 23  4  0
  6 15  4  0
  7 12  4  0
  8 13  4  0
  8 14  4  0
  9 11  4  0
 11 14  4  0
 11 19  4  0
 12 18  4  0
 13 21  4  0
 15 23  4  0
 17 19  4  0
 17 20  4  0
 18 22  4  0
 19 21  4  0
M  END
$$$$

 Created by Python create_sdf_string function

 23 25  0  0  0  0  0  0  0  0999 V2000
    2.4610   -5.3070   29.1240 C   0  0  0  0  0  0  0  0  0  0  0  0
    4.7710   -4.6952   28.4803 C   0  0  0  0  0  0  0  0  0  0  0  0
    3.4047   -5.1087   28.1314 C   0  0  0  0  0  0  0  0  0  0  0  0
   -0.2234  -11.8615   16.8874 C   0  0  0  0  0  0  0  0  0  0  0  0
    6.4491   -4.1532   30.1213 C   0  0  0  0  0  0  0  0  0  0  0  0
    5.7060   -4.4340   27.4975 C   0  0  0  0  0  0  0  0  0  0  0  0
    1.1818   -5.6612   28.8399 C   0  0  0  0  0  0  0  0  0  0  0  0
   -1.2067   -7.3287   17.7772 C   0  0  0  0  0  0  0  0  0  0  0  0
   -0.0206  -10.5585   16.6210 C   0  0  0  0  0  0  0  0  0  0  0  0
    0.3696  -12.7626   16.2169 O   0  0  0  0  0  0  0  0  0  0  0  0
   -0.6895   -9.5676   17.3297 C   0  0  0  0  0  0  0  0  0  0  0  0
    0.8388   -5.8417   27.5264 C   0  0  0  0  0  0  0  0  0  0  0  0
   -2.0709   -7.6637   18.7817 C   0  0  0  0  0  0  0  0  0  0  0  0
   -0.5279   -8.2168   17.0717 C   0  0  0  0  0  0  0  0  0  0  0  0
    6.9694   -4.0191   27.8190 C   0  0  0  0  0  0  0  0  0  0  0  0
    5.1733   -4.5469   29.8123 C   0  0  0  0  0  0  0  0  0  0  0  0
   -1.7508  -11.3016   18.6072 C   0  0  0  0  0  0  0  0  0  0  0  0
    1.7497   -5.6771   26.4971 C   0  0  0  0  0  0  0  0  0  0  0  0
   -1.5799   -9.9322   18.3468 C   0  0  0  0  0  0  0  0  0  0  0  0
   -1.0871  -12.2214   17.8851 C   0  0  0  0  0  0  0  0  0  0  0  0
   -2.2706   -8.9669   19.0691 C   0  0  0  0  0  0  0  0  0  0  0  0
    3.0279   -5.3073   26.8197 C   0  0  0  0  0  0  0  0  0  0  0  0
    7.3282   -3.8948   29.1186 C   0  0  0  0  0  0  0  0  0  0  0  0
  1  3  4  0
  1  7  4  0
  2  3  1  0
  2  6  4  0
  2 16  4  0
  3 22  4  0
  4  9  4  0
  4 10  1  0
  4 20  4  0
  5 16  4  0
  5 23  4  0
  6 15  4  0
  7 12  4  0
  8 13  4  0
  8 14  4  0
  9 11  4  0
 11 14  4  0
 11 19  4  0
 12 18  4  0
 13 21  4  0
 15 23  4  0
 17 19  4  0
 17 20  4  0
 18 22  4  0
 19 21  4  0
M  END
$$$$

 Created by Python create_sdf_string function

 23 25  0  0  0  0  0  0  0  0999 V2000
    2.4610   -5.3070   29.1240 C   0  0  0  0  0  0  0  0  0  0  0  0
    4.7710   -4.6952   28.4803 C   0  0  0  0  0  0  0  0  0  0  0  0
    3.4047   -5.1087   28.1314 C   0  0  0  0  0  0  0  0  0  0  0  0
   -0.2234  -11.8615   16.8874 C   0  0  0  0  0  0  0  0  0  0  0  0
    6.4491   -4.1532   30.1213 C   0  0  0  0  0  0  0  0  0  0  0  0
    5.7060   -4.4340   27.4975 C   0  0  0  0  0  0  0  0  0  0  0  0
    1.1818   -5.6612   28.8399 C   0  0  0  0  0  0  0  0  0  0  0  0
   -1.2067   -7.3287   17.7772 C   0  0  0  0  0  0  0  0  0  0  0  0
   -0.0206  -10.5585   16.6210 C   0  0  0  0  0  0  0  0  0  0  0  0
    0.3696  -12.7626   16.2169 O   0  0  0  0  0  0  0  0  0  0  0  0
   -0.6895   -9.5676   17.3297 C   0  0  0  0  0  0  0  0  0  0  0  0
    0.8388   -5.8417   27.5264 C   0  0  0  0  0  0  0  0  0  0  0  0
   -2.0709   -7.6637   18.7817 C   0  0  0  0  0  0  0  0  0  0  0  0
   -0.5279   -8.2168   17.0717 C   0  0  0  0  0  0  0  0  0  0  0  0
    6.9694   -4.0191   27.8190 C   0  0  0  0  0  0  0  0  0  0  0  0
    5.1733   -4.5469   29.8123 C   0  0  0  0  0  0  0  0  0  0  0  0
   -1.7508  -11.3016   18.6072 C   0  0  0  0  0  0  0  0  0  0  0  0
    1.7497   -5.6771   26.4971 C   0  0  0  0  0  0  0  0  0  0  0  0
   -1.5799   -9.9322   18.3468 C   0  0  0  0  0  0  0  0  0  0  0  0
   -1.0871  -12.2214   17.8851 C   0  0  0  0  0  0  0  0  0  0  0  0
   -2.2706   -8.9669   19.0691 C   0  0  0  0  0  0  0  0  0  0  0  0
    3.0279   -5.3073   26.8197 C   0  0  0  0  0  0  0  0  0  0  0  0
    7.3282   -3.8948   29.1186 C   0  0  0  0  0  0  0  0  0  0  0  0
  1  3  4  0
  1  7  4  0
  2  3  1  0
  2  6  4  0
  2 16  4  0
  3 22  4  0
  4  9  4  0
  4 10  1  0
  4 20  4  0
  5 16  4  0
  5 23  4  0
  6 15  4  0
  7 12  4  0
  8 13  4  0
  8 14  4  0
  9 11  4  0
 11 14  4  0
 11 19  4  0
 12 18  4  0
 13 21  4  0
 15 23  4  0
 17 19  4  0
 17 20  4  0
 18 22  4  0
 19 21  4  0
M  END
$$$$

 Created by Python create_sdf_string function

 23 25  0  0  0  0  0  0  0  0999 V2000
    2.4610   -5.3070   29.1240 C   0  0  0  0  0  0  0  0  0  0  0  0
    4.7710   -4.6952   28.4803 C   0  0  0  0  0  0  0  0  0  0  0  0
    3.4047   -5.1087   28.1314 C   0  0  0  0  0  0  0  0  0  0  0  0
   -0.2234  -11.8615   16.8874 C   0  0  0  0  0  0  0  0  0  0  0  0
    6.4491   -4.1532   30.1213 C   0  0  0  0  0  0  0  0  0  0  0  0
    5.7060   -4.4340   27.4975 C   0  0  0  0  0  0  0  0  0  0  0  0
    1.1818   -5.6612   28.8399 C   0  0  0  0  0  0  0  0  0  0  0  0
   -1.2067   -7.3287   17.7772 C   0  0  0  0  0  0  0  0  0  0  0  0
   -0.0206  -10.5585   16.6210 C   0  0  0  0  0  0  0  0  0  0  0  0
    0.3696  -12.7626   16.2169 O   0  0  0  0  0  0  0  0  0  0  0  0
   -0.6895   -9.5676   17.3297 C   0  0  0  0  0  0  0  0  0  0  0  0
    0.8388   -5.8417   27.5264 C   0  0  0  0  0  0  0  0  0  0  0  0
   -2.0709   -7.6637   18.7817 C   0  0  0  0  0  0  0  0  0  0  0  0
   -0.5279   -8.2168   17.0717 C   0  0  0  0  0  0  0  0  0  0  0  0
    6.9694   -4.0191   27.8190 C   0  0  0  0  0  0  0  0  0  0  0  0
    5.1733   -4.5469   29.8123 C   0  0  0  0  0  0  0  0  0  0  0  0
   -1.7508  -11.3016   18.6072 C   0  0  0  0  0  0  0  0  0  0  0  0
    1.7497   -5.6771   26.4971 C   0  0  0  0  0  0  0  0  0  0  0  0
   -1.5799   -9.9322   18.3468 C   0  0  0  0  0  0  0  0  0  0  0  0
   -1.0871  -12.2214   17.8851 C   0  0  0  0  0  0  0  0  0  0  0  0
   -2.2706   -8.9669   19.0691 C   0  0  0  0  0  0  0  0  0  0  0  0
    3.0279   -5.3073   26.8197 C   0  0  0  0  0  0  0  0  0  0  0  0
    7.3282   -3.8948   29.1186 C   0  0  0  0  0  0  0  0  0  0  0  0
  1  3  4  0
  1  7  4  0
  2  3  1  0
  2  6  4  0
  2 16  4  0
  3 22  4  0
  4  9  4  0
  4 10  1  0
  4 20  4  0
  5 16  4  0
  5 23  4  0
  6 15  4  0
  7 12  4  0
  8 13  4  0
  8 14  4  0
  9 11  4  0
 11 14  4  0
 11 19  4  0
 12 18  4  0
 13 21  4  0
 15 23  4  0
 17 19  4  0
 17 20  4  0
 18 22  4  0
 19 21  4  0
M  END
$$$$

 Created by Python create_sdf_string function

 23 25  0  0  0  0  0  0  0  0999 V2000
    2.4610   -5.3070   29.1240 C   0  0  0  0  0  0  0  0  0  0  0  0
    4.7710   -4.6952   28.4803 C   0  0  0  0  0  0  0  0  0  0  0  0
    3.4047   -5.1087   28.1314 C   0  0  0  0  0  0  0  0  0  0  0  0
   -0.2234  -11.8615   16.8874 C   0  0  0  0  0  0  0  0  0  0  0  0
    6.4491   -4.1532   30.1213 C   0  0  0  0  0  0  0  0  0  0  0  0
    5.7060   -4.4340   27.4975 C   0  0  0  0  0  0  0  0  0  0  0  0
    1.1818   -5.6612   28.8399 C   0  0  0  0  0  0  0  0  0  0  0  0
   -1.2067   -7.3287   17.7772 C   0  0  0  0  0  0  0  0  0  0  0  0
   -0.0206  -10.5585   16.6210 C   0  0  0  0  0  0  0  0  0  0  0  0
    0.3696  -12.7626   16.2169 O   0  0  0  0  0  0  0  0  0  0  0  0
   -0.6895   -9.5676   17.3297 C   0  0  0  0  0  0  0  0  0  0  0  0
    0.8388   -5.8417   27.5264 C   0  0  0  0  0  0  0  0  0  0  0  0
   -2.0709   -7.6637   18.7817 C   0  0  0  0  0  0  0  0  0  0  0  0
   -0.5279   -8.2168   17.0717 C   0  0  0  0  0  0  0  0  0  0  0  0
    6.9694   -4.0191   27.8190 C   0  0  0  0  0  0  0  0  0  0  0  0
    5.1733   -4.5469   29.8123 C   0  0  0  0  0  0  0  0  0  0  0  0
   -1.7508  -11.3016   18.6072 C   0  0  0  0  0  0  0  0  0  0  0  0
    1.7497   -5.6771   26.4971 C   0  0  0  0  0  0  0  0  0  0  0  0
   -1.5799   -9.9322   18.3468 C   0  0  0  0  0  0  0  0  0  0  0  0
   -1.0871  -12.2214   17.8851 C   0  0  0  0  0  0  0  0  0  0  0  0
   -2.2706   -8.9669   19.0691 C   0  0  0  0  0  0  0  0  0  0  0  0
    3.0279   -5.3073   26.8197 C   0  0  0  0  0  0  0  0  0  0  0  0
    7.3282   -3.8948   29.1186 C   0  0  0  0  0  0  0  0  0  0  0  0
  1  3  4  0
  1  7  4  0
  2  3  1  0
  2  6  4  0
  2 16  4  0
  3 22  4  0
  4  9  4  0
  4 10  1  0
  4 20  4  0
  5 16  4  0
  5 23  4  0
  6 15  4  0
  7 12  4  0
  8 13  4  0
  8 14  4  0
  9 11  4  0
 11 14  4  0
 11 19  4  0
 12 18  4  0
 13 21  4  0
 15 23  4  0
 17 19  4  0
 17 20  4  0
 18 22  4  0
 19 21  4  0
M  END
$$$$

 Created by Python create_sdf_string function

 23 25  0  0  0  0  0  0  0  0999 V2000
    2.4610   -5.3070   29.1240 C   0  0  0  0  0  0  0  0  0  0  0  0
    4.7710   -4.6952   28.4803 C   0  0  0  0  0  0  0  0  0  0  0  0
    3.4047   -5.1087   28.1314 C   0  0  0  0  0  0  0  0  0  0  0  0
   -0.2234  -11.8615   16.8874 C   0  0  0  0  0  0  0  0  0  0  0  0
    6.4491   -4.1532   30.1213 C   0  0  0  0  0  0  0  0  0  0  0  0
    5.7060   -4.4340   27.4975 C   0  0  0  0  0  0  0  0  0  0  0  0
    1.1818   -5.6612   28.8399 C   0  0  0  0  0  0  0  0  0  0  0  0
   -1.2067   -7.3287   17.7772 C   0  0  0  0  0  0  0  0  0  0  0  0
   -0.0206  -10.5585   16.6210 C   0  0  0  0  0  0  0  0  0  0  0  0
    0.3696  -12.7626   16.2169 O   0  0  0  0  0  0  0  0  0  0  0  0
   -0.6895   -9.5676   17.3297 C   0  0  0  0  0  0  0  0  0  0  0  0
    0.8388   -5.8417   27.5264 C   0  0  0  0  0  0  0  0  0  0  0  0
   -2.0709   -7.6637   18.7817 C   0  0  0  0  0  0  0  0  0  0  0  0
   -0.5279   -8.2168   17.0717 C   0  0  0  0  0  0  0  0  0  0  0  0
    6.9694   -4.0191   27.8190 C   0  0  0  0  0  0  0  0  0  0  0  0
    5.1733   -4.5469   29.8123 C   0  0  0  0  0  0  0  0  0  0  0  0
   -1.7508  -11.3016   18.6072 C   0  0  0  0  0  0  0  0  0  0  0  0
    1.7497   -5.6771   26.4971 C   0  0  0  0  0  0  0  0  0  0  0  0
   -1.5799   -9.9322   18.3468 C   0  0  0  0  0  0  0  0  0  0  0  0
   -1.0871  -12.2214   17.8851 C   0  0  0  0  0  0  0  0  0  0  0  0
   -2.2706   -8.9669   19.0691 C   0  0  0  0  0  0  0  0  0  0  0  0
    3.0279   -5.3073   26.8197 C   0  0  0  0  0  0  0  0  0  0  0  0
    7.3282   -3.8948   29.1186 C   0  0  0  0  0  0  0  0  0  0  0  0
  1  3  4  0
  1  7  4  0
  2  3  1  0
  2  6  4  0
  2 16  4  0
  3 22  4  0
  4  9  4  0
  4 10  1  0
  4 20  4  0
  5 16  4  0
  5 23  4  0
  6 15  4  0
  7 12  4  0
  8 13  4  0
  8 14  4  0
  9 11  4  0
 11 14  4  0
 11 19  4  0
 12 18  4  0
 13 21  4  0
 15 23  4  0
 17 19  4  0
 17 20  4  0
 18 22  4  0
 19 21  4  0
M  END
$$$$

 Created by Python create_sdf_string function

 23 25  0  0  0  0  0  0  0  0999 V2000
    2.4610   -5.3070   29.1240 C   0  0  0  0  0  0  0  0  0  0  0  0
    4.7710   -4.6952   28.4803 C   0  0  0  0  0  0  0  0  0  0  0  0
    3.4047   -5.1087   28.1314 C   0  0  0  0  0  0  0  0  0  0  0  0
   -0.2234  -11.8615   16.8874 C   0  0  0  0  0  0  0  0  0  0  0  0
    6.4491   -4.1532   30.1213 C   0  0  0  0  0  0  0  0  0  0  0  0
    5.7060   -4.4340   27.4975 C   0  0  0  0  0  0  0  0  0  0  0  0
    1.1818   -5.6612   28.8399 C   0  0  0  0  0  0  0  0  0  0  0  0
   -1.2067   -7.3287   17.7772 C   0  0  0  0  0  0  0  0  0  0  0  0
   -0.0206  -10.5585   16.6210 C   0  0  0  0  0  0  0  0  0  0  0  0
    0.3696  -12.7626   16.2169 O   0  0  0  0  0  0  0  0  0  0  0  0
   -0.6895   -9.5676   17.3297 C   0  0  0  0  0  0  0  0  0  0  0  0
    0.8388   -5.8417   27.5264 C   0  0  0  0  0  0  0  0  0  0  0  0
   -2.0709   -7.6637   18.7817 C   0  0  0  0  0  0  0  0  0  0  0  0
   -0.5279   -8.2168   17.0717 C   0  0  0  0  0  0  0  0  0  0  0  0
    6.9694   -4.0191   27.8190 C   0  0  0  0  0  0  0  0  0  0  0  0
    5.1733   -4.5469   29.8123 C   0  0  0  0  0  0  0  0  0  0  0  0
   -1.7508  -11.3016   18.6072 C   0  0  0  0  0  0  0  0  0  0  0  0
    1.7497   -5.6771   26.4971 C   0  0  0  0  0  0  0  0  0  0  0  0
   -1.5799   -9.9322   18.3468 C   0  0  0  0  0  0  0  0  0  0  0  0
   -1.0871  -12.2214   17.8851 C   0  0  0  0  0  0  0  0  0  0  0  0
   -2.2706   -8.9669   19.0691 C   0  0  0  0  0  0  0  0  0  0  0  0
    3.0279   -5.3073   26.8197 C   0  0  0  0  0  0  0  0  0  0  0  0
    7.3282   -3.8948   29.1186 C   0  0  0  0  0  0  0  0  0  0  0  0
  1  3  4  0
  1  7  4  0
  2  3  1  0
  2  6  4  0
  2 16  4  0
  3 22  4  0
  4  9  4  0
  4 10  1  0
  4 20  4  0
  5 16  4  0
  5 23  4  0
  6 15  4  0
  7 12  4  0
  8 13  4  0
  8 14  4  0
  9 11  4  0
 11 14  4  0
 11 19  4  0
 12 18  4  0
 13 21  4  0
 15 23  4  0
 17 19  4  0
 17 20  4  0
 18 22  4  0
 19 21  4  0
M  END
$$$$

 Created by Python create_sdf_string function

 23 25  0  0  0  0  0  0  0  0999 V2000
    2.4610   -5.3070   29.1240 C   0  0  0  0  0  0  0  0  0  0  0  0
    4.7710   -4.6952   28.4803 C   0  0  0  0  0  0  0  0  0  0  0  0
    3.4047   -5.1087   28.1314 C   0  0  0  0  0  0  0  0  0  0  0  0
   -0.2234  -11.8615   16.8874 C   0  0  0  0  0  0  0  0  0  0  0  0
    6.4491   -4.1532   30.1213 C   0  0  0  0  0  0  0  0  0  0  0  0
    5.7060   -4.4340   27.4975 C   0  0  0  0  0  0  0  0  0  0  0  0
    1.1818   -5.6612   28.8399 C   0  0  0  0  0  0  0  0  0  0  0  0
   -1.2067   -7.3287   17.7772 C   0  0  0  0  0  0  0  0  0  0  0  0
   -0.0206  -10.5585   16.6210 C   0  0  0  0  0  0  0  0  0  0  0  0
    0.3696  -12.7626   16.2169 O   0  0  0  0  0  0  0  0  0  0  0  0
   -0.6895   -9.5676   17.3297 C   0  0  0  0  0  0  0  0  0  0  0  0
    0.8388   -5.8417   27.5264 C   0  0  0  0  0  0  0  0  0  0  0  0
   -2.0709   -7.6637   18.7817 C   0  0  0  0  0  0  0  0  0  0  0  0
   -0.5279   -8.2168   17.0717 C   0  0  0  0  0  0  0  0  0  0  0  0
    6.9694   -4.0191   27.8190 C   0  0  0  0  0  0  0  0  0  0  0  0
    5.1733   -4.5469   29.8123 C   0  0  0  0  0  0  0  0  0  0  0  0
   -1.7508  -11.3016   18.6072 C   0  0  0  0  0  0  0  0  0  0  0  0
    1.7497   -5.6771   26.4971 C   0  0  0  0  0  0  0  0  0  0  0  0
   -1.5799   -9.9322   18.3468 C   0  0  0  0  0  0  0  0  0  0  0  0
   -1.0871  -12.2214   17.8851 C   0  0  0  0  0  0  0  0  0  0  0  0
   -2.2706   -8.9669   19.0691 C   0  0  0  0  0  0  0  0  0  0  0  0
    3.0279   -5.3073   26.8197 C   0  0  0  0  0  0  0  0  0  0  0  0
    7.3282   -3.8948   29.1186 C   0  0  0  0  0  0  0  0  0  0  0  0
  1  3  4  0
  1  7  4  0
  2  3  1  0
  2  6  4  0
  2 16  4  0
  3 22  4  0
  4  9  4  0
  4 10  1  0
  4 20  4  0
  5 16  4  0
  5 23  4  0
  6 15  4  0
  7 12  4  0
  8 13  4  0
  8 14  4  0
  9 11  4  0
 11 14  4  0
 11 19  4  0
 12 18  4  0
 13 21  4  0
 15 23  4  0
 17 19  4  0
 17 20  4  0
 18 22  4  0
 19 21  4  0
M  END
$$$$

 Created by Python create_sdf_string function

 23 25  0  0  0  0  0  0  0  0999 V2000
    2.4610   -5.3070   29.1240 C   0  0  0  0  0  0  0  0  0  0  0  0
    4.7710   -4.6952   28.4803 C   0  0  0  0  0  0  0  0  0  0  0  0
    3.4047   -5.1087   28.1314 C   0  0  0  0  0  0  0  0  0  0  0  0
   -0.2234  -11.8615   16.8874 C   0  0  0  0  0  0  0  0  0  0  0  0
    6.4491   -4.1532   30.1213 C   0  0  0  0  0  0  0  0  0  0  0  0
    5.7060   -4.4340   27.4975 C   0  0  0  0  0  0  0  0  0  0  0  0
    1.1818   -5.6612   28.8399 C   0  0  0  0  0  0  0  0  0  0  0  0
   -1.2067   -7.3287   17.7772 C   0  0  0  0  0  0  0  0  0  0  0  0
   -0.0206  -10.5585   16.6210 C   0  0  0  0  0  0  0  0  0  0  0  0
    0.3696  -12.7626   16.2169 O   0  0  0  0  0  0  0  0  0  0  0  0
   -0.6895   -9.5676   17.3297 C   0  0  0  0  0  0  0  0  0  0  0  0
    0.8388   -5.8417   27.5264 C   0  0  0  0  0  0  0  0  0  0  0  0
   -2.0709   -7.6637   18.7817 C   0  0  0  0  0  0  0  0  0  0  0  0
   -0.5279   -8.2168   17.0717 C   0  0  0  0  0  0  0  0  0  0  0  0
    6.9694   -4.0191   27.8190 C   0  0  0  0  0  0  0  0  0  0  0  0
    5.1733   -4.5469   29.8123 C   0  0  0  0  0  0  0  0  0  0  0  0
   -1.7508  -11.3016   18.6072 C   0  0  0  0  0  0  0  0  0  0  0  0
    1.7497   -5.6771   26.4971 C   0  0  0  0  0  0  0  0  0  0  0  0
   -1.5799   -9.9322   18.3468 C   0  0  0  0  0  0  0  0  0  0  0  0
   -1.0871  -12.2214   17.8851 C   0  0  0  0  0  0  0  0  0  0  0  0
   -2.2706   -8.9669   19.0691 C   0  0  0  0  0  0  0  0  0  0  0  0
    3.0279   -5.3073   26.8197 C   0  0  0  0  0  0  0  0  0  0  0  0
    7.3282   -3.8948   29.1186 C   0  0  0  0  0  0  0  0  0  0  0  0
  1  3  4  0
  1  7  4  0
  2  3  1  0
  2  6  4  0
  2 16  4  0
  3 22  4  0
  4  9  4  0
  4 10  1  0
  4 20  4  0
  5 16  4  0
  5 23  4  0
  6 15  4  0
  7 12  4  0
  8 13  4  0
  8 14  4  0
  9 11  4  0
 11 14  4  0
 11 19  4  0
 12 18  4  0
 13 21  4  0
 15 23  4  0
 17 19  4  0
 17 20  4  0
 18 22  4  0
 19 21  4  0
M  END
$$$$

 Created by Python create_sdf_string function

 23 25  0  0  0  0  0  0  0  0999 V2000
    2.4610   -5.3070   29.1240 C   0  0  0  0  0  0  0  0  0  0  0  0
    4.7710   -4.6952   28.4803 C   0  0  0  0  0  0  0  0  0  0  0  0
    3.4047   -5.1087   28.1314 C   0  0  0  0  0  0  0  0  0  0  0  0
   -0.2234  -11.8615   16.8874 C   0  0  0  0  0  0  0  0  0  0  0  0
    6.4491   -4.1532   30.1213 C   0  0  0  0  0  0  0  0  0  0  0  0
    5.7060   -4.4340   27.4975 C   0  0  0  0  0  0  0  0  0  0  0  0
    1.1818   -5.6612   28.8399 C   0  0  0  0  0  0  0  0  0  0  0  0
   -1.2067   -7.3287   17.7772 C   0  0  0  0  0  0  0  0  0  0  0  0
   -0.0206  -10.5585   16.6210 C   0  0  0  0  0  0  0  0  0  0  0  0
    0.3696  -12.7626   16.2169 O   0  0  0  0  0  0  0  0  0  0  0  0
   -0.6895   -9.5676   17.3297 C   0  0  0  0  0  0  0  0  0  0  0  0
    0.8388   -5.8417   27.5264 C   0  0  0  0  0  0  0  0  0  0  0  0
   -2.0709   -7.6637   18.7817 C   0  0  0  0  0  0  0  0  0  0  0  0
   -0.5279   -8.2168   17.0717 C   0  0  0  0  0  0  0  0  0  0  0  0
    6.9694   -4.0191   27.8190 C   0  0  0  0  0  0  0  0  0  0  0  0
    5.1733   -4.5469   29.8123 C   0  0  0  0  0  0  0  0  0  0  0  0
   -1.7508  -11.3016   18.6072 C   0  0  0  0  0  0  0  0  0  0  0  0
    1.7497   -5.6771   26.4971 C   0  0  0  0  0  0  0  0  0  0  0  0
   -1.5799   -9.9322   18.3468 C   0  0  0  0  0  0  0  0  0  0  0  0
   -1.0871  -12.2214   17.8851 C   0  0  0  0  0  0  0  0  0  0  0  0
   -2.2706   -8.9669   19.0691 C   0  0  0  0  0  0  0  0  0  0  0  0
    3.0279   -5.3073   26.8197 C   0  0  0  0  0  0  0  0  0  0  0  0
    7.3282   -3.8948   29.1186 C   0  0  0  0  0  0  0  0  0  0  0  0
  1  3  4  0
  1  7  4  0
  2  3  1  0
  2  6  4  0
  2 16  4  0
  3 22  4  0
  4  9  4  0
  4 10  1  0
  4 20  4  0
  5 16  4  0
  5 23  4  0
  6 15  4  0
  7 12  4  0
  8 13  4  0
  8 14  4  0
  9 11  4  0
 11 14  4  0
 11 19  4  0
 12 18  4  0
 13 21  4  0
 15 23  4  0
 17 19  4  0
 17 20  4  0
 18 22  4  0
 19 21  4  0
M  END
$$$$

 Created by Python create_sdf_string function

 23 25  0  0  0  0  0  0  0  0999 V2000
    2.4610   -5.3070   29.1240 C   0  0  0  0  0  0  0  0  0  0  0  0
    4.7710   -4.6952   28.4803 C   0  0  0  0  0  0  0  0  0  0  0  0
    3.4047   -5.1087   28.1314 C   0  0  0  0  0  0  0  0  0  0  0  0
   -0.2234  -11.8615   16.8874 C   0  0  0  0  0  0  0  0  0  0  0  0
    6.4491   -4.1532   30.1213 C   0  0  0  0  0  0  0  0  0  0  0  0
    5.7060   -4.4340   27.4975 C   0  0  0  0  0  0  0  0  0  0  0  0
    1.1818   -5.6612   28.8399 C   0  0  0  0  0  0  0  0  0  0  0  0
   -1.2067   -7.3287   17.7772 C   0  0  0  0  0  0  0  0  0  0  0  0
   -0.0206  -10.5585   16.6210 C   0  0  0  0  0  0  0  0  0  0  0  0
    0.3696  -12.7626   16.2169 O   0  0  0  0  0  0  0  0  0  0  0  0
   -0.6895   -9.5676   17.3297 C   0  0  0  0  0  0  0  0  0  0  0  0
    0.8388   -5.8417   27.5264 C   0  0  0  0  0  0  0  0  0  0  0  0
   -2.0709   -7.6637   18.7817 C   0  0  0  0  0  0  0  0  0  0  0  0
   -0.5279   -8.2168   17.0717 C   0  0  0  0  0  0  0  0  0  0  0  0
    6.9694   -4.0191   27.8190 C   0  0  0  0  0  0  0  0  0  0  0  0
    5.1733   -4.5469   29.8123 C   0  0  0  0  0  0  0  0  0  0  0  0
   -1.7508  -11.3016   18.6072 C   0  0  0  0  0  0  0  0  0  0  0  0
    1.7497   -5.6771   26.4971 C   0  0  0  0  0  0  0  0  0  0  0  0
   -1.5799   -9.9322   18.3468 C   0  0  0  0  0  0  0  0  0  0  0  0
   -1.0871  -12.2214   17.8851 C   0  0  0  0  0  0  0  0  0  0  0  0
   -2.2706   -8.9669   19.0691 C   0  0  0  0  0  0  0  0  0  0  0  0
    3.0279   -5.3073   26.8197 C   0  0  0  0  0  0  0  0  0  0  0  0
    7.3282   -3.8948   29.1186 C   0  0  0  0  0  0  0  0  0  0  0  0
  1  3  4  0
  1  7  4  0
  2  3  1  0
  2  6  4  0
  2 16  4  0
  3 22  4  0
  4  9  4  0
  4 10  1  0
  4 20  4  0
  5 16  4  0
  5 23  4  0
  6 15  4  0
  7 12  4  0
  8 13  4  0
  8 14  4  0
  9 11  4  0
 11 14  4  0
 11 19  4  0
 12 18  4  0
 13 21  4  0
 15 23  4  0
 17 19  4  0
 17 20  4  0
 18 22  4  0
 19 21  4  0
M  END
$$$$

 Created by Python create_sdf_string function

 23 25  0  0  0  0  0  0  0  0999 V2000
    2.4610   -5.3070   29.1240 C   0  0  0  0  0  0  0  0  0  0  0  0
    4.7710   -4.6952   28.4803 C   0  0  0  0  0  0  0  0  0  0  0  0
    3.4047   -5.1087   28.1314 C   0  0  0  0  0  0  0  0  0  0  0  0
   -0.2234  -11.8615   16.8874 C   0  0  0  0  0  0  0  0  0  0  0  0
    6.4491   -4.1532   30.1213 C   0  0  0  0  0  0  0  0  0  0  0  0
    5.7060   -4.4340   27.4975 C   0  0  0  0  0  0  0  0  0  0  0  0
    1.1818   -5.6612   28.8399 C   0  0  0  0  0  0  0  0  0  0  0  0
   -1.2067   -7.3287   17.7772 C   0  0  0  0  0  0  0  0  0  0  0  0
   -0.0206  -10.5585   16.6210 C   0  0  0  0  0  0  0  0  0  0  0  0
    0.3696  -12.7626   16.2169 O   0  0  0  0  0  0  0  0  0  0  0  0
   -0.6895   -9.5676   17.3297 C   0  0  0  0  0  0  0  0  0  0  0  0
    0.8388   -5.8417   27.5264 C   0  0  0  0  0  0  0  0  0  0  0  0
   -2.0709   -7.6637   18.7817 C   0  0  0  0  0  0  0  0  0  0  0  0
   -0.5279   -8.2168   17.0717 C   0  0  0  0  0  0  0  0  0  0  0  0
    6.9694   -4.0191   27.8190 C   0  0  0  0  0  0  0  0  0  0  0  0
    5.1733   -4.5469   29.8123 C   0  0  0  0  0  0  0  0  0  0  0  0
   -1.7508  -11.3016   18.6072 C   0  0  0  0  0  0  0  0  0  0  0  0
    1.7497   -5.6771   26.4971 C   0  0  0  0  0  0  0  0  0  0  0  0
   -1.5799   -9.9322   18.3468 C   0  0  0  0  0  0  0  0  0  0  0  0
   -1.0871  -12.2214   17.8851 C   0  0  0  0  0  0  0  0  0  0  0  0
   -2.2706   -8.9669   19.0691 C   0  0  0  0  0  0  0  0  0  0  0  0
    3.0279   -5.3073   26.8197 C   0  0  0  0  0  0  0  0  0  0  0  0
    7.3282   -3.8948   29.1186 C   0  0  0  0  0  0  0  0  0  0  0  0
  1  3  4  0
  1  7  4  0
  2  3  1  0
  2  6  4  0
  2 16  4  0
  3 22  4  0
  4  9  4  0
  4 10  1  0
  4 20  4  0
  5 16  4  0
  5 23  4  0
  6 15  4  0
  7 12  4  0
  8 13  4  0
  8 14  4  0
  9 11  4  0
 11 14  4  0
 11 19  4  0
 12 18  4  0
 13 21  4  0
 15 23  4  0
 17 19  4  0
 17 20  4  0
 18 22  4  0
 19 21  4  0
M  END
$$$$

 Created by Python create_sdf_string function

 23 25  0  0  0  0  0  0  0  0999 V2000
    2.4610   -5.3070   29.1240 C   0  0  0  0  0  0  0  0  0  0  0  0
    4.7710   -4.6952   28.4803 C   0  0  0  0  0  0  0  0  0  0  0  0
    3.4047   -5.1087   28.1314 C   0  0  0  0  0  0  0  0  0  0  0  0
   -0.2234  -11.8615   16.8874 C   0  0  0  0  0  0  0  0  0  0  0  0
    6.4491   -4.1532   30.1213 C   0  0  0  0  0  0  0  0  0  0  0  0
    5.7060   -4.4340   27.4975 C   0  0  0  0  0  0  0  0  0  0  0  0
    1.1818   -5.6612   28.8399 C   0  0  0  0  0  0  0  0  0  0  0  0
   -1.2067   -7.3287   17.7772 C   0  0  0  0  0  0  0  0  0  0  0  0
   -0.0206  -10.5585   16.6210 C   0  0  0  0  0  0  0  0  0  0  0  0
    0.3696  -12.7626   16.2169 O   0  0  0  0  0  0  0  0  0  0  0  0
   -0.6895   -9.5676   17.3297 C   0  0  0  0  0  0  0  0  0  0  0  0
    0.8388   -5.8417   27.5264 C   0  0  0  0  0  0  0  0  0  0  0  0
   -2.0709   -7.6637   18.7817 C   0  0  0  0  0  0  0  0  0  0  0  0
   -0.5279   -8.2168   17.0717 C   0  0  0  0  0  0  0  0  0  0  0  0
    6.9694   -4.0191   27.8190 C   0  0  0  0  0  0  0  0  0  0  0  0
    5.1733   -4.5469   29.8123 C   0  0  0  0  0  0  0  0  0  0  0  0
   -1.7508  -11.3016   18.6072 C   0  0  0  0  0  0  0  0  0  0  0  0
    1.7497   -5.6771   26.4971 C   0  0  0  0  0  0  0  0  0  0  0  0
   -1.5799   -9.9322   18.3468 C   0  0  0  0  0  0  0  0  0  0  0  0
   -1.0871  -12.2214   17.8851 C   0  0  0  0  0  0  0  0  0  0  0  0
   -2.2706   -8.9669   19.0691 C   0  0  0  0  0  0  0  0  0  0  0  0
    3.0279   -5.3073   26.8197 C   0  0  0  0  0  0  0  0  0  0  0  0
    7.3282   -3.8948   29.1186 C   0  0  0  0  0  0  0  0  0  0  0  0
  1  3  4  0
  1  7  4  0
  2  3  1  0
  2  6  4  0
  2 16  4  0
  3 22  4  0
  4  9  4  0
  4 10  1  0
  4 20  4  0
  5 16  4  0
  5 23  4  0
  6 15  4  0
  7 12  4  0
  8 13  4  0
  8 14  4  0
  9 11  4  0
 11 14  4  0
 11 19  4  0
 12 18  4  0
 13 21  4  0
 15 23  4  0
 17 19  4  0
 17 20  4  0
 18 22  4  0
 19 21  4  0
M  END
$$$$

 Created by Python create_sdf_string function

 23 25  0  0  0  0  0  0  0  0999 V2000
    2.4610   -5.3070   29.1240 C   0  0  0  0  0  0  0  0  0  0  0  0
    4.7710   -4.6952   28.4803 C   0  0  0  0  0  0  0  0  0  0  0  0
    3.4047   -5.1087   28.1314 C   0  0  0  0  0  0  0  0  0  0  0  0
   -0.2234  -11.8615   16.8874 C   0  0  0  0  0  0  0  0  0  0  0  0
    6.4491   -4.1532   30.1213 C   0  0  0  0  0  0  0  0  0  0  0  0
    5.7060   -4.4340   27.4975 C   0  0  0  0  0  0  0  0  0  0  0  0
    1.1818   -5.6612   28.8399 C   0  0  0  0  0  0  0  0  0  0  0  0
   -1.2067   -7.3287   17.7772 C   0  0  0  0  0  0  0  0  0  0  0  0
   -0.0206  -10.5585   16.6210 C   0  0  0  0  0  0  0  0  0  0  0  0
    0.3696  -12.7626   16.2169 O   0  0  0  0  0  0  0  0  0  0  0  0
   -0.6895   -9.5676   17.3297 C   0  0  0  0  0  0  0  0  0  0  0  0
    0.8388   -5.8417   27.5264 C   0  0  0  0  0  0  0  0  0  0  0  0
   -2.0709   -7.6637   18.7817 C   0  0  0  0  0  0  0  0  0  0  0  0
   -0.5279   -8.2168   17.0717 C   0  0  0  0  0  0  0  0  0  0  0  0
    6.9694   -4.0191   27.8190 C   0  0  0  0  0  0  0  0  0  0  0  0
    5.1733   -4.5469   29.8123 C   0  0  0  0  0  0  0  0  0  0  0  0
   -1.7508  -11.3016   18.6072 C   0  0  0  0  0  0  0  0  0  0  0  0
    1.7497   -5.6771   26.4971 C   0  0  0  0  0  0  0  0  0  0  0  0
   -1.5799   -9.9322   18.3468 C   0  0  0  0  0  0  0  0  0  0  0  0
   -1.0871  -12.2214   17.8851 C   0  0  0  0  0  0  0  0  0  0  0  0
   -2.2706   -8.9669   19.0691 C   0  0  0  0  0  0  0  0  0  0  0  0
    3.0279   -5.3073   26.8197 C   0  0  0  0  0  0  0  0  0  0  0  0
    7.3282   -3.8948   29.1186 C   0  0  0  0  0  0  0  0  0  0  0  0
  1  3  4  0
  1  7  4  0
  2  3  1  0
  2  6  4  0
  2 16  4  0
  3 22  4  0
  4  9  4  0
  4 10  1  0
  4 20  4  0
  5 16  4  0
  5 23  4  0
  6 15  4  0
  7 12  4  0
  8 13  4  0
  8 14  4  0
  9 11  4  0
 11 14  4  0
 11 19  4  0
 12 18  4  0
 13 21  4  0
 15 23  4  0
 17 19  4  0
 17 20  4  0
 18 22  4  0
 19 21  4  0
M  END
$$$$

 Created by Python create_sdf_string function

 23 25  0  0  0  0  0  0  0  0999 V2000
    2.4610   -5.3070   29.1240 C   0  0  0  0  0  0  0  0  0  0  0  0
    4.7710   -4.6952   28.4803 C   0  0  0  0  0  0  0  0  0  0  0  0
    3.4047   -5.1087   28.1314 C   0  0  0  0  0  0  0  0  0  0  0  0
   -0.2234  -11.8615   16.8874 C   0  0  0  0  0  0  0  0  0  0  0  0
    6.4491   -4.1532   30.1213 C   0  0  0  0  0  0  0  0  0  0  0  0
    5.7060   -4.4340   27.4975 C   0  0  0  0  0  0  0  0  0  0  0  0
    1.1818   -5.6612   28.8399 C   0  0  0  0  0  0  0  0  0  0  0  0
   -1.2067   -7.3287   17.7772 C   0  0  0  0  0  0  0  0  0  0  0  0
   -0.0206  -10.5585   16.6210 C   0  0  0  0  0  0  0  0  0  0  0  0
    0.3696  -12.7626   16.2169 O   0  0  0  0  0  0  0  0  0  0  0  0
   -0.6895   -9.5676   17.3297 C   0  0  0  0  0  0  0  0  0  0  0  0
    0.8388   -5.8417   27.5264 C   0  0  0  0  0  0  0  0  0  0  0  0
   -2.0709   -7.6637   18.7817 C   0  0  0  0  0  0  0  0  0  0  0  0
   -0.5279   -8.2168   17.0717 C   0  0  0  0  0  0  0  0  0  0  0  0
    6.9694   -4.0191   27.8190 C   0  0  0  0  0  0  0  0  0  0  0  0
    5.1733   -4.5469   29.8123 C   0  0  0  0  0  0  0  0  0  0  0  0
   -1.7508  -11.3016   18.6072 C   0  0  0  0  0  0  0  0  0  0  0  0
    1.7497   -5.6771   26.4971 C   0  0  0  0  0  0  0  0  0  0  0  0
   -1.5799   -9.9322   18.3468 C   0  0  0  0  0  0  0  0  0  0  0  0
   -1.0871  -12.2214   17.8851 C   0  0  0  0  0  0  0  0  0  0  0  0
   -2.2706   -8.9669   19.0691 C   0  0  0  0  0  0  0  0  0  0  0  0
    3.0279   -5.3073   26.8197 C   0  0  0  0  0  0  0  0  0  0  0  0
    7.3282   -3.8948   29.1186 C   0  0  0  0  0  0  0  0  0  0  0  0
  1  3  4  0
  1  7  4  0
  2  3  1  0
  2  6  4  0
  2 16  4  0
  3 22  4  0
  4  9  4  0
  4 10  1  0
  4 20  4  0
  5 16  4  0
  5 23  4  0
  6 15  4  0
  7 12  4  0
  8 13  4  0
  8 14  4  0
  9 11  4  0
 11 14  4  0
 11 19  4  0
 12 18  4  0
 13 21  4  0
 15 23  4  0
 17 19  4  0
 17 20  4  0
 18 22  4  0
 19 21  4  0
M  END
$$$$

 Created by Python create_sdf_string function

 23 25  0  0  0  0  0  0  0  0999 V2000
    2.4610   -5.3070   29.1240 C   0  0  0  0  0  0  0  0  0  0  0  0
    4.7710   -4.6952   28.4803 C   0  0  0  0  0  0  0  0  0  0  0  0
    3.4047   -5.1087   28.1314 C   0  0  0  0  0  0  0  0  0  0  0  0
   -0.2234  -11.8615   16.8874 C   0  0  0  0  0  0  0  0  0  0  0  0
    6.4491   -4.1532   30.1213 C   0  0  0  0  0  0  0  0  0  0  0  0
    5.7060   -4.4340   27.4975 C   0  0  0  0  0  0  0  0  0  0  0  0
    1.1818   -5.6612   28.8399 C   0  0  0  0  0  0  0  0  0  0  0  0
   -1.2067   -7.3287   17.7772 C   0  0  0  0  0  0  0  0  0  0  0  0
   -0.0206  -10.5585   16.6210 C   0  0  0  0  0  0  0  0  0  0  0  0
    0.3696  -12.7626   16.2169 O   0  0  0  0  0  0  0  0  0  0  0  0
   -0.6895   -9.5676   17.3297 C   0  0  0  0  0  0  0  0  0  0  0  0
    0.8388   -5.8417   27.5264 C   0  0  0  0  0  0  0  0  0  0  0  0
   -2.0709   -7.6637   18.7817 C   0  0  0  0  0  0  0  0  0  0  0  0
   -0.5279   -8.2168   17.0717 C   0  0  0  0  0  0  0  0  0  0  0  0
    6.9694   -4.0191   27.8190 C   0  0  0  0  0  0  0  0  0  0  0  0
    5.1733   -4.5469   29.8123 C   0  0  0  0  0  0  0  0  0  0  0  0
   -1.7508  -11.3016   18.6072 C   0  0  0  0  0  0  0  0  0  0  0  0
    1.7497   -5.6771   26.4971 C   0  0  0  0  0  0  0  0  0  0  0  0
   -1.5799   -9.9322   18.3468 C   0  0  0  0  0  0  0  0  0  0  0  0
   -1.0871  -12.2214   17.8851 C   0  0  0  0  0  0  0  0  0  0  0  0
   -2.2706   -8.9669   19.0691 C   0  0  0  0  0  0  0  0  0  0  0  0
    3.0279   -5.3073   26.8197 C   0  0  0  0  0  0  0  0  0  0  0  0
    7.3282   -3.8948   29.1186 C   0  0  0  0  0  0  0  0  0  0  0  0
  1  3  4  0
  1  7  4  0
  2  3  1  0
  2  6  4  0
  2 16  4  0
  3 22  4  0
  4  9  4  0
  4 10  1  0
  4 20  4  0
  5 16  4  0
  5 23  4  0
  6 15  4  0
  7 12  4  0
  8 13  4  0
  8 14  4  0
  9 11  4  0
 11 14  4  0
 11 19  4  0
 12 18  4  0
 13 21  4  0
 15 23  4  0
 17 19  4  0
 17 20  4  0
 18 22  4  0
 19 21  4  0
M  END
$$$$

 Created by Python create_sdf_string function

 23 25  0  0  0  0  0  0  0  0999 V2000
    2.4610   -5.3070   29.1240 C   0  0  0  0  0  0  0  0  0  0  0  0
    4.7710   -4.6952   28.4803 C   0  0  0  0  0  0  0  0  0  0  0  0
    3.4047   -5.1087   28.1314 C   0  0  0  0  0  0  0  0  0  0  0  0
   -0.2234  -11.8615   16.8874 C   0  0  0  0  0  0  0  0  0  0  0  0
    6.4491   -4.1532   30.1213 C   0  0  0  0  0  0  0  0  0  0  0  0
    5.7060   -4.4340   27.4975 C   0  0  0  0  0  0  0  0  0  0  0  0
    1.1818   -5.6612   28.8399 C   0  0  0  0  0  0  0  0  0  0  0  0
   -1.2067   -7.3287   17.7772 C   0  0  0  0  0  0  0  0  0  0  0  0
   -0.0206  -10.5585   16.6210 C   0  0  0  0  0  0  0  0  0  0  0  0
    0.3696  -12.7626   16.2169 O   0  0  0  0  0  0  0  0  0  0  0  0
   -0.6895   -9.5676   17.3297 C   0  0  0  0  0  0  0  0  0  0  0  0
    0.8388   -5.8417   27.5264 C   0  0  0  0  0  0  0  0  0  0  0  0
   -2.0709   -7.6637   18.7817 C   0  0  0  0  0  0  0  0  0  0  0  0
   -0.5279   -8.2168   17.0717 C   0  0  0  0  0  0  0  0  0  0  0  0
    6.9694   -4.0191   27.8190 C   0  0  0  0  0  0  0  0  0  0  0  0
    5.1733   -4.5469   29.8123 C   0  0  0  0  0  0  0  0  0  0  0  0
   -1.7508  -11.3016   18.6072 C   0  0  0  0  0  0  0  0  0  0  0  0
    1.7497   -5.6771   26.4971 C   0  0  0  0  0  0  0  0  0  0  0  0
   -1.5799   -9.9322   18.3468 C   0  0  0  0  0  0  0  0  0  0  0  0
   -1.0871  -12.2214   17.8851 C   0  0  0  0  0  0  0  0  0  0  0  0
   -2.2706   -8.9669   19.0691 C   0  0  0  0  0  0  0  0  0  0  0  0
    3.0279   -5.3073   26.8197 C   0  0  0  0  0  0  0  0  0  0  0  0
    7.3282   -3.8948   29.1186 C   0  0  0  0  0  0  0  0  0  0  0  0
  1  3  4  0
  1  7  4  0
  2  3  1  0
  2  6  4  0
  2 16  4  0
  3 22  4  0
  4  9  4  0
  4 10  1  0
  4 20  4  0
  5 16  4  0
  5 23  4  0
  6 15  4  0
  7 12  4  0
  8 13  4  0
  8 14  4  0
  9 11  4  0
 11 14  4  0
 11 19  4  0
 12 18  4  0
 13 21  4  0
 15 23  4  0
 17 19  4  0
 17 20  4  0
 18 22  4  0
 19 21  4  0
M  END
$$$$

 Created by Python create_sdf_string function

 23 25  0  0  0  0  0  0  0  0999 V2000
    2.4610   -5.3070   29.1240 C   0  0  0  0  0  0  0  0  0  0  0  0
    4.7710   -4.6952   28.4803 C   0  0  0  0  0  0  0  0  0  0  0  0
    3.4047   -5.1087   28.1314 C   0  0  0  0  0  0  0  0  0  0  0  0
   -0.2234  -11.8615   16.8874 C   0  0  0  0  0  0  0  0  0  0  0  0
    6.4491   -4.1532   30.1213 C   0  0  0  0  0  0  0  0  0  0  0  0
    5.7060   -4.4340   27.4975 C   0  0  0  0  0  0  0  0  0  0  0  0
    1.1818   -5.6612   28.8399 C   0  0  0  0  0  0  0  0  0  0  0  0
   -1.2067   -7.3287   17.7772 C   0  0  0  0  0  0  0  0  0  0  0  0
   -0.0206  -10.5585   16.6210 C   0  0  0  0  0  0  0  0  0  0  0  0
    0.3696  -12.7626   16.2169 O   0  0  0  0  0  0  0  0  0  0  0  0
   -0.6895   -9.5676   17.3297 C   0  0  0  0  0  0  0  0  0  0  0  0
    0.8388   -5.8417   27.5264 C   0  0  0  0  0  0  0  0  0  0  0  0
   -2.0709   -7.6637   18.7817 C   0  0  0  0  0  0  0  0  0  0  0  0
   -0.5279   -8.2168   17.0717 C   0  0  0  0  0  0  0  0  0  0  0  0
    6.9694   -4.0191   27.8190 C   0  0  0  0  0  0  0  0  0  0  0  0
    5.1733   -4.5469   29.8123 C   0  0  0  0  0  0  0  0  0  0  0  0
   -1.7508  -11.3016   18.6072 C   0  0  0  0  0  0  0  0  0  0  0  0
    1.7497   -5.6771   26.4971 C   0  0  0  0  0  0  0  0  0  0  0  0
   -1.5799   -9.9322   18.3468 C   0  0  0  0  0  0  0  0  0  0  0  0
   -1.0871  -12.2214   17.8851 C   0  0  0  0  0  0  0  0  0  0  0  0
   -2.2706   -8.9669   19.0691 C   0  0  0  0  0  0  0  0  0  0  0  0
    3.0279   -5.3073   26.8197 C   0  0  0  0  0  0  0  0  0  0  0  0
    7.3282   -3.8948   29.1186 C   0  0  0  0  0  0  0  0  0  0  0  0
  1  3  4  0
  1  7  4  0
  2  3  1  0
  2  6  4  0
  2 16  4  0
  3 22  4  0
  4  9  4  0
  4 10  1  0
  4 20  4  0
  5 16  4  0
  5 23  4  0
  6 15  4  0
  7 12  4  0
  8 13  4  0
  8 14  4  0
  9 11  4  0
 11 14  4  0
 11 19  4  0
 12 18  4  0
 13 21  4  0
 15 23  4  0
 17 19  4  0
 17 20  4  0
 18 22  4  0
 19 21  4  0
M  END
$$$$

 Created by Python create_sdf_string function

 23 25  0  0  0  0  0  0  0  0999 V2000
    2.4610   -5.3070   29.1240 C   0  0  0  0  0  0  0  0  0  0  0  0
    4.7710   -4.6952   28.4803 C   0  0  0  0  0  0  0  0  0  0  0  0
    3.4047   -5.1087   28.1314 C   0  0  0  0  0  0  0  0  0  0  0  0
   -0.2234  -11.8615   16.8874 C   0  0  0  0  0  0  0  0  0  0  0  0
    6.4491   -4.1532   30.1213 C   0  0  0  0  0  0  0  0  0  0  0  0
    5.7060   -4.4340   27.4975 C   0  0  0  0  0  0  0  0  0  0  0  0
    1.1818   -5.6612   28.8399 C   0  0  0  0  0  0  0  0  0  0  0  0
   -1.2067   -7.3287   17.7772 C   0  0  0  0  0  0  0  0  0  0  0  0
   -0.0206  -10.5585   16.6210 C   0  0  0  0  0  0  0  0  0  0  0  0
    0.3696  -12.7626   16.2169 O   0  0  0  0  0  0  0  0  0  0  0  0
   -0.6895   -9.5676   17.3297 C   0  0  0  0  0  0  0  0  0  0  0  0
    0.8388   -5.8417   27.5264 C   0  0  0  0  0  0  0  0  0  0  0  0
   -2.0709   -7.6637   18.7817 C   0  0  0  0  0  0  0  0  0  0  0  0
   -0.5279   -8.2168   17.0717 C   0  0  0  0  0  0  0  0  0  0  0  0
    6.9694   -4.0191   27.8190 C   0  0  0  0  0  0  0  0  0  0  0  0
    5.1733   -4.5469   29.8123 C   0  0  0  0  0  0  0  0  0  0  0  0
   -1.7508  -11.3016   18.6072 C   0  0  0  0  0  0  0  0  0  0  0  0
    1.7497   -5.6771   26.4971 C   0  0  0  0  0  0  0  0  0  0  0  0
   -1.5799   -9.9322   18.3468 C   0  0  0  0  0  0  0  0  0  0  0  0
   -1.0871  -12.2214   17.8851 C   0  0  0  0  0  0  0  0  0  0  0  0
   -2.2706   -8.9669   19.0691 C   0  0  0  0  0  0  0  0  0  0  0  0
    3.0279   -5.3073   26.8197 C   0  0  0  0  0  0  0  0  0  0  0  0
    7.3282   -3.8948   29.1186 C   0  0  0  0  0  0  0  0  0  0  0  0
  1  3  4  0
  1  7  4  0
  2  3  1  0
  2  6  4  0
  2 16  4  0
  3 22  4  0
  4  9  4  0
  4 10  1  0
  4 20  4  0
  5 16  4  0
  5 23  4  0
  6 15  4  0
  7 12  4  0
  8 13  4  0
  8 14  4  0
  9 11  4  0
 11 14  4  0
 11 19  4  0
 12 18  4  0
 13 21  4  0
 15 23  4  0
 17 19  4  0
 17 20  4  0
 18 22  4  0
 19 21  4  0
M  END
$$$$

 Created by Python create_sdf_string function

 23 25  0  0  0  0  0  0  0  0999 V2000
    2.4610   -5.3070   29.1240 C   0  0  0  0  0  0  0  0  0  0  0  0
    4.7710   -4.6952   28.4803 C   0  0  0  0  0  0  0  0  0  0  0  0
    3.4047   -5.1087   28.1314 C   0  0  0  0  0  0  0  0  0  0  0  0
   -0.2234  -11.8615   16.8874 C   0  0  0  0  0  0  0  0  0  0  0  0
    6.4491   -4.1532   30.1213 C   0  0  0  0  0  0  0  0  0  0  0  0
    5.7060   -4.4340   27.4975 C   0  0  0  0  0  0  0  0  0  0  0  0
    1.1818   -5.6612   28.8399 C   0  0  0  0  0  0  0  0  0  0  0  0
   -1.2067   -7.3287   17.7772 C   0  0  0  0  0  0  0  0  0  0  0  0
   -0.0206  -10.5585   16.6210 C   0  0  0  0  0  0  0  0  0  0  0  0
    0.3696  -12.7626   16.2169 O   0  0  0  0  0  0  0  0  0  0  0  0
   -0.6895   -9.5676   17.3297 C   0  0  0  0  0  0  0  0  0  0  0  0
    0.8388   -5.8417   27.5264 C   0  0  0  0  0  0  0  0  0  0  0  0
   -2.0709   -7.6637   18.7817 C   0  0  0  0  0  0  0  0  0  0  0  0
   -0.5279   -8.2168   17.0717 C   0  0  0  0  0  0  0  0  0  0  0  0
    6.9694   -4.0191   27.8190 C   0  0  0  0  0  0  0  0  0  0  0  0
    5.1733   -4.5469   29.8123 C   0  0  0  0  0  0  0  0  0  0  0  0
   -1.7508  -11.3016   18.6072 C   0  0  0  0  0  0  0  0  0  0  0  0
    1.7497   -5.6771   26.4971 C   0  0  0  0  0  0  0  0  0  0  0  0
   -1.5799   -9.9322   18.3468 C   0  0  0  0  0  0  0  0  0  0  0  0
   -1.0871  -12.2214   17.8851 C   0  0  0  0  0  0  0  0  0  0  0  0
   -2.2706   -8.9669   19.0691 C   0  0  0  0  0  0  0  0  0  0  0  0
    3.0279   -5.3073   26.8197 C   0  0  0  0  0  0  0  0  0  0  0  0
    7.3282   -3.8948   29.1186 C   0  0  0  0  0  0  0  0  0  0  0  0
  1  3  4  0
  1  7  4  0
  2  3  1  0
  2  6  4  0
  2 16  4  0
  3 22  4  0
  4  9  4  0
  4 10  1  0
  4 20  4  0
  5 16  4  0
  5 23  4  0
  6 15  4  0
  7 12  4  0
  8 13  4  0
  8 14  4  0
  9 11  4  0
 11 14  4  0
 11 19  4  0
 12 18  4  0
 13 21  4  0
 15 23  4  0
 17 19  4  0
 17 20  4  0
 18 22  4  0
 19 21  4  0
M  END
$$$$

 Created by Python create_sdf_string function

 23 25  0  0  0  0  0  0  0  0999 V2000
    2.4610   -5.3070   29.1240 C   0  0  0  0  0  0  0  0  0  0  0  0
    4.7710   -4.6952   28.4803 C   0  0  0  0  0  0  0  0  0  0  0  0
    3.4047   -5.1087   28.1314 C   0  0  0  0  0  0  0  0  0  0  0  0
   -0.2234  -11.8615   16.8874 C   0  0  0  0  0  0  0  0  0  0  0  0
    6.4491   -4.1532   30.1213 C   0  0  0  0  0  0  0  0  0  0  0  0
    5.7060   -4.4340   27.4975 C   0  0  0  0  0  0  0  0  0  0  0  0
    1.1818   -5.6612   28.8399 C   0  0  0  0  0  0  0  0  0  0  0  0
   -1.2067   -7.3287   17.7772 C   0  0  0  0  0  0  0  0  0  0  0  0
   -0.0206  -10.5585   16.6210 C   0  0  0  0  0  0  0  0  0  0  0  0
    0.3696  -12.7626   16.2169 O   0  0  0  0  0  0  0  0  0  0  0  0
   -0.6895   -9.5676   17.3297 C   0  0  0  0  0  0  0  0  0  0  0  0
    0.8388   -5.8417   27.5264 C   0  0  0  0  0  0  0  0  0  0  0  0
   -2.0709   -7.6637   18.7817 C   0  0  0  0  0  0  0  0  0  0  0  0
   -0.5279   -8.2168   17.0717 C   0  0  0  0  0  0  0  0  0  0  0  0
    6.9694   -4.0191   27.8190 C   0  0  0  0  0  0  0  0  0  0  0  0
    5.1733   -4.5469   29.8123 C   0  0  0  0  0  0  0  0  0  0  0  0
   -1.7508  -11.3016   18.6072 C   0  0  0  0  0  0  0  0  0  0  0  0
    1.7497   -5.6771   26.4971 C   0  0  0  0  0  0  0  0  0  0  0  0
   -1.5799   -9.9322   18.3468 C   0  0  0  0  0  0  0  0  0  0  0  0
   -1.0871  -12.2214   17.8851 C   0  0  0  0  0  0  0  0  0  0  0  0
   -2.2706   -8.9669   19.0691 C   0  0  0  0  0  0  0  0  0  0  0  0
    3.0279   -5.3073   26.8197 C   0  0  0  0  0  0  0  0  0  0  0  0
    7.3282   -3.8948   29.1186 C   0  0  0  0  0  0  0  0  0  0  0  0
  1  3  4  0
  1  7  4  0
  2  3  1  0
  2  6  4  0
  2 16  4  0
  3 22  4  0
  4  9  4  0
  4 10  1  0
  4 20  4  0
  5 16  4  0
  5 23  4  0
  6 15  4  0
  7 12  4  0
  8 13  4  0
  8 14  4  0
  9 11  4  0
 11 14  4  0
 11 19  4  0
 12 18  4  0
 13 21  4  0
 15 23  4  0
 17 19  4  0
 17 20  4  0
 18 22  4  0
 19 21  4  0
M  END
$$$$

 Created by Python create_sdf_string function

 23 25  0  0  0  0  0  0  0  0999 V2000
    2.4610   -5.3070   29.1240 C   0  0  0  0  0  0  0  0  0  0  0  0
    4.7710   -4.6952   28.4803 C   0  0  0  0  0  0  0  0  0  0  0  0
    3.4047   -5.1087   28.1314 C   0  0  0  0  0  0  0  0  0  0  0  0
   -0.2234  -11.8615   16.8874 C   0  0  0  0  0  0  0  0  0  0  0  0
    6.4491   -4.1532   30.1213 C   0  0  0  0  0  0  0  0  0  0  0  0
    5.7060   -4.4340   27.4975 C   0  0  0  0  0  0  0  0  0  0  0  0
    1.1818   -5.6612   28.8399 C   0  0  0  0  0  0  0  0  0  0  0  0
   -1.2067   -7.3287   17.7772 C   0  0  0  0  0  0  0  0  0  0  0  0
   -0.0206  -10.5585   16.6210 C   0  0  0  0  0  0  0  0  0  0  0  0
    0.3696  -12.7626   16.2169 O   0  0  0  0  0  0  0  0  0  0  0  0
   -0.6895   -9.5676   17.3297 C   0  0  0  0  0  0  0  0  0  0  0  0
    0.8388   -5.8417   27.5264 C   0  0  0  0  0  0  0  0  0  0  0  0
   -2.0709   -7.6637   18.7817 C   0  0  0  0  0  0  0  0  0  0  0  0
   -0.5279   -8.2168   17.0717 C   0  0  0  0  0  0  0  0  0  0  0  0
    6.9694   -4.0191   27.8190 C   0  0  0  0  0  0  0  0  0  0  0  0
    5.1733   -4.5469   29.8123 C   0  0  0  0  0  0  0  0  0  0  0  0
   -1.7508  -11.3016   18.6072 C   0  0  0  0  0  0  0  0  0  0  0  0
    1.7497   -5.6771   26.4971 C   0  0  0  0  0  0  0  0  0  0  0  0
   -1.5799   -9.9322   18.3468 C   0  0  0  0  0  0  0  0  0  0  0  0
   -1.0871  -12.2214   17.8851 C   0  0  0  0  0  0  0  0  0  0  0  0
   -2.2706   -8.9669   19.0691 C   0  0  0  0  0  0  0  0  0  0  0  0
    3.0279   -5.3073   26.8197 C   0  0  0  0  0  0  0  0  0  0  0  0
    7.3282   -3.8948   29.1186 C   0  0  0  0  0  0  0  0  0  0  0  0
  1  3  4  0
  1  7  4  0
  2  3  1  0
  2  6  4  0
  2 16  4  0
  3 22  4  0
  4  9  4  0
  4 10  1  0
  4 20  4  0
  5 16  4  0
  5 23  4  0
  6 15  4  0
  7 12  4  0
  8 13  4  0
  8 14  4  0
  9 11  4  0
 11 14  4  0
 11 19  4  0
 12 18  4  0
 13 21  4  0
 15 23  4  0
 17 19  4  0
 17 20  4  0
 18 22  4  0
 19 21  4  0
M  END
$$$$

 Created by Python create_sdf_string function

 23 25  0  0  0  0  0  0  0  0999 V2000
    2.4610   -5.3070   29.1240 C   0  0  0  0  0  0  0  0  0  0  0  0
    4.7710   -4.6952   28.4803 C   0  0  0  0  0  0  0  0  0  0  0  0
    3.4047   -5.1087   28.1314 C   0  0  0  0  0  0  0  0  0  0  0  0
   -0.2234  -11.8615   16.8874 C   0  0  0  0  0  0  0  0  0  0  0  0
    6.4491   -4.1532   30.1213 C   0  0  0  0  0  0  0  0  0  0  0  0
    5.7060   -4.4340   27.4975 C   0  0  0  0  0  0  0  0  0  0  0  0
    1.1818   -5.6612   28.8399 C   0  0  0  0  0  0  0  0  0  0  0  0
   -1.2067   -7.3287   17.7772 C   0  0  0  0  0  0  0  0  0  0  0  0
   -0.0206  -10.5585   16.6210 C   0  0  0  0  0  0  0  0  0  0  0  0
    0.3696  -12.7626   16.2169 O   0  0  0  0  0  0  0  0  0  0  0  0
   -0.6895   -9.5676   17.3297 C   0  0  0  0  0  0  0  0  0  0  0  0
    0.8388   -5.8417   27.5264 C   0  0  0  0  0  0  0  0  0  0  0  0
   -2.0709   -7.6637   18.7817 C   0  0  0  0  0  0  0  0  0  0  0  0
   -0.5279   -8.2168   17.0717 C   0  0  0  0  0  0  0  0  0  0  0  0
    6.9694   -4.0191   27.8190 C   0  0  0  0  0  0  0  0  0  0  0  0
    5.1733   -4.5469   29.8123 C   0  0  0  0  0  0  0  0  0  0  0  0
   -1.7508  -11.3016   18.6072 C   0  0  0  0  0  0  0  0  0  0  0  0
    1.7497   -5.6771   26.4971 C   0  0  0  0  0  0  0  0  0  0  0  0
   -1.5799   -9.9322   18.3468 C   0  0  0  0  0  0  0  0  0  0  0  0
   -1.0871  -12.2214   17.8851 C   0  0  0  0  0  0  0  0  0  0  0  0
   -2.2706   -8.9669   19.0691 C   0  0  0  0  0  0  0  0  0  0  0  0
    3.0279   -5.3073   26.8197 C   0  0  0  0  0  0  0  0  0  0  0  0
    7.3282   -3.8948   29.1186 C   0  0  0  0  0  0  0  0  0  0  0  0
  1  3  4  0
  1  7  4  0
  2  3  1  0
  2  6  4  0
  2 16  4  0
  3 22  4  0
  4  9  4  0
  4 10  1  0
  4 20  4  0
  5 16  4  0
  5 23  4  0
  6 15  4  0
  7 12  4  0
  8 13  4  0
  8 14  4  0
  9 11  4  0
 11 14  4  0
 11 19  4  0
 12 18  4  0
 13 21  4  0
 15 23  4  0
 17 19  4  0
 17 20  4  0
 18 22  4  0
 19 21  4  0
M  END
$$$$

 Created by Python create_sdf_string function

 23 25  0  0  0  0  0  0  0  0999 V2000
    2.4610   -5.3070   29.1240 C   0  0  0  0  0  0  0  0  0  0  0  0
    4.7710   -4.6952   28.4803 C   0  0  0  0  0  0  0  0  0  0  0  0
    3.4047   -5.1087   28.1314 C   0  0  0  0  0  0  0  0  0  0  0  0
   -0.2234  -11.8615   16.8874 C   0  0  0  0  0  0  0  0  0  0  0  0
    6.4491   -4.1532   30.1213 C   0  0  0  0  0  0  0  0  0  0  0  0
    5.7060   -4.4340   27.4975 C   0  0  0  0  0  0  0  0  0  0  0  0
    1.1818   -5.6612   28.8399 C   0  0  0  0  0  0  0  0  0  0  0  0
   -1.2067   -7.3287   17.7772 C   0  0  0  0  0  0  0  0  0  0  0  0
   -0.0206  -10.5585   16.6210 C   0  0  0  0  0  0  0  0  0  0  0  0
    0.3696  -12.7626   16.2169 O   0  0  0  0  0  0  0  0  0  0  0  0
   -0.6895   -9.5676   17.3297 C   0  0  0  0  0  0  0  0  0  0  0  0
    0.8388   -5.8417   27.5264 C   0  0  0  0  0  0  0  0  0  0  0  0
   -2.0709   -7.6637   18.7817 C   0  0  0  0  0  0  0  0  0  0  0  0
   -0.5279   -8.2168   17.0717 C   0  0  0  0  0  0  0  0  0  0  0  0
    6.9694   -4.0191   27.8190 C   0  0  0  0  0  0  0  0  0  0  0  0
    5.1733   -4.5469   29.8123 C   0  0  0  0  0  0  0  0  0  0  0  0
   -1.7508  -11.3016   18.6072 C   0  0  0  0  0  0  0  0  0  0  0  0
    1.7497   -5.6771   26.4971 C   0  0  0  0  0  0  0  0  0  0  0  0
   -1.5799   -9.9322   18.3468 C   0  0  0  0  0  0  0  0  0  0  0  0
   -1.0871  -12.2214   17.8851 C   0  0  0  0  0  0  0  0  0  0  0  0
   -2.2706   -8.9669   19.0691 C   0  0  0  0  0  0  0  0  0  0  0  0
    3.0279   -5.3073   26.8197 C   0  0  0  0  0  0  0  0  0  0  0  0
    7.3282   -3.8948   29.1186 C   0  0  0  0  0  0  0  0  0  0  0  0
  1  3  4  0
  1  7  4  0
  2  3  1  0
  2  6  4  0
  2 16  4  0
  3 22  4  0
  4  9  4  0
  4 10  1  0
  4 20  4  0
  5 16  4  0
  5 23  4  0
  6 15  4  0
  7 12  4  0
  8 13  4  0
  8 14  4  0
  9 11  4  0
 11 14  4  0
 11 19  4  0
 12 18  4  0
 13 21  4  0
 15 23  4  0
 17 19  4  0
 17 20  4  0
 18 22  4  0
 19 21  4  0
M  END
$$$$

 Created by Python create_sdf_string function

 23 25  0  0  0  0  0  0  0  0999 V2000
    2.4610   -5.3070   29.1240 C   0  0  0  0  0  0  0  0  0  0  0  0
    4.7710   -4.6952   28.4803 C   0  0  0  0  0  0  0  0  0  0  0  0
    3.4047   -5.1087   28.1314 C   0  0  0  0  0  0  0  0  0  0  0  0
   -0.2234  -11.8615   16.8874 C   0  0  0  0  0  0  0  0  0  0  0  0
    6.4491   -4.1532   30.1213 C   0  0  0  0  0  0  0  0  0  0  0  0
    5.7060   -4.4340   27.4975 C   0  0  0  0  0  0  0  0  0  0  0  0
    1.1818   -5.6612   28.8399 C   0  0  0  0  0  0  0  0  0  0  0  0
   -1.2067   -7.3287   17.7772 C   0  0  0  0  0  0  0  0  0  0  0  0
   -0.0206  -10.5585   16.6210 C   0  0  0  0  0  0  0  0  0  0  0  0
    0.3696  -12.7626   16.2169 O   0  0  0  0  0  0  0  0  0  0  0  0
   -0.6895   -9.5676   17.3297 C   0  0  0  0  0  0  0  0  0  0  0  0
    0.8388   -5.8417   27.5264 C   0  0  0  0  0  0  0  0  0  0  0  0
   -2.0709   -7.6637   18.7817 C   0  0  0  0  0  0  0  0  0  0  0  0
   -0.5279   -8.2168   17.0717 C   0  0  0  0  0  0  0  0  0  0  0  0
    6.9694   -4.0191   27.8190 C   0  0  0  0  0  0  0  0  0  0  0  0
    5.1733   -4.5469   29.8123 C   0  0  0  0  0  0  0  0  0  0  0  0
   -1.7508  -11.3016   18.6072 C   0  0  0  0  0  0  0  0  0  0  0  0
    1.7497   -5.6771   26.4971 C   0  0  0  0  0  0  0  0  0  0  0  0
   -1.5799   -9.9322   18.3468 C   0  0  0  0  0  0  0  0  0  0  0  0
   -1.0871  -12.2214   17.8851 C   0  0  0  0  0  0  0  0  0  0  0  0
   -2.2706   -8.9669   19.0691 C   0  0  0  0  0  0  0  0  0  0  0  0
    3.0279   -5.3073   26.8197 C   0  0  0  0  0  0  0  0  0  0  0  0
    7.3282   -3.8948   29.1186 C   0  0  0  0  0  0  0  0  0  0  0  0
  1  3  4  0
  1  7  4  0
  2  3  1  0
  2  6  4  0
  2 16  4  0
  3 22  4  0
  4  9  4  0
  4 10  1  0
  4 20  4  0
  5 16  4  0
  5 23  4  0
  6 15  4  0
  7 12  4  0
  8 13  4  0
  8 14  4  0
  9 11  4  0
 11 14  4  0
 11 19  4  0
 12 18  4  0
 13 21  4  0
 15 23  4  0
 17 19  4  0
 17 20  4  0
 18 22  4  0
 19 21  4  0
M  END
$$$$

 Created by Python create_sdf_string function

 23 25  0  0  0  0  0  0  0  0999 V2000
    2.4610   -5.3070   29.1240 C   0  0  0  0  0  0  0  0  0  0  0  0
    4.7710   -4.6952   28.4803 C   0  0  0  0  0  0  0  0  0  0  0  0
    3.4047   -5.1087   28.1314 C   0  0  0  0  0  0  0  0  0  0  0  0
   -0.2234  -11.8615   16.8874 C   0  0  0  0  0  0  0  0  0  0  0  0
    6.4491   -4.1532   30.1213 C   0  0  0  0  0  0  0  0  0  0  0  0
    5.7060   -4.4340   27.4975 C   0  0  0  0  0  0  0  0  0  0  0  0
    1.1818   -5.6612   28.8399 C   0  0  0  0  0  0  0  0  0  0  0  0
   -1.2067   -7.3287   17.7772 C   0  0  0  0  0  0  0  0  0  0  0  0
   -0.0206  -10.5585   16.6210 C   0  0  0  0  0  0  0  0  0  0  0  0
    0.3696  -12.7626   16.2169 O   0  0  0  0  0  0  0  0  0  0  0  0
   -0.6895   -9.5676   17.3297 C   0  0  0  0  0  0  0  0  0  0  0  0
    0.8388   -5.8417   27.5264 C   0  0  0  0  0  0  0  0  0  0  0  0
   -2.0709   -7.6637   18.7817 C   0  0  0  0  0  0  0  0  0  0  0  0
   -0.5279   -8.2168   17.0717 C   0  0  0  0  0  0  0  0  0  0  0  0
    6.9694   -4.0191   27.8190 C   0  0  0  0  0  0  0  0  0  0  0  0
    5.1733   -4.5469   29.8123 C   0  0  0  0  0  0  0  0  0  0  0  0
   -1.7508  -11.3016   18.6072 C   0  0  0  0  0  0  0  0  0  0  0  0
    1.7497   -5.6771   26.4971 C   0  0  0  0  0  0  0  0  0  0  0  0
   -1.5799   -9.9322   18.3468 C   0  0  0  0  0  0  0  0  0  0  0  0
   -1.0871  -12.2214   17.8851 C   0  0  0  0  0  0  0  0  0  0  0  0
   -2.2706   -8.9669   19.0691 C   0  0  0  0  0  0  0  0  0  0  0  0
    3.0279   -5.3073   26.8197 C   0  0  0  0  0  0  0  0  0  0  0  0
    7.3282   -3.8948   29.1186 C   0  0  0  0  0  0  0  0  0  0  0  0
  1  3  4  0
  1  7  4  0
  2  3  1  0
  2  6  4  0
  2 16  4  0
  3 22  4  0
  4  9  4  0
  4 10  1  0
  4 20  4  0
  5 16  4  0
  5 23  4  0
  6 15  4  0
  7 12  4  0
  8 13  4  0
  8 14  4  0
  9 11  4  0
 11 14  4  0
 11 19  4  0
 12 18  4  0
 13 21  4  0
 15 23  4  0
 17 19  4  0
 17 20  4  0
 18 22  4  0
 19 21  4  0
M  END
$$$$

 Created by Python create_sdf_string function

 23 25  0  0  0  0  0  0  0  0999 V2000
    2.4610   -5.3070   29.1240 C   0  0  0  0  0  0  0  0  0  0  0  0
    4.7710   -4.6952   28.4803 C   0  0  0  0  0  0  0  0  0  0  0  0
    3.4047   -5.1087   28.1314 C   0  0  0  0  0  0  0  0  0  0  0  0
   -0.2234  -11.8615   16.8874 C   0  0  0  0  0  0  0  0  0  0  0  0
    6.4491   -4.1532   30.1213 C   0  0  0  0  0  0  0  0  0  0  0  0
    5.7060   -4.4340   27.4975 C   0  0  0  0  0  0  0  0  0  0  0  0
    1.1818   -5.6612   28.8399 C   0  0  0  0  0  0  0  0  0  0  0  0
   -1.2067   -7.3287   17.7772 C   0  0  0  0  0  0  0  0  0  0  0  0
   -0.0206  -10.5585   16.6210 C   0  0  0  0  0  0  0  0  0  0  0  0
    0.3696  -12.7626   16.2169 O   0  0  0  0  0  0  0  0  0  0  0  0
   -0.6895   -9.5676   17.3297 C   0  0  0  0  0  0  0  0  0  0  0  0
    0.8388   -5.8417   27.5264 C   0  0  0  0  0  0  0  0  0  0  0  0
   -2.0709   -7.6637   18.7817 C   0  0  0  0  0  0  0  0  0  0  0  0
   -0.5279   -8.2168   17.0717 C   0  0  0  0  0  0  0  0  0  0  0  0
    6.9694   -4.0191   27.8190 C   0  0  0  0  0  0  0  0  0  0  0  0
    5.1733   -4.5469   29.8123 C   0  0  0  0  0  0  0  0  0  0  0  0
   -1.7508  -11.3016   18.6072 C   0  0  0  0  0  0  0  0  0  0  0  0
    1.7497   -5.6771   26.4971 C   0  0  0  0  0  0  0  0  0  0  0  0
   -1.5799   -9.9322   18.3468 C   0  0  0  0  0  0  0  0  0  0  0  0
   -1.0871  -12.2214   17.8851 C   0  0  0  0  0  0  0  0  0  0  0  0
   -2.2706   -8.9669   19.0691 C   0  0  0  0  0  0  0  0  0  0  0  0
    3.0279   -5.3073   26.8197 C   0  0  0  0  0  0  0  0  0  0  0  0
    7.3282   -3.8948   29.1186 C   0  0  0  0  0  0  0  0  0  0  0  0
  1  3  4  0
  1  7  4  0
  2  3  1  0
  2  6  4  0
  2 16  4  0
  3 22  4  0
  4  9  4  0
  4 10  1  0
  4 20  4  0
  5 16  4  0
  5 23  4  0
  6 15  4  0
  7 12  4  0
  8 13  4  0
  8 14  4  0
  9 11  4  0
 11 14  4  0
 11 19  4  0
 12 18  4  0
 13 21  4  0
 15 23  4  0
 17 19  4  0
 17 20  4  0
 18 22  4  0
 19 21  4  0
M  END
$$$$

 Created by Python create_sdf_string function

 23 25  0  0  0  0  0  0  0  0999 V2000
    2.4610   -5.3070   29.1240 C   0  0  0  0  0  0  0  0  0  0  0  0
    4.7710   -4.6952   28.4803 C   0  0  0  0  0  0  0  0  0  0  0  0
    3.4047   -5.1087   28.1314 C   0  0  0  0  0  0  0  0  0  0  0  0
   -0.2234  -11.8615   16.8874 C   0  0  0  0  0  0  0  0  0  0  0  0
    6.4491   -4.1532   30.1213 C   0  0  0  0  0  0  0  0  0  0  0  0
    5.7060   -4.4340   27.4975 C   0  0  0  0  0  0  0  0  0  0  0  0
    1.1818   -5.6612   28.8399 C   0  0  0  0  0  0  0  0  0  0  0  0
   -1.2067   -7.3287   17.7772 C   0  0  0  0  0  0  0  0  0  0  0  0
   -0.0206  -10.5585   16.6210 C   0  0  0  0  0  0  0  0  0  0  0  0
    0.3696  -12.7626   16.2169 O   0  0  0  0  0  0  0  0  0  0  0  0
   -0.6895   -9.5676   17.3297 C   0  0  0  0  0  0  0  0  0  0  0  0
    0.8388   -5.8417   27.5264 C   0  0  0  0  0  0  0  0  0  0  0  0
   -2.0709   -7.6637   18.7817 C   0  0  0  0  0  0  0  0  0  0  0  0
   -0.5279   -8.2168   17.0717 C   0  0  0  0  0  0  0  0  0  0  0  0
    6.9694   -4.0191   27.8190 C   0  0  0  0  0  0  0  0  0  0  0  0
    5.1733   -4.5469   29.8123 C   0  0  0  0  0  0  0  0  0  0  0  0
   -1.7508  -11.3016   18.6072 C   0  0  0  0  0  0  0  0  0  0  0  0
    1.7497   -5.6771   26.4971 C   0  0  0  0  0  0  0  0  0  0  0  0
   -1.5799   -9.9322   18.3468 C   0  0  0  0  0  0  0  0  0  0  0  0
   -1.0871  -12.2214   17.8851 C   0  0  0  0  0  0  0  0  0  0  0  0
   -2.2706   -8.9669   19.0691 C   0  0  0  0  0  0  0  0  0  0  0  0
    3.0279   -5.3073   26.8197 C   0  0  0  0  0  0  0  0  0  0  0  0
    7.3282   -3.8948   29.1186 C   0  0  0  0  0  0  0  0  0  0  0  0
  1  3  4  0
  1  7  4  0
  2  3  1  0
  2  6  4  0
  2 16  4  0
  3 22  4  0
  4  9  4  0
  4 10  1  0
  4 20  4  0
  5 16  4  0
  5 23  4  0
  6 15  4  0
  7 12  4  0
  8 13  4  0
  8 14  4  0
  9 11  4  0
 11 14  4  0
 11 19  4  0
 12 18  4  0
 13 21  4  0
 15 23  4  0
 17 19  4  0
 17 20  4  0
 18 22  4  0
 19 21  4  0
M  END
$$$$

 Created by Python create_sdf_string function

 23 25  0  0  0  0  0  0  0  0999 V2000
    2.4610   -5.3070   29.1240 C   0  0  0  0  0  0  0  0  0  0  0  0
    4.7710   -4.6952   28.4803 C   0  0  0  0  0  0  0  0  0  0  0  0
    3.4047   -5.1087   28.1314 C   0  0  0  0  0  0  0  0  0  0  0  0
   -0.2234  -11.8615   16.8874 C   0  0  0  0  0  0  0  0  0  0  0  0
    6.4491   -4.1532   30.1213 C   0  0  0  0  0  0  0  0  0  0  0  0
    5.7060   -4.4340   27.4975 C   0  0  0  0  0  0  0  0  0  0  0  0
    1.1818   -5.6612   28.8399 C   0  0  0  0  0  0  0  0  0  0  0  0
   -1.2067   -7.3287   17.7772 C   0  0  0  0  0  0  0  0  0  0  0  0
   -0.0206  -10.5585   16.6210 C   0  0  0  0  0  0  0  0  0  0  0  0
    0.3696  -12.7626   16.2169 O   0  0  0  0  0  0  0  0  0  0  0  0
   -0.6895   -9.5676   17.3297 C   0  0  0  0  0  0  0  0  0  0  0  0
    0.8388   -5.8417   27.5264 C   0  0  0  0  0  0  0  0  0  0  0  0
   -2.0709   -7.6637   18.7817 C   0  0  0  0  0  0  0  0  0  0  0  0
   -0.5279   -8.2168   17.0717 C   0  0  0  0  0  0  0  0  0  0  0  0
    6.9694   -4.0191   27.8190 C   0  0  0  0  0  0  0  0  0  0  0  0
    5.1733   -4.5469   29.8123 C   0  0  0  0  0  0  0  0  0  0  0  0
   -1.7508  -11.3016   18.6072 C   0  0  0  0  0  0  0  0  0  0  0  0
    1.7497   -5.6771   26.4971 C   0  0  0  0  0  0  0  0  0  0  0  0
   -1.5799   -9.9322   18.3468 C   0  0  0  0  0  0  0  0  0  0  0  0
   -1.0871  -12.2214   17.8851 C   0  0  0  0  0  0  0  0  0  0  0  0
   -2.2706   -8.9669   19.0691 C   0  0  0  0  0  0  0  0  0  0  0  0
    3.0279   -5.3073   26.8197 C   0  0  0  0  0  0  0  0  0  0  0  0
    7.3282   -3.8948   29.1186 C   0  0  0  0  0  0  0  0  0  0  0  0
  1  3  4  0
  1  7  4  0
  2  3  1  0
  2  6  4  0
  2 16  4  0
  3 22  4  0
  4  9  4  0
  4 10  1  0
  4 20  4  0
  5 16  4  0
  5 23  4  0
  6 15  4  0
  7 12  4  0
  8 13  4  0
  8 14  4  0
  9 11  4  0
 11 14  4  0
 11 19  4  0
 12 18  4  0
 13 21  4  0
 15 23  4  0
 17 19  4  0
 17 20  4  0
 18 22  4  0
 19 21  4  0
M  END
$$$$

 Created by Python create_sdf_string function

 23 25  0  0  0  0  0  0  0  0999 V2000
    2.4610   -5.3070   29.1240 C   0  0  0  0  0  0  0  0  0  0  0  0
    4.7710   -4.6952   28.4803 C   0  0  0  0  0  0  0  0  0  0  0  0
    3.4047   -5.1087   28.1314 C   0  0  0  0  0  0  0  0  0  0  0  0
   -0.2234  -11.8615   16.8874 C   0  0  0  0  0  0  0  0  0  0  0  0
    6.4491   -4.1532   30.1213 C   0  0  0  0  0  0  0  0  0  0  0  0
    5.7060   -4.4340   27.4975 C   0  0  0  0  0  0  0  0  0  0  0  0
    1.1818   -5.6612   28.8399 C   0  0  0  0  0  0  0  0  0  0  0  0
   -1.2067   -7.3287   17.7772 C   0  0  0  0  0  0  0  0  0  0  0  0
   -0.0206  -10.5585   16.6210 C   0  0  0  0  0  0  0  0  0  0  0  0
    0.3696  -12.7626   16.2169 O   0  0  0  0  0  0  0  0  0  0  0  0
   -0.6895   -9.5676   17.3297 C   0  0  0  0  0  0  0  0  0  0  0  0
    0.8388   -5.8417   27.5264 C   0  0  0  0  0  0  0  0  0  0  0  0
   -2.0709   -7.6637   18.7817 C   0  0  0  0  0  0  0  0  0  0  0  0
   -0.5279   -8.2168   17.0717 C   0  0  0  0  0  0  0  0  0  0  0  0
    6.9694   -4.0191   27.8190 C   0  0  0  0  0  0  0  0  0  0  0  0
    5.1733   -4.5469   29.8123 C   0  0  0  0  0  0  0  0  0  0  0  0
   -1.7508  -11.3016   18.6072 C   0  0  0  0  0  0  0  0  0  0  0  0
    1.7497   -5.6771   26.4971 C   0  0  0  0  0  0  0  0  0  0  0  0
   -1.5799   -9.9322   18.3468 C   0  0  0  0  0  0  0  0  0  0  0  0
   -1.0871  -12.2214   17.8851 C   0  0  0  0  0  0  0  0  0  0  0  0
   -2.2706   -8.9669   19.0691 C   0  0  0  0  0  0  0  0  0  0  0  0
    3.0279   -5.3073   26.8197 C   0  0  0  0  0  0  0  0  0  0  0  0
    7.3282   -3.8948   29.1186 C   0  0  0  0  0  0  0  0  0  0  0  0
  1  3  4  0
  1  7  4  0
  2  3  1  0
  2  6  4  0
  2 16  4  0
  3 22  4  0
  4  9  4  0
  4 10  1  0
  4 20  4  0
  5 16  4  0
  5 23  4  0
  6 15  4  0
  7 12  4  0
  8 13  4  0
  8 14  4  0
  9 11  4  0
 11 14  4  0
 11 19  4  0
 12 18  4  0
 13 21  4  0
 15 23  4  0
 17 19  4  0
 17 20  4  0
 18 22  4  0
 19 21  4  0
M  END
$$$$

 Created by Python create_sdf_string function

 23 25  0  0  0  0  0  0  0  0999 V2000
    2.4610   -5.3070   29.1240 C   0  0  0  0  0  0  0  0  0  0  0  0
    4.7710   -4.6952   28.4803 C   0  0  0  0  0  0  0  0  0  0  0  0
    3.4047   -5.1087   28.1314 C   0  0  0  0  0  0  0  0  0  0  0  0
   -0.2234  -11.8615   16.8874 C   0  0  0  0  0  0  0  0  0  0  0  0
    6.4491   -4.1532   30.1213 C   0  0  0  0  0  0  0  0  0  0  0  0
    5.7060   -4.4340   27.4975 C   0  0  0  0  0  0  0  0  0  0  0  0
    1.1818   -5.6612   28.8399 C   0  0  0  0  0  0  0  0  0  0  0  0
   -1.2067   -7.3287   17.7772 C   0  0  0  0  0  0  0  0  0  0  0  0
   -0.0206  -10.5585   16.6210 C   0  0  0  0  0  0  0  0  0  0  0  0
    0.3696  -12.7626   16.2169 O   0  0  0  0  0  0  0  0  0  0  0  0
   -0.6895   -9.5676   17.3297 C   0  0  0  0  0  0  0  0  0  0  0  0
    0.8388   -5.8417   27.5264 C   0  0  0  0  0  0  0  0  0  0  0  0
   -2.0709   -7.6637   18.7817 C   0  0  0  0  0  0  0  0  0  0  0  0
   -0.5279   -8.2168   17.0717 C   0  0  0  0  0  0  0  0  0  0  0  0
    6.9694   -4.0191   27.8190 C   0  0  0  0  0  0  0  0  0  0  0  0
    5.1733   -4.5469   29.8123 C   0  0  0  0  0  0  0  0  0  0  0  0
   -1.7508  -11.3016   18.6072 C   0  0  0  0  0  0  0  0  0  0  0  0
    1.7497   -5.6771   26.4971 C   0  0  0  0  0  0  0  0  0  0  0  0
   -1.5799   -9.9322   18.3468 C   0  0  0  0  0  0  0  0  0  0  0  0
   -1.0871  -12.2214   17.8851 C   0  0  0  0  0  0  0  0  0  0  0  0
   -2.2706   -8.9669   19.0691 C   0  0  0  0  0  0  0  0  0  0  0  0
    3.0279   -5.3073   26.8197 C   0  0  0  0  0  0  0  0  0  0  0  0
    7.3282   -3.8948   29.1186 C   0  0  0  0  0  0  0  0  0  0  0  0
  1  3  4  0
  1  7  4  0
  2  3  1  0
  2  6  4  0
  2 16  4  0
  3 22  4  0
  4  9  4  0
  4 10  1  0
  4 20  4  0
  5 16  4  0
  5 23  4  0
  6 15  4  0
  7 12  4  0
  8 13  4  0
  8 14  4  0
  9 11  4  0
 11 14  4  0
 11 19  4  0
 12 18  4  0
 13 21  4  0
 15 23  4  0
 17 19  4  0
 17 20  4  0
 18 22  4  0
 19 21  4  0
M  END
$$$$

 Created by Python create_sdf_string function

 23 25  0  0  0  0  0  0  0  0999 V2000
    2.4610   -5.3070   29.1240 C   0  0  0  0  0  0  0  0  0  0  0  0
    4.7710   -4.6952   28.4803 C   0  0  0  0  0  0  0  0  0  0  0  0
    3.4047   -5.1087   28.1314 C   0  0  0  0  0  0  0  0  0  0  0  0
   -0.2234  -11.8615   16.8874 C   0  0  0  0  0  0  0  0  0  0  0  0
    6.4491   -4.1532   30.1213 C   0  0  0  0  0  0  0  0  0  0  0  0
    5.7060   -4.4340   27.4975 C   0  0  0  0  0  0  0  0  0  0  0  0
    1.1818   -5.6612   28.8399 C   0  0  0  0  0  0  0  0  0  0  0  0
   -1.2067   -7.3287   17.7772 C   0  0  0  0  0  0  0  0  0  0  0  0
   -0.0206  -10.5585   16.6210 C   0  0  0  0  0  0  0  0  0  0  0  0
    0.3696  -12.7626   16.2169 O   0  0  0  0  0  0  0  0  0  0  0  0
   -0.6895   -9.5676   17.3297 C   0  0  0  0  0  0  0  0  0  0  0  0
    0.8388   -5.8417   27.5264 C   0  0  0  0  0  0  0  0  0  0  0  0
   -2.0709   -7.6637   18.7817 C   0  0  0  0  0  0  0  0  0  0  0  0
   -0.5279   -8.2168   17.0717 C   0  0  0  0  0  0  0  0  0  0  0  0
    6.9694   -4.0191   27.8190 C   0  0  0  0  0  0  0  0  0  0  0  0
    5.1733   -4.5469   29.8123 C   0  0  0  0  0  0  0  0  0  0  0  0
   -1.7508  -11.3016   18.6072 C   0  0  0  0  0  0  0  0  0  0  0  0
    1.7497   -5.6771   26.4971 C   0  0  0  0  0  0  0  0  0  0  0  0
   -1.5799   -9.9322   18.3468 C   0  0  0  0  0  0  0  0  0  0  0  0
   -1.0871  -12.2214   17.8851 C   0  0  0  0  0  0  0  0  0  0  0  0
   -2.2706   -8.9669   19.0691 C   0  0  0  0  0  0  0  0  0  0  0  0
    3.0279   -5.3073   26.8197 C   0  0  0  0  0  0  0  0  0  0  0  0
    7.3282   -3.8948   29.1186 C   0  0  0  0  0  0  0  0  0  0  0  0
  1  3  4  0
  1  7  4  0
  2  3  1  0
  2  6  4  0
  2 16  4  0
  3 22  4  0
  4  9  4  0
  4 10  1  0
  4 20  4  0
  5 16  4  0
  5 23  4  0
  6 15  4  0
  7 12  4  0
  8 13  4  0
  8 14  4  0
  9 11  4  0
 11 14  4  0
 11 19  4  0
 12 18  4  0
 13 21  4  0
 15 23  4  0
 17 19  4  0
 17 20  4  0
 18 22  4  0
 19 21  4  0
M  END
$$$$

 Created by Python create_sdf_string function

 23 25  0  0  0  0  0  0  0  0999 V2000
    2.4610   -5.3070   29.1240 C   0  0  0  0  0  0  0  0  0  0  0  0
    4.7710   -4.6952   28.4803 C   0  0  0  0  0  0  0  0  0  0  0  0
    3.4047   -5.1087   28.1314 C   0  0  0  0  0  0  0  0  0  0  0  0
   -0.2234  -11.8615   16.8874 C   0  0  0  0  0  0  0  0  0  0  0  0
    6.4491   -4.1532   30.1213 C   0  0  0  0  0  0  0  0  0  0  0  0
    5.7060   -4.4340   27.4975 C   0  0  0  0  0  0  0  0  0  0  0  0
    1.1818   -5.6612   28.8399 C   0  0  0  0  0  0  0  0  0  0  0  0
   -1.2067   -7.3287   17.7772 C   0  0  0  0  0  0  0  0  0  0  0  0
   -0.0206  -10.5585   16.6210 C   0  0  0  0  0  0  0  0  0  0  0  0
    0.3696  -12.7626   16.2169 O   0  0  0  0  0  0  0  0  0  0  0  0
   -0.6895   -9.5676   17.3297 C   0  0  0  0  0  0  0  0  0  0  0  0
    0.8388   -5.8417   27.5264 C   0  0  0  0  0  0  0  0  0  0  0  0
   -2.0709   -7.6637   18.7817 C   0  0  0  0  0  0  0  0  0  0  0  0
   -0.5279   -8.2168   17.0717 C   0  0  0  0  0  0  0  0  0  0  0  0
    6.9694   -4.0191   27.8190 C   0  0  0  0  0  0  0  0  0  0  0  0
    5.1733   -4.5469   29.8123 C   0  0  0  0  0  0  0  0  0  0  0  0
   -1.7508  -11.3016   18.6072 C   0  0  0  0  0  0  0  0  0  0  0  0
    1.7497   -5.6771   26.4971 C   0  0  0  0  0  0  0  0  0  0  0  0
   -1.5799   -9.9322   18.3468 C   0  0  0  0  0  0  0  0  0  0  0  0
   -1.0871  -12.2214   17.8851 C   0  0  0  0  0  0  0  0  0  0  0  0
   -2.2706   -8.9669   19.0691 C   0  0  0  0  0  0  0  0  0  0  0  0
    3.0279   -5.3073   26.8197 C   0  0  0  0  0  0  0  0  0  0  0  0
    7.3282   -3.8948   29.1186 C   0  0  0  0  0  0  0  0  0  0  0  0
  1  3  4  0
  1  7  4  0
  2  3  1  0
  2  6  4  0
  2 16  4  0
  3 22  4  0
  4  9  4  0
  4 10  1  0
  4 20  4  0
  5 16  4  0
  5 23  4  0
  6 15  4  0
  7 12  4  0
  8 13  4  0
  8 14  4  0
  9 11  4  0
 11 14  4  0
 11 19  4  0
 12 18  4  0
 13 21  4  0
 15 23  4  0
 17 19  4  0
 17 20  4  0
 18 22  4  0
 19 21  4  0
M  END
$$$$

 Created by Python create_sdf_string function

 23 25  0  0  0  0  0  0  0  0999 V2000
    2.4610   -5.3070   29.1240 C   0  0  0  0  0  0  0  0  0  0  0  0
    4.7710   -4.6952   28.4803 C   0  0  0  0  0  0  0  0  0  0  0  0
    3.4047   -5.1087   28.1314 C   0  0  0  0  0  0  0  0  0  0  0  0
   -0.2234  -11.8615   16.8874 C   0  0  0  0  0  0  0  0  0  0  0  0
    6.4491   -4.1532   30.1213 C   0  0  0  0  0  0  0  0  0  0  0  0
    5.7060   -4.4340   27.4975 C   0  0  0  0  0  0  0  0  0  0  0  0
    1.1818   -5.6612   28.8399 C   0  0  0  0  0  0  0  0  0  0  0  0
   -1.2067   -7.3287   17.7772 C   0  0  0  0  0  0  0  0  0  0  0  0
   -0.0206  -10.5585   16.6210 C   0  0  0  0  0  0  0  0  0  0  0  0
    0.3696  -12.7626   16.2169 O   0  0  0  0  0  0  0  0  0  0  0  0
   -0.6895   -9.5676   17.3297 C   0  0  0  0  0  0  0  0  0  0  0  0
    0.8388   -5.8417   27.5264 C   0  0  0  0  0  0  0  0  0  0  0  0
   -2.0709   -7.6637   18.7817 C   0  0  0  0  0  0  0  0  0  0  0  0
   -0.5279   -8.2168   17.0717 C   0  0  0  0  0  0  0  0  0  0  0  0
    6.9694   -4.0191   27.8190 C   0  0  0  0  0  0  0  0  0  0  0  0
    5.1733   -4.5469   29.8123 C   0  0  0  0  0  0  0  0  0  0  0  0
   -1.7508  -11.3016   18.6072 C   0  0  0  0  0  0  0  0  0  0  0  0
    1.7497   -5.6771   26.4971 C   0  0  0  0  0  0  0  0  0  0  0  0
   -1.5799   -9.9322   18.3468 C   0  0  0  0  0  0  0  0  0  0  0  0
   -1.0871  -12.2214   17.8851 C   0  0  0  0  0  0  0  0  0  0  0  0
   -2.2706   -8.9669   19.0691 C   0  0  0  0  0  0  0  0  0  0  0  0
    3.0279   -5.3073   26.8197 C   0  0  0  0  0  0  0  0  0  0  0  0
    7.3282   -3.8948   29.1186 C   0  0  0  0  0  0  0  0  0  0  0  0
  1  3  4  0
  1  7  4  0
  2  3  1  0
  2  6  4  0
  2 16  4  0
  3 22  4  0
  4  9  4  0
  4 10  1  0
  4 20  4  0
  5 16  4  0
  5 23  4  0
  6 15  4  0
  7 12  4  0
  8 13  4  0
  8 14  4  0
  9 11  4  0
 11 14  4  0
 11 19  4  0
 12 18  4  0
 13 21  4  0
 15 23  4  0
 17 19  4  0
 17 20  4  0
 18 22  4  0
 19 21  4  0
M  END
$$$$

 Created by Python create_sdf_string function

 23 25  0  0  0  0  0  0  0  0999 V2000
    2.4610   -5.3070   29.1240 C   0  0  0  0  0  0  0  0  0  0  0  0
    4.7710   -4.6952   28.4803 C   0  0  0  0  0  0  0  0  0  0  0  0
    3.4047   -5.1087   28.1314 C   0  0  0  0  0  0  0  0  0  0  0  0
   -0.2234  -11.8615   16.8874 C   0  0  0  0  0  0  0  0  0  0  0  0
    6.4491   -4.1532   30.1213 C   0  0  0  0  0  0  0  0  0  0  0  0
    5.7060   -4.4340   27.4975 C   0  0  0  0  0  0  0  0  0  0  0  0
    1.1818   -5.6612   28.8399 C   0  0  0  0  0  0  0  0  0  0  0  0
   -1.2067   -7.3287   17.7772 C   0  0  0  0  0  0  0  0  0  0  0  0
   -0.0206  -10.5585   16.6210 C   0  0  0  0  0  0  0  0  0  0  0  0
    0.3696  -12.7626   16.2169 O   0  0  0  0  0  0  0  0  0  0  0  0
   -0.6895   -9.5676   17.3297 C   0  0  0  0  0  0  0  0  0  0  0  0
    0.8388   -5.8417   27.5264 C   0  0  0  0  0  0  0  0  0  0  0  0
   -2.0709   -7.6637   18.7817 C   0  0  0  0  0  0  0  0  0  0  0  0
   -0.5279   -8.2168   17.0717 C   0  0  0  0  0  0  0  0  0  0  0  0
    6.9694   -4.0191   27.8190 C   0  0  0  0  0  0  0  0  0  0  0  0
    5.1733   -4.5469   29.8123 C   0  0  0  0  0  0  0  0  0  0  0  0
   -1.7508  -11.3016   18.6072 C   0  0  0  0  0  0  0  0  0  0  0  0
    1.7497   -5.6771   26.4971 C   0  0  0  0  0  0  0  0  0  0  0  0
   -1.5799   -9.9322   18.3468 C   0  0  0  0  0  0  0  0  0  0  0  0
   -1.0871  -12.2214   17.8851 C   0  0  0  0  0  0  0  0  0  0  0  0
   -2.2706   -8.9669   19.0691 C   0  0  0  0  0  0  0  0  0  0  0  0
    3.0279   -5.3073   26.8197 C   0  0  0  0  0  0  0  0  0  0  0  0
    7.3282   -3.8948   29.1186 C   0  0  0  0  0  0  0  0  0  0  0  0
  1  3  4  0
  1  7  4  0
  2  3  1  0
  2  6  4  0
  2 16  4  0
  3 22  4  0
  4  9  4  0
  4 10  1  0
  4 20  4  0
  5 16  4  0
  5 23  4  0
  6 15  4  0
  7 12  4  0
  8 13  4  0
  8 14  4  0
  9 11  4  0
 11 14  4  0
 11 19  4  0
 12 18  4  0
 13 21  4  0
 15 23  4  0
 17 19  4  0
 17 20  4  0
 18 22  4  0
 19 21  4  0
M  END
$$$$

 Created by Python create_sdf_string function

 23 25  0  0  0  0  0  0  0  0999 V2000
    2.4610   -5.3070   29.1240 C   0  0  0  0  0  0  0  0  0  0  0  0
    4.7710   -4.6952   28.4803 C   0  0  0  0  0  0  0  0  0  0  0  0
    3.4047   -5.1087   28.1314 C   0  0  0  0  0  0  0  0  0  0  0  0
   -0.2234  -11.8615   16.8874 C   0  0  0  0  0  0  0  0  0  0  0  0
    6.4491   -4.1532   30.1213 C   0  0  0  0  0  0  0  0  0  0  0  0
    5.7060   -4.4340   27.4975 C   0  0  0  0  0  0  0  0  0  0  0  0
    1.1818   -5.6612   28.8399 C   0  0  0  0  0  0  0  0  0  0  0  0
   -1.2067   -7.3287   17.7772 C   0  0  0  0  0  0  0  0  0  0  0  0
   -0.0206  -10.5585   16.6210 C   0  0  0  0  0  0  0  0  0  0  0  0
    0.3696  -12.7626   16.2169 O   0  0  0  0  0  0  0  0  0  0  0  0
   -0.6895   -9.5676   17.3297 C   0  0  0  0  0  0  0  0  0  0  0  0
    0.8388   -5.8417   27.5264 C   0  0  0  0  0  0  0  0  0  0  0  0
   -2.0709   -7.6637   18.7817 C   0  0  0  0  0  0  0  0  0  0  0  0
   -0.5279   -8.2168   17.0717 C   0  0  0  0  0  0  0  0  0  0  0  0
    6.9694   -4.0191   27.8190 C   0  0  0  0  0  0  0  0  0  0  0  0
    5.1733   -4.5469   29.8123 C   0  0  0  0  0  0  0  0  0  0  0  0
   -1.7508  -11.3016   18.6072 C   0  0  0  0  0  0  0  0  0  0  0  0
    1.7497   -5.6771   26.4971 C   0  0  0  0  0  0  0  0  0  0  0  0
   -1.5799   -9.9322   18.3468 C   0  0  0  0  0  0  0  0  0  0  0  0
   -1.0871  -12.2214   17.8851 C   0  0  0  0  0  0  0  0  0  0  0  0
   -2.2706   -8.9669   19.0691 C   0  0  0  0  0  0  0  0  0  0  0  0
    3.0279   -5.3073   26.8197 C   0  0  0  0  0  0  0  0  0  0  0  0
    7.3282   -3.8948   29.1186 C   0  0  0  0  0  0  0  0  0  0  0  0
  1  3  4  0
  1  7  4  0
  2  3  1  0
  2  6  4  0
  2 16  4  0
  3 22  4  0
  4  9  4  0
  4 10  1  0
  4 20  4  0
  5 16  4  0
  5 23  4  0
  6 15  4  0
  7 12  4  0
  8 13  4  0
  8 14  4  0
  9 11  4  0
 11 14  4  0
 11 19  4  0
 12 18  4  0
 13 21  4  0
 15 23  4  0
 17 19  4  0
 17 20  4  0
 18 22  4  0
 19 21  4  0
M  END
$$$$

 Created by Python create_sdf_string function

 23 25  0  0  0  0  0  0  0  0999 V2000
    2.4610   -5.3070   29.1240 C   0  0  0  0  0  0  0  0  0  0  0  0
    4.7710   -4.6952   28.4803 C   0  0  0  0  0  0  0  0  0  0  0  0
    3.4047   -5.1087   28.1314 C   0  0  0  0  0  0  0  0  0  0  0  0
   -0.2234  -11.8615   16.8874 C   0  0  0  0  0  0  0  0  0  0  0  0
    6.4491   -4.1532   30.1213 C   0  0  0  0  0  0  0  0  0  0  0  0
    5.7060   -4.4340   27.4975 C   0  0  0  0  0  0  0  0  0  0  0  0
    1.1818   -5.6612   28.8399 C   0  0  0  0  0  0  0  0  0  0  0  0
   -1.2067   -7.3287   17.7772 C   0  0  0  0  0  0  0  0  0  0  0  0
   -0.0206  -10.5585   16.6210 C   0  0  0  0  0  0  0  0  0  0  0  0
    0.3696  -12.7626   16.2169 O   0  0  0  0  0  0  0  0  0  0  0  0
   -0.6895   -9.5676   17.3297 C   0  0  0  0  0  0  0  0  0  0  0  0
    0.8388   -5.8417   27.5264 C   0  0  0  0  0  0  0  0  0  0  0  0
   -2.0709   -7.6637   18.7817 C   0  0  0  0  0  0  0  0  0  0  0  0
   -0.5279   -8.2168   17.0717 C   0  0  0  0  0  0  0  0  0  0  0  0
    6.9694   -4.0191   27.8190 C   0  0  0  0  0  0  0  0  0  0  0  0
    5.1733   -4.5469   29.8123 C   0  0  0  0  0  0  0  0  0  0  0  0
   -1.7508  -11.3016   18.6072 C   0  0  0  0  0  0  0  0  0  0  0  0
    1.7497   -5.6771   26.4971 C   0  0  0  0  0  0  0  0  0  0  0  0
   -1.5799   -9.9322   18.3468 C   0  0  0  0  0  0  0  0  0  0  0  0
   -1.0871  -12.2214   17.8851 C   0  0  0  0  0  0  0  0  0  0  0  0
   -2.2706   -8.9669   19.0691 C   0  0  0  0  0  0  0  0  0  0  0  0
    3.0279   -5.3073   26.8197 C   0  0  0  0  0  0  0  0  0  0  0  0
    7.3282   -3.8948   29.1186 C   0  0  0  0  0  0  0  0  0  0  0  0
  1  3  4  0
  1  7  4  0
  2  3  1  0
  2  6  4  0
  2 16  4  0
  3 22  4  0
  4  9  4  0
  4 10  1  0
  4 20  4  0
  5 16  4  0
  5 23  4  0
  6 15  4  0
  7 12  4  0
  8 13  4  0
  8 14  4  0
  9 11  4  0
 11 14  4  0
 11 19  4  0
 12 18  4  0
 13 21  4  0
 15 23  4  0
 17 19  4  0
 17 20  4  0
 18 22  4  0
 19 21  4  0
M  END
$$$$

 Created by Python create_sdf_string function

 23 25  0  0  0  0  0  0  0  0999 V2000
    2.4610   -5.3070   29.1240 C   0  0  0  0  0  0  0  0  0  0  0  0
    4.7710   -4.6952   28.4803 C   0  0  0  0  0  0  0  0  0  0  0  0
    3.4047   -5.1087   28.1314 C   0  0  0  0  0  0  0  0  0  0  0  0
   -0.2234  -11.8615   16.8874 C   0  0  0  0  0  0  0  0  0  0  0  0
    6.4491   -4.1532   30.1213 C   0  0  0  0  0  0  0  0  0  0  0  0
    5.7060   -4.4340   27.4975 C   0  0  0  0  0  0  0  0  0  0  0  0
    1.1818   -5.6612   28.8399 C   0  0  0  0  0  0  0  0  0  0  0  0
   -1.2067   -7.3287   17.7772 C   0  0  0  0  0  0  0  0  0  0  0  0
   -0.0206  -10.5585   16.6210 C   0  0  0  0  0  0  0  0  0  0  0  0
    0.3696  -12.7626   16.2169 O   0  0  0  0  0  0  0  0  0  0  0  0
   -0.6895   -9.5676   17.3297 C   0  0  0  0  0  0  0  0  0  0  0  0
    0.8388   -5.8417   27.5264 C   0  0  0  0  0  0  0  0  0  0  0  0
   -2.0709   -7.6637   18.7817 C   0  0  0  0  0  0  0  0  0  0  0  0
   -0.5279   -8.2168   17.0717 C   0  0  0  0  0  0  0  0  0  0  0  0
    6.9694   -4.0191   27.8190 C   0  0  0  0  0  0  0  0  0  0  0  0
    5.1733   -4.5469   29.8123 C   0  0  0  0  0  0  0  0  0  0  0  0
   -1.7508  -11.3016   18.6072 C   0  0  0  0  0  0  0  0  0  0  0  0
    1.7497   -5.6771   26.4971 C   0  0  0  0  0  0  0  0  0  0  0  0
   -1.5799   -9.9322   18.3468 C   0  0  0  0  0  0  0  0  0  0  0  0
   -1.0871  -12.2214   17.8851 C   0  0  0  0  0  0  0  0  0  0  0  0
   -2.2706   -8.9669   19.0691 C   0  0  0  0  0  0  0  0  0  0  0  0
    3.0279   -5.3073   26.8197 C   0  0  0  0  0  0  0  0  0  0  0  0
    7.3282   -3.8948   29.1186 C   0  0  0  0  0  0  0  0  0  0  0  0
  1  3  4  0
  1  7  4  0
  2  3  1  0
  2  6  4  0
  2 16  4  0
  3 22  4  0
  4  9  4  0
  4 10  1  0
  4 20  4  0
  5 16  4  0
  5 23  4  0
  6 15  4  0
  7 12  4  0
  8 13  4  0
  8 14  4  0
  9 11  4  0
 11 14  4  0
 11 19  4  0
 12 18  4  0
 13 21  4  0
 15 23  4  0
 17 19  4  0
 17 20  4  0
 18 22  4  0
 19 21  4  0
M  END
$$$$

 Created by Python create_sdf_string function

 23 25  0  0  0  0  0  0  0  0999 V2000
    2.4610   -5.3070   29.1240 C   0  0  0  0  0  0  0  0  0  0  0  0
    4.7710   -4.6952   28.4803 C   0  0  0  0  0  0  0  0  0  0  0  0
    3.4047   -5.1087   28.1314 C   0  0  0  0  0  0  0  0  0  0  0  0
   -0.2234  -11.8615   16.8874 C   0  0  0  0  0  0  0  0  0  0  0  0
    6.4491   -4.1532   30.1213 C   0  0  0  0  0  0  0  0  0  0  0  0
    5.7060   -4.4340   27.4975 C   0  0  0  0  0  0  0  0  0  0  0  0
    1.1818   -5.6612   28.8399 C   0  0  0  0  0  0  0  0  0  0  0  0
   -1.2067   -7.3287   17.7772 C   0  0  0  0  0  0  0  0  0  0  0  0
   -0.0206  -10.5585   16.6210 C   0  0  0  0  0  0  0  0  0  0  0  0
    0.3696  -12.7626   16.2169 O   0  0  0  0  0  0  0  0  0  0  0  0
   -0.6895   -9.5676   17.3297 C   0  0  0  0  0  0  0  0  0  0  0  0
    0.8388   -5.8417   27.5264 C   0  0  0  0  0  0  0  0  0  0  0  0
   -2.0709   -7.6637   18.7817 C   0  0  0  0  0  0  0  0  0  0  0  0
   -0.5279   -8.2168   17.0717 C   0  0  0  0  0  0  0  0  0  0  0  0
    6.9694   -4.0191   27.8190 C   0  0  0  0  0  0  0  0  0  0  0  0
    5.1733   -4.5469   29.8123 C   0  0  0  0  0  0  0  0  0  0  0  0
   -1.7508  -11.3016   18.6072 C   0  0  0  0  0  0  0  0  0  0  0  0
    1.7497   -5.6771   26.4971 C   0  0  0  0  0  0  0  0  0  0  0  0
   -1.5799   -9.9322   18.3468 C   0  0  0  0  0  0  0  0  0  0  0  0
   -1.0871  -12.2214   17.8851 C   0  0  0  0  0  0  0  0  0  0  0  0
   -2.2706   -8.9669   19.0691 C   0  0  0  0  0  0  0  0  0  0  0  0
    3.0279   -5.3073   26.8197 C   0  0  0  0  0  0  0  0  0  0  0  0
    7.3282   -3.8948   29.1186 C   0  0  0  0  0  0  0  0  0  0  0  0
  1  3  4  0
  1  7  4  0
  2  3  1  0
  2  6  4  0
  2 16  4  0
  3 22  4  0
  4  9  4  0
  4 10  1  0
  4 20  4  0
  5 16  4  0
  5 23  4  0
  6 15  4  0
  7 12  4  0
  8 13  4  0
  8 14  4  0
  9 11  4  0
 11 14  4  0
 11 19  4  0
 12 18  4  0
 13 21  4  0
 15 23  4  0
 17 19  4  0
 17 20  4  0
 18 22  4  0
 19 21  4  0
M  END
$$$$

 Created by Python create_sdf_string function

 23 25  0  0  0  0  0  0  0  0999 V2000
    2.4610   -5.3070   29.1240 C   0  0  0  0  0  0  0  0  0  0  0  0
    4.7710   -4.6952   28.4803 C   0  0  0  0  0  0  0  0  0  0  0  0
    3.4047   -5.1087   28.1314 C   0  0  0  0  0  0  0  0  0  0  0  0
   -0.2234  -11.8615   16.8874 C   0  0  0  0  0  0  0  0  0  0  0  0
    6.4491   -4.1532   30.1213 C   0  0  0  0  0  0  0  0  0  0  0  0
    5.7060   -4.4340   27.4975 C   0  0  0  0  0  0  0  0  0  0  0  0
    1.1818   -5.6612   28.8399 C   0  0  0  0  0  0  0  0  0  0  0  0
   -1.2067   -7.3287   17.7772 C   0  0  0  0  0  0  0  0  0  0  0  0
   -0.0206  -10.5585   16.6210 C   0  0  0  0  0  0  0  0  0  0  0  0
    0.3696  -12.7626   16.2169 O   0  0  0  0  0  0  0  0  0  0  0  0
   -0.6895   -9.5676   17.3297 C   0  0  0  0  0  0  0  0  0  0  0  0
    0.8388   -5.8417   27.5264 C   0  0  0  0  0  0  0  0  0  0  0  0
   -2.0709   -7.6637   18.7817 C   0  0  0  0  0  0  0  0  0  0  0  0
   -0.5279   -8.2168   17.0717 C   0  0  0  0  0  0  0  0  0  0  0  0
    6.9694   -4.0191   27.8190 C   0  0  0  0  0  0  0  0  0  0  0  0
    5.1733   -4.5469   29.8123 C   0  0  0  0  0  0  0  0  0  0  0  0
   -1.7508  -11.3016   18.6072 C   0  0  0  0  0  0  0  0  0  0  0  0
    1.7497   -5.6771   26.4971 C   0  0  0  0  0  0  0  0  0  0  0  0
   -1.5799   -9.9322   18.3468 C   0  0  0  0  0  0  0  0  0  0  0  0
   -1.0871  -12.2214   17.8851 C   0  0  0  0  0  0  0  0  0  0  0  0
   -2.2706   -8.9669   19.0691 C   0  0  0  0  0  0  0  0  0  0  0  0
    3.0279   -5.3073   26.8197 C   0  0  0  0  0  0  0  0  0  0  0  0
    7.3282   -3.8948   29.1186 C   0  0  0  0  0  0  0  0  0  0  0  0
  1  3  4  0
  1  7  4  0
  2  3  1  0
  2  6  4  0
  2 16  4  0
  3 22  4  0
  4  9  4  0
  4 10  1  0
  4 20  4  0
  5 16  4  0
  5 23  4  0
  6 15  4  0
  7 12  4  0
  8 13  4  0
  8 14  4  0
  9 11  4  0
 11 14  4  0
 11 19  4  0
 12 18  4  0
 13 21  4  0
 15 23  4  0
 17 19  4  0
 17 20  4  0
 18 22  4  0
 19 21  4  0
M  END
$$$$

 Created by Python create_sdf_string function

 23 25  0  0  0  0  0  0  0  0999 V2000
    2.4610   -5.3070   29.1240 C   0  0  0  0  0  0  0  0  0  0  0  0
    4.7710   -4.6952   28.4803 C   0  0  0  0  0  0  0  0  0  0  0  0
    3.4047   -5.1087   28.1314 C   0  0  0  0  0  0  0  0  0  0  0  0
   -0.2234  -11.8615   16.8874 C   0  0  0  0  0  0  0  0  0  0  0  0
    6.4491   -4.1532   30.1213 C   0  0  0  0  0  0  0  0  0  0  0  0
    5.7060   -4.4340   27.4975 C   0  0  0  0  0  0  0  0  0  0  0  0
    1.1818   -5.6612   28.8399 C   0  0  0  0  0  0  0  0  0  0  0  0
   -1.2067   -7.3287   17.7772 C   0  0  0  0  0  0  0  0  0  0  0  0
   -0.0206  -10.5585   16.6210 C   0  0  0  0  0  0  0  0  0  0  0  0
    0.3696  -12.7626   16.2169 O   0  0  0  0  0  0  0  0  0  0  0  0
   -0.6895   -9.5676   17.3297 C   0  0  0  0  0  0  0  0  0  0  0  0
    0.8388   -5.8417   27.5264 C   0  0  0  0  0  0  0  0  0  0  0  0
   -2.0709   -7.6637   18.7817 C   0  0  0  0  0  0  0  0  0  0  0  0
   -0.5279   -8.2168   17.0717 C   0  0  0  0  0  0  0  0  0  0  0  0
    6.9694   -4.0191   27.8190 C   0  0  0  0  0  0  0  0  0  0  0  0
    5.1733   -4.5469   29.8123 C   0  0  0  0  0  0  0  0  0  0  0  0
   -1.7508  -11.3016   18.6072 C   0  0  0  0  0  0  0  0  0  0  0  0
    1.7497   -5.6771   26.4971 C   0  0  0  0  0  0  0  0  0  0  0  0
   -1.5799   -9.9322   18.3468 C   0  0  0  0  0  0  0  0  0  0  0  0
   -1.0871  -12.2214   17.8851 C   0  0  0  0  0  0  0  0  0  0  0  0
   -2.2706   -8.9669   19.0691 C   0  0  0  0  0  0  0  0  0  0  0  0
    3.0279   -5.3073   26.8197 C   0  0  0  0  0  0  0  0  0  0  0  0
    7.3282   -3.8948   29.1186 C   0  0  0  0  0  0  0  0  0  0  0  0
  1  3  4  0
  1  7  4  0
  2  3  1  0
  2  6  4  0
  2 16  4  0
  3 22  4  0
  4  9  4  0
  4 10  1  0
  4 20  4  0
  5 16  4  0
  5 23  4  0
  6 15  4  0
  7 12  4  0
  8 13  4  0
  8 14  4  0
  9 11  4  0
 11 14  4  0
 11 19  4  0
 12 18  4  0
 13 21  4  0
 15 23  4  0
 17 19  4  0
 17 20  4  0
 18 22  4  0
 19 21  4  0
M  END
$$$$

 Created by Python create_sdf_string function

 23 25  0  0  0  0  0  0  0  0999 V2000
    2.4610   -5.3070   29.1240 C   0  0  0  0  0  0  0  0  0  0  0  0
    4.7710   -4.6952   28.4803 C   0  0  0  0  0  0  0  0  0  0  0  0
    3.4047   -5.1087   28.1314 C   0  0  0  0  0  0  0  0  0  0  0  0
   -0.2234  -11.8615   16.8874 C   0  0  0  0  0  0  0  0  0  0  0  0
    6.4491   -4.1532   30.1213 C   0  0  0  0  0  0  0  0  0  0  0  0
    5.7060   -4.4340   27.4975 C   0  0  0  0  0  0  0  0  0  0  0  0
    1.1818   -5.6612   28.8399 C   0  0  0  0  0  0  0  0  0  0  0  0
   -1.2067   -7.3287   17.7772 C   0  0  0  0  0  0  0  0  0  0  0  0
   -0.0206  -10.5585   16.6210 C   0  0  0  0  0  0  0  0  0  0  0  0
    0.3696  -12.7626   16.2169 O   0  0  0  0  0  0  0  0  0  0  0  0
   -0.6895   -9.5676   17.3297 C   0  0  0  0  0  0  0  0  0  0  0  0
    0.8388   -5.8417   27.5264 C   0  0  0  0  0  0  0  0  0  0  0  0
   -2.0709   -7.6637   18.7817 C   0  0  0  0  0  0  0  0  0  0  0  0
   -0.5279   -8.2168   17.0717 C   0  0  0  0  0  0  0  0  0  0  0  0
    6.9694   -4.0191   27.8190 C   0  0  0  0  0  0  0  0  0  0  0  0
    5.1733   -4.5469   29.8123 C   0  0  0  0  0  0  0  0  0  0  0  0
   -1.7508  -11.3016   18.6072 C   0  0  0  0  0  0  0  0  0  0  0  0
    1.7497   -5.6771   26.4971 C   0  0  0  0  0  0  0  0  0  0  0  0
   -1.5799   -9.9322   18.3468 C   0  0  0  0  0  0  0  0  0  0  0  0
   -1.0871  -12.2214   17.8851 C   0  0  0  0  0  0  0  0  0  0  0  0
   -2.2706   -8.9669   19.0691 C   0  0  0  0  0  0  0  0  0  0  0  0
    3.0279   -5.3073   26.8197 C   0  0  0  0  0  0  0  0  0  0  0  0
    7.3282   -3.8948   29.1186 C   0  0  0  0  0  0  0  0  0  0  0  0
  1  3  4  0
  1  7  4  0
  2  3  1  0
  2  6  4  0
  2 16  4  0
  3 22  4  0
  4  9  4  0
  4 10  1  0
  4 20  4  0
  5 16  4  0
  5 23  4  0
  6 15  4  0
  7 12  4  0
  8 13  4  0
  8 14  4  0
  9 11  4  0
 11 14  4  0
 11 19  4  0
 12 18  4  0
 13 21  4  0
 15 23  4  0
 17 19  4  0
 17 20  4  0
 18 22  4  0
 19 21  4  0
M  END
$$$$

 Created by Python create_sdf_string function

 23 25  0  0  0  0  0  0  0  0999 V2000
    2.4610   -5.3070   29.1240 C   0  0  0  0  0  0  0  0  0  0  0  0
    4.7710   -4.6952   28.4803 C   0  0  0  0  0  0  0  0  0  0  0  0
    3.4047   -5.1087   28.1314 C   0  0  0  0  0  0  0  0  0  0  0  0
   -0.2234  -11.8615   16.8874 C   0  0  0  0  0  0  0  0  0  0  0  0
    6.4491   -4.1532   30.1213 C   0  0  0  0  0  0  0  0  0  0  0  0
    5.7060   -4.4340   27.4975 C   0  0  0  0  0  0  0  0  0  0  0  0
    1.1818   -5.6612   28.8399 C   0  0  0  0  0  0  0  0  0  0  0  0
   -1.2067   -7.3287   17.7772 C   0  0  0  0  0  0  0  0  0  0  0  0
   -0.0206  -10.5585   16.6210 C   0  0  0  0  0  0  0  0  0  0  0  0
    0.3696  -12.7626   16.2169 O   0  0  0  0  0  0  0  0  0  0  0  0
   -0.6895   -9.5676   17.3297 C   0  0  0  0  0  0  0  0  0  0  0  0
    0.8388   -5.8417   27.5264 C   0  0  0  0  0  0  0  0  0  0  0  0
   -2.0709   -7.6637   18.7817 C   0  0  0  0  0  0  0  0  0  0  0  0
   -0.5279   -8.2168   17.0717 C   0  0  0  0  0  0  0  0  0  0  0  0
    6.9694   -4.0191   27.8190 C   0  0  0  0  0  0  0  0  0  0  0  0
    5.1733   -4.5469   29.8123 C   0  0  0  0  0  0  0  0  0  0  0  0
   -1.7508  -11.3016   18.6072 C   0  0  0  0  0  0  0  0  0  0  0  0
    1.7497   -5.6771   26.4971 C   0  0  0  0  0  0  0  0  0  0  0  0
   -1.5799   -9.9322   18.3468 C   0  0  0  0  0  0  0  0  0  0  0  0
   -1.0871  -12.2214   17.8851 C   0  0  0  0  0  0  0  0  0  0  0  0
   -2.2706   -8.9669   19.0691 C   0  0  0  0  0  0  0  0  0  0  0  0
    3.0279   -5.3073   26.8197 C   0  0  0  0  0  0  0  0  0  0  0  0
    7.3282   -3.8948   29.1186 C   0  0  0  0  0  0  0  0  0  0  0  0
  1  3  4  0
  1  7  4  0
  2  3  1  0
  2  6  4  0
  2 16  4  0
  3 22  4  0
  4  9  4  0
  4 10  1  0
  4 20  4  0
  5 16  4  0
  5 23  4  0
  6 15  4  0
  7 12  4  0
  8 13  4  0
  8 14  4  0
  9 11  4  0
 11 14  4  0
 11 19  4  0
 12 18  4  0
 13 21  4  0
 15 23  4  0
 17 19  4  0
 17 20  4  0
 18 22  4  0
 19 21  4  0
M  END
$$$$

 Created by Python create_sdf_string function

 23 25  0  0  0  0  0  0  0  0999 V2000
    2.4610   -5.3070   29.1240 C   0  0  0  0  0  0  0  0  0  0  0  0
    4.7710   -4.6952   28.4803 C   0  0  0  0  0  0  0  0  0  0  0  0
    3.4047   -5.1087   28.1314 C   0  0  0  0  0  0  0  0  0  0  0  0
   -0.2234  -11.8615   16.8874 C   0  0  0  0  0  0  0  0  0  0  0  0
    6.4491   -4.1532   30.1213 C   0  0  0  0  0  0  0  0  0  0  0  0
    5.7060   -4.4340   27.4975 C   0  0  0  0  0  0  0  0  0  0  0  0
    1.1818   -5.6612   28.8399 C   0  0  0  0  0  0  0  0  0  0  0  0
   -1.2067   -7.3287   17.7772 C   0  0  0  0  0  0  0  0  0  0  0  0
   -0.0206  -10.5585   16.6210 C   0  0  0  0  0  0  0  0  0  0  0  0
    0.3696  -12.7626   16.2169 O   0  0  0  0  0  0  0  0  0  0  0  0
   -0.6895   -9.5676   17.3297 C   0  0  0  0  0  0  0  0  0  0  0  0
    0.8388   -5.8417   27.5264 C   0  0  0  0  0  0  0  0  0  0  0  0
   -2.0709   -7.6637   18.7817 C   0  0  0  0  0  0  0  0  0  0  0  0
   -0.5279   -8.2168   17.0717 C   0  0  0  0  0  0  0  0  0  0  0  0
    6.9694   -4.0191   27.8190 C   0  0  0  0  0  0  0  0  0  0  0  0
    5.1733   -4.5469   29.8123 C   0  0  0  0  0  0  0  0  0  0  0  0
   -1.7508  -11.3016   18.6072 C   0  0  0  0  0  0  0  0  0  0  0  0
    1.7497   -5.6771   26.4971 C   0  0  0  0  0  0  0  0  0  0  0  0
   -1.5799   -9.9322   18.3468 C   0  0  0  0  0  0  0  0  0  0  0  0
   -1.0871  -12.2214   17.8851 C   0  0  0  0  0  0  0  0  0  0  0  0
   -2.2706   -8.9669   19.0691 C   0  0  0  0  0  0  0  0  0  0  0  0
    3.0279   -5.3073   26.8197 C   0  0  0  0  0  0  0  0  0  0  0  0
    7.3282   -3.8948   29.1186 C   0  0  0  0  0  0  0  0  0  0  0  0
  1  3  4  0
  1  7  4  0
  2  3  1  0
  2  6  4  0
  2 16  4  0
  3 22  4  0
  4  9  4  0
  4 10  1  0
  4 20  4  0
  5 16  4  0
  5 23  4  0
  6 15  4  0
  7 12  4  0
  8 13  4  0
  8 14  4  0
  9 11  4  0
 11 14  4  0
 11 19  4  0
 12 18  4  0
 13 21  4  0
 15 23  4  0
 17 19  4  0
 17 20  4  0
 18 22  4  0
 19 21  4  0
M  END
$$$$

 Created by Python create_sdf_string function

 23 25  0  0  0  0  0  0  0  0999 V2000
    2.4610   -5.3070   29.1240 C   0  0  0  0  0  0  0  0  0  0  0  0
    4.7710   -4.6952   28.4803 C   0  0  0  0  0  0  0  0  0  0  0  0
    3.4047   -5.1087   28.1314 C   0  0  0  0  0  0  0  0  0  0  0  0
   -0.2234  -11.8615   16.8874 C   0  0  0  0  0  0  0  0  0  0  0  0
    6.4491   -4.1532   30.1213 C   0  0  0  0  0  0  0  0  0  0  0  0
    5.7060   -4.4340   27.4975 C   0  0  0  0  0  0  0  0  0  0  0  0
    1.1818   -5.6612   28.8399 C   0  0  0  0  0  0  0  0  0  0  0  0
   -1.2067   -7.3287   17.7772 C   0  0  0  0  0  0  0  0  0  0  0  0
   -0.0206  -10.5585   16.6210 C   0  0  0  0  0  0  0  0  0  0  0  0
    0.3696  -12.7626   16.2169 O   0  0  0  0  0  0  0  0  0  0  0  0
   -0.6895   -9.5676   17.3297 C   0  0  0  0  0  0  0  0  0  0  0  0
    0.8388   -5.8417   27.5264 C   0  0  0  0  0  0  0  0  0  0  0  0
   -2.0709   -7.6637   18.7817 C   0  0  0  0  0  0  0  0  0  0  0  0
   -0.5279   -8.2168   17.0717 C   0  0  0  0  0  0  0  0  0  0  0  0
    6.9694   -4.0191   27.8190 C   0  0  0  0  0  0  0  0  0  0  0  0
    5.1733   -4.5469   29.8123 C   0  0  0  0  0  0  0  0  0  0  0  0
   -1.7508  -11.3016   18.6072 C   0  0  0  0  0  0  0  0  0  0  0  0
    1.7497   -5.6771   26.4971 C   0  0  0  0  0  0  0  0  0  0  0  0
   -1.5799   -9.9322   18.3468 C   0  0  0  0  0  0  0  0  0  0  0  0
   -1.0871  -12.2214   17.8851 C   0  0  0  0  0  0  0  0  0  0  0  0
   -2.2706   -8.9669   19.0691 C   0  0  0  0  0  0  0  0  0  0  0  0
    3.0279   -5.3073   26.8197 C   0  0  0  0  0  0  0  0  0  0  0  0
    7.3282   -3.8948   29.1186 C   0  0  0  0  0  0  0  0  0  0  0  0
  1  3  4  0
  1  7  4  0
  2  3  1  0
  2  6  4  0
  2 16  4  0
  3 22  4  0
  4  9  4  0
  4 10  1  0
  4 20  4  0
  5 16  4  0
  5 23  4  0
  6 15  4  0
  7 12  4  0
  8 13  4  0
  8 14  4  0
  9 11  4  0
 11 14  4  0
 11 19  4  0
 12 18  4  0
 13 21  4  0
 15 23  4  0
 17 19  4  0
 17 20  4  0
 18 22  4  0
 19 21  4  0
M  END
$$$$

 Created by Python create_sdf_string function

 23 25  0  0  0  0  0  0  0  0999 V2000
    2.4610   -5.3070   29.1240 C   0  0  0  0  0  0  0  0  0  0  0  0
    4.7710   -4.6952   28.4803 C   0  0  0  0  0  0  0  0  0  0  0  0
    3.4047   -5.1087   28.1314 C   0  0  0  0  0  0  0  0  0  0  0  0
   -0.2234  -11.8615   16.8874 C   0  0  0  0  0  0  0  0  0  0  0  0
    6.4491   -4.1532   30.1213 C   0  0  0  0  0  0  0  0  0  0  0  0
    5.7060   -4.4340   27.4975 C   0  0  0  0  0  0  0  0  0  0  0  0
    1.1818   -5.6612   28.8399 C   0  0  0  0  0  0  0  0  0  0  0  0
   -1.2067   -7.3287   17.7772 C   0  0  0  0  0  0  0  0  0  0  0  0
   -0.0206  -10.5585   16.6210 C   0  0  0  0  0  0  0  0  0  0  0  0
    0.3696  -12.7626   16.2169 O   0  0  0  0  0  0  0  0  0  0  0  0
   -0.6895   -9.5676   17.3297 C   0  0  0  0  0  0  0  0  0  0  0  0
    0.8388   -5.8417   27.5264 C   0  0  0  0  0  0  0  0  0  0  0  0
   -2.0709   -7.6637   18.7817 C   0  0  0  0  0  0  0  0  0  0  0  0
   -0.5279   -8.2168   17.0717 C   0  0  0  0  0  0  0  0  0  0  0  0
    6.9694   -4.0191   27.8190 C   0  0  0  0  0  0  0  0  0  0  0  0
    5.1733   -4.5469   29.8123 C   0  0  0  0  0  0  0  0  0  0  0  0
   -1.7508  -11.3016   18.6072 C   0  0  0  0  0  0  0  0  0  0  0  0
    1.7497   -5.6771   26.4971 C   0  0  0  0  0  0  0  0  0  0  0  0
   -1.5799   -9.9322   18.3468 C   0  0  0  0  0  0  0  0  0  0  0  0
   -1.0871  -12.2214   17.8851 C   0  0  0  0  0  0  0  0  0  0  0  0
   -2.2706   -8.9669   19.0691 C   0  0  0  0  0  0  0  0  0  0  0  0
    3.0279   -5.3073   26.8197 C   0  0  0  0  0  0  0  0  0  0  0  0
    7.3282   -3.8948   29.1186 C   0  0  0  0  0  0  0  0  0  0  0  0
  1  3  4  0
  1  7  4  0
  2  3  1  0
  2  6  4  0
  2 16  4  0
  3 22  4  0
  4  9  4  0
  4 10  1  0
  4 20  4  0
  5 16  4  0
  5 23  4  0
  6 15  4  0
  7 12  4  0
  8 13  4  0
  8 14  4  0
  9 11  4  0
 11 14  4  0
 11 19  4  0
 12 18  4  0
 13 21  4  0
 15 23  4  0
 17 19  4  0
 17 20  4  0
 18 22  4  0
 19 21  4  0
M  END
$$$$

 Created by Python create_sdf_string function

 23 25  0  0  0  0  0  0  0  0999 V2000
    2.4610   -5.3070   29.1240 C   0  0  0  0  0  0  0  0  0  0  0  0
    4.7710   -4.6952   28.4803 C   0  0  0  0  0  0  0  0  0  0  0  0
    3.4047   -5.1087   28.1314 C   0  0  0  0  0  0  0  0  0  0  0  0
   -0.2234  -11.8615   16.8874 C   0  0  0  0  0  0  0  0  0  0  0  0
    6.4491   -4.1532   30.1213 C   0  0  0  0  0  0  0  0  0  0  0  0
    5.7060   -4.4340   27.4975 C   0  0  0  0  0  0  0  0  0  0  0  0
    1.1818   -5.6612   28.8399 C   0  0  0  0  0  0  0  0  0  0  0  0
   -1.2067   -7.3287   17.7772 C   0  0  0  0  0  0  0  0  0  0  0  0
   -0.0206  -10.5585   16.6210 C   0  0  0  0  0  0  0  0  0  0  0  0
    0.3696  -12.7626   16.2169 O   0  0  0  0  0  0  0  0  0  0  0  0
   -0.6895   -9.5676   17.3297 C   0  0  0  0  0  0  0  0  0  0  0  0
    0.8388   -5.8417   27.5264 C   0  0  0  0  0  0  0  0  0  0  0  0
   -2.0709   -7.6637   18.7817 C   0  0  0  0  0  0  0  0  0  0  0  0
   -0.5279   -8.2168   17.0717 C   0  0  0  0  0  0  0  0  0  0  0  0
    6.9694   -4.0191   27.8190 C   0  0  0  0  0  0  0  0  0  0  0  0
    5.1733   -4.5469   29.8123 C   0  0  0  0  0  0  0  0  0  0  0  0
   -1.7508  -11.3016   18.6072 C   0  0  0  0  0  0  0  0  0  0  0  0
    1.7497   -5.6771   26.4971 C   0  0  0  0  0  0  0  0  0  0  0  0
   -1.5799   -9.9322   18.3468 C   0  0  0  0  0  0  0  0  0  0  0  0
   -1.0871  -12.2214   17.8851 C   0  0  0  0  0  0  0  0  0  0  0  0
   -2.2706   -8.9669   19.0691 C   0  0  0  0  0  0  0  0  0  0  0  0
    3.0279   -5.3073   26.8197 C   0  0  0  0  0  0  0  0  0  0  0  0
    7.3282   -3.8948   29.1186 C   0  0  0  0  0  0  0  0  0  0  0  0
  1  3  4  0
  1  7  4  0
  2  3  1  0
  2  6  4  0
  2 16  4  0
  3 22  4  0
  4  9  4  0
  4 10  1  0
  4 20  4  0
  5 16  4  0
  5 23  4  0
  6 15  4  0
  7 12  4  0
  8 13  4  0
  8 14  4  0
  9 11  4  0
 11 14  4  0
 11 19  4  0
 12 18  4  0
 13 21  4  0
 15 23  4  0
 17 19  4  0
 17 20  4  0
 18 22  4  0
 19 21  4  0
M  END
$$$$

 Created by Python create_sdf_string function

 23 25  0  0  0  0  0  0  0  0999 V2000
    2.4610   -5.3070   29.1240 C   0  0  0  0  0  0  0  0  0  0  0  0
    4.7710   -4.6952   28.4803 C   0  0  0  0  0  0  0  0  0  0  0  0
    3.4047   -5.1087   28.1314 C   0  0  0  0  0  0  0  0  0  0  0  0
   -0.2234  -11.8615   16.8874 C   0  0  0  0  0  0  0  0  0  0  0  0
    6.4491   -4.1532   30.1213 C   0  0  0  0  0  0  0  0  0  0  0  0
    5.7060   -4.4340   27.4975 C   0  0  0  0  0  0  0  0  0  0  0  0
    1.1818   -5.6612   28.8399 C   0  0  0  0  0  0  0  0  0  0  0  0
   -1.2067   -7.3287   17.7772 C   0  0  0  0  0  0  0  0  0  0  0  0
   -0.0206  -10.5585   16.6210 C   0  0  0  0  0  0  0  0  0  0  0  0
    0.3696  -12.7626   16.2169 O   0  0  0  0  0  0  0  0  0  0  0  0
   -0.6895   -9.5676   17.3297 C   0  0  0  0  0  0  0  0  0  0  0  0
    0.8388   -5.8417   27.5264 C   0  0  0  0  0  0  0  0  0  0  0  0
   -2.0709   -7.6637   18.7817 C   0  0  0  0  0  0  0  0  0  0  0  0
   -0.5279   -8.2168   17.0717 C   0  0  0  0  0  0  0  0  0  0  0  0
    6.9694   -4.0191   27.8190 C   0  0  0  0  0  0  0  0  0  0  0  0
    5.1733   -4.5469   29.8123 C   0  0  0  0  0  0  0  0  0  0  0  0
   -1.7508  -11.3016   18.6072 C   0  0  0  0  0  0  0  0  0  0  0  0
    1.7497   -5.6771   26.4971 C   0  0  0  0  0  0  0  0  0  0  0  0
   -1.5799   -9.9322   18.3468 C   0  0  0  0  0  0  0  0  0  0  0  0
   -1.0871  -12.2214   17.8851 C   0  0  0  0  0  0  0  0  0  0  0  0
   -2.2706   -8.9669   19.0691 C   0  0  0  0  0  0  0  0  0  0  0  0
    3.0279   -5.3073   26.8197 C   0  0  0  0  0  0  0  0  0  0  0  0
    7.3282   -3.8948   29.1186 C   0  0  0  0  0  0  0  0  0  0  0  0
  1  3  4  0
  1  7  4  0
  2  3  1  0
  2  6  4  0
  2 16  4  0
  3 22  4  0
  4  9  4  0
  4 10  1  0
  4 20  4  0
  5 16  4  0
  5 23  4  0
  6 15  4  0
  7 12  4  0
  8 13  4  0
  8 14  4  0
  9 11  4  0
 11 14  4  0
 11 19  4  0
 12 18  4  0
 13 21  4  0
 15 23  4  0
 17 19  4  0
 17 20  4  0
 18 22  4  0
 19 21  4  0
M  END
$$$$

 Created by Python create_sdf_string function

 23 25  0  0  0  0  0  0  0  0999 V2000
    2.4610   -5.3070   29.1240 C   0  0  0  0  0  0  0  0  0  0  0  0
    4.7710   -4.6952   28.4803 C   0  0  0  0  0  0  0  0  0  0  0  0
    3.4047   -5.1087   28.1314 C   0  0  0  0  0  0  0  0  0  0  0  0
   -0.2234  -11.8615   16.8874 C   0  0  0  0  0  0  0  0  0  0  0  0
    6.4491   -4.1532   30.1213 C   0  0  0  0  0  0  0  0  0  0  0  0
    5.7060   -4.4340   27.4975 C   0  0  0  0  0  0  0  0  0  0  0  0
    1.1818   -5.6612   28.8399 C   0  0  0  0  0  0  0  0  0  0  0  0
   -1.2067   -7.3287   17.7772 C   0  0  0  0  0  0  0  0  0  0  0  0
   -0.0206  -10.5585   16.6210 C   0  0  0  0  0  0  0  0  0  0  0  0
    0.3696  -12.7626   16.2169 O   0  0  0  0  0  0  0  0  0  0  0  0
   -0.6895   -9.5676   17.3297 C   0  0  0  0  0  0  0  0  0  0  0  0
    0.8388   -5.8417   27.5264 C   0  0  0  0  0  0  0  0  0  0  0  0
   -2.0709   -7.6637   18.7817 C   0  0  0  0  0  0  0  0  0  0  0  0
   -0.5279   -8.2168   17.0717 C   0  0  0  0  0  0  0  0  0  0  0  0
    6.9694   -4.0191   27.8190 C   0  0  0  0  0  0  0  0  0  0  0  0
    5.1733   -4.5469   29.8123 C   0  0  0  0  0  0  0  0  0  0  0  0
   -1.7508  -11.3016   18.6072 C   0  0  0  0  0  0  0  0  0  0  0  0
    1.7497   -5.6771   26.4971 C   0  0  0  0  0  0  0  0  0  0  0  0
   -1.5799   -9.9322   18.3468 C   0  0  0  0  0  0  0  0  0  0  0  0
   -1.0871  -12.2214   17.8851 C   0  0  0  0  0  0  0  0  0  0  0  0
   -2.2706   -8.9669   19.0691 C   0  0  0  0  0  0  0  0  0  0  0  0
    3.0279   -5.3073   26.8197 C   0  0  0  0  0  0  0  0  0  0  0  0
    7.3282   -3.8948   29.1186 C   0  0  0  0  0  0  0  0  0  0  0  0
  1  3  4  0
  1  7  4  0
  2  3  1  0
  2  6  4  0
  2 16  4  0
  3 22  4  0
  4  9  4  0
  4 10  1  0
  4 20  4  0
  5 16  4  0
  5 23  4  0
  6 15  4  0
  7 12  4  0
  8 13  4  0
  8 14  4  0
  9 11  4  0
 11 14  4  0
 11 19  4  0
 12 18  4  0
 13 21  4  0
 15 23  4  0
 17 19  4  0
 17 20  4  0
 18 22  4  0
 19 21  4  0
M  END
$$$$

 Created by Python create_sdf_string function

 23 25  0  0  0  0  0  0  0  0999 V2000
    2.4610   -5.3070   29.1240 C   0  0  0  0  0  0  0  0  0  0  0  0
    4.7710   -4.6952   28.4803 C   0  0  0  0  0  0  0  0  0  0  0  0
    3.4047   -5.1087   28.1314 C   0  0  0  0  0  0  0  0  0  0  0  0
   -0.2234  -11.8615   16.8874 C   0  0  0  0  0  0  0  0  0  0  0  0
    6.4491   -4.1532   30.1213 C   0  0  0  0  0  0  0  0  0  0  0  0
    5.7060   -4.4340   27.4975 C   0  0  0  0  0  0  0  0  0  0  0  0
    1.1818   -5.6612   28.8399 C   0  0  0  0  0  0  0  0  0  0  0  0
   -1.2067   -7.3287   17.7772 C   0  0  0  0  0  0  0  0  0  0  0  0
   -0.0206  -10.5585   16.6210 C   0  0  0  0  0  0  0  0  0  0  0  0
    0.3696  -12.7626   16.2169 O   0  0  0  0  0  0  0  0  0  0  0  0
   -0.6895   -9.5676   17.3297 C   0  0  0  0  0  0  0  0  0  0  0  0
    0.8388   -5.8417   27.5264 C   0  0  0  0  0  0  0  0  0  0  0  0
   -2.0709   -7.6637   18.7817 C   0  0  0  0  0  0  0  0  0  0  0  0
   -0.5279   -8.2168   17.0717 C   0  0  0  0  0  0  0  0  0  0  0  0
    6.9694   -4.0191   27.8190 C   0  0  0  0  0  0  0  0  0  0  0  0
    5.1733   -4.5469   29.8123 C   0  0  0  0  0  0  0  0  0  0  0  0
   -1.7508  -11.3016   18.6072 C   0  0  0  0  0  0  0  0  0  0  0  0
    1.7497   -5.6771   26.4971 C   0  0  0  0  0  0  0  0  0  0  0  0
   -1.5799   -9.9322   18.3468 C   0  0  0  0  0  0  0  0  0  0  0  0
   -1.0871  -12.2214   17.8851 C   0  0  0  0  0  0  0  0  0  0  0  0
   -2.2706   -8.9669   19.0691 C   0  0  0  0  0  0  0  0  0  0  0  0
    3.0279   -5.3073   26.8197 C   0  0  0  0  0  0  0  0  0  0  0  0
    7.3282   -3.8948   29.1186 C   0  0  0  0  0  0  0  0  0  0  0  0
  1  3  4  0
  1  7  4  0
  2  3  1  0
  2  6  4  0
  2 16  4  0
  3 22  4  0
  4  9  4  0
  4 10  1  0
  4 20  4  0
  5 16  4  0
  5 23  4  0
  6 15  4  0
  7 12  4  0
  8 13  4  0
  8 14  4  0
  9 11  4  0
 11 14  4  0
 11 19  4  0
 12 18  4  0
 13 21  4  0
 15 23  4  0
 17 19  4  0
 17 20  4  0
 18 22  4  0
 19 21  4  0
M  END
$$$$

 Created by Python create_sdf_string function

 23 25  0  0  0  0  0  0  0  0999 V2000
    2.4610   -5.3070   29.1240 C   0  0  0  0  0  0  0  0  0  0  0  0
    4.7710   -4.6952   28.4803 C   0  0  0  0  0  0  0  0  0  0  0  0
    3.4047   -5.1087   28.1314 C   0  0  0  0  0  0  0  0  0  0  0  0
   -0.2234  -11.8615   16.8874 C   0  0  0  0  0  0  0  0  0  0  0  0
    6.4491   -4.1532   30.1213 C   0  0  0  0  0  0  0  0  0  0  0  0
    5.7060   -4.4340   27.4975 C   0  0  0  0  0  0  0  0  0  0  0  0
    1.1818   -5.6612   28.8399 C   0  0  0  0  0  0  0  0  0  0  0  0
   -1.2067   -7.3287   17.7772 C   0  0  0  0  0  0  0  0  0  0  0  0
   -0.0206  -10.5585   16.6210 C   0  0  0  0  0  0  0  0  0  0  0  0
    0.3696  -12.7626   16.2169 O   0  0  0  0  0  0  0  0  0  0  0  0
   -0.6895   -9.5676   17.3297 C   0  0  0  0  0  0  0  0  0  0  0  0
    0.8388   -5.8417   27.5264 C   0  0  0  0  0  0  0  0  0  0  0  0
   -2.0709   -7.6637   18.7817 C   0  0  0  0  0  0  0  0  0  0  0  0
   -0.5279   -8.2168   17.0717 C   0  0  0  0  0  0  0  0  0  0  0  0
    6.9694   -4.0191   27.8190 C   0  0  0  0  0  0  0  0  0  0  0  0
    5.1733   -4.5469   29.8123 C   0  0  0  0  0  0  0  0  0  0  0  0
   -1.7508  -11.3016   18.6072 C   0  0  0  0  0  0  0  0  0  0  0  0
    1.7497   -5.6771   26.4971 C   0  0  0  0  0  0  0  0  0  0  0  0
   -1.5799   -9.9322   18.3468 C   0  0  0  0  0  0  0  0  0  0  0  0
   -1.0871  -12.2214   17.8851 C   0  0  0  0  0  0  0  0  0  0  0  0
   -2.2706   -8.9669   19.0691 C   0  0  0  0  0  0  0  0  0  0  0  0
    3.0279   -5.3073   26.8197 C   0  0  0  0  0  0  0  0  0  0  0  0
    7.3282   -3.8948   29.1186 C   0  0  0  0  0  0  0  0  0  0  0  0
  1  3  4  0
  1  7  4  0
  2  3  1  0
  2  6  4  0
  2 16  4  0
  3 22  4  0
  4  9  4  0
  4 10  1  0
  4 20  4  0
  5 16  4  0
  5 23  4  0
  6 15  4  0
  7 12  4  0
  8 13  4  0
  8 14  4  0
  9 11  4  0
 11 14  4  0
 11 19  4  0
 12 18  4  0
 13 21  4  0
 15 23  4  0
 17 19  4  0
 17 20  4  0
 18 22  4  0
 19 21  4  0
M  END
$$$$

 Created by Python create_sdf_string function

 23 25  0  0  0  0  0  0  0  0999 V2000
    2.4610   -5.3070   29.1240 C   0  0  0  0  0  0  0  0  0  0  0  0
    4.7710   -4.6952   28.4803 C   0  0  0  0  0  0  0  0  0  0  0  0
    3.4047   -5.1087   28.1314 C   0  0  0  0  0  0  0  0  0  0  0  0
   -0.2234  -11.8615   16.8874 C   0  0  0  0  0  0  0  0  0  0  0  0
    6.4491   -4.1532   30.1213 C   0  0  0  0  0  0  0  0  0  0  0  0
    5.7060   -4.4340   27.4975 C   0  0  0  0  0  0  0  0  0  0  0  0
    1.1818   -5.6612   28.8399 C   0  0  0  0  0  0  0  0  0  0  0  0
   -1.2067   -7.3287   17.7772 C   0  0  0  0  0  0  0  0  0  0  0  0
   -0.0206  -10.5585   16.6210 C   0  0  0  0  0  0  0  0  0  0  0  0
    0.3696  -12.7626   16.2169 O   0  0  0  0  0  0  0  0  0  0  0  0
   -0.6895   -9.5676   17.3297 C   0  0  0  0  0  0  0  0  0  0  0  0
    0.8388   -5.8417   27.5264 C   0  0  0  0  0  0  0  0  0  0  0  0
   -2.0709   -7.6637   18.7817 C   0  0  0  0  0  0  0  0  0  0  0  0
   -0.5279   -8.2168   17.0717 C   0  0  0  0  0  0  0  0  0  0  0  0
    6.9694   -4.0191   27.8190 C   0  0  0  0  0  0  0  0  0  0  0  0
    5.1733   -4.5469   29.8123 C   0  0  0  0  0  0  0  0  0  0  0  0
   -1.7508  -11.3016   18.6072 C   0  0  0  0  0  0  0  0  0  0  0  0
    1.7497   -5.6771   26.4971 C   0  0  0  0  0  0  0  0  0  0  0  0
   -1.5799   -9.9322   18.3468 C   0  0  0  0  0  0  0  0  0  0  0  0
   -1.0871  -12.2214   17.8851 C   0  0  0  0  0  0  0  0  0  0  0  0
   -2.2706   -8.9669   19.0691 C   0  0  0  0  0  0  0  0  0  0  0  0
    3.0279   -5.3073   26.8197 C   0  0  0  0  0  0  0  0  0  0  0  0
    7.3282   -3.8948   29.1186 C   0  0  0  0  0  0  0  0  0  0  0  0
  1  3  4  0
  1  7  4  0
  2  3  1  0
  2  6  4  0
  2 16  4  0
  3 22  4  0
  4  9  4  0
  4 10  1  0
  4 20  4  0
  5 16  4  0
  5 23  4  0
  6 15  4  0
  7 12  4  0
  8 13  4  0
  8 14  4  0
  9 11  4  0
 11 14  4  0
 11 19  4  0
 12 18  4  0
 13 21  4  0
 15 23  4  0
 17 19  4  0
 17 20  4  0
 18 22  4  0
 19 21  4  0
M  END
$$$$

 Created by Python create_sdf_string function

 23 25  0  0  0  0  0  0  0  0999 V2000
    2.4610   -5.3070   29.1240 C   0  0  0  0  0  0  0  0  0  0  0  0
    4.7710   -4.6952   28.4803 C   0  0  0  0  0  0  0  0  0  0  0  0
    3.4047   -5.1087   28.1314 C   0  0  0  0  0  0  0  0  0  0  0  0
   -0.2234  -11.8615   16.8874 C   0  0  0  0  0  0  0  0  0  0  0  0
    6.4491   -4.1532   30.1213 C   0  0  0  0  0  0  0  0  0  0  0  0
    5.7060   -4.4340   27.4975 C   0  0  0  0  0  0  0  0  0  0  0  0
    1.1818   -5.6612   28.8399 C   0  0  0  0  0  0  0  0  0  0  0  0
   -1.2067   -7.3287   17.7772 C   0  0  0  0  0  0  0  0  0  0  0  0
   -0.0206  -10.5585   16.6210 C   0  0  0  0  0  0  0  0  0  0  0  0
    0.3696  -12.7626   16.2169 O   0  0  0  0  0  0  0  0  0  0  0  0
   -0.6895   -9.5676   17.3297 C   0  0  0  0  0  0  0  0  0  0  0  0
    0.8388   -5.8417   27.5264 C   0  0  0  0  0  0  0  0  0  0  0  0
   -2.0709   -7.6637   18.7817 C   0  0  0  0  0  0  0  0  0  0  0  0
   -0.5279   -8.2168   17.0717 C   0  0  0  0  0  0  0  0  0  0  0  0
    6.9694   -4.0191   27.8190 C   0  0  0  0  0  0  0  0  0  0  0  0
    5.1733   -4.5469   29.8123 C   0  0  0  0  0  0  0  0  0  0  0  0
   -1.7508  -11.3016   18.6072 C   0  0  0  0  0  0  0  0  0  0  0  0
    1.7497   -5.6771   26.4971 C   0  0  0  0  0  0  0  0  0  0  0  0
   -1.5799   -9.9322   18.3468 C   0  0  0  0  0  0  0  0  0  0  0  0
   -1.0871  -12.2214   17.8851 C   0  0  0  0  0  0  0  0  0  0  0  0
   -2.2706   -8.9669   19.0691 C   0  0  0  0  0  0  0  0  0  0  0  0
    3.0279   -5.3073   26.8197 C   0  0  0  0  0  0  0  0  0  0  0  0
    7.3282   -3.8948   29.1186 C   0  0  0  0  0  0  0  0  0  0  0  0
  1  3  4  0
  1  7  4  0
  2  3  1  0
  2  6  4  0
  2 16  4  0
  3 22  4  0
  4  9  4  0
  4 10  1  0
  4 20  4  0
  5 16  4  0
  5 23  4  0
  6 15  4  0
  7 12  4  0
  8 13  4  0
  8 14  4  0
  9 11  4  0
 11 14  4  0
 11 19  4  0
 12 18  4  0
 13 21  4  0
 15 23  4  0
 17 19  4  0
 17 20  4  0
 18 22  4  0
 19 21  4  0
M  END
$$$$

 Created by Python create_sdf_string function

 23 25  0  0  0  0  0  0  0  0999 V2000
    2.4610   -5.3070   29.1240 C   0  0  0  0  0  0  0  0  0  0  0  0
    4.7710   -4.6952   28.4803 C   0  0  0  0  0  0  0  0  0  0  0  0
    3.4047   -5.1087   28.1314 C   0  0  0  0  0  0  0  0  0  0  0  0
   -0.2234  -11.8615   16.8874 C   0  0  0  0  0  0  0  0  0  0  0  0
    6.4491   -4.1532   30.1213 C   0  0  0  0  0  0  0  0  0  0  0  0
    5.7060   -4.4340   27.4975 C   0  0  0  0  0  0  0  0  0  0  0  0
    1.1818   -5.6612   28.8399 C   0  0  0  0  0  0  0  0  0  0  0  0
   -1.2067   -7.3287   17.7772 C   0  0  0  0  0  0  0  0  0  0  0  0
   -0.0206  -10.5585   16.6210 C   0  0  0  0  0  0  0  0  0  0  0  0
    0.3696  -12.7626   16.2169 O   0  0  0  0  0  0  0  0  0  0  0  0
   -0.6895   -9.5676   17.3297 C   0  0  0  0  0  0  0  0  0  0  0  0
    0.8388   -5.8417   27.5264 C   0  0  0  0  0  0  0  0  0  0  0  0
   -2.0709   -7.6637   18.7817 C   0  0  0  0  0  0  0  0  0  0  0  0
   -0.5279   -8.2168   17.0717 C   0  0  0  0  0  0  0  0  0  0  0  0
    6.9694   -4.0191   27.8190 C   0  0  0  0  0  0  0  0  0  0  0  0
    5.1733   -4.5469   29.8123 C   0  0  0  0  0  0  0  0  0  0  0  0
   -1.7508  -11.3016   18.6072 C   0  0  0  0  0  0  0  0  0  0  0  0
    1.7497   -5.6771   26.4971 C   0  0  0  0  0  0  0  0  0  0  0  0
   -1.5799   -9.9322   18.3468 C   0  0  0  0  0  0  0  0  0  0  0  0
   -1.0871  -12.2214   17.8851 C   0  0  0  0  0  0  0  0  0  0  0  0
   -2.2706   -8.9669   19.0691 C   0  0  0  0  0  0  0  0  0  0  0  0
    3.0279   -5.3073   26.8197 C   0  0  0  0  0  0  0  0  0  0  0  0
    7.3282   -3.8948   29.1186 C   0  0  0  0  0  0  0  0  0  0  0  0
  1  3  4  0
  1  7  4  0
  2  3  1  0
  2  6  4  0
  2 16  4  0
  3 22  4  0
  4  9  4  0
  4 10  1  0
  4 20  4  0
  5 16  4  0
  5 23  4  0
  6 15  4  0
  7 12  4  0
  8 13  4  0
  8 14  4  0
  9 11  4  0
 11 14  4  0
 11 19  4  0
 12 18  4  0
 13 21  4  0
 15 23  4  0
 17 19  4  0
 17 20  4  0
 18 22  4  0
 19 21  4  0
M  END
$$$$

 Created by Python create_sdf_string function

 23 25  0  0  0  0  0  0  0  0999 V2000
    2.4610   -5.3070   29.1240 C   0  0  0  0  0  0  0  0  0  0  0  0
    4.7710   -4.6952   28.4803 C   0  0  0  0  0  0  0  0  0  0  0  0
    3.4047   -5.1087   28.1314 C   0  0  0  0  0  0  0  0  0  0  0  0
   -0.2234  -11.8615   16.8874 C   0  0  0  0  0  0  0  0  0  0  0  0
    6.4491   -4.1532   30.1213 C   0  0  0  0  0  0  0  0  0  0  0  0
    5.7060   -4.4340   27.4975 C   0  0  0  0  0  0  0  0  0  0  0  0
    1.1818   -5.6612   28.8399 C   0  0  0  0  0  0  0  0  0  0  0  0
   -1.2067   -7.3287   17.7772 C   0  0  0  0  0  0  0  0  0  0  0  0
   -0.0206  -10.5585   16.6210 C   0  0  0  0  0  0  0  0  0  0  0  0
    0.3696  -12.7626   16.2169 O   0  0  0  0  0  0  0  0  0  0  0  0
   -0.6895   -9.5676   17.3297 C   0  0  0  0  0  0  0  0  0  0  0  0
    0.8388   -5.8417   27.5264 C   0  0  0  0  0  0  0  0  0  0  0  0
   -2.0709   -7.6637   18.7817 C   0  0  0  0  0  0  0  0  0  0  0  0
   -0.5279   -8.2168   17.0717 C   0  0  0  0  0  0  0  0  0  0  0  0
    6.9694   -4.0191   27.8190 C   0  0  0  0  0  0  0  0  0  0  0  0
    5.1733   -4.5469   29.8123 C   0  0  0  0  0  0  0  0  0  0  0  0
   -1.7508  -11.3016   18.6072 C   0  0  0  0  0  0  0  0  0  0  0  0
    1.7497   -5.6771   26.4971 C   0  0  0  0  0  0  0  0  0  0  0  0
   -1.5799   -9.9322   18.3468 C   0  0  0  0  0  0  0  0  0  0  0  0
   -1.0871  -12.2214   17.8851 C   0  0  0  0  0  0  0  0  0  0  0  0
   -2.2706   -8.9669   19.0691 C   0  0  0  0  0  0  0  0  0  0  0  0
    3.0279   -5.3073   26.8197 C   0  0  0  0  0  0  0  0  0  0  0  0
    7.3282   -3.8948   29.1186 C   0  0  0  0  0  0  0  0  0  0  0  0
  1  3  4  0
  1  7  4  0
  2  3  1  0
  2  6  4  0
  2 16  4  0
  3 22  4  0
  4  9  4  0
  4 10  1  0
  4 20  4  0
  5 16  4  0
  5 23  4  0
  6 15  4  0
  7 12  4  0
  8 13  4  0
  8 14  4  0
  9 11  4  0
 11 14  4  0
 11 19  4  0
 12 18  4  0
 13 21  4  0
 15 23  4  0
 17 19  4  0
 17 20  4  0
 18 22  4  0
 19 21  4  0
M  END
$$$$

 Created by Python create_sdf_string function

 23 25  0  0  0  0  0  0  0  0999 V2000
    2.4610   -5.3070   29.1240 C   0  0  0  0  0  0  0  0  0  0  0  0
    4.7710   -4.6952   28.4803 C   0  0  0  0  0  0  0  0  0  0  0  0
    3.4047   -5.1087   28.1314 C   0  0  0  0  0  0  0  0  0  0  0  0
   -0.2234  -11.8615   16.8874 C   0  0  0  0  0  0  0  0  0  0  0  0
    6.4491   -4.1532   30.1213 C   0  0  0  0  0  0  0  0  0  0  0  0
    5.7060   -4.4340   27.4975 C   0  0  0  0  0  0  0  0  0  0  0  0
    1.1818   -5.6612   28.8399 C   0  0  0  0  0  0  0  0  0  0  0  0
   -1.2067   -7.3287   17.7772 C   0  0  0  0  0  0  0  0  0  0  0  0
   -0.0206  -10.5585   16.6210 C   0  0  0  0  0  0  0  0  0  0  0  0
    0.3696  -12.7626   16.2169 O   0  0  0  0  0  0  0  0  0  0  0  0
   -0.6895   -9.5676   17.3297 C   0  0  0  0  0  0  0  0  0  0  0  0
    0.8388   -5.8417   27.5264 C   0  0  0  0  0  0  0  0  0  0  0  0
   -2.0709   -7.6637   18.7817 C   0  0  0  0  0  0  0  0  0  0  0  0
   -0.5279   -8.2168   17.0717 C   0  0  0  0  0  0  0  0  0  0  0  0
    6.9694   -4.0191   27.8190 C   0  0  0  0  0  0  0  0  0  0  0  0
    5.1733   -4.5469   29.8123 C   0  0  0  0  0  0  0  0  0  0  0  0
   -1.7508  -11.3016   18.6072 C   0  0  0  0  0  0  0  0  0  0  0  0
    1.7497   -5.6771   26.4971 C   0  0  0  0  0  0  0  0  0  0  0  0
   -1.5799   -9.9322   18.3468 C   0  0  0  0  0  0  0  0  0  0  0  0
   -1.0871  -12.2214   17.8851 C   0  0  0  0  0  0  0  0  0  0  0  0
   -2.2706   -8.9669   19.0691 C   0  0  0  0  0  0  0  0  0  0  0  0
    3.0279   -5.3073   26.8197 C   0  0  0  0  0  0  0  0  0  0  0  0
    7.3282   -3.8948   29.1186 C   0  0  0  0  0  0  0  0  0  0  0  0
  1  3  4  0
  1  7  4  0
  2  3  1  0
  2  6  4  0
  2 16  4  0
  3 22  4  0
  4  9  4  0
  4 10  1  0
  4 20  4  0
  5 16  4  0
  5 23  4  0
  6 15  4  0
  7 12  4  0
  8 13  4  0
  8 14  4  0
  9 11  4  0
 11 14  4  0
 11 19  4  0
 12 18  4  0
 13 21  4  0
 15 23  4  0
 17 19  4  0
 17 20  4  0
 18 22  4  0
 19 21  4  0
M  END
$$$$

 Created by Python create_sdf_string function

 23 25  0  0  0  0  0  0  0  0999 V2000
    2.4610   -5.3070   29.1240 C   0  0  0  0  0  0  0  0  0  0  0  0
    4.7710   -4.6952   28.4803 C   0  0  0  0  0  0  0  0  0  0  0  0
    3.4047   -5.1087   28.1314 C   0  0  0  0  0  0  0  0  0  0  0  0
   -0.2234  -11.8615   16.8874 C   0  0  0  0  0  0  0  0  0  0  0  0
    6.4491   -4.1532   30.1213 C   0  0  0  0  0  0  0  0  0  0  0  0
    5.7060   -4.4340   27.4975 C   0  0  0  0  0  0  0  0  0  0  0  0
    1.1818   -5.6612   28.8399 C   0  0  0  0  0  0  0  0  0  0  0  0
   -1.2067   -7.3287   17.7772 C   0  0  0  0  0  0  0  0  0  0  0  0
   -0.0206  -10.5585   16.6210 C   0  0  0  0  0  0  0  0  0  0  0  0
    0.3696  -12.7626   16.2169 O   0  0  0  0  0  0  0  0  0  0  0  0
   -0.6895   -9.5676   17.3297 C   0  0  0  0  0  0  0  0  0  0  0  0
    0.8388   -5.8417   27.5264 C   0  0  0  0  0  0  0  0  0  0  0  0
   -2.0709   -7.6637   18.7817 C   0  0  0  0  0  0  0  0  0  0  0  0
   -0.5279   -8.2168   17.0717 C   0  0  0  0  0  0  0  0  0  0  0  0
    6.9694   -4.0191   27.8190 C   0  0  0  0  0  0  0  0  0  0  0  0
    5.1733   -4.5469   29.8123 C   0  0  0  0  0  0  0  0  0  0  0  0
   -1.7508  -11.3016   18.6072 C   0  0  0  0  0  0  0  0  0  0  0  0
    1.7497   -5.6771   26.4971 C   0  0  0  0  0  0  0  0  0  0  0  0
   -1.5799   -9.9322   18.3468 C   0  0  0  0  0  0  0  0  0  0  0  0
   -1.0871  -12.2214   17.8851 C   0  0  0  0  0  0  0  0  0  0  0  0
   -2.2706   -8.9669   19.0691 C   0  0  0  0  0  0  0  0  0  0  0  0
    3.0279   -5.3073   26.8197 C   0  0  0  0  0  0  0  0  0  0  0  0
    7.3282   -3.8948   29.1186 C   0  0  0  0  0  0  0  0  0  0  0  0
  1  3  4  0
  1  7  4  0
  2  3  1  0
  2  6  4  0
  2 16  4  0
  3 22  4  0
  4  9  4  0
  4 10  1  0
  4 20  4  0
  5 16  4  0
  5 23  4  0
  6 15  4  0
  7 12  4  0
  8 13  4  0
  8 14  4  0
  9 11  4  0
 11 14  4  0
 11 19  4  0
 12 18  4  0
 13 21  4  0
 15 23  4  0
 17 19  4  0
 17 20  4  0
 18 22  4  0
 19 21  4  0
M  END
$$$$

 Created by Python create_sdf_string function

 23 25  0  0  0  0  0  0  0  0999 V2000
    2.4610   -5.3070   29.1240 C   0  0  0  0  0  0  0  0  0  0  0  0
    4.7710   -4.6952   28.4803 C   0  0  0  0  0  0  0  0  0  0  0  0
    3.4047   -5.1087   28.1314 C   0  0  0  0  0  0  0  0  0  0  0  0
   -0.2234  -11.8615   16.8874 C   0  0  0  0  0  0  0  0  0  0  0  0
    6.4491   -4.1532   30.1213 C   0  0  0  0  0  0  0  0  0  0  0  0
    5.7060   -4.4340   27.4975 C   0  0  0  0  0  0  0  0  0  0  0  0
    1.1818   -5.6612   28.8399 C   0  0  0  0  0  0  0  0  0  0  0  0
   -1.2067   -7.3287   17.7772 C   0  0  0  0  0  0  0  0  0  0  0  0
   -0.0206  -10.5585   16.6210 C   0  0  0  0  0  0  0  0  0  0  0  0
    0.3696  -12.7626   16.2169 O   0  0  0  0  0  0  0  0  0  0  0  0
   -0.6895   -9.5676   17.3297 C   0  0  0  0  0  0  0  0  0  0  0  0
    0.8388   -5.8417   27.5264 C   0  0  0  0  0  0  0  0  0  0  0  0
   -2.0709   -7.6637   18.7817 C   0  0  0  0  0  0  0  0  0  0  0  0
   -0.5279   -8.2168   17.0717 C   0  0  0  0  0  0  0  0  0  0  0  0
    6.9694   -4.0191   27.8190 C   0  0  0  0  0  0  0  0  0  0  0  0
    5.1733   -4.5469   29.8123 C   0  0  0  0  0  0  0  0  0  0  0  0
   -1.7508  -11.3016   18.6072 C   0  0  0  0  0  0  0  0  0  0  0  0
    1.7497   -5.6771   26.4971 C   0  0  0  0  0  0  0  0  0  0  0  0
   -1.5799   -9.9322   18.3468 C   0  0  0  0  0  0  0  0  0  0  0  0
   -1.0871  -12.2214   17.8851 C   0  0  0  0  0  0  0  0  0  0  0  0
   -2.2706   -8.9669   19.0691 C   0  0  0  0  0  0  0  0  0  0  0  0
    3.0279   -5.3073   26.8197 C   0  0  0  0  0  0  0  0  0  0  0  0
    7.3282   -3.8948   29.1186 C   0  0  0  0  0  0  0  0  0  0  0  0
  1  3  4  0
  1  7  4  0
  2  3  1  0
  2  6  4  0
  2 16  4  0
  3 22  4  0
  4  9  4  0
  4 10  1  0
  4 20  4  0
  5 16  4  0
  5 23  4  0
  6 15  4  0
  7 12  4  0
  8 13  4  0
  8 14  4  0
  9 11  4  0
 11 14  4  0
 11 19  4  0
 12 18  4  0
 13 21  4  0
 15 23  4  0
 17 19  4  0
 17 20  4  0
 18 22  4  0
 19 21  4  0
M  END
$$$$

 Created by Python create_sdf_string function

 23 25  0  0  0  0  0  0  0  0999 V2000
    2.4610   -5.3070   29.1240 C   0  0  0  0  0  0  0  0  0  0  0  0
    4.7710   -4.6952   28.4803 C   0  0  0  0  0  0  0  0  0  0  0  0
    3.4047   -5.1087   28.1314 C   0  0  0  0  0  0  0  0  0  0  0  0
   -0.2234  -11.8615   16.8874 C   0  0  0  0  0  0  0  0  0  0  0  0
    6.4491   -4.1532   30.1213 C   0  0  0  0  0  0  0  0  0  0  0  0
    5.7060   -4.4340   27.4975 C   0  0  0  0  0  0  0  0  0  0  0  0
    1.1818   -5.6612   28.8399 C   0  0  0  0  0  0  0  0  0  0  0  0
   -1.2067   -7.3287   17.7772 C   0  0  0  0  0  0  0  0  0  0  0  0
   -0.0206  -10.5585   16.6210 C   0  0  0  0  0  0  0  0  0  0  0  0
    0.3696  -12.7626   16.2169 O   0  0  0  0  0  0  0  0  0  0  0  0
   -0.6895   -9.5676   17.3297 C   0  0  0  0  0  0  0  0  0  0  0  0
    0.8388   -5.8417   27.5264 C   0  0  0  0  0  0  0  0  0  0  0  0
   -2.0709   -7.6637   18.7817 C   0  0  0  0  0  0  0  0  0  0  0  0
   -0.5279   -8.2168   17.0717 C   0  0  0  0  0  0  0  0  0  0  0  0
    6.9694   -4.0191   27.8190 C   0  0  0  0  0  0  0  0  0  0  0  0
    5.1733   -4.5469   29.8123 C   0  0  0  0  0  0  0  0  0  0  0  0
   -1.7508  -11.3016   18.6072 C   0  0  0  0  0  0  0  0  0  0  0  0
    1.7497   -5.6771   26.4971 C   0  0  0  0  0  0  0  0  0  0  0  0
   -1.5799   -9.9322   18.3468 C   0  0  0  0  0  0  0  0  0  0  0  0
   -1.0871  -12.2214   17.8851 C   0  0  0  0  0  0  0  0  0  0  0  0
   -2.2706   -8.9669   19.0691 C   0  0  0  0  0  0  0  0  0  0  0  0
    3.0279   -5.3073   26.8197 C   0  0  0  0  0  0  0  0  0  0  0  0
    7.3282   -3.8948   29.1186 C   0  0  0  0  0  0  0  0  0  0  0  0
  1  3  4  0
  1  7  4  0
  2  3  1  0
  2  6  4  0
  2 16  4  0
  3 22  4  0
  4  9  4  0
  4 10  1  0
  4 20  4  0
  5 16  4  0
  5 23  4  0
  6 15  4  0
  7 12  4  0
  8 13  4  0
  8 14  4  0
  9 11  4  0
 11 14  4  0
 11 19  4  0
 12 18  4  0
 13 21  4  0
 15 23  4  0
 17 19  4  0
 17 20  4  0
 18 22  4  0
 19 21  4  0
M  END
$$$$

 Created by Python create_sdf_string function

 23 25  0  0  0  0  0  0  0  0999 V2000
    2.4610   -5.3070   29.1240 C   0  0  0  0  0  0  0  0  0  0  0  0
    4.7710   -4.6952   28.4803 C   0  0  0  0  0  0  0  0  0  0  0  0
    3.4047   -5.1087   28.1314 C   0  0  0  0  0  0  0  0  0  0  0  0
   -0.2234  -11.8615   16.8874 C   0  0  0  0  0  0  0  0  0  0  0  0
    6.4491   -4.1532   30.1213 C   0  0  0  0  0  0  0  0  0  0  0  0
    5.7060   -4.4340   27.4975 C   0  0  0  0  0  0  0  0  0  0  0  0
    1.1818   -5.6612   28.8399 C   0  0  0  0  0  0  0  0  0  0  0  0
   -1.2067   -7.3287   17.7772 C   0  0  0  0  0  0  0  0  0  0  0  0
   -0.0206  -10.5585   16.6210 C   0  0  0  0  0  0  0  0  0  0  0  0
    0.3696  -12.7626   16.2169 O   0  0  0  0  0  0  0  0  0  0  0  0
   -0.6895   -9.5676   17.3297 C   0  0  0  0  0  0  0  0  0  0  0  0
    0.8388   -5.8417   27.5264 C   0  0  0  0  0  0  0  0  0  0  0  0
   -2.0709   -7.6637   18.7817 C   0  0  0  0  0  0  0  0  0  0  0  0
   -0.5279   -8.2168   17.0717 C   0  0  0  0  0  0  0  0  0  0  0  0
    6.9694   -4.0191   27.8190 C   0  0  0  0  0  0  0  0  0  0  0  0
    5.1733   -4.5469   29.8123 C   0  0  0  0  0  0  0  0  0  0  0  0
   -1.7508  -11.3016   18.6072 C   0  0  0  0  0  0  0  0  0  0  0  0
    1.7497   -5.6771   26.4971 C   0  0  0  0  0  0  0  0  0  0  0  0
   -1.5799   -9.9322   18.3468 C   0  0  0  0  0  0  0  0  0  0  0  0
   -1.0871  -12.2214   17.8851 C   0  0  0  0  0  0  0  0  0  0  0  0
   -2.2706   -8.9669   19.0691 C   0  0  0  0  0  0  0  0  0  0  0  0
    3.0279   -5.3073   26.8197 C   0  0  0  0  0  0  0  0  0  0  0  0
    7.3282   -3.8948   29.1186 C   0  0  0  0  0  0  0  0  0  0  0  0
  1  3  4  0
  1  7  4  0
  2  3  1  0
  2  6  4  0
  2 16  4  0
  3 22  4  0
  4  9  4  0
  4 10  1  0
  4 20  4  0
  5 16  4  0
  5 23  4  0
  6 15  4  0
  7 12  4  0
  8 13  4  0
  8 14  4  0
  9 11  4  0
 11 14  4  0
 11 19  4  0
 12 18  4  0
 13 21  4  0
 15 23  4  0
 17 19  4  0
 17 20  4  0
 18 22  4  0
 19 21  4  0
M  END
$$$$

 Created by Python create_sdf_string function

 23 25  0  0  0  0  0  0  0  0999 V2000
    2.4610   -5.3070   29.1240 C   0  0  0  0  0  0  0  0  0  0  0  0
    4.7710   -4.6952   28.4803 C   0  0  0  0  0  0  0  0  0  0  0  0
    3.4047   -5.1087   28.1314 C   0  0  0  0  0  0  0  0  0  0  0  0
   -0.2234  -11.8615   16.8874 C   0  0  0  0  0  0  0  0  0  0  0  0
    6.4491   -4.1532   30.1213 C   0  0  0  0  0  0  0  0  0  0  0  0
    5.7060   -4.4340   27.4975 C   0  0  0  0  0  0  0  0  0  0  0  0
    1.1818   -5.6612   28.8399 C   0  0  0  0  0  0  0  0  0  0  0  0
   -1.2067   -7.3287   17.7772 C   0  0  0  0  0  0  0  0  0  0  0  0
   -0.0206  -10.5585   16.6210 C   0  0  0  0  0  0  0  0  0  0  0  0
    0.3696  -12.7626   16.2169 O   0  0  0  0  0  0  0  0  0  0  0  0
   -0.6895   -9.5676   17.3297 C   0  0  0  0  0  0  0  0  0  0  0  0
    0.8388   -5.8417   27.5264 C   0  0  0  0  0  0  0  0  0  0  0  0
   -2.0709   -7.6637   18.7817 C   0  0  0  0  0  0  0  0  0  0  0  0
   -0.5279   -8.2168   17.0717 C   0  0  0  0  0  0  0  0  0  0  0  0
    6.9694   -4.0191   27.8190 C   0  0  0  0  0  0  0  0  0  0  0  0
    5.1733   -4.5469   29.8123 C   0  0  0  0  0  0  0  0  0  0  0  0
   -1.7508  -11.3016   18.6072 C   0  0  0  0  0  0  0  0  0  0  0  0
    1.7497   -5.6771   26.4971 C   0  0  0  0  0  0  0  0  0  0  0  0
   -1.5799   -9.9322   18.3468 C   0  0  0  0  0  0  0  0  0  0  0  0
   -1.0871  -12.2214   17.8851 C   0  0  0  0  0  0  0  0  0  0  0  0
   -2.2706   -8.9669   19.0691 C   0  0  0  0  0  0  0  0  0  0  0  0
    3.0279   -5.3073   26.8197 C   0  0  0  0  0  0  0  0  0  0  0  0
    7.3282   -3.8948   29.1186 C   0  0  0  0  0  0  0  0  0  0  0  0
  1  3  4  0
  1  7  4  0
  2  3  1  0
  2  6  4  0
  2 16  4  0
  3 22  4  0
  4  9  4  0
  4 10  1  0
  4 20  4  0
  5 16  4  0
  5 23  4  0
  6 15  4  0
  7 12  4  0
  8 13  4  0
  8 14  4  0
  9 11  4  0
 11 14  4  0
 11 19  4  0
 12 18  4  0
 13 21  4  0
 15 23  4  0
 17 19  4  0
 17 20  4  0
 18 22  4  0
 19 21  4  0
M  END
$$$$

 Created by Python create_sdf_string function

 23 25  0  0  0  0  0  0  0  0999 V2000
    2.4610   -5.3070   29.1240 C   0  0  0  0  0  0  0  0  0  0  0  0
    4.7710   -4.6952   28.4803 C   0  0  0  0  0  0  0  0  0  0  0  0
    3.4047   -5.1087   28.1314 C   0  0  0  0  0  0  0  0  0  0  0  0
   -0.2234  -11.8615   16.8874 C   0  0  0  0  0  0  0  0  0  0  0  0
    6.4491   -4.1532   30.1213 C   0  0  0  0  0  0  0  0  0  0  0  0
    5.7060   -4.4340   27.4975 C   0  0  0  0  0  0  0  0  0  0  0  0
    1.1818   -5.6612   28.8399 C   0  0  0  0  0  0  0  0  0  0  0  0
   -1.2067   -7.3287   17.7772 C   0  0  0  0  0  0  0  0  0  0  0  0
   -0.0206  -10.5585   16.6210 C   0  0  0  0  0  0  0  0  0  0  0  0
    0.3696  -12.7626   16.2169 O   0  0  0  0  0  0  0  0  0  0  0  0
   -0.6895   -9.5676   17.3297 C   0  0  0  0  0  0  0  0  0  0  0  0
    0.8388   -5.8417   27.5264 C   0  0  0  0  0  0  0  0  0  0  0  0
   -2.0709   -7.6637   18.7817 C   0  0  0  0  0  0  0  0  0  0  0  0
   -0.5279   -8.2168   17.0717 C   0  0  0  0  0  0  0  0  0  0  0  0
    6.9694   -4.0191   27.8190 C   0  0  0  0  0  0  0  0  0  0  0  0
    5.1733   -4.5469   29.8123 C   0  0  0  0  0  0  0  0  0  0  0  0
   -1.7508  -11.3016   18.6072 C   0  0  0  0  0  0  0  0  0  0  0  0
    1.7497   -5.6771   26.4971 C   0  0  0  0  0  0  0  0  0  0  0  0
   -1.5799   -9.9322   18.3468 C   0  0  0  0  0  0  0  0  0  0  0  0
   -1.0871  -12.2214   17.8851 C   0  0  0  0  0  0  0  0  0  0  0  0
   -2.2706   -8.9669   19.0691 C   0  0  0  0  0  0  0  0  0  0  0  0
    3.0279   -5.3073   26.8197 C   0  0  0  0  0  0  0  0  0  0  0  0
    7.3282   -3.8948   29.1186 C   0  0  0  0  0  0  0  0  0  0  0  0
  1  3  4  0
  1  7  4  0
  2  3  1  0
  2  6  4  0
  2 16  4  0
  3 22  4  0
  4  9  4  0
  4 10  1  0
  4 20  4  0
  5 16  4  0
  5 23  4  0
  6 15  4  0
  7 12  4  0
  8 13  4  0
  8 14  4  0
  9 11  4  0
 11 14  4  0
 11 19  4  0
 12 18  4  0
 13 21  4  0
 15 23  4  0
 17 19  4  0
 17 20  4  0
 18 22  4  0
 19 21  4  0
M  END
$$$$

 Created by Python create_sdf_string function

 23 25  0  0  0  0  0  0  0  0999 V2000
    2.4610   -5.3070   29.1240 C   0  0  0  0  0  0  0  0  0  0  0  0
    4.7710   -4.6952   28.4803 C   0  0  0  0  0  0  0  0  0  0  0  0
    3.4047   -5.1087   28.1314 C   0  0  0  0  0  0  0  0  0  0  0  0
   -0.2234  -11.8615   16.8874 C   0  0  0  0  0  0  0  0  0  0  0  0
    6.4491   -4.1532   30.1213 C   0  0  0  0  0  0  0  0  0  0  0  0
    5.7060   -4.4340   27.4975 C   0  0  0  0  0  0  0  0  0  0  0  0
    1.1818   -5.6612   28.8399 C   0  0  0  0  0  0  0  0  0  0  0  0
   -1.2067   -7.3287   17.7772 C   0  0  0  0  0  0  0  0  0  0  0  0
   -0.0206  -10.5585   16.6210 C   0  0  0  0  0  0  0  0  0  0  0  0
    0.3696  -12.7626   16.2169 O   0  0  0  0  0  0  0  0  0  0  0  0
   -0.6895   -9.5676   17.3297 C   0  0  0  0  0  0  0  0  0  0  0  0
    0.8388   -5.8417   27.5264 C   0  0  0  0  0  0  0  0  0  0  0  0
   -2.0709   -7.6637   18.7817 C   0  0  0  0  0  0  0  0  0  0  0  0
   -0.5279   -8.2168   17.0717 C   0  0  0  0  0  0  0  0  0  0  0  0
    6.9694   -4.0191   27.8190 C   0  0  0  0  0  0  0  0  0  0  0  0
    5.1733   -4.5469   29.8123 C   0  0  0  0  0  0  0  0  0  0  0  0
   -1.7508  -11.3016   18.6072 C   0  0  0  0  0  0  0  0  0  0  0  0
    1.7497   -5.6771   26.4971 C   0  0  0  0  0  0  0  0  0  0  0  0
   -1.5799   -9.9322   18.3468 C   0  0  0  0  0  0  0  0  0  0  0  0
   -1.0871  -12.2214   17.8851 C   0  0  0  0  0  0  0  0  0  0  0  0
   -2.2706   -8.9669   19.0691 C   0  0  0  0  0  0  0  0  0  0  0  0
    3.0279   -5.3073   26.8197 C   0  0  0  0  0  0  0  0  0  0  0  0
    7.3282   -3.8948   29.1186 C   0  0  0  0  0  0  0  0  0  0  0  0
  1  3  4  0
  1  7  4  0
  2  3  1  0
  2  6  4  0
  2 16  4  0
  3 22  4  0
  4  9  4  0
  4 10  1  0
  4 20  4  0
  5 16  4  0
  5 23  4  0
  6 15  4  0
  7 12  4  0
  8 13  4  0
  8 14  4  0
  9 11  4  0
 11 14  4  0
 11 19  4  0
 12 18  4  0
 13 21  4  0
 15 23  4  0
 17 19  4  0
 17 20  4  0
 18 22  4  0
 19 21  4  0
M  END
$$$$

 Created by Python create_sdf_string function

 23 25  0  0  0  0  0  0  0  0999 V2000
    2.4610   -5.3070   29.1240 C   0  0  0  0  0  0  0  0  0  0  0  0
    4.7710   -4.6952   28.4803 C   0  0  0  0  0  0  0  0  0  0  0  0
    3.4047   -5.1087   28.1314 C   0  0  0  0  0  0  0  0  0  0  0  0
   -0.2234  -11.8615   16.8874 C   0  0  0  0  0  0  0  0  0  0  0  0
    6.4491   -4.1532   30.1213 C   0  0  0  0  0  0  0  0  0  0  0  0
    5.7060   -4.4340   27.4975 C   0  0  0  0  0  0  0  0  0  0  0  0
    1.1818   -5.6612   28.8399 C   0  0  0  0  0  0  0  0  0  0  0  0
   -1.2067   -7.3287   17.7772 C   0  0  0  0  0  0  0  0  0  0  0  0
   -0.0206  -10.5585   16.6210 C   0  0  0  0  0  0  0  0  0  0  0  0
    0.3696  -12.7626   16.2169 O   0  0  0  0  0  0  0  0  0  0  0  0
   -0.6895   -9.5676   17.3297 C   0  0  0  0  0  0  0  0  0  0  0  0
    0.8388   -5.8417   27.5264 C   0  0  0  0  0  0  0  0  0  0  0  0
   -2.0709   -7.6637   18.7817 C   0  0  0  0  0  0  0  0  0  0  0  0
   -0.5279   -8.2168   17.0717 C   0  0  0  0  0  0  0  0  0  0  0  0
    6.9694   -4.0191   27.8190 C   0  0  0  0  0  0  0  0  0  0  0  0
    5.1733   -4.5469   29.8123 C   0  0  0  0  0  0  0  0  0  0  0  0
   -1.7508  -11.3016   18.6072 C   0  0  0  0  0  0  0  0  0  0  0  0
    1.7497   -5.6771   26.4971 C   0  0  0  0  0  0  0  0  0  0  0  0
   -1.5799   -9.9322   18.3468 C   0  0  0  0  0  0  0  0  0  0  0  0
   -1.0871  -12.2214   17.8851 C   0  0  0  0  0  0  0  0  0  0  0  0
   -2.2706   -8.9669   19.0691 C   0  0  0  0  0  0  0  0  0  0  0  0
    3.0279   -5.3073   26.8197 C   0  0  0  0  0  0  0  0  0  0  0  0
    7.3282   -3.8948   29.1186 C   0  0  0  0  0  0  0  0  0  0  0  0
  1  3  4  0
  1  7  4  0
  2  3  1  0
  2  6  4  0
  2 16  4  0
  3 22  4  0
  4  9  4  0
  4 10  1  0
  4 20  4  0
  5 16  4  0
  5 23  4  0
  6 15  4  0
  7 12  4  0
  8 13  4  0
  8 14  4  0
  9 11  4  0
 11 14  4  0
 11 19  4  0
 12 18  4  0
 13 21  4  0
 15 23  4  0
 17 19  4  0
 17 20  4  0
 18 22  4  0
 19 21  4  0
M  END
$$$$

 Created by Python create_sdf_string function

 23 25  0  0  0  0  0  0  0  0999 V2000
    2.4610   -5.3070   29.1240 C   0  0  0  0  0  0  0  0  0  0  0  0
    4.7710   -4.6952   28.4803 C   0  0  0  0  0  0  0  0  0  0  0  0
    3.4047   -5.1087   28.1314 C   0  0  0  0  0  0  0  0  0  0  0  0
   -0.2234  -11.8615   16.8874 C   0  0  0  0  0  0  0  0  0  0  0  0
    6.4491   -4.1532   30.1213 C   0  0  0  0  0  0  0  0  0  0  0  0
    5.7060   -4.4340   27.4975 C   0  0  0  0  0  0  0  0  0  0  0  0
    1.1818   -5.6612   28.8399 C   0  0  0  0  0  0  0  0  0  0  0  0
   -1.2067   -7.3287   17.7772 C   0  0  0  0  0  0  0  0  0  0  0  0
   -0.0206  -10.5585   16.6210 C   0  0  0  0  0  0  0  0  0  0  0  0
    0.3696  -12.7626   16.2169 O   0  0  0  0  0  0  0  0  0  0  0  0
   -0.6895   -9.5676   17.3297 C   0  0  0  0  0  0  0  0  0  0  0  0
    0.8388   -5.8417   27.5264 C   0  0  0  0  0  0  0  0  0  0  0  0
   -2.0709   -7.6637   18.7817 C   0  0  0  0  0  0  0  0  0  0  0  0
   -0.5279   -8.2168   17.0717 C   0  0  0  0  0  0  0  0  0  0  0  0
    6.9694   -4.0191   27.8190 C   0  0  0  0  0  0  0  0  0  0  0  0
    5.1733   -4.5469   29.8123 C   0  0  0  0  0  0  0  0  0  0  0  0
   -1.7508  -11.3016   18.6072 C   0  0  0  0  0  0  0  0  0  0  0  0
    1.7497   -5.6771   26.4971 C   0  0  0  0  0  0  0  0  0  0  0  0
   -1.5799   -9.9322   18.3468 C   0  0  0  0  0  0  0  0  0  0  0  0
   -1.0871  -12.2214   17.8851 C   0  0  0  0  0  0  0  0  0  0  0  0
   -2.2706   -8.9669   19.0691 C   0  0  0  0  0  0  0  0  0  0  0  0
    3.0279   -5.3073   26.8197 C   0  0  0  0  0  0  0  0  0  0  0  0
    7.3282   -3.8948   29.1186 C   0  0  0  0  0  0  0  0  0  0  0  0
  1  3  4  0
  1  7  4  0
  2  3  1  0
  2  6  4  0
  2 16  4  0
  3 22  4  0
  4  9  4  0
  4 10  1  0
  4 20  4  0
  5 16  4  0
  5 23  4  0
  6 15  4  0
  7 12  4  0
  8 13  4  0
  8 14  4  0
  9 11  4  0
 11 14  4  0
 11 19  4  0
 12 18  4  0
 13 21  4  0
 15 23  4  0
 17 19  4  0
 17 20  4  0
 18 22  4  0
 19 21  4  0
M  END
$$$$

 Created by Python create_sdf_string function

 23 25  0  0  0  0  0  0  0  0999 V2000
    2.4610   -5.3070   29.1240 C   0  0  0  0  0  0  0  0  0  0  0  0
    4.7710   -4.6952   28.4803 C   0  0  0  0  0  0  0  0  0  0  0  0
    3.4047   -5.1087   28.1314 C   0  0  0  0  0  0  0  0  0  0  0  0
   -0.2234  -11.8615   16.8874 C   0  0  0  0  0  0  0  0  0  0  0  0
    6.4491   -4.1532   30.1213 C   0  0  0  0  0  0  0  0  0  0  0  0
    5.7060   -4.4340   27.4975 C   0  0  0  0  0  0  0  0  0  0  0  0
    1.1818   -5.6612   28.8399 C   0  0  0  0  0  0  0  0  0  0  0  0
   -1.2067   -7.3287   17.7772 C   0  0  0  0  0  0  0  0  0  0  0  0
   -0.0206  -10.5585   16.6210 C   0  0  0  0  0  0  0  0  0  0  0  0
    0.3696  -12.7626   16.2169 O   0  0  0  0  0  0  0  0  0  0  0  0
   -0.6895   -9.5676   17.3297 C   0  0  0  0  0  0  0  0  0  0  0  0
    0.8388   -5.8417   27.5264 C   0  0  0  0  0  0  0  0  0  0  0  0
   -2.0709   -7.6637   18.7817 C   0  0  0  0  0  0  0  0  0  0  0  0
   -0.5279   -8.2168   17.0717 C   0  0  0  0  0  0  0  0  0  0  0  0
    6.9694   -4.0191   27.8190 C   0  0  0  0  0  0  0  0  0  0  0  0
    5.1733   -4.5469   29.8123 C   0  0  0  0  0  0  0  0  0  0  0  0
   -1.7508  -11.3016   18.6072 C   0  0  0  0  0  0  0  0  0  0  0  0
    1.7497   -5.6771   26.4971 C   0  0  0  0  0  0  0  0  0  0  0  0
   -1.5799   -9.9322   18.3468 C   0  0  0  0  0  0  0  0  0  0  0  0
   -1.0871  -12.2214   17.8851 C   0  0  0  0  0  0  0  0  0  0  0  0
   -2.2706   -8.9669   19.0691 C   0  0  0  0  0  0  0  0  0  0  0  0
    3.0279   -5.3073   26.8197 C   0  0  0  0  0  0  0  0  0  0  0  0
    7.3282   -3.8948   29.1186 C   0  0  0  0  0  0  0  0  0  0  0  0
  1  3  4  0
  1  7  4  0
  2  3  1  0
  2  6  4  0
  2 16  4  0
  3 22  4  0
  4  9  4  0
  4 10  1  0
  4 20  4  0
  5 16  4  0
  5 23  4  0
  6 15  4  0
  7 12  4  0
  8 13  4  0
  8 14  4  0
  9 11  4  0
 11 14  4  0
 11 19  4  0
 12 18  4  0
 13 21  4  0
 15 23  4  0
 17 19  4  0
 17 20  4  0
 18 22  4  0
 19 21  4  0
M  END
$$$$

 Created by Python create_sdf_string function

 23 25  0  0  0  0  0  0  0  0999 V2000
    2.4610   -5.3070   29.1240 C   0  0  0  0  0  0  0  0  0  0  0  0
    4.7710   -4.6952   28.4803 C   0  0  0  0  0  0  0  0  0  0  0  0
    3.4047   -5.1087   28.1314 C   0  0  0  0  0  0  0  0  0  0  0  0
   -0.2234  -11.8615   16.8874 C   0  0  0  0  0  0  0  0  0  0  0  0
    6.4491   -4.1532   30.1213 C   0  0  0  0  0  0  0  0  0  0  0  0
    5.7060   -4.4340   27.4975 C   0  0  0  0  0  0  0  0  0  0  0  0
    1.1818   -5.6612   28.8399 C   0  0  0  0  0  0  0  0  0  0  0  0
   -1.2067   -7.3287   17.7772 C   0  0  0  0  0  0  0  0  0  0  0  0
   -0.0206  -10.5585   16.6210 C   0  0  0  0  0  0  0  0  0  0  0  0
    0.3696  -12.7626   16.2169 O   0  0  0  0  0  0  0  0  0  0  0  0
   -0.6895   -9.5676   17.3297 C   0  0  0  0  0  0  0  0  0  0  0  0
    0.8388   -5.8417   27.5264 C   0  0  0  0  0  0  0  0  0  0  0  0
   -2.0709   -7.6637   18.7817 C   0  0  0  0  0  0  0  0  0  0  0  0
   -0.5279   -8.2168   17.0717 C   0  0  0  0  0  0  0  0  0  0  0  0
    6.9694   -4.0191   27.8190 C   0  0  0  0  0  0  0  0  0  0  0  0
    5.1733   -4.5469   29.8123 C   0  0  0  0  0  0  0  0  0  0  0  0
   -1.7508  -11.3016   18.6072 C   0  0  0  0  0  0  0  0  0  0  0  0
    1.7497   -5.6771   26.4971 C   0  0  0  0  0  0  0  0  0  0  0  0
   -1.5799   -9.9322   18.3468 C   0  0  0  0  0  0  0  0  0  0  0  0
   -1.0871  -12.2214   17.8851 C   0  0  0  0  0  0  0  0  0  0  0  0
   -2.2706   -8.9669   19.0691 C   0  0  0  0  0  0  0  0  0  0  0  0
    3.0279   -5.3073   26.8197 C   0  0  0  0  0  0  0  0  0  0  0  0
    7.3282   -3.8948   29.1186 C   0  0  0  0  0  0  0  0  0  0  0  0
  1  3  4  0
  1  7  4  0
  2  3  1  0
  2  6  4  0
  2 16  4  0
  3 22  4  0
  4  9  4  0
  4 10  1  0
  4 20  4  0
  5 16  4  0
  5 23  4  0
  6 15  4  0
  7 12  4  0
  8 13  4  0
  8 14  4  0
  9 11  4  0
 11 14  4  0
 11 19  4  0
 12 18  4  0
 13 21  4  0
 15 23  4  0
 17 19  4  0
 17 20  4  0
 18 22  4  0
 19 21  4  0
M  END
$$$$

 Created by Python create_sdf_string function

 23 25  0  0  0  0  0  0  0  0999 V2000
    2.4610   -5.3070   29.1240 C   0  0  0  0  0  0  0  0  0  0  0  0
    4.7710   -4.6952   28.4803 C   0  0  0  0  0  0  0  0  0  0  0  0
    3.4047   -5.1087   28.1314 C   0  0  0  0  0  0  0  0  0  0  0  0
   -0.2234  -11.8615   16.8874 C   0  0  0  0  0  0  0  0  0  0  0  0
    6.4491   -4.1532   30.1213 C   0  0  0  0  0  0  0  0  0  0  0  0
    5.7060   -4.4340   27.4975 C   0  0  0  0  0  0  0  0  0  0  0  0
    1.1818   -5.6612   28.8399 C   0  0  0  0  0  0  0  0  0  0  0  0
   -1.2067   -7.3287   17.7772 C   0  0  0  0  0  0  0  0  0  0  0  0
   -0.0206  -10.5585   16.6210 C   0  0  0  0  0  0  0  0  0  0  0  0
    0.3696  -12.7626   16.2169 O   0  0  0  0  0  0  0  0  0  0  0  0
   -0.6895   -9.5676   17.3297 C   0  0  0  0  0  0  0  0  0  0  0  0
    0.8388   -5.8417   27.5264 C   0  0  0  0  0  0  0  0  0  0  0  0
   -2.0709   -7.6637   18.7817 C   0  0  0  0  0  0  0  0  0  0  0  0
   -0.5279   -8.2168   17.0717 C   0  0  0  0  0  0  0  0  0  0  0  0
    6.9694   -4.0191   27.8190 C   0  0  0  0  0  0  0  0  0  0  0  0
    5.1733   -4.5469   29.8123 C   0  0  0  0  0  0  0  0  0  0  0  0
   -1.7508  -11.3016   18.6072 C   0  0  0  0  0  0  0  0  0  0  0  0
    1.7497   -5.6771   26.4971 C   0  0  0  0  0  0  0  0  0  0  0  0
   -1.5799   -9.9322   18.3468 C   0  0  0  0  0  0  0  0  0  0  0  0
   -1.0871  -12.2214   17.8851 C   0  0  0  0  0  0  0  0  0  0  0  0
   -2.2706   -8.9669   19.0691 C   0  0  0  0  0  0  0  0  0  0  0  0
    3.0279   -5.3073   26.8197 C   0  0  0  0  0  0  0  0  0  0  0  0
    7.3282   -3.8948   29.1186 C   0  0  0  0  0  0  0  0  0  0  0  0
  1  3  4  0
  1  7  4  0
  2  3  1  0
  2  6  4  0
  2 16  4  0
  3 22  4  0
  4  9  4  0
  4 10  1  0
  4 20  4  0
  5 16  4  0
  5 23  4  0
  6 15  4  0
  7 12  4  0
  8 13  4  0
  8 14  4  0
  9 11  4  0
 11 14  4  0
 11 19  4  0
 12 18  4  0
 13 21  4  0
 15 23  4  0
 17 19  4  0
 17 20  4  0
 18 22  4  0
 19 21  4  0
M  END
$$$$

 Created by Python create_sdf_string function

 23 25  0  0  0  0  0  0  0  0999 V2000
    2.4610   -5.3070   29.1240 C   0  0  0  0  0  0  0  0  0  0  0  0
    4.7710   -4.6952   28.4803 C   0  0  0  0  0  0  0  0  0  0  0  0
    3.4047   -5.1087   28.1314 C   0  0  0  0  0  0  0  0  0  0  0  0
   -0.2234  -11.8615   16.8874 C   0  0  0  0  0  0  0  0  0  0  0  0
    6.4491   -4.1532   30.1213 C   0  0  0  0  0  0  0  0  0  0  0  0
    5.7060   -4.4340   27.4975 C   0  0  0  0  0  0  0  0  0  0  0  0
    1.1818   -5.6612   28.8399 C   0  0  0  0  0  0  0  0  0  0  0  0
   -1.2067   -7.3287   17.7772 C   0  0  0  0  0  0  0  0  0  0  0  0
   -0.0206  -10.5585   16.6210 C   0  0  0  0  0  0  0  0  0  0  0  0
    0.3696  -12.7626   16.2169 O   0  0  0  0  0  0  0  0  0  0  0  0
   -0.6895   -9.5676   17.3297 C   0  0  0  0  0  0  0  0  0  0  0  0
    0.8388   -5.8417   27.5264 C   0  0  0  0  0  0  0  0  0  0  0  0
   -2.0709   -7.6637   18.7817 C   0  0  0  0  0  0  0  0  0  0  0  0
   -0.5279   -8.2168   17.0717 C   0  0  0  0  0  0  0  0  0  0  0  0
    6.9694   -4.0191   27.8190 C   0  0  0  0  0  0  0  0  0  0  0  0
    5.1733   -4.5469   29.8123 C   0  0  0  0  0  0  0  0  0  0  0  0
   -1.7508  -11.3016   18.6072 C   0  0  0  0  0  0  0  0  0  0  0  0
    1.7497   -5.6771   26.4971 C   0  0  0  0  0  0  0  0  0  0  0  0
   -1.5799   -9.9322   18.3468 C   0  0  0  0  0  0  0  0  0  0  0  0
   -1.0871  -12.2214   17.8851 C   0  0  0  0  0  0  0  0  0  0  0  0
   -2.2706   -8.9669   19.0691 C   0  0  0  0  0  0  0  0  0  0  0  0
    3.0279   -5.3073   26.8197 C   0  0  0  0  0  0  0  0  0  0  0  0
    7.3282   -3.8948   29.1186 C   0  0  0  0  0  0  0  0  0  0  0  0
  1  3  4  0
  1  7  4  0
  2  3  1  0
  2  6  4  0
  2 16  4  0
  3 22  4  0
  4  9  4  0
  4 10  1  0
  4 20  4  0
  5 16  4  0
  5 23  4  0
  6 15  4  0
  7 12  4  0
  8 13  4  0
  8 14  4  0
  9 11  4  0
 11 14  4  0
 11 19  4  0
 12 18  4  0
 13 21  4  0
 15 23  4  0
 17 19  4  0
 17 20  4  0
 18 22  4  0
 19 21  4  0
M  END
$$$$

 Created by Python create_sdf_string function

 23 25  0  0  0  0  0  0  0  0999 V2000
    2.4610   -5.3070   29.1240 C   0  0  0  0  0  0  0  0  0  0  0  0
    4.7710   -4.6952   28.4803 C   0  0  0  0  0  0  0  0  0  0  0  0
    3.4047   -5.1087   28.1314 C   0  0  0  0  0  0  0  0  0  0  0  0
   -0.2234  -11.8615   16.8874 C   0  0  0  0  0  0  0  0  0  0  0  0
    6.4491   -4.1532   30.1213 C   0  0  0  0  0  0  0  0  0  0  0  0
    5.7060   -4.4340   27.4975 C   0  0  0  0  0  0  0  0  0  0  0  0
    1.1818   -5.6612   28.8399 C   0  0  0  0  0  0  0  0  0  0  0  0
   -1.2067   -7.3287   17.7772 C   0  0  0  0  0  0  0  0  0  0  0  0
   -0.0206  -10.5585   16.6210 C   0  0  0  0  0  0  0  0  0  0  0  0
    0.3696  -12.7626   16.2169 O   0  0  0  0  0  0  0  0  0  0  0  0
   -0.6895   -9.5676   17.3297 C   0  0  0  0  0  0  0  0  0  0  0  0
    0.8388   -5.8417   27.5264 C   0  0  0  0  0  0  0  0  0  0  0  0
   -2.0709   -7.6637   18.7817 C   0  0  0  0  0  0  0  0  0  0  0  0
   -0.5279   -8.2168   17.0717 C   0  0  0  0  0  0  0  0  0  0  0  0
    6.9694   -4.0191   27.8190 C   0  0  0  0  0  0  0  0  0  0  0  0
    5.1733   -4.5469   29.8123 C   0  0  0  0  0  0  0  0  0  0  0  0
   -1.7508  -11.3016   18.6072 C   0  0  0  0  0  0  0  0  0  0  0  0
    1.7497   -5.6771   26.4971 C   0  0  0  0  0  0  0  0  0  0  0  0
   -1.5799   -9.9322   18.3468 C   0  0  0  0  0  0  0  0  0  0  0  0
   -1.0871  -12.2214   17.8851 C   0  0  0  0  0  0  0  0  0  0  0  0
   -2.2706   -8.9669   19.0691 C   0  0  0  0  0  0  0  0  0  0  0  0
    3.0279   -5.3073   26.8197 C   0  0  0  0  0  0  0  0  0  0  0  0
    7.3282   -3.8948   29.1186 C   0  0  0  0  0  0  0  0  0  0  0  0
  1  3  4  0
  1  7  4  0
  2  3  1  0
  2  6  4  0
  2 16  4  0
  3 22  4  0
  4  9  4  0
  4 10  1  0
  4 20  4  0
  5 16  4  0
  5 23  4  0
  6 15  4  0
  7 12  4  0
  8 13  4  0
  8 14  4  0
  9 11  4  0
 11 14  4  0
 11 19  4  0
 12 18  4  0
 13 21  4  0
 15 23  4  0
 17 19  4  0
 17 20  4  0
 18 22  4  0
 19 21  4  0
M  END
$$$$

 Created by Python create_sdf_string function

 23 25  0  0  0  0  0  0  0  0999 V2000
    2.4610   -5.3070   29.1240 C   0  0  0  0  0  0  0  0  0  0  0  0
    4.7710   -4.6952   28.4803 C   0  0  0  0  0  0  0  0  0  0  0  0
    3.4047   -5.1087   28.1314 C   0  0  0  0  0  0  0  0  0  0  0  0
   -0.2234  -11.8615   16.8874 C   0  0  0  0  0  0  0  0  0  0  0  0
    6.4491   -4.1532   30.1213 C   0  0  0  0  0  0  0  0  0  0  0  0
    5.7060   -4.4340   27.4975 C   0  0  0  0  0  0  0  0  0  0  0  0
    1.1818   -5.6612   28.8399 C   0  0  0  0  0  0  0  0  0  0  0  0
   -1.2067   -7.3287   17.7772 C   0  0  0  0  0  0  0  0  0  0  0  0
   -0.0206  -10.5585   16.6210 C   0  0  0  0  0  0  0  0  0  0  0  0
    0.3696  -12.7626   16.2169 O   0  0  0  0  0  0  0  0  0  0  0  0
   -0.6895   -9.5676   17.3297 C   0  0  0  0  0  0  0  0  0  0  0  0
    0.8388   -5.8417   27.5264 C   0  0  0  0  0  0  0  0  0  0  0  0
   -2.0709   -7.6637   18.7817 C   0  0  0  0  0  0  0  0  0  0  0  0
   -0.5279   -8.2168   17.0717 C   0  0  0  0  0  0  0  0  0  0  0  0
    6.9694   -4.0191   27.8190 C   0  0  0  0  0  0  0  0  0  0  0  0
    5.1733   -4.5469   29.8123 C   0  0  0  0  0  0  0  0  0  0  0  0
   -1.7508  -11.3016   18.6072 C   0  0  0  0  0  0  0  0  0  0  0  0
    1.7497   -5.6771   26.4971 C   0  0  0  0  0  0  0  0  0  0  0  0
   -1.5799   -9.9322   18.3468 C   0  0  0  0  0  0  0  0  0  0  0  0
   -1.0871  -12.2214   17.8851 C   0  0  0  0  0  0  0  0  0  0  0  0
   -2.2706   -8.9669   19.0691 C   0  0  0  0  0  0  0  0  0  0  0  0
    3.0279   -5.3073   26.8197 C   0  0  0  0  0  0  0  0  0  0  0  0
    7.3282   -3.8948   29.1186 C   0  0  0  0  0  0  0  0  0  0  0  0
  1  3  4  0
  1  7  4  0
  2  3  1  0
  2  6  4  0
  2 16  4  0
  3 22  4  0
  4  9  4  0
  4 10  1  0
  4 20  4  0
  5 16  4  0
  5 23  4  0
  6 15  4  0
  7 12  4  0
  8 13  4  0
  8 14  4  0
  9 11  4  0
 11 14  4  0
 11 19  4  0
 12 18  4  0
 13 21  4  0
 15 23  4  0
 17 19  4  0
 17 20  4  0
 18 22  4  0
 19 21  4  0
M  END
$$$$

 Created by Python create_sdf_string function

 23 25  0  0  0  0  0  0  0  0999 V2000
    2.4610   -5.3070   29.1240 C   0  0  0  0  0  0  0  0  0  0  0  0
    4.7710   -4.6952   28.4803 C   0  0  0  0  0  0  0  0  0  0  0  0
    3.4047   -5.1087   28.1314 C   0  0  0  0  0  0  0  0  0  0  0  0
   -0.2234  -11.8615   16.8874 C   0  0  0  0  0  0  0  0  0  0  0  0
    6.4491   -4.1532   30.1213 C   0  0  0  0  0  0  0  0  0  0  0  0
    5.7060   -4.4340   27.4975 C   0  0  0  0  0  0  0  0  0  0  0  0
    1.1818   -5.6612   28.8399 C   0  0  0  0  0  0  0  0  0  0  0  0
   -1.2067   -7.3287   17.7772 C   0  0  0  0  0  0  0  0  0  0  0  0
   -0.0206  -10.5585   16.6210 C   0  0  0  0  0  0  0  0  0  0  0  0
    0.3696  -12.7626   16.2169 O   0  0  0  0  0  0  0  0  0  0  0  0
   -0.6895   -9.5676   17.3297 C   0  0  0  0  0  0  0  0  0  0  0  0
    0.8388   -5.8417   27.5264 C   0  0  0  0  0  0  0  0  0  0  0  0
   -2.0709   -7.6637   18.7817 C   0  0  0  0  0  0  0  0  0  0  0  0
   -0.5279   -8.2168   17.0717 C   0  0  0  0  0  0  0  0  0  0  0  0
    6.9694   -4.0191   27.8190 C   0  0  0  0  0  0  0  0  0  0  0  0
    5.1733   -4.5469   29.8123 C   0  0  0  0  0  0  0  0  0  0  0  0
   -1.7508  -11.3016   18.6072 C   0  0  0  0  0  0  0  0  0  0  0  0
    1.7497   -5.6771   26.4971 C   0  0  0  0  0  0  0  0  0  0  0  0
   -1.5799   -9.9322   18.3468 C   0  0  0  0  0  0  0  0  0  0  0  0
   -1.0871  -12.2214   17.8851 C   0  0  0  0  0  0  0  0  0  0  0  0
   -2.2706   -8.9669   19.0691 C   0  0  0  0  0  0  0  0  0  0  0  0
    3.0279   -5.3073   26.8197 C   0  0  0  0  0  0  0  0  0  0  0  0
    7.3282   -3.8948   29.1186 C   0  0  0  0  0  0  0  0  0  0  0  0
  1  3  4  0
  1  7  4  0
  2  3  1  0
  2  6  4  0
  2 16  4  0
  3 22  4  0
  4  9  4  0
  4 10  1  0
  4 20  4  0
  5 16  4  0
  5 23  4  0
  6 15  4  0
  7 12  4  0
  8 13  4  0
  8 14  4  0
  9 11  4  0
 11 14  4  0
 11 19  4  0
 12 18  4  0
 13 21  4  0
 15 23  4  0
 17 19  4  0
 17 20  4  0
 18 22  4  0
 19 21  4  0
M  END
$$$$

 Created by Python create_sdf_string function

 23 25  0  0  0  0  0  0  0  0999 V2000
    2.4610   -5.3070   29.1240 C   0  0  0  0  0  0  0  0  0  0  0  0
    4.7710   -4.6952   28.4803 C   0  0  0  0  0  0  0  0  0  0  0  0
    3.4047   -5.1087   28.1314 C   0  0  0  0  0  0  0  0  0  0  0  0
   -0.2234  -11.8615   16.8874 C   0  0  0  0  0  0  0  0  0  0  0  0
    6.4491   -4.1532   30.1213 C   0  0  0  0  0  0  0  0  0  0  0  0
    5.7060   -4.4340   27.4975 C   0  0  0  0  0  0  0  0  0  0  0  0
    1.1818   -5.6612   28.8399 C   0  0  0  0  0  0  0  0  0  0  0  0
   -1.2067   -7.3287   17.7772 C   0  0  0  0  0  0  0  0  0  0  0  0
   -0.0206  -10.5585   16.6210 C   0  0  0  0  0  0  0  0  0  0  0  0
    0.3696  -12.7626   16.2169 O   0  0  0  0  0  0  0  0  0  0  0  0
   -0.6895   -9.5676   17.3297 C   0  0  0  0  0  0  0  0  0  0  0  0
    0.8388   -5.8417   27.5264 C   0  0  0  0  0  0  0  0  0  0  0  0
   -2.0709   -7.6637   18.7817 C   0  0  0  0  0  0  0  0  0  0  0  0
   -0.5279   -8.2168   17.0717 C   0  0  0  0  0  0  0  0  0  0  0  0
    6.9694   -4.0191   27.8190 C   0  0  0  0  0  0  0  0  0  0  0  0
    5.1733   -4.5469   29.8123 C   0  0  0  0  0  0  0  0  0  0  0  0
   -1.7508  -11.3016   18.6072 C   0  0  0  0  0  0  0  0  0  0  0  0
    1.7497   -5.6771   26.4971 C   0  0  0  0  0  0  0  0  0  0  0  0
   -1.5799   -9.9322   18.3468 C   0  0  0  0  0  0  0  0  0  0  0  0
   -1.0871  -12.2214   17.8851 C   0  0  0  0  0  0  0  0  0  0  0  0
   -2.2706   -8.9669   19.0691 C   0  0  0  0  0  0  0  0  0  0  0  0
    3.0279   -5.3073   26.8197 C   0  0  0  0  0  0  0  0  0  0  0  0
    7.3282   -3.8948   29.1186 C   0  0  0  0  0  0  0  0  0  0  0  0
  1  3  4  0
  1  7  4  0
  2  3  1  0
  2  6  4  0
  2 16  4  0
  3 22  4  0
  4  9  4  0
  4 10  1  0
  4 20  4  0
  5 16  4  0
  5 23  4  0
  6 15  4  0
  7 12  4  0
  8 13  4  0
  8 14  4  0
  9 11  4  0
 11 14  4  0
 11 19  4  0
 12 18  4  0
 13 21  4  0
 15 23  4  0
 17 19  4  0
 17 20  4  0
 18 22  4  0
 19 21  4  0
M  END
$$$$

 Created by Python create_sdf_string function

 23 25  0  0  0  0  0  0  0  0999 V2000
    2.4610   -5.3070   29.1240 C   0  0  0  0  0  0  0  0  0  0  0  0
    4.7710   -4.6952   28.4803 C   0  0  0  0  0  0  0  0  0  0  0  0
    3.4047   -5.1087   28.1314 C   0  0  0  0  0  0  0  0  0  0  0  0
   -0.2234  -11.8615   16.8874 C   0  0  0  0  0  0  0  0  0  0  0  0
    6.4491   -4.1532   30.1213 C   0  0  0  0  0  0  0  0  0  0  0  0
    5.7060   -4.4340   27.4975 C   0  0  0  0  0  0  0  0  0  0  0  0
    1.1818   -5.6612   28.8399 C   0  0  0  0  0  0  0  0  0  0  0  0
   -1.2067   -7.3287   17.7772 C   0  0  0  0  0  0  0  0  0  0  0  0
   -0.0206  -10.5585   16.6210 C   0  0  0  0  0  0  0  0  0  0  0  0
    0.3696  -12.7626   16.2169 O   0  0  0  0  0  0  0  0  0  0  0  0
   -0.6895   -9.5676   17.3297 C   0  0  0  0  0  0  0  0  0  0  0  0
    0.8388   -5.8417   27.5264 C   0  0  0  0  0  0  0  0  0  0  0  0
   -2.0709   -7.6637   18.7817 C   0  0  0  0  0  0  0  0  0  0  0  0
   -0.5279   -8.2168   17.0717 C   0  0  0  0  0  0  0  0  0  0  0  0
    6.9694   -4.0191   27.8190 C   0  0  0  0  0  0  0  0  0  0  0  0
    5.1733   -4.5469   29.8123 C   0  0  0  0  0  0  0  0  0  0  0  0
   -1.7508  -11.3016   18.6072 C   0  0  0  0  0  0  0  0  0  0  0  0
    1.7497   -5.6771   26.4971 C   0  0  0  0  0  0  0  0  0  0  0  0
   -1.5799   -9.9322   18.3468 C   0  0  0  0  0  0  0  0  0  0  0  0
   -1.0871  -12.2214   17.8851 C   0  0  0  0  0  0  0  0  0  0  0  0
   -2.2706   -8.9669   19.0691 C   0  0  0  0  0  0  0  0  0  0  0  0
    3.0279   -5.3073   26.8197 C   0  0  0  0  0  0  0  0  0  0  0  0
    7.3282   -3.8948   29.1186 C   0  0  0  0  0  0  0  0  0  0  0  0
  1  3  4  0
  1  7  4  0
  2  3  1  0
  2  6  4  0
  2 16  4  0
  3 22  4  0
  4  9  4  0
  4 10  1  0
  4 20  4  0
  5 16  4  0
  5 23  4  0
  6 15  4  0
  7 12  4  0
  8 13  4  0
  8 14  4  0
  9 11  4  0
 11 14  4  0
 11 19  4  0
 12 18  4  0
 13 21  4  0
 15 23  4  0
 17 19  4  0
 17 20  4  0
 18 22  4  0
 19 21  4  0
M  END
$$$$

 Created by Python create_sdf_string function

 23 25  0  0  0  0  0  0  0  0999 V2000
    2.4610   -5.3070   29.1240 C   0  0  0  0  0  0  0  0  0  0  0  0
    4.7710   -4.6952   28.4803 C   0  0  0  0  0  0  0  0  0  0  0  0
    3.4047   -5.1087   28.1314 C   0  0  0  0  0  0  0  0  0  0  0  0
   -0.2234  -11.8615   16.8874 C   0  0  0  0  0  0  0  0  0  0  0  0
    6.4491   -4.1532   30.1213 C   0  0  0  0  0  0  0  0  0  0  0  0
    5.7060   -4.4340   27.4975 C   0  0  0  0  0  0  0  0  0  0  0  0
    1.1818   -5.6612   28.8399 C   0  0  0  0  0  0  0  0  0  0  0  0
   -1.2067   -7.3287   17.7772 C   0  0  0  0  0  0  0  0  0  0  0  0
   -0.0206  -10.5585   16.6210 C   0  0  0  0  0  0  0  0  0  0  0  0
    0.3696  -12.7626   16.2169 O   0  0  0  0  0  0  0  0  0  0  0  0
   -0.6895   -9.5676   17.3297 C   0  0  0  0  0  0  0  0  0  0  0  0
    0.8388   -5.8417   27.5264 C   0  0  0  0  0  0  0  0  0  0  0  0
   -2.0709   -7.6637   18.7817 C   0  0  0  0  0  0  0  0  0  0  0  0
   -0.5279   -8.2168   17.0717 C   0  0  0  0  0  0  0  0  0  0  0  0
    6.9694   -4.0191   27.8190 C   0  0  0  0  0  0  0  0  0  0  0  0
    5.1733   -4.5469   29.8123 C   0  0  0  0  0  0  0  0  0  0  0  0
   -1.7508  -11.3016   18.6072 C   0  0  0  0  0  0  0  0  0  0  0  0
    1.7497   -5.6771   26.4971 C   0  0  0  0  0  0  0  0  0  0  0  0
   -1.5799   -9.9322   18.3468 C   0  0  0  0  0  0  0  0  0  0  0  0
   -1.0871  -12.2214   17.8851 C   0  0  0  0  0  0  0  0  0  0  0  0
   -2.2706   -8.9669   19.0691 C   0  0  0  0  0  0  0  0  0  0  0  0
    3.0279   -5.3073   26.8197 C   0  0  0  0  0  0  0  0  0  0  0  0
    7.3282   -3.8948   29.1186 C   0  0  0  0  0  0  0  0  0  0  0  0
  1  3  4  0
  1  7  4  0
  2  3  1  0
  2  6  4  0
  2 16  4  0
  3 22  4  0
  4  9  4  0
  4 10  1  0
  4 20  4  0
  5 16  4  0
  5 23  4  0
  6 15  4  0
  7 12  4  0
  8 13  4  0
  8 14  4  0
  9 11  4  0
 11 14  4  0
 11 19  4  0
 12 18  4  0
 13 21  4  0
 15 23  4  0
 17 19  4  0
 17 20  4  0
 18 22  4  0
 19 21  4  0
M  END
$$$$

 Created by Python create_sdf_string function

 23 25  0  0  0  0  0  0  0  0999 V2000
    2.4610   -5.3070   29.1240 C   0  0  0  0  0  0  0  0  0  0  0  0
    4.7710   -4.6952   28.4803 C   0  0  0  0  0  0  0  0  0  0  0  0
    3.4047   -5.1087   28.1314 C   0  0  0  0  0  0  0  0  0  0  0  0
   -0.2234  -11.8615   16.8874 C   0  0  0  0  0  0  0  0  0  0  0  0
    6.4491   -4.1532   30.1213 C   0  0  0  0  0  0  0  0  0  0  0  0
    5.7060   -4.4340   27.4975 C   0  0  0  0  0  0  0  0  0  0  0  0
    1.1818   -5.6612   28.8399 C   0  0  0  0  0  0  0  0  0  0  0  0
   -1.2067   -7.3287   17.7772 C   0  0  0  0  0  0  0  0  0  0  0  0
   -0.0206  -10.5585   16.6210 C   0  0  0  0  0  0  0  0  0  0  0  0
    0.3696  -12.7626   16.2169 O   0  0  0  0  0  0  0  0  0  0  0  0
   -0.6895   -9.5676   17.3297 C   0  0  0  0  0  0  0  0  0  0  0  0
    0.8388   -5.8417   27.5264 C   0  0  0  0  0  0  0  0  0  0  0  0
   -2.0709   -7.6637   18.7817 C   0  0  0  0  0  0  0  0  0  0  0  0
   -0.5279   -8.2168   17.0717 C   0  0  0  0  0  0  0  0  0  0  0  0
    6.9694   -4.0191   27.8190 C   0  0  0  0  0  0  0  0  0  0  0  0
    5.1733   -4.5469   29.8123 C   0  0  0  0  0  0  0  0  0  0  0  0
   -1.7508  -11.3016   18.6072 C   0  0  0  0  0  0  0  0  0  0  0  0
    1.7497   -5.6771   26.4971 C   0  0  0  0  0  0  0  0  0  0  0  0
   -1.5799   -9.9322   18.3468 C   0  0  0  0  0  0  0  0  0  0  0  0
   -1.0871  -12.2214   17.8851 C   0  0  0  0  0  0  0  0  0  0  0  0
   -2.2706   -8.9669   19.0691 C   0  0  0  0  0  0  0  0  0  0  0  0
    3.0279   -5.3073   26.8197 C   0  0  0  0  0  0  0  0  0  0  0  0
    7.3282   -3.8948   29.1186 C   0  0  0  0  0  0  0  0  0  0  0  0
  1  3  4  0
  1  7  4  0
  2  3  1  0
  2  6  4  0
  2 16  4  0
  3 22  4  0
  4  9  4  0
  4 10  1  0
  4 20  4  0
  5 16  4  0
  5 23  4  0
  6 15  4  0
  7 12  4  0
  8 13  4  0
  8 14  4  0
  9 11  4  0
 11 14  4  0
 11 19  4  0
 12 18  4  0
 13 21  4  0
 15 23  4  0
 17 19  4  0
 17 20  4  0
 18 22  4  0
 19 21  4  0
M  END
$$$$

 Created by Python create_sdf_string function

 23 25  0  0  0  0  0  0  0  0999 V2000
    2.4610   -5.3070   29.1240 C   0  0  0  0  0  0  0  0  0  0  0  0
    4.7710   -4.6952   28.4803 C   0  0  0  0  0  0  0  0  0  0  0  0
    3.4047   -5.1087   28.1314 C   0  0  0  0  0  0  0  0  0  0  0  0
   -0.2234  -11.8615   16.8874 C   0  0  0  0  0  0  0  0  0  0  0  0
    6.4491   -4.1532   30.1213 C   0  0  0  0  0  0  0  0  0  0  0  0
    5.7060   -4.4340   27.4975 C   0  0  0  0  0  0  0  0  0  0  0  0
    1.1818   -5.6612   28.8399 C   0  0  0  0  0  0  0  0  0  0  0  0
   -1.2067   -7.3287   17.7772 C   0  0  0  0  0  0  0  0  0  0  0  0
   -0.0206  -10.5585   16.6210 C   0  0  0  0  0  0  0  0  0  0  0  0
    0.3696  -12.7626   16.2169 O   0  0  0  0  0  0  0  0  0  0  0  0
   -0.6895   -9.5676   17.3297 C   0  0  0  0  0  0  0  0  0  0  0  0
    0.8388   -5.8417   27.5264 C   0  0  0  0  0  0  0  0  0  0  0  0
   -2.0709   -7.6637   18.7817 C   0  0  0  0  0  0  0  0  0  0  0  0
   -0.5279   -8.2168   17.0717 C   0  0  0  0  0  0  0  0  0  0  0  0
    6.9694   -4.0191   27.8190 C   0  0  0  0  0  0  0  0  0  0  0  0
    5.1733   -4.5469   29.8123 C   0  0  0  0  0  0  0  0  0  0  0  0
   -1.7508  -11.3016   18.6072 C   0  0  0  0  0  0  0  0  0  0  0  0
    1.7497   -5.6771   26.4971 C   0  0  0  0  0  0  0  0  0  0  0  0
   -1.5799   -9.9322   18.3468 C   0  0  0  0  0  0  0  0  0  0  0  0
   -1.0871  -12.2214   17.8851 C   0  0  0  0  0  0  0  0  0  0  0  0
   -2.2706   -8.9669   19.0691 C   0  0  0  0  0  0  0  0  0  0  0  0
    3.0279   -5.3073   26.8197 C   0  0  0  0  0  0  0  0  0  0  0  0
    7.3282   -3.8948   29.1186 C   0  0  0  0  0  0  0  0  0  0  0  0
  1  3  4  0
  1  7  4  0
  2  3  1  0
  2  6  4  0
  2 16  4  0
  3 22  4  0
  4  9  4  0
  4 10  1  0
  4 20  4  0
  5 16  4  0
  5 23  4  0
  6 15  4  0
  7 12  4  0
  8 13  4  0
  8 14  4  0
  9 11  4  0
 11 14  4  0
 11 19  4  0
 12 18  4  0
 13 21  4  0
 15 23  4  0
 17 19  4  0
 17 20  4  0
 18 22  4  0
 19 21  4  0
M  END
$$$$

 Created by Python create_sdf_string function

 23 25  0  0  0  0  0  0  0  0999 V2000
    2.4610   -5.3070   29.1240 C   0  0  0  0  0  0  0  0  0  0  0  0
    4.7710   -4.6952   28.4803 C   0  0  0  0  0  0  0  0  0  0  0  0
    3.4047   -5.1087   28.1314 C   0  0  0  0  0  0  0  0  0  0  0  0
   -0.2234  -11.8615   16.8874 C   0  0  0  0  0  0  0  0  0  0  0  0
    6.4491   -4.1532   30.1213 C   0  0  0  0  0  0  0  0  0  0  0  0
    5.7060   -4.4340   27.4975 C   0  0  0  0  0  0  0  0  0  0  0  0
    1.1818   -5.6612   28.8399 C   0  0  0  0  0  0  0  0  0  0  0  0
   -1.2067   -7.3287   17.7772 C   0  0  0  0  0  0  0  0  0  0  0  0
   -0.0206  -10.5585   16.6210 C   0  0  0  0  0  0  0  0  0  0  0  0
    0.3696  -12.7626   16.2169 O   0  0  0  0  0  0  0  0  0  0  0  0
   -0.6895   -9.5676   17.3297 C   0  0  0  0  0  0  0  0  0  0  0  0
    0.8388   -5.8417   27.5264 C   0  0  0  0  0  0  0  0  0  0  0  0
   -2.0709   -7.6637   18.7817 C   0  0  0  0  0  0  0  0  0  0  0  0
   -0.5279   -8.2168   17.0717 C   0  0  0  0  0  0  0  0  0  0  0  0
    6.9694   -4.0191   27.8190 C   0  0  0  0  0  0  0  0  0  0  0  0
    5.1733   -4.5469   29.8123 C   0  0  0  0  0  0  0  0  0  0  0  0
   -1.7508  -11.3016   18.6072 C   0  0  0  0  0  0  0  0  0  0  0  0
    1.7497   -5.6771   26.4971 C   0  0  0  0  0  0  0  0  0  0  0  0
   -1.5799   -9.9322   18.3468 C   0  0  0  0  0  0  0  0  0  0  0  0
   -1.0871  -12.2214   17.8851 C   0  0  0  0  0  0  0  0  0  0  0  0
   -2.2706   -8.9669   19.0691 C   0  0  0  0  0  0  0  0  0  0  0  0
    3.0279   -5.3073   26.8197 C   0  0  0  0  0  0  0  0  0  0  0  0
    7.3282   -3.8948   29.1186 C   0  0  0  0  0  0  0  0  0  0  0  0
  1  3  4  0
  1  7  4  0
  2  3  1  0
  2  6  4  0
  2 16  4  0
  3 22  4  0
  4  9  4  0
  4 10  1  0
  4 20  4  0
  5 16  4  0
  5 23  4  0
  6 15  4  0
  7 12  4  0
  8 13  4  0
  8 14  4  0
  9 11  4  0
 11 14  4  0
 11 19  4  0
 12 18  4  0
 13 21  4  0
 15 23  4  0
 17 19  4  0
 17 20  4  0
 18 22  4  0
 19 21  4  0
M  END
$$$$

 Created by Python create_sdf_string function

 23 25  0  0  0  0  0  0  0  0999 V2000
    2.4610   -5.3070   29.1240 C   0  0  0  0  0  0  0  0  0  0  0  0
    4.7710   -4.6952   28.4803 C   0  0  0  0  0  0  0  0  0  0  0  0
    3.4047   -5.1087   28.1314 C   0  0  0  0  0  0  0  0  0  0  0  0
   -0.2234  -11.8615   16.8874 C   0  0  0  0  0  0  0  0  0  0  0  0
    6.4491   -4.1532   30.1213 C   0  0  0  0  0  0  0  0  0  0  0  0
    5.7060   -4.4340   27.4975 C   0  0  0  0  0  0  0  0  0  0  0  0
    1.1818   -5.6612   28.8399 C   0  0  0  0  0  0  0  0  0  0  0  0
   -1.2067   -7.3287   17.7772 C   0  0  0  0  0  0  0  0  0  0  0  0
   -0.0206  -10.5585   16.6210 C   0  0  0  0  0  0  0  0  0  0  0  0
    0.3696  -12.7626   16.2169 O   0  0  0  0  0  0  0  0  0  0  0  0
   -0.6895   -9.5676   17.3297 C   0  0  0  0  0  0  0  0  0  0  0  0
    0.8388   -5.8417   27.5264 C   0  0  0  0  0  0  0  0  0  0  0  0
   -2.0709   -7.6637   18.7817 C   0  0  0  0  0  0  0  0  0  0  0  0
   -0.5279   -8.2168   17.0717 C   0  0  0  0  0  0  0  0  0  0  0  0
    6.9694   -4.0191   27.8190 C   0  0  0  0  0  0  0  0  0  0  0  0
    5.1733   -4.5469   29.8123 C   0  0  0  0  0  0  0  0  0  0  0  0
   -1.7508  -11.3016   18.6072 C   0  0  0  0  0  0  0  0  0  0  0  0
    1.7497   -5.6771   26.4971 C   0  0  0  0  0  0  0  0  0  0  0  0
   -1.5799   -9.9322   18.3468 C   0  0  0  0  0  0  0  0  0  0  0  0
   -1.0871  -12.2214   17.8851 C   0  0  0  0  0  0  0  0  0  0  0  0
   -2.2706   -8.9669   19.0691 C   0  0  0  0  0  0  0  0  0  0  0  0
    3.0279   -5.3073   26.8197 C   0  0  0  0  0  0  0  0  0  0  0  0
    7.3282   -3.8948   29.1186 C   0  0  0  0  0  0  0  0  0  0  0  0
  1  3  4  0
  1  7  4  0
  2  3  1  0
  2  6  4  0
  2 16  4  0
  3 22  4  0
  4  9  4  0
  4 10  1  0
  4 20  4  0
  5 16  4  0
  5 23  4  0
  6 15  4  0
  7 12  4  0
  8 13  4  0
  8 14  4  0
  9 11  4  0
 11 14  4  0
 11 19  4  0
 12 18  4  0
 13 21  4  0
 15 23  4  0
 17 19  4  0
 17 20  4  0
 18 22  4  0
 19 21  4  0
M  END
$$$$

 Created by Python create_sdf_string function

 23 25  0  0  0  0  0  0  0  0999 V2000
    2.4610   -5.3070   29.1240 C   0  0  0  0  0  0  0  0  0  0  0  0
    4.7710   -4.6952   28.4803 C   0  0  0  0  0  0  0  0  0  0  0  0
    3.4047   -5.1087   28.1314 C   0  0  0  0  0  0  0  0  0  0  0  0
   -0.2234  -11.8615   16.8874 C   0  0  0  0  0  0  0  0  0  0  0  0
    6.4491   -4.1532   30.1213 C   0  0  0  0  0  0  0  0  0  0  0  0
    5.7060   -4.4340   27.4975 C   0  0  0  0  0  0  0  0  0  0  0  0
    1.1818   -5.6612   28.8399 C   0  0  0  0  0  0  0  0  0  0  0  0
   -1.2067   -7.3287   17.7772 C   0  0  0  0  0  0  0  0  0  0  0  0
   -0.0206  -10.5585   16.6210 C   0  0  0  0  0  0  0  0  0  0  0  0
    0.3696  -12.7626   16.2169 O   0  0  0  0  0  0  0  0  0  0  0  0
   -0.6895   -9.5676   17.3297 C   0  0  0  0  0  0  0  0  0  0  0  0
    0.8388   -5.8417   27.5264 C   0  0  0  0  0  0  0  0  0  0  0  0
   -2.0709   -7.6637   18.7817 C   0  0  0  0  0  0  0  0  0  0  0  0
   -0.5279   -8.2168   17.0717 C   0  0  0  0  0  0  0  0  0  0  0  0
    6.9694   -4.0191   27.8190 C   0  0  0  0  0  0  0  0  0  0  0  0
    5.1733   -4.5469   29.8123 C   0  0  0  0  0  0  0  0  0  0  0  0
   -1.7508  -11.3016   18.6072 C   0  0  0  0  0  0  0  0  0  0  0  0
    1.7497   -5.6771   26.4971 C   0  0  0  0  0  0  0  0  0  0  0  0
   -1.5799   -9.9322   18.3468 C   0  0  0  0  0  0  0  0  0  0  0  0
   -1.0871  -12.2214   17.8851 C   0  0  0  0  0  0  0  0  0  0  0  0
   -2.2706   -8.9669   19.0691 C   0  0  0  0  0  0  0  0  0  0  0  0
    3.0279   -5.3073   26.8197 C   0  0  0  0  0  0  0  0  0  0  0  0
    7.3282   -3.8948   29.1186 C   0  0  0  0  0  0  0  0  0  0  0  0
  1  3  4  0
  1  7  4  0
  2  3  1  0
  2  6  4  0
  2 16  4  0
  3 22  4  0
  4  9  4  0
  4 10  1  0
  4 20  4  0
  5 16  4  0
  5 23  4  0
  6 15  4  0
  7 12  4  0
  8 13  4  0
  8 14  4  0
  9 11  4  0
 11 14  4  0
 11 19  4  0
 12 18  4  0
 13 21  4  0
 15 23  4  0
 17 19  4  0
 17 20  4  0
 18 22  4  0
 19 21  4  0
M  END
$$$$

 Created by Python create_sdf_string function

 23 25  0  0  0  0  0  0  0  0999 V2000
    2.4610   -5.3070   29.1240 C   0  0  0  0  0  0  0  0  0  0  0  0
    4.7710   -4.6952   28.4803 C   0  0  0  0  0  0  0  0  0  0  0  0
    3.4047   -5.1087   28.1314 C   0  0  0  0  0  0  0  0  0  0  0  0
   -0.2234  -11.8615   16.8874 C   0  0  0  0  0  0  0  0  0  0  0  0
    6.4491   -4.1532   30.1213 C   0  0  0  0  0  0  0  0  0  0  0  0
    5.7060   -4.4340   27.4975 C   0  0  0  0  0  0  0  0  0  0  0  0
    1.1818   -5.6612   28.8399 C   0  0  0  0  0  0  0  0  0  0  0  0
   -1.2067   -7.3287   17.7772 C   0  0  0  0  0  0  0  0  0  0  0  0
   -0.0206  -10.5585   16.6210 C   0  0  0  0  0  0  0  0  0  0  0  0
    0.3696  -12.7626   16.2169 O   0  0  0  0  0  0  0  0  0  0  0  0
   -0.6895   -9.5676   17.3297 C   0  0  0  0  0  0  0  0  0  0  0  0
    0.8388   -5.8417   27.5264 C   0  0  0  0  0  0  0  0  0  0  0  0
   -2.0709   -7.6637   18.7817 C   0  0  0  0  0  0  0  0  0  0  0  0
   -0.5279   -8.2168   17.0717 C   0  0  0  0  0  0  0  0  0  0  0  0
    6.9694   -4.0191   27.8190 C   0  0  0  0  0  0  0  0  0  0  0  0
    5.1733   -4.5469   29.8123 C   0  0  0  0  0  0  0  0  0  0  0  0
   -1.7508  -11.3016   18.6072 C   0  0  0  0  0  0  0  0  0  0  0  0
    1.7497   -5.6771   26.4971 C   0  0  0  0  0  0  0  0  0  0  0  0
   -1.5799   -9.9322   18.3468 C   0  0  0  0  0  0  0  0  0  0  0  0
   -1.0871  -12.2214   17.8851 C   0  0  0  0  0  0  0  0  0  0  0  0
   -2.2706   -8.9669   19.0691 C   0  0  0  0  0  0  0  0  0  0  0  0
    3.0279   -5.3073   26.8197 C   0  0  0  0  0  0  0  0  0  0  0  0
    7.3282   -3.8948   29.1186 C   0  0  0  0  0  0  0  0  0  0  0  0
  1  3  4  0
  1  7  4  0
  2  3  1  0
  2  6  4  0
  2 16  4  0
  3 22  4  0
  4  9  4  0
  4 10  1  0
  4 20  4  0
  5 16  4  0
  5 23  4  0
  6 15  4  0
  7 12  4  0
  8 13  4  0
  8 14  4  0
  9 11  4  0
 11 14  4  0
 11 19  4  0
 12 18  4  0
 13 21  4  0
 15 23  4  0
 17 19  4  0
 17 20  4  0
 18 22  4  0
 19 21  4  0
M  END
$$$$

 Created by Python create_sdf_string function

 23 25  0  0  0  0  0  0  0  0999 V2000
    2.4610   -5.3070   29.1240 C   0  0  0  0  0  0  0  0  0  0  0  0
    4.7710   -4.6952   28.4803 C   0  0  0  0  0  0  0  0  0  0  0  0
    3.4047   -5.1087   28.1314 C   0  0  0  0  0  0  0  0  0  0  0  0
   -0.2234  -11.8615   16.8874 C   0  0  0  0  0  0  0  0  0  0  0  0
    6.4491   -4.1532   30.1213 C   0  0  0  0  0  0  0  0  0  0  0  0
    5.7060   -4.4340   27.4975 C   0  0  0  0  0  0  0  0  0  0  0  0
    1.1818   -5.6612   28.8399 C   0  0  0  0  0  0  0  0  0  0  0  0
   -1.2067   -7.3287   17.7772 C   0  0  0  0  0  0  0  0  0  0  0  0
   -0.0206  -10.5585   16.6210 C   0  0  0  0  0  0  0  0  0  0  0  0
    0.3696  -12.7626   16.2169 O   0  0  0  0  0  0  0  0  0  0  0  0
   -0.6895   -9.5676   17.3297 C   0  0  0  0  0  0  0  0  0  0  0  0
    0.8388   -5.8417   27.5264 C   0  0  0  0  0  0  0  0  0  0  0  0
   -2.0709   -7.6637   18.7817 C   0  0  0  0  0  0  0  0  0  0  0  0
   -0.5279   -8.2168   17.0717 C   0  0  0  0  0  0  0  0  0  0  0  0
    6.9694   -4.0191   27.8190 C   0  0  0  0  0  0  0  0  0  0  0  0
    5.1733   -4.5469   29.8123 C   0  0  0  0  0  0  0  0  0  0  0  0
   -1.7508  -11.3016   18.6072 C   0  0  0  0  0  0  0  0  0  0  0  0
    1.7497   -5.6771   26.4971 C   0  0  0  0  0  0  0  0  0  0  0  0
   -1.5799   -9.9322   18.3468 C   0  0  0  0  0  0  0  0  0  0  0  0
   -1.0871  -12.2214   17.8851 C   0  0  0  0  0  0  0  0  0  0  0  0
   -2.2706   -8.9669   19.0691 C   0  0  0  0  0  0  0  0  0  0  0  0
    3.0279   -5.3073   26.8197 C   0  0  0  0  0  0  0  0  0  0  0  0
    7.3282   -3.8948   29.1186 C   0  0  0  0  0  0  0  0  0  0  0  0
  1  3  4  0
  1  7  4  0
  2  3  1  0
  2  6  4  0
  2 16  4  0
  3 22  4  0
  4  9  4  0
  4 10  1  0
  4 20  4  0
  5 16  4  0
  5 23  4  0
  6 15  4  0
  7 12  4  0
  8 13  4  0
  8 14  4  0
  9 11  4  0
 11 14  4  0
 11 19  4  0
 12 18  4  0
 13 21  4  0
 15 23  4  0
 17 19  4  0
 17 20  4  0
 18 22  4  0
 19 21  4  0
M  END
$$$$

 Created by Python create_sdf_string function

 23 25  0  0  0  0  0  0  0  0999 V2000
    2.4610   -5.3070   29.1240 C   0  0  0  0  0  0  0  0  0  0  0  0
    4.7710   -4.6952   28.4803 C   0  0  0  0  0  0  0  0  0  0  0  0
    3.4047   -5.1087   28.1314 C   0  0  0  0  0  0  0  0  0  0  0  0
   -0.2234  -11.8615   16.8874 C   0  0  0  0  0  0  0  0  0  0  0  0
    6.4491   -4.1532   30.1213 C   0  0  0  0  0  0  0  0  0  0  0  0
    5.7060   -4.4340   27.4975 C   0  0  0  0  0  0  0  0  0  0  0  0
    1.1818   -5.6612   28.8399 C   0  0  0  0  0  0  0  0  0  0  0  0
   -1.2067   -7.3287   17.7772 C   0  0  0  0  0  0  0  0  0  0  0  0
   -0.0206  -10.5585   16.6210 C   0  0  0  0  0  0  0  0  0  0  0  0
    0.3696  -12.7626   16.2169 O   0  0  0  0  0  0  0  0  0  0  0  0
   -0.6895   -9.5676   17.3297 C   0  0  0  0  0  0  0  0  0  0  0  0
    0.8388   -5.8417   27.5264 C   0  0  0  0  0  0  0  0  0  0  0  0
   -2.0709   -7.6637   18.7817 C   0  0  0  0  0  0  0  0  0  0  0  0
   -0.5279   -8.2168   17.0717 C   0  0  0  0  0  0  0  0  0  0  0  0
    6.9694   -4.0191   27.8190 C   0  0  0  0  0  0  0  0  0  0  0  0
    5.1733   -4.5469   29.8123 C   0  0  0  0  0  0  0  0  0  0  0  0
   -1.7508  -11.3016   18.6072 C   0  0  0  0  0  0  0  0  0  0  0  0
    1.7497   -5.6771   26.4971 C   0  0  0  0  0  0  0  0  0  0  0  0
   -1.5799   -9.9322   18.3468 C   0  0  0  0  0  0  0  0  0  0  0  0
   -1.0871  -12.2214   17.8851 C   0  0  0  0  0  0  0  0  0  0  0  0
   -2.2706   -8.9669   19.0691 C   0  0  0  0  0  0  0  0  0  0  0  0
    3.0279   -5.3073   26.8197 C   0  0  0  0  0  0  0  0  0  0  0  0
    7.3282   -3.8948   29.1186 C   0  0  0  0  0  0  0  0  0  0  0  0
  1  3  4  0
  1  7  4  0
  2  3  1  0
  2  6  4  0
  2 16  4  0
  3 22  4  0
  4  9  4  0
  4 10  1  0
  4 20  4  0
  5 16  4  0
  5 23  4  0
  6 15  4  0
  7 12  4  0
  8 13  4  0
  8 14  4  0
  9 11  4  0
 11 14  4  0
 11 19  4  0
 12 18  4  0
 13 21  4  0
 15 23  4  0
 17 19  4  0
 17 20  4  0
 18 22  4  0
 19 21  4  0
M  END
$$$$

 Created by Python create_sdf_string function

 23 25  0  0  0  0  0  0  0  0999 V2000
    2.4610   -5.3070   29.1240 C   0  0  0  0  0  0  0  0  0  0  0  0
    4.7710   -4.6952   28.4803 C   0  0  0  0  0  0  0  0  0  0  0  0
    3.4047   -5.1087   28.1314 C   0  0  0  0  0  0  0  0  0  0  0  0
   -0.2234  -11.8615   16.8874 C   0  0  0  0  0  0  0  0  0  0  0  0
    6.4491   -4.1532   30.1213 C   0  0  0  0  0  0  0  0  0  0  0  0
    5.7060   -4.4340   27.4975 C   0  0  0  0  0  0  0  0  0  0  0  0
    1.1818   -5.6612   28.8399 C   0  0  0  0  0  0  0  0  0  0  0  0
   -1.2067   -7.3287   17.7772 C   0  0  0  0  0  0  0  0  0  0  0  0
   -0.0206  -10.5585   16.6210 C   0  0  0  0  0  0  0  0  0  0  0  0
    0.3696  -12.7626   16.2169 O   0  0  0  0  0  0  0  0  0  0  0  0
   -0.6895   -9.5676   17.3297 C   0  0  0  0  0  0  0  0  0  0  0  0
    0.8388   -5.8417   27.5264 C   0  0  0  0  0  0  0  0  0  0  0  0
   -2.0709   -7.6637   18.7817 C   0  0  0  0  0  0  0  0  0  0  0  0
   -0.5279   -8.2168   17.0717 C   0  0  0  0  0  0  0  0  0  0  0  0
    6.9694   -4.0191   27.8190 C   0  0  0  0  0  0  0  0  0  0  0  0
    5.1733   -4.5469   29.8123 C   0  0  0  0  0  0  0  0  0  0  0  0
   -1.7508  -11.3016   18.6072 C   0  0  0  0  0  0  0  0  0  0  0  0
    1.7497   -5.6771   26.4971 C   0  0  0  0  0  0  0  0  0  0  0  0
   -1.5799   -9.9322   18.3468 C   0  0  0  0  0  0  0  0  0  0  0  0
   -1.0871  -12.2214   17.8851 C   0  0  0  0  0  0  0  0  0  0  0  0
   -2.2706   -8.9669   19.0691 C   0  0  0  0  0  0  0  0  0  0  0  0
    3.0279   -5.3073   26.8197 C   0  0  0  0  0  0  0  0  0  0  0  0
    7.3282   -3.8948   29.1186 C   0  0  0  0  0  0  0  0  0  0  0  0
  1  3  4  0
  1  7  4  0
  2  3  1  0
  2  6  4  0
  2 16  4  0
  3 22  4  0
  4  9  4  0
  4 10  1  0
  4 20  4  0
  5 16  4  0
  5 23  4  0
  6 15  4  0
  7 12  4  0
  8 13  4  0
  8 14  4  0
  9 11  4  0
 11 14  4  0
 11 19  4  0
 12 18  4  0
 13 21  4  0
 15 23  4  0
 17 19  4  0
 17 20  4  0
 18 22  4  0
 19 21  4  0
M  END
$$$$

 Created by Python create_sdf_string function

 23 25  0  0  0  0  0  0  0  0999 V2000
    2.4610   -5.3070   29.1240 C   0  0  0  0  0  0  0  0  0  0  0  0
    4.7710   -4.6952   28.4803 C   0  0  0  0  0  0  0  0  0  0  0  0
    3.4047   -5.1087   28.1314 C   0  0  0  0  0  0  0  0  0  0  0  0
   -0.2234  -11.8615   16.8874 C   0  0  0  0  0  0  0  0  0  0  0  0
    6.4491   -4.1532   30.1213 C   0  0  0  0  0  0  0  0  0  0  0  0
    5.7060   -4.4340   27.4975 C   0  0  0  0  0  0  0  0  0  0  0  0
    1.1818   -5.6612   28.8399 C   0  0  0  0  0  0  0  0  0  0  0  0
   -1.2067   -7.3287   17.7772 C   0  0  0  0  0  0  0  0  0  0  0  0
   -0.0206  -10.5585   16.6210 C   0  0  0  0  0  0  0  0  0  0  0  0
    0.3696  -12.7626   16.2169 O   0  0  0  0  0  0  0  0  0  0  0  0
   -0.6895   -9.5676   17.3297 C   0  0  0  0  0  0  0  0  0  0  0  0
    0.8388   -5.8417   27.5264 C   0  0  0  0  0  0  0  0  0  0  0  0
   -2.0709   -7.6637   18.7817 C   0  0  0  0  0  0  0  0  0  0  0  0
   -0.5279   -8.2168   17.0717 C   0  0  0  0  0  0  0  0  0  0  0  0
    6.9694   -4.0191   27.8190 C   0  0  0  0  0  0  0  0  0  0  0  0
    5.1733   -4.5469   29.8123 C   0  0  0  0  0  0  0  0  0  0  0  0
   -1.7508  -11.3016   18.6072 C   0  0  0  0  0  0  0  0  0  0  0  0
    1.7497   -5.6771   26.4971 C   0  0  0  0  0  0  0  0  0  0  0  0
   -1.5799   -9.9322   18.3468 C   0  0  0  0  0  0  0  0  0  0  0  0
   -1.0871  -12.2214   17.8851 C   0  0  0  0  0  0  0  0  0  0  0  0
   -2.2706   -8.9669   19.0691 C   0  0  0  0  0  0  0  0  0  0  0  0
    3.0279   -5.3073   26.8197 C   0  0  0  0  0  0  0  0  0  0  0  0
    7.3282   -3.8948   29.1186 C   0  0  0  0  0  0  0  0  0  0  0  0
  1  3  4  0
  1  7  4  0
  2  3  1  0
  2  6  4  0
  2 16  4  0
  3 22  4  0
  4  9  4  0
  4 10  1  0
  4 20  4  0
  5 16  4  0
  5 23  4  0
  6 15  4  0
  7 12  4  0
  8 13  4  0
  8 14  4  0
  9 11  4  0
 11 14  4  0
 11 19  4  0
 12 18  4  0
 13 21  4  0
 15 23  4  0
 17 19  4  0
 17 20  4  0
 18 22  4  0
 19 21  4  0
M  END
$$$$

 Created by Python create_sdf_string function

 23 25  0  0  0  0  0  0  0  0999 V2000
    2.4610   -5.3070   29.1240 C   0  0  0  0  0  0  0  0  0  0  0  0
    4.7710   -4.6952   28.4803 C   0  0  0  0  0  0  0  0  0  0  0  0
    3.4047   -5.1087   28.1314 C   0  0  0  0  0  0  0  0  0  0  0  0
   -0.2234  -11.8615   16.8874 C   0  0  0  0  0  0  0  0  0  0  0  0
    6.4491   -4.1532   30.1213 C   0  0  0  0  0  0  0  0  0  0  0  0
    5.7060   -4.4340   27.4975 C   0  0  0  0  0  0  0  0  0  0  0  0
    1.1818   -5.6612   28.8399 C   0  0  0  0  0  0  0  0  0  0  0  0
   -1.2067   -7.3287   17.7772 C   0  0  0  0  0  0  0  0  0  0  0  0
   -0.0206  -10.5585   16.6210 C   0  0  0  0  0  0  0  0  0  0  0  0
    0.3696  -12.7626   16.2169 O   0  0  0  0  0  0  0  0  0  0  0  0
   -0.6895   -9.5676   17.3297 C   0  0  0  0  0  0  0  0  0  0  0  0
    0.8388   -5.8417   27.5264 C   0  0  0  0  0  0  0  0  0  0  0  0
   -2.0709   -7.6637   18.7817 C   0  0  0  0  0  0  0  0  0  0  0  0
   -0.5279   -8.2168   17.0717 C   0  0  0  0  0  0  0  0  0  0  0  0
    6.9694   -4.0191   27.8190 C   0  0  0  0  0  0  0  0  0  0  0  0
    5.1733   -4.5469   29.8123 C   0  0  0  0  0  0  0  0  0  0  0  0
   -1.7508  -11.3016   18.6072 C   0  0  0  0  0  0  0  0  0  0  0  0
    1.7497   -5.6771   26.4971 C   0  0  0  0  0  0  0  0  0  0  0  0
   -1.5799   -9.9322   18.3468 C   0  0  0  0  0  0  0  0  0  0  0  0
   -1.0871  -12.2214   17.8851 C   0  0  0  0  0  0  0  0  0  0  0  0
   -2.2706   -8.9669   19.0691 C   0  0  0  0  0  0  0  0  0  0  0  0
    3.0279   -5.3073   26.8197 C   0  0  0  0  0  0  0  0  0  0  0  0
    7.3282   -3.8948   29.1186 C   0  0  0  0  0  0  0  0  0  0  0  0
  1  3  4  0
  1  7  4  0
  2  3  1  0
  2  6  4  0
  2 16  4  0
  3 22  4  0
  4  9  4  0
  4 10  1  0
  4 20  4  0
  5 16  4  0
  5 23  4  0
  6 15  4  0
  7 12  4  0
  8 13  4  0
  8 14  4  0
  9 11  4  0
 11 14  4  0
 11 19  4  0
 12 18  4  0
 13 21  4  0
 15 23  4  0
 17 19  4  0
 17 20  4  0
 18 22  4  0
 19 21  4  0
M  END
$$$$

 Created by Python create_sdf_string function

 23 25  0  0  0  0  0  0  0  0999 V2000
    2.4610   -5.3070   29.1240 C   0  0  0  0  0  0  0  0  0  0  0  0
    4.7710   -4.6952   28.4803 C   0  0  0  0  0  0  0  0  0  0  0  0
    3.4047   -5.1087   28.1314 C   0  0  0  0  0  0  0  0  0  0  0  0
   -0.2234  -11.8615   16.8874 C   0  0  0  0  0  0  0  0  0  0  0  0
    6.4491   -4.1532   30.1213 C   0  0  0  0  0  0  0  0  0  0  0  0
    5.7060   -4.4340   27.4975 C   0  0  0  0  0  0  0  0  0  0  0  0
    1.1818   -5.6612   28.8399 C   0  0  0  0  0  0  0  0  0  0  0  0
   -1.2067   -7.3287   17.7772 C   0  0  0  0  0  0  0  0  0  0  0  0
   -0.0206  -10.5585   16.6210 C   0  0  0  0  0  0  0  0  0  0  0  0
    0.3696  -12.7626   16.2169 O   0  0  0  0  0  0  0  0  0  0  0  0
   -0.6895   -9.5676   17.3297 C   0  0  0  0  0  0  0  0  0  0  0  0
    0.8388   -5.8417   27.5264 C   0  0  0  0  0  0  0  0  0  0  0  0
   -2.0709   -7.6637   18.7817 C   0  0  0  0  0  0  0  0  0  0  0  0
   -0.5279   -8.2168   17.0717 C   0  0  0  0  0  0  0  0  0  0  0  0
    6.9694   -4.0191   27.8190 C   0  0  0  0  0  0  0  0  0  0  0  0
    5.1733   -4.5469   29.8123 C   0  0  0  0  0  0  0  0  0  0  0  0
   -1.7508  -11.3016   18.6072 C   0  0  0  0  0  0  0  0  0  0  0  0
    1.7497   -5.6771   26.4971 C   0  0  0  0  0  0  0  0  0  0  0  0
   -1.5799   -9.9322   18.3468 C   0  0  0  0  0  0  0  0  0  0  0  0
   -1.0871  -12.2214   17.8851 C   0  0  0  0  0  0  0  0  0  0  0  0
   -2.2706   -8.9669   19.0691 C   0  0  0  0  0  0  0  0  0  0  0  0
    3.0279   -5.3073   26.8197 C   0  0  0  0  0  0  0  0  0  0  0  0
    7.3282   -3.8948   29.1186 C   0  0  0  0  0  0  0  0  0  0  0  0
  1  3  4  0
  1  7  4  0
  2  3  1  0
  2  6  4  0
  2 16  4  0
  3 22  4  0
  4  9  4  0
  4 10  1  0
  4 20  4  0
  5 16  4  0
  5 23  4  0
  6 15  4  0
  7 12  4  0
  8 13  4  0
  8 14  4  0
  9 11  4  0
 11 14  4  0
 11 19  4  0
 12 18  4  0
 13 21  4  0
 15 23  4  0
 17 19  4  0
 17 20  4  0
 18 22  4  0
 19 21  4  0
M  END
$$$$

 Created by Python create_sdf_string function

 23 25  0  0  0  0  0  0  0  0999 V2000
    2.4610   -5.3070   29.1240 C   0  0  0  0  0  0  0  0  0  0  0  0
    4.7710   -4.6952   28.4803 C   0  0  0  0  0  0  0  0  0  0  0  0
    3.4047   -5.1087   28.1314 C   0  0  0  0  0  0  0  0  0  0  0  0
   -0.2234  -11.8615   16.8874 C   0  0  0  0  0  0  0  0  0  0  0  0
    6.4491   -4.1532   30.1213 C   0  0  0  0  0  0  0  0  0  0  0  0
    5.7060   -4.4340   27.4975 C   0  0  0  0  0  0  0  0  0  0  0  0
    1.1818   -5.6612   28.8399 C   0  0  0  0  0  0  0  0  0  0  0  0
   -1.2067   -7.3287   17.7772 C   0  0  0  0  0  0  0  0  0  0  0  0
   -0.0206  -10.5585   16.6210 C   0  0  0  0  0  0  0  0  0  0  0  0
    0.3696  -12.7626   16.2169 O   0  0  0  0  0  0  0  0  0  0  0  0
   -0.6895   -9.5676   17.3297 C   0  0  0  0  0  0  0  0  0  0  0  0
    0.8388   -5.8417   27.5264 C   0  0  0  0  0  0  0  0  0  0  0  0
   -2.0709   -7.6637   18.7817 C   0  0  0  0  0  0  0  0  0  0  0  0
   -0.5279   -8.2168   17.0717 C   0  0  0  0  0  0  0  0  0  0  0  0
    6.9694   -4.0191   27.8190 C   0  0  0  0  0  0  0  0  0  0  0  0
    5.1733   -4.5469   29.8123 C   0  0  0  0  0  0  0  0  0  0  0  0
   -1.7508  -11.3016   18.6072 C   0  0  0  0  0  0  0  0  0  0  0  0
    1.7497   -5.6771   26.4971 C   0  0  0  0  0  0  0  0  0  0  0  0
   -1.5799   -9.9322   18.3468 C   0  0  0  0  0  0  0  0  0  0  0  0
   -1.0871  -12.2214   17.8851 C   0  0  0  0  0  0  0  0  0  0  0  0
   -2.2706   -8.9669   19.0691 C   0  0  0  0  0  0  0  0  0  0  0  0
    3.0279   -5.3073   26.8197 C   0  0  0  0  0  0  0  0  0  0  0  0
    7.3282   -3.8948   29.1186 C   0  0  0  0  0  0  0  0  0  0  0  0
  1  3  4  0
  1  7  4  0
  2  3  1  0
  2  6  4  0
  2 16  4  0
  3 22  4  0
  4  9  4  0
  4 10  1  0
  4 20  4  0
  5 16  4  0
  5 23  4  0
  6 15  4  0
  7 12  4  0
  8 13  4  0
  8 14  4  0
  9 11  4  0
 11 14  4  0
 11 19  4  0
 12 18  4  0
 13 21  4  0
 15 23  4  0
 17 19  4  0
 17 20  4  0
 18 22  4  0
 19 21  4  0
M  END
$$$$

 Created by Python create_sdf_string function

 23 25  0  0  0  0  0  0  0  0999 V2000
    2.4610   -5.3070   29.1240 C   0  0  0  0  0  0  0  0  0  0  0  0
    4.7710   -4.6952   28.4803 C   0  0  0  0  0  0  0  0  0  0  0  0
    3.4047   -5.1087   28.1314 C   0  0  0  0  0  0  0  0  0  0  0  0
   -0.2234  -11.8615   16.8874 C   0  0  0  0  0  0  0  0  0  0  0  0
    6.4491   -4.1532   30.1213 C   0  0  0  0  0  0  0  0  0  0  0  0
    5.7060   -4.4340   27.4975 C   0  0  0  0  0  0  0  0  0  0  0  0
    1.1818   -5.6612   28.8399 C   0  0  0  0  0  0  0  0  0  0  0  0
   -1.2067   -7.3287   17.7772 C   0  0  0  0  0  0  0  0  0  0  0  0
   -0.0206  -10.5585   16.6210 C   0  0  0  0  0  0  0  0  0  0  0  0
    0.3696  -12.7626   16.2169 O   0  0  0  0  0  0  0  0  0  0  0  0
   -0.6895   -9.5676   17.3297 C   0  0  0  0  0  0  0  0  0  0  0  0
    0.8388   -5.8417   27.5264 C   0  0  0  0  0  0  0  0  0  0  0  0
   -2.0709   -7.6637   18.7817 C   0  0  0  0  0  0  0  0  0  0  0  0
   -0.5279   -8.2168   17.0717 C   0  0  0  0  0  0  0  0  0  0  0  0
    6.9694   -4.0191   27.8190 C   0  0  0  0  0  0  0  0  0  0  0  0
    5.1733   -4.5469   29.8123 C   0  0  0  0  0  0  0  0  0  0  0  0
   -1.7508  -11.3016   18.6072 C   0  0  0  0  0  0  0  0  0  0  0  0
    1.7497   -5.6771   26.4971 C   0  0  0  0  0  0  0  0  0  0  0  0
   -1.5799   -9.9322   18.3468 C   0  0  0  0  0  0  0  0  0  0  0  0
   -1.0871  -12.2214   17.8851 C   0  0  0  0  0  0  0  0  0  0  0  0
   -2.2706   -8.9669   19.0691 C   0  0  0  0  0  0  0  0  0  0  0  0
    3.0279   -5.3073   26.8197 C   0  0  0  0  0  0  0  0  0  0  0  0
    7.3282   -3.8948   29.1186 C   0  0  0  0  0  0  0  0  0  0  0  0
  1  3  4  0
  1  7  4  0
  2  3  1  0
  2  6  4  0
  2 16  4  0
  3 22  4  0
  4  9  4  0
  4 10  1  0
  4 20  4  0
  5 16  4  0
  5 23  4  0
  6 15  4  0
  7 12  4  0
  8 13  4  0
  8 14  4  0
  9 11  4  0
 11 14  4  0
 11 19  4  0
 12 18  4  0
 13 21  4  0
 15 23  4  0
 17 19  4  0
 17 20  4  0
 18 22  4  0
 19 21  4  0
M  END
$$$$

 Created by Python create_sdf_string function

 23 25  0  0  0  0  0  0  0  0999 V2000
    2.4610   -5.3070   29.1240 C   0  0  0  0  0  0  0  0  0  0  0  0
    4.7710   -4.6952   28.4803 C   0  0  0  0  0  0  0  0  0  0  0  0
    3.4047   -5.1087   28.1314 C   0  0  0  0  0  0  0  0  0  0  0  0
   -0.2234  -11.8615   16.8874 C   0  0  0  0  0  0  0  0  0  0  0  0
    6.4491   -4.1532   30.1213 C   0  0  0  0  0  0  0  0  0  0  0  0
    5.7060   -4.4340   27.4975 C   0  0  0  0  0  0  0  0  0  0  0  0
    1.1818   -5.6612   28.8399 C   0  0  0  0  0  0  0  0  0  0  0  0
   -1.2067   -7.3287   17.7772 C   0  0  0  0  0  0  0  0  0  0  0  0
   -0.0206  -10.5585   16.6210 C   0  0  0  0  0  0  0  0  0  0  0  0
    0.3696  -12.7626   16.2169 O   0  0  0  0  0  0  0  0  0  0  0  0
   -0.6895   -9.5676   17.3297 C   0  0  0  0  0  0  0  0  0  0  0  0
    0.8388   -5.8417   27.5264 C   0  0  0  0  0  0  0  0  0  0  0  0
   -2.0709   -7.6637   18.7817 C   0  0  0  0  0  0  0  0  0  0  0  0
   -0.5279   -8.2168   17.0717 C   0  0  0  0  0  0  0  0  0  0  0  0
    6.9694   -4.0191   27.8190 C   0  0  0  0  0  0  0  0  0  0  0  0
    5.1733   -4.5469   29.8123 C   0  0  0  0  0  0  0  0  0  0  0  0
   -1.7508  -11.3016   18.6072 C   0  0  0  0  0  0  0  0  0  0  0  0
    1.7497   -5.6771   26.4971 C   0  0  0  0  0  0  0  0  0  0  0  0
   -1.5799   -9.9322   18.3468 C   0  0  0  0  0  0  0  0  0  0  0  0
   -1.0871  -12.2214   17.8851 C   0  0  0  0  0  0  0  0  0  0  0  0
   -2.2706   -8.9669   19.0691 C   0  0  0  0  0  0  0  0  0  0  0  0
    3.0279   -5.3073   26.8197 C   0  0  0  0  0  0  0  0  0  0  0  0
    7.3282   -3.8948   29.1186 C   0  0  0  0  0  0  0  0  0  0  0  0
  1  3  4  0
  1  7  4  0
  2  3  1  0
  2  6  4  0
  2 16  4  0
  3 22  4  0
  4  9  4  0
  4 10  1  0
  4 20  4  0
  5 16  4  0
  5 23  4  0
  6 15  4  0
  7 12  4  0
  8 13  4  0
  8 14  4  0
  9 11  4  0
 11 14  4  0
 11 19  4  0
 12 18  4  0
 13 21  4  0
 15 23  4  0
 17 19  4  0
 17 20  4  0
 18 22  4  0
 19 21  4  0
M  END
$$$$

 Created by Python create_sdf_string function

 23 25  0  0  0  0  0  0  0  0999 V2000
    2.4610   -5.3070   29.1240 C   0  0  0  0  0  0  0  0  0  0  0  0
    4.7710   -4.6952   28.4803 C   0  0  0  0  0  0  0  0  0  0  0  0
    3.4047   -5.1087   28.1314 C   0  0  0  0  0  0  0  0  0  0  0  0
   -0.2234  -11.8615   16.8874 C   0  0  0  0  0  0  0  0  0  0  0  0
    6.4491   -4.1532   30.1213 C   0  0  0  0  0  0  0  0  0  0  0  0
    5.7060   -4.4340   27.4975 C   0  0  0  0  0  0  0  0  0  0  0  0
    1.1818   -5.6612   28.8399 C   0  0  0  0  0  0  0  0  0  0  0  0
   -1.2067   -7.3287   17.7772 C   0  0  0  0  0  0  0  0  0  0  0  0
   -0.0206  -10.5585   16.6210 C   0  0  0  0  0  0  0  0  0  0  0  0
    0.3696  -12.7626   16.2169 O   0  0  0  0  0  0  0  0  0  0  0  0
   -0.6895   -9.5676   17.3297 C   0  0  0  0  0  0  0  0  0  0  0  0
    0.8388   -5.8417   27.5264 C   0  0  0  0  0  0  0  0  0  0  0  0
   -2.0709   -7.6637   18.7817 C   0  0  0  0  0  0  0  0  0  0  0  0
   -0.5279   -8.2168   17.0717 C   0  0  0  0  0  0  0  0  0  0  0  0
    6.9694   -4.0191   27.8190 C   0  0  0  0  0  0  0  0  0  0  0  0
    5.1733   -4.5469   29.8123 C   0  0  0  0  0  0  0  0  0  0  0  0
   -1.7508  -11.3016   18.6072 C   0  0  0  0  0  0  0  0  0  0  0  0
    1.7497   -5.6771   26.4971 C   0  0  0  0  0  0  0  0  0  0  0  0
   -1.5799   -9.9322   18.3468 C   0  0  0  0  0  0  0  0  0  0  0  0
   -1.0871  -12.2214   17.8851 C   0  0  0  0  0  0  0  0  0  0  0  0
   -2.2706   -8.9669   19.0691 C   0  0  0  0  0  0  0  0  0  0  0  0
    3.0279   -5.3073   26.8197 C   0  0  0  0  0  0  0  0  0  0  0  0
    7.3282   -3.8948   29.1186 C   0  0  0  0  0  0  0  0  0  0  0  0
  1  3  4  0
  1  7  4  0
  2  3  1  0
  2  6  4  0
  2 16  4  0
  3 22  4  0
  4  9  4  0
  4 10  1  0
  4 20  4  0
  5 16  4  0
  5 23  4  0
  6 15  4  0
  7 12  4  0
  8 13  4  0
  8 14  4  0
  9 11  4  0
 11 14  4  0
 11 19  4  0
 12 18  4  0
 13 21  4  0
 15 23  4  0
 17 19  4  0
 17 20  4  0
 18 22  4  0
 19 21  4  0
M  END
$$$$

 Created by Python create_sdf_string function

 23 25  0  0  0  0  0  0  0  0999 V2000
    2.4610   -5.3070   29.1240 C   0  0  0  0  0  0  0  0  0  0  0  0
    4.7710   -4.6952   28.4803 C   0  0  0  0  0  0  0  0  0  0  0  0
    3.4047   -5.1087   28.1314 C   0  0  0  0  0  0  0  0  0  0  0  0
   -0.2234  -11.8615   16.8874 C   0  0  0  0  0  0  0  0  0  0  0  0
    6.4491   -4.1532   30.1213 C   0  0  0  0  0  0  0  0  0  0  0  0
    5.7060   -4.4340   27.4975 C   0  0  0  0  0  0  0  0  0  0  0  0
    1.1818   -5.6612   28.8399 C   0  0  0  0  0  0  0  0  0  0  0  0
   -1.2067   -7.3287   17.7772 C   0  0  0  0  0  0  0  0  0  0  0  0
   -0.0206  -10.5585   16.6210 C   0  0  0  0  0  0  0  0  0  0  0  0
    0.3696  -12.7626   16.2169 O   0  0  0  0  0  0  0  0  0  0  0  0
   -0.6895   -9.5676   17.3297 C   0  0  0  0  0  0  0  0  0  0  0  0
    0.8388   -5.8417   27.5264 C   0  0  0  0  0  0  0  0  0  0  0  0
   -2.0709   -7.6637   18.7817 C   0  0  0  0  0  0  0  0  0  0  0  0
   -0.5279   -8.2168   17.0717 C   0  0  0  0  0  0  0  0  0  0  0  0
    6.9694   -4.0191   27.8190 C   0  0  0  0  0  0  0  0  0  0  0  0
    5.1733   -4.5469   29.8123 C   0  0  0  0  0  0  0  0  0  0  0  0
   -1.7508  -11.3016   18.6072 C   0  0  0  0  0  0  0  0  0  0  0  0
    1.7497   -5.6771   26.4971 C   0  0  0  0  0  0  0  0  0  0  0  0
   -1.5799   -9.9322   18.3468 C   0  0  0  0  0  0  0  0  0  0  0  0
   -1.0871  -12.2214   17.8851 C   0  0  0  0  0  0  0  0  0  0  0  0
   -2.2706   -8.9669   19.0691 C   0  0  0  0  0  0  0  0  0  0  0  0
    3.0279   -5.3073   26.8197 C   0  0  0  0  0  0  0  0  0  0  0  0
    7.3282   -3.8948   29.1186 C   0  0  0  0  0  0  0  0  0  0  0  0
  1  3  4  0
  1  7  4  0
  2  3  1  0
  2  6  4  0
  2 16  4  0
  3 22  4  0
  4  9  4  0
  4 10  1  0
  4 20  4  0
  5 16  4  0
  5 23  4  0
  6 15  4  0
  7 12  4  0
  8 13  4  0
  8 14  4  0
  9 11  4  0
 11 14  4  0
 11 19  4  0
 12 18  4  0
 13 21  4  0
 15 23  4  0
 17 19  4  0
 17 20  4  0
 18 22  4  0
 19 21  4  0
M  END
$$$$

 Created by Python create_sdf_string function

 23 25  0  0  0  0  0  0  0  0999 V2000
    2.4610   -5.3070   29.1240 C   0  0  0  0  0  0  0  0  0  0  0  0
    4.7710   -4.6952   28.4803 C   0  0  0  0  0  0  0  0  0  0  0  0
    3.4047   -5.1087   28.1314 C   0  0  0  0  0  0  0  0  0  0  0  0
   -0.2234  -11.8615   16.8874 C   0  0  0  0  0  0  0  0  0  0  0  0
    6.4491   -4.1532   30.1213 C   0  0  0  0  0  0  0  0  0  0  0  0
    5.7060   -4.4340   27.4975 C   0  0  0  0  0  0  0  0  0  0  0  0
    1.1818   -5.6612   28.8399 C   0  0  0  0  0  0  0  0  0  0  0  0
   -1.2067   -7.3287   17.7772 C   0  0  0  0  0  0  0  0  0  0  0  0
   -0.0206  -10.5585   16.6210 C   0  0  0  0  0  0  0  0  0  0  0  0
    0.3696  -12.7626   16.2169 O   0  0  0  0  0  0  0  0  0  0  0  0
   -0.6895   -9.5676   17.3297 C   0  0  0  0  0  0  0  0  0  0  0  0
    0.8388   -5.8417   27.5264 C   0  0  0  0  0  0  0  0  0  0  0  0
   -2.0709   -7.6637   18.7817 C   0  0  0  0  0  0  0  0  0  0  0  0
   -0.5279   -8.2168   17.0717 C   0  0  0  0  0  0  0  0  0  0  0  0
    6.9694   -4.0191   27.8190 C   0  0  0  0  0  0  0  0  0  0  0  0
    5.1733   -4.5469   29.8123 C   0  0  0  0  0  0  0  0  0  0  0  0
   -1.7508  -11.3016   18.6072 C   0  0  0  0  0  0  0  0  0  0  0  0
    1.7497   -5.6771   26.4971 C   0  0  0  0  0  0  0  0  0  0  0  0
   -1.5799   -9.9322   18.3468 C   0  0  0  0  0  0  0  0  0  0  0  0
   -1.0871  -12.2214   17.8851 C   0  0  0  0  0  0  0  0  0  0  0  0
   -2.2706   -8.9669   19.0691 C   0  0  0  0  0  0  0  0  0  0  0  0
    3.0279   -5.3073   26.8197 C   0  0  0  0  0  0  0  0  0  0  0  0
    7.3282   -3.8948   29.1186 C   0  0  0  0  0  0  0  0  0  0  0  0
  1  3  4  0
  1  7  4  0
  2  3  1  0
  2  6  4  0
  2 16  4  0
  3 22  4  0
  4  9  4  0
  4 10  1  0
  4 20  4  0
  5 16  4  0
  5 23  4  0
  6 15  4  0
  7 12  4  0
  8 13  4  0
  8 14  4  0
  9 11  4  0
 11 14  4  0
 11 19  4  0
 12 18  4  0
 13 21  4  0
 15 23  4  0
 17 19  4  0
 17 20  4  0
 18 22  4  0
 19 21  4  0
M  END
$$$$

 Created by Python create_sdf_string function

 23 25  0  0  0  0  0  0  0  0999 V2000
    2.4610   -5.3070   29.1240 C   0  0  0  0  0  0  0  0  0  0  0  0
    4.7710   -4.6952   28.4803 C   0  0  0  0  0  0  0  0  0  0  0  0
    3.4047   -5.1087   28.1314 C   0  0  0  0  0  0  0  0  0  0  0  0
   -0.2234  -11.8615   16.8874 C   0  0  0  0  0  0  0  0  0  0  0  0
    6.4491   -4.1532   30.1213 C   0  0  0  0  0  0  0  0  0  0  0  0
    5.7060   -4.4340   27.4975 C   0  0  0  0  0  0  0  0  0  0  0  0
    1.1818   -5.6612   28.8399 C   0  0  0  0  0  0  0  0  0  0  0  0
   -1.2067   -7.3287   17.7772 C   0  0  0  0  0  0  0  0  0  0  0  0
   -0.0206  -10.5585   16.6210 C   0  0  0  0  0  0  0  0  0  0  0  0
    0.3696  -12.7626   16.2169 O   0  0  0  0  0  0  0  0  0  0  0  0
   -0.6895   -9.5676   17.3297 C   0  0  0  0  0  0  0  0  0  0  0  0
    0.8388   -5.8417   27.5264 C   0  0  0  0  0  0  0  0  0  0  0  0
   -2.0709   -7.6637   18.7817 C   0  0  0  0  0  0  0  0  0  0  0  0
   -0.5279   -8.2168   17.0717 C   0  0  0  0  0  0  0  0  0  0  0  0
    6.9694   -4.0191   27.8190 C   0  0  0  0  0  0  0  0  0  0  0  0
    5.1733   -4.5469   29.8123 C   0  0  0  0  0  0  0  0  0  0  0  0
   -1.7508  -11.3016   18.6072 C   0  0  0  0  0  0  0  0  0  0  0  0
    1.7497   -5.6771   26.4971 C   0  0  0  0  0  0  0  0  0  0  0  0
   -1.5799   -9.9322   18.3468 C   0  0  0  0  0  0  0  0  0  0  0  0
   -1.0871  -12.2214   17.8851 C   0  0  0  0  0  0  0  0  0  0  0  0
   -2.2706   -8.9669   19.0691 C   0  0  0  0  0  0  0  0  0  0  0  0
    3.0279   -5.3073   26.8197 C   0  0  0  0  0  0  0  0  0  0  0  0
    7.3282   -3.8948   29.1186 C   0  0  0  0  0  0  0  0  0  0  0  0
  1  3  4  0
  1  7  4  0
  2  3  1  0
  2  6  4  0
  2 16  4  0
  3 22  4  0
  4  9  4  0
  4 10  1  0
  4 20  4  0
  5 16  4  0
  5 23  4  0
  6 15  4  0
  7 12  4  0
  8 13  4  0
  8 14  4  0
  9 11  4  0
 11 14  4  0
 11 19  4  0
 12 18  4  0
 13 21  4  0
 15 23  4  0
 17 19  4  0
 17 20  4  0
 18 22  4  0
 19 21  4  0
M  END
$$$$

 Created by Python create_sdf_string function

 23 25  0  0  0  0  0  0  0  0999 V2000
    2.4610   -5.3070   29.1240 C   0  0  0  0  0  0  0  0  0  0  0  0
    4.7710   -4.6952   28.4803 C   0  0  0  0  0  0  0  0  0  0  0  0
    3.4047   -5.1087   28.1314 C   0  0  0  0  0  0  0  0  0  0  0  0
   -0.2234  -11.8615   16.8874 C   0  0  0  0  0  0  0  0  0  0  0  0
    6.4491   -4.1532   30.1213 C   0  0  0  0  0  0  0  0  0  0  0  0
    5.7060   -4.4340   27.4975 C   0  0  0  0  0  0  0  0  0  0  0  0
    1.1818   -5.6612   28.8399 C   0  0  0  0  0  0  0  0  0  0  0  0
   -1.2067   -7.3287   17.7772 C   0  0  0  0  0  0  0  0  0  0  0  0
   -0.0206  -10.5585   16.6210 C   0  0  0  0  0  0  0  0  0  0  0  0
    0.3696  -12.7626   16.2169 O   0  0  0  0  0  0  0  0  0  0  0  0
   -0.6895   -9.5676   17.3297 C   0  0  0  0  0  0  0  0  0  0  0  0
    0.8388   -5.8417   27.5264 C   0  0  0  0  0  0  0  0  0  0  0  0
   -2.0709   -7.6637   18.7817 C   0  0  0  0  0  0  0  0  0  0  0  0
   -0.5279   -8.2168   17.0717 C   0  0  0  0  0  0  0  0  0  0  0  0
    6.9694   -4.0191   27.8190 C   0  0  0  0  0  0  0  0  0  0  0  0
    5.1733   -4.5469   29.8123 C   0  0  0  0  0  0  0  0  0  0  0  0
   -1.7508  -11.3016   18.6072 C   0  0  0  0  0  0  0  0  0  0  0  0
    1.7497   -5.6771   26.4971 C   0  0  0  0  0  0  0  0  0  0  0  0
   -1.5799   -9.9322   18.3468 C   0  0  0  0  0  0  0  0  0  0  0  0
   -1.0871  -12.2214   17.8851 C   0  0  0  0  0  0  0  0  0  0  0  0
   -2.2706   -8.9669   19.0691 C   0  0  0  0  0  0  0  0  0  0  0  0
    3.0279   -5.3073   26.8197 C   0  0  0  0  0  0  0  0  0  0  0  0
    7.3282   -3.8948   29.1186 C   0  0  0  0  0  0  0  0  0  0  0  0
  1  3  4  0
  1  7  4  0
  2  3  1  0
  2  6  4  0
  2 16  4  0
  3 22  4  0
  4  9  4  0
  4 10  1  0
  4 20  4  0
  5 16  4  0
  5 23  4  0
  6 15  4  0
  7 12  4  0
  8 13  4  0
  8 14  4  0
  9 11  4  0
 11 14  4  0
 11 19  4  0
 12 18  4  0
 13 21  4  0
 15 23  4  0
 17 19  4  0
 17 20  4  0
 18 22  4  0
 19 21  4  0
M  END
$$$$

 Created by Python create_sdf_string function

 23 25  0  0  0  0  0  0  0  0999 V2000
    2.4610   -5.3070   29.1240 C   0  0  0  0  0  0  0  0  0  0  0  0
    4.7710   -4.6952   28.4803 C   0  0  0  0  0  0  0  0  0  0  0  0
    3.4047   -5.1087   28.1314 C   0  0  0  0  0  0  0  0  0  0  0  0
   -0.2234  -11.8615   16.8874 C   0  0  0  0  0  0  0  0  0  0  0  0
    6.4491   -4.1532   30.1213 C   0  0  0  0  0  0  0  0  0  0  0  0
    5.7060   -4.4340   27.4975 C   0  0  0  0  0  0  0  0  0  0  0  0
    1.1818   -5.6612   28.8399 C   0  0  0  0  0  0  0  0  0  0  0  0
   -1.2067   -7.3287   17.7772 C   0  0  0  0  0  0  0  0  0  0  0  0
   -0.0206  -10.5585   16.6210 C   0  0  0  0  0  0  0  0  0  0  0  0
    0.3696  -12.7626   16.2169 O   0  0  0  0  0  0  0  0  0  0  0  0
   -0.6895   -9.5676   17.3297 C   0  0  0  0  0  0  0  0  0  0  0  0
    0.8388   -5.8417   27.5264 C   0  0  0  0  0  0  0  0  0  0  0  0
   -2.0709   -7.6637   18.7817 C   0  0  0  0  0  0  0  0  0  0  0  0
   -0.5279   -8.2168   17.0717 C   0  0  0  0  0  0  0  0  0  0  0  0
    6.9694   -4.0191   27.8190 C   0  0  0  0  0  0  0  0  0  0  0  0
    5.1733   -4.5469   29.8123 C   0  0  0  0  0  0  0  0  0  0  0  0
   -1.7508  -11.3016   18.6072 C   0  0  0  0  0  0  0  0  0  0  0  0
    1.7497   -5.6771   26.4971 C   0  0  0  0  0  0  0  0  0  0  0  0
   -1.5799   -9.9322   18.3468 C   0  0  0  0  0  0  0  0  0  0  0  0
   -1.0871  -12.2214   17.8851 C   0  0  0  0  0  0  0  0  0  0  0  0
   -2.2706   -8.9669   19.0691 C   0  0  0  0  0  0  0  0  0  0  0  0
    3.0279   -5.3073   26.8197 C   0  0  0  0  0  0  0  0  0  0  0  0
    7.3282   -3.8948   29.1186 C   0  0  0  0  0  0  0  0  0  0  0  0
  1  3  4  0
  1  7  4  0
  2  3  1  0
  2  6  4  0
  2 16  4  0
  3 22  4  0
  4  9  4  0
  4 10  1  0
  4 20  4  0
  5 16  4  0
  5 23  4  0
  6 15  4  0
  7 12  4  0
  8 13  4  0
  8 14  4  0
  9 11  4  0
 11 14  4  0
 11 19  4  0
 12 18  4  0
 13 21  4  0
 15 23  4  0
 17 19  4  0
 17 20  4  0
 18 22  4  0
 19 21  4  0
M  END
$$$$

 Created by Python create_sdf_string function

 23 25  0  0  0  0  0  0  0  0999 V2000
    2.4610   -5.3070   29.1240 C   0  0  0  0  0  0  0  0  0  0  0  0
    4.7710   -4.6952   28.4803 C   0  0  0  0  0  0  0  0  0  0  0  0
    3.4047   -5.1087   28.1314 C   0  0  0  0  0  0  0  0  0  0  0  0
   -0.2234  -11.8615   16.8874 C   0  0  0  0  0  0  0  0  0  0  0  0
    6.4491   -4.1532   30.1213 C   0  0  0  0  0  0  0  0  0  0  0  0
    5.7060   -4.4340   27.4975 C   0  0  0  0  0  0  0  0  0  0  0  0
    1.1818   -5.6612   28.8399 C   0  0  0  0  0  0  0  0  0  0  0  0
   -1.2067   -7.3287   17.7772 C   0  0  0  0  0  0  0  0  0  0  0  0
   -0.0206  -10.5585   16.6210 C   0  0  0  0  0  0  0  0  0  0  0  0
    0.3696  -12.7626   16.2169 O   0  0  0  0  0  0  0  0  0  0  0  0
   -0.6895   -9.5676   17.3297 C   0  0  0  0  0  0  0  0  0  0  0  0
    0.8388   -5.8417   27.5264 C   0  0  0  0  0  0  0  0  0  0  0  0
   -2.0709   -7.6637   18.7817 C   0  0  0  0  0  0  0  0  0  0  0  0
   -0.5279   -8.2168   17.0717 C   0  0  0  0  0  0  0  0  0  0  0  0
    6.9694   -4.0191   27.8190 C   0  0  0  0  0  0  0  0  0  0  0  0
    5.1733   -4.5469   29.8123 C   0  0  0  0  0  0  0  0  0  0  0  0
   -1.7508  -11.3016   18.6072 C   0  0  0  0  0  0  0  0  0  0  0  0
    1.7497   -5.6771   26.4971 C   0  0  0  0  0  0  0  0  0  0  0  0
   -1.5799   -9.9322   18.3468 C   0  0  0  0  0  0  0  0  0  0  0  0
   -1.0871  -12.2214   17.8851 C   0  0  0  0  0  0  0  0  0  0  0  0
   -2.2706   -8.9669   19.0691 C   0  0  0  0  0  0  0  0  0  0  0  0
    3.0279   -5.3073   26.8197 C   0  0  0  0  0  0  0  0  0  0  0  0
    7.3282   -3.8948   29.1186 C   0  0  0  0  0  0  0  0  0  0  0  0
  1  3  4  0
  1  7  4  0
  2  3  1  0
  2  6  4  0
  2 16  4  0
  3 22  4  0
  4  9  4  0
  4 10  1  0
  4 20  4  0
  5 16  4  0
  5 23  4  0
  6 15  4  0
  7 12  4  0
  8 13  4  0
  8 14  4  0
  9 11  4  0
 11 14  4  0
 11 19  4  0
 12 18  4  0
 13 21  4  0
 15 23  4  0
 17 19  4  0
 17 20  4  0
 18 22  4  0
 19 21  4  0
M  END
$$$$

 Created by Python create_sdf_string function

 23 25  0  0  0  0  0  0  0  0999 V2000
    2.4610   -5.3070   29.1240 C   0  0  0  0  0  0  0  0  0  0  0  0
    4.7710   -4.6952   28.4803 C   0  0  0  0  0  0  0  0  0  0  0  0
    3.4047   -5.1087   28.1314 C   0  0  0  0  0  0  0  0  0  0  0  0
   -0.2234  -11.8615   16.8874 C   0  0  0  0  0  0  0  0  0  0  0  0
    6.4491   -4.1532   30.1213 C   0  0  0  0  0  0  0  0  0  0  0  0
    5.7060   -4.4340   27.4975 C   0  0  0  0  0  0  0  0  0  0  0  0
    1.1818   -5.6612   28.8399 C   0  0  0  0  0  0  0  0  0  0  0  0
   -1.2067   -7.3287   17.7772 C   0  0  0  0  0  0  0  0  0  0  0  0
   -0.0206  -10.5585   16.6210 C   0  0  0  0  0  0  0  0  0  0  0  0
    0.3696  -12.7626   16.2169 O   0  0  0  0  0  0  0  0  0  0  0  0
   -0.6895   -9.5676   17.3297 C   0  0  0  0  0  0  0  0  0  0  0  0
    0.8388   -5.8417   27.5264 C   0  0  0  0  0  0  0  0  0  0  0  0
   -2.0709   -7.6637   18.7817 C   0  0  0  0  0  0  0  0  0  0  0  0
   -0.5279   -8.2168   17.0717 C   0  0  0  0  0  0  0  0  0  0  0  0
    6.9694   -4.0191   27.8190 C   0  0  0  0  0  0  0  0  0  0  0  0
    5.1733   -4.5469   29.8123 C   0  0  0  0  0  0  0  0  0  0  0  0
   -1.7508  -11.3016   18.6072 C   0  0  0  0  0  0  0  0  0  0  0  0
    1.7497   -5.6771   26.4971 C   0  0  0  0  0  0  0  0  0  0  0  0
   -1.5799   -9.9322   18.3468 C   0  0  0  0  0  0  0  0  0  0  0  0
   -1.0871  -12.2214   17.8851 C   0  0  0  0  0  0  0  0  0  0  0  0
   -2.2706   -8.9669   19.0691 C   0  0  0  0  0  0  0  0  0  0  0  0
    3.0279   -5.3073   26.8197 C   0  0  0  0  0  0  0  0  0  0  0  0
    7.3282   -3.8948   29.1186 C   0  0  0  0  0  0  0  0  0  0  0  0
  1  3  4  0
  1  7  4  0
  2  3  1  0
  2  6  4  0
  2 16  4  0
  3 22  4  0
  4  9  4  0
  4 10  1  0
  4 20  4  0
  5 16  4  0
  5 23  4  0
  6 15  4  0
  7 12  4  0
  8 13  4  0
  8 14  4  0
  9 11  4  0
 11 14  4  0
 11 19  4  0
 12 18  4  0
 13 21  4  0
 15 23  4  0
 17 19  4  0
 17 20  4  0
 18 22  4  0
 19 21  4  0
M  END
$$$$

 Created by Python create_sdf_string function

 23 25  0  0  0  0  0  0  0  0999 V2000
    2.4610   -5.3070   29.1240 C   0  0  0  0  0  0  0  0  0  0  0  0
    4.7710   -4.6952   28.4803 C   0  0  0  0  0  0  0  0  0  0  0  0
    3.4047   -5.1087   28.1314 C   0  0  0  0  0  0  0  0  0  0  0  0
   -0.2234  -11.8615   16.8874 C   0  0  0  0  0  0  0  0  0  0  0  0
    6.4491   -4.1532   30.1213 C   0  0  0  0  0  0  0  0  0  0  0  0
    5.7060   -4.4340   27.4975 C   0  0  0  0  0  0  0  0  0  0  0  0
    1.1818   -5.6612   28.8399 C   0  0  0  0  0  0  0  0  0  0  0  0
   -1.2067   -7.3287   17.7772 C   0  0  0  0  0  0  0  0  0  0  0  0
   -0.0206  -10.5585   16.6210 C   0  0  0  0  0  0  0  0  0  0  0  0
    0.3696  -12.7626   16.2169 O   0  0  0  0  0  0  0  0  0  0  0  0
   -0.6895   -9.5676   17.3297 C   0  0  0  0  0  0  0  0  0  0  0  0
    0.8388   -5.8417   27.5264 C   0  0  0  0  0  0  0  0  0  0  0  0
   -2.0709   -7.6637   18.7817 C   0  0  0  0  0  0  0  0  0  0  0  0
   -0.5279   -8.2168   17.0717 C   0  0  0  0  0  0  0  0  0  0  0  0
    6.9694   -4.0191   27.8190 C   0  0  0  0  0  0  0  0  0  0  0  0
    5.1733   -4.5469   29.8123 C   0  0  0  0  0  0  0  0  0  0  0  0
   -1.7508  -11.3016   18.6072 C   0  0  0  0  0  0  0  0  0  0  0  0
    1.7497   -5.6771   26.4971 C   0  0  0  0  0  0  0  0  0  0  0  0
   -1.5799   -9.9322   18.3468 C   0  0  0  0  0  0  0  0  0  0  0  0
   -1.0871  -12.2214   17.8851 C   0  0  0  0  0  0  0  0  0  0  0  0
   -2.2706   -8.9669   19.0691 C   0  0  0  0  0  0  0  0  0  0  0  0
    3.0279   -5.3073   26.8197 C   0  0  0  0  0  0  0  0  0  0  0  0
    7.3282   -3.8948   29.1186 C   0  0  0  0  0  0  0  0  0  0  0  0
  1  3  4  0
  1  7  4  0
  2  3  1  0
  2  6  4  0
  2 16  4  0
  3 22  4  0
  4  9  4  0
  4 10  1  0
  4 20  4  0
  5 16  4  0
  5 23  4  0
  6 15  4  0
  7 12  4  0
  8 13  4  0
  8 14  4  0
  9 11  4  0
 11 14  4  0
 11 19  4  0
 12 18  4  0
 13 21  4  0
 15 23  4  0
 17 19  4  0
 17 20  4  0
 18 22  4  0
 19 21  4  0
M  END
$$$$

 Created by Python create_sdf_string function

 23 25  0  0  0  0  0  0  0  0999 V2000
    2.4610   -5.3070   29.1240 C   0  0  0  0  0  0  0  0  0  0  0  0
    4.7710   -4.6952   28.4803 C   0  0  0  0  0  0  0  0  0  0  0  0
    3.4047   -5.1087   28.1314 C   0  0  0  0  0  0  0  0  0  0  0  0
   -0.2234  -11.8615   16.8874 C   0  0  0  0  0  0  0  0  0  0  0  0
    6.4491   -4.1532   30.1213 C   0  0  0  0  0  0  0  0  0  0  0  0
    5.7060   -4.4340   27.4975 C   0  0  0  0  0  0  0  0  0  0  0  0
    1.1818   -5.6612   28.8399 C   0  0  0  0  0  0  0  0  0  0  0  0
   -1.2067   -7.3287   17.7772 C   0  0  0  0  0  0  0  0  0  0  0  0
   -0.0206  -10.5585   16.6210 C   0  0  0  0  0  0  0  0  0  0  0  0
    0.3696  -12.7626   16.2169 O   0  0  0  0  0  0  0  0  0  0  0  0
   -0.6895   -9.5676   17.3297 C   0  0  0  0  0  0  0  0  0  0  0  0
    0.8388   -5.8417   27.5264 C   0  0  0  0  0  0  0  0  0  0  0  0
   -2.0709   -7.6637   18.7817 C   0  0  0  0  0  0  0  0  0  0  0  0
   -0.5279   -8.2168   17.0717 C   0  0  0  0  0  0  0  0  0  0  0  0
    6.9694   -4.0191   27.8190 C   0  0  0  0  0  0  0  0  0  0  0  0
    5.1733   -4.5469   29.8123 C   0  0  0  0  0  0  0  0  0  0  0  0
   -1.7508  -11.3016   18.6072 C   0  0  0  0  0  0  0  0  0  0  0  0
    1.7497   -5.6771   26.4971 C   0  0  0  0  0  0  0  0  0  0  0  0
   -1.5799   -9.9322   18.3468 C   0  0  0  0  0  0  0  0  0  0  0  0
   -1.0871  -12.2214   17.8851 C   0  0  0  0  0  0  0  0  0  0  0  0
   -2.2706   -8.9669   19.0691 C   0  0  0  0  0  0  0  0  0  0  0  0
    3.0279   -5.3073   26.8197 C   0  0  0  0  0  0  0  0  0  0  0  0
    7.3282   -3.8948   29.1186 C   0  0  0  0  0  0  0  0  0  0  0  0
  1  3  4  0
  1  7  4  0
  2  3  1  0
  2  6  4  0
  2 16  4  0
  3 22  4  0
  4  9  4  0
  4 10  1  0
  4 20  4  0
  5 16  4  0
  5 23  4  0
  6 15  4  0
  7 12  4  0
  8 13  4  0
  8 14  4  0
  9 11  4  0
 11 14  4  0
 11 19  4  0
 12 18  4  0
 13 21  4  0
 15 23  4  0
 17 19  4  0
 17 20  4  0
 18 22  4  0
 19 21  4  0
M  END
$$$$

 Created by Python create_sdf_string function

 23 25  0  0  0  0  0  0  0  0999 V2000
    2.4610   -5.3070   29.1240 C   0  0  0  0  0  0  0  0  0  0  0  0
    4.7710   -4.6952   28.4803 C   0  0  0  0  0  0  0  0  0  0  0  0
    3.4047   -5.1087   28.1314 C   0  0  0  0  0  0  0  0  0  0  0  0
   -0.2234  -11.8615   16.8874 C   0  0  0  0  0  0  0  0  0  0  0  0
    6.4491   -4.1532   30.1213 C   0  0  0  0  0  0  0  0  0  0  0  0
    5.7060   -4.4340   27.4975 C   0  0  0  0  0  0  0  0  0  0  0  0
    1.1818   -5.6612   28.8399 C   0  0  0  0  0  0  0  0  0  0  0  0
   -1.2067   -7.3287   17.7772 C   0  0  0  0  0  0  0  0  0  0  0  0
   -0.0206  -10.5585   16.6210 C   0  0  0  0  0  0  0  0  0  0  0  0
    0.3696  -12.7626   16.2169 O   0  0  0  0  0  0  0  0  0  0  0  0
   -0.6895   -9.5676   17.3297 C   0  0  0  0  0  0  0  0  0  0  0  0
    0.8388   -5.8417   27.5264 C   0  0  0  0  0  0  0  0  0  0  0  0
   -2.0709   -7.6637   18.7817 C   0  0  0  0  0  0  0  0  0  0  0  0
   -0.5279   -8.2168   17.0717 C   0  0  0  0  0  0  0  0  0  0  0  0
    6.9694   -4.0191   27.8190 C   0  0  0  0  0  0  0  0  0  0  0  0
    5.1733   -4.5469   29.8123 C   0  0  0  0  0  0  0  0  0  0  0  0
   -1.7508  -11.3016   18.6072 C   0  0  0  0  0  0  0  0  0  0  0  0
    1.7497   -5.6771   26.4971 C   0  0  0  0  0  0  0  0  0  0  0  0
   -1.5799   -9.9322   18.3468 C   0  0  0  0  0  0  0  0  0  0  0  0
   -1.0871  -12.2214   17.8851 C   0  0  0  0  0  0  0  0  0  0  0  0
   -2.2706   -8.9669   19.0691 C   0  0  0  0  0  0  0  0  0  0  0  0
    3.0279   -5.3073   26.8197 C   0  0  0  0  0  0  0  0  0  0  0  0
    7.3282   -3.8948   29.1186 C   0  0  0  0  0  0  0  0  0  0  0  0
  1  3  4  0
  1  7  4  0
  2  3  1  0
  2  6  4  0
  2 16  4  0
  3 22  4  0
  4  9  4  0
  4 10  1  0
  4 20  4  0
  5 16  4  0
  5 23  4  0
  6 15  4  0
  7 12  4  0
  8 13  4  0
  8 14  4  0
  9 11  4  0
 11 14  4  0
 11 19  4  0
 12 18  4  0
 13 21  4  0
 15 23  4  0
 17 19  4  0
 17 20  4  0
 18 22  4  0
 19 21  4  0
M  END
$$$$

 Created by Python create_sdf_string function

 23 25  0  0  0  0  0  0  0  0999 V2000
    2.4610   -5.3070   29.1240 C   0  0  0  0  0  0  0  0  0  0  0  0
    4.7710   -4.6952   28.4803 C   0  0  0  0  0  0  0  0  0  0  0  0
    3.4047   -5.1087   28.1314 C   0  0  0  0  0  0  0  0  0  0  0  0
   -0.2234  -11.8615   16.8874 C   0  0  0  0  0  0  0  0  0  0  0  0
    6.4491   -4.1532   30.1213 C   0  0  0  0  0  0  0  0  0  0  0  0
    5.7060   -4.4340   27.4975 C   0  0  0  0  0  0  0  0  0  0  0  0
    1.1818   -5.6612   28.8399 C   0  0  0  0  0  0  0  0  0  0  0  0
   -1.2067   -7.3287   17.7772 C   0  0  0  0  0  0  0  0  0  0  0  0
   -0.0206  -10.5585   16.6210 C   0  0  0  0  0  0  0  0  0  0  0  0
    0.3696  -12.7626   16.2169 O   0  0  0  0  0  0  0  0  0  0  0  0
   -0.6895   -9.5676   17.3297 C   0  0  0  0  0  0  0  0  0  0  0  0
    0.8388   -5.8417   27.5264 C   0  0  0  0  0  0  0  0  0  0  0  0
   -2.0709   -7.6637   18.7817 C   0  0  0  0  0  0  0  0  0  0  0  0
   -0.5279   -8.2168   17.0717 C   0  0  0  0  0  0  0  0  0  0  0  0
    6.9694   -4.0191   27.8190 C   0  0  0  0  0  0  0  0  0  0  0  0
    5.1733   -4.5469   29.8123 C   0  0  0  0  0  0  0  0  0  0  0  0
   -1.7508  -11.3016   18.6072 C   0  0  0  0  0  0  0  0  0  0  0  0
    1.7497   -5.6771   26.4971 C   0  0  0  0  0  0  0  0  0  0  0  0
   -1.5799   -9.9322   18.3468 C   0  0  0  0  0  0  0  0  0  0  0  0
   -1.0871  -12.2214   17.8851 C   0  0  0  0  0  0  0  0  0  0  0  0
   -2.2706   -8.9669   19.0691 C   0  0  0  0  0  0  0  0  0  0  0  0
    3.0279   -5.3073   26.8197 C   0  0  0  0  0  0  0  0  0  0  0  0
    7.3282   -3.8948   29.1186 C   0  0  0  0  0  0  0  0  0  0  0  0
  1  3  4  0
  1  7  4  0
  2  3  1  0
  2  6  4  0
  2 16  4  0
  3 22  4  0
  4  9  4  0
  4 10  1  0
  4 20  4  0
  5 16  4  0
  5 23  4  0
  6 15  4  0
  7 12  4  0
  8 13  4  0
  8 14  4  0
  9 11  4  0
 11 14  4  0
 11 19  4  0
 12 18  4  0
 13 21  4  0
 15 23  4  0
 17 19  4  0
 17 20  4  0
 18 22  4  0
 19 21  4  0
M  END
$$$$

 Created by Python create_sdf_string function

 23 25  0  0  0  0  0  0  0  0999 V2000
    2.4610   -5.3070   29.1240 C   0  0  0  0  0  0  0  0  0  0  0  0
    4.7710   -4.6952   28.4803 C   0  0  0  0  0  0  0  0  0  0  0  0
    3.4047   -5.1087   28.1314 C   0  0  0  0  0  0  0  0  0  0  0  0
   -0.2234  -11.8615   16.8874 C   0  0  0  0  0  0  0  0  0  0  0  0
    6.4491   -4.1532   30.1213 C   0  0  0  0  0  0  0  0  0  0  0  0
    5.7060   -4.4340   27.4975 C   0  0  0  0  0  0  0  0  0  0  0  0
    1.1818   -5.6612   28.8399 C   0  0  0  0  0  0  0  0  0  0  0  0
   -1.2067   -7.3287   17.7772 C   0  0  0  0  0  0  0  0  0  0  0  0
   -0.0206  -10.5585   16.6210 C   0  0  0  0  0  0  0  0  0  0  0  0
    0.3696  -12.7626   16.2169 O   0  0  0  0  0  0  0  0  0  0  0  0
   -0.6895   -9.5676   17.3297 C   0  0  0  0  0  0  0  0  0  0  0  0
    0.8388   -5.8417   27.5264 C   0  0  0  0  0  0  0  0  0  0  0  0
   -2.0709   -7.6637   18.7817 C   0  0  0  0  0  0  0  0  0  0  0  0
   -0.5279   -8.2168   17.0717 C   0  0  0  0  0  0  0  0  0  0  0  0
    6.9694   -4.0191   27.8190 C   0  0  0  0  0  0  0  0  0  0  0  0
    5.1733   -4.5469   29.8123 C   0  0  0  0  0  0  0  0  0  0  0  0
   -1.7508  -11.3016   18.6072 C   0  0  0  0  0  0  0  0  0  0  0  0
    1.7497   -5.6771   26.4971 C   0  0  0  0  0  0  0  0  0  0  0  0
   -1.5799   -9.9322   18.3468 C   0  0  0  0  0  0  0  0  0  0  0  0
   -1.0871  -12.2214   17.8851 C   0  0  0  0  0  0  0  0  0  0  0  0
   -2.2706   -8.9669   19.0691 C   0  0  0  0  0  0  0  0  0  0  0  0
    3.0279   -5.3073   26.8197 C   0  0  0  0  0  0  0  0  0  0  0  0
    7.3282   -3.8948   29.1186 C   0  0  0  0  0  0  0  0  0  0  0  0
  1  3  4  0
  1  7  4  0
  2  3  1  0
  2  6  4  0
  2 16  4  0
  3 22  4  0
  4  9  4  0
  4 10  1  0
  4 20  4  0
  5 16  4  0
  5 23  4  0
  6 15  4  0
  7 12  4  0
  8 13  4  0
  8 14  4  0
  9 11  4  0
 11 14  4  0
 11 19  4  0
 12 18  4  0
 13 21  4  0
 15 23  4  0
 17 19  4  0
 17 20  4  0
 18 22  4  0
 19 21  4  0
M  END
$$$$

 Created by Python create_sdf_string function

 23 25  0  0  0  0  0  0  0  0999 V2000
    2.4610   -5.3070   29.1240 C   0  0  0  0  0  0  0  0  0  0  0  0
    4.7710   -4.6952   28.4803 C   0  0  0  0  0  0  0  0  0  0  0  0
    3.4047   -5.1087   28.1314 C   0  0  0  0  0  0  0  0  0  0  0  0
   -0.2234  -11.8615   16.8874 C   0  0  0  0  0  0  0  0  0  0  0  0
    6.4491   -4.1532   30.1213 C   0  0  0  0  0  0  0  0  0  0  0  0
    5.7060   -4.4340   27.4975 C   0  0  0  0  0  0  0  0  0  0  0  0
    1.1818   -5.6612   28.8399 C   0  0  0  0  0  0  0  0  0  0  0  0
   -1.2067   -7.3287   17.7772 C   0  0  0  0  0  0  0  0  0  0  0  0
   -0.0206  -10.5585   16.6210 C   0  0  0  0  0  0  0  0  0  0  0  0
    0.3696  -12.7626   16.2169 O   0  0  0  0  0  0  0  0  0  0  0  0
   -0.6895   -9.5676   17.3297 C   0  0  0  0  0  0  0  0  0  0  0  0
    0.8388   -5.8417   27.5264 C   0  0  0  0  0  0  0  0  0  0  0  0
   -2.0709   -7.6637   18.7817 C   0  0  0  0  0  0  0  0  0  0  0  0
   -0.5279   -8.2168   17.0717 C   0  0  0  0  0  0  0  0  0  0  0  0
    6.9694   -4.0191   27.8190 C   0  0  0  0  0  0  0  0  0  0  0  0
    5.1733   -4.5469   29.8123 C   0  0  0  0  0  0  0  0  0  0  0  0
   -1.7508  -11.3016   18.6072 C   0  0  0  0  0  0  0  0  0  0  0  0
    1.7497   -5.6771   26.4971 C   0  0  0  0  0  0  0  0  0  0  0  0
   -1.5799   -9.9322   18.3468 C   0  0  0  0  0  0  0  0  0  0  0  0
   -1.0871  -12.2214   17.8851 C   0  0  0  0  0  0  0  0  0  0  0  0
   -2.2706   -8.9669   19.0691 C   0  0  0  0  0  0  0  0  0  0  0  0
    3.0279   -5.3073   26.8197 C   0  0  0  0  0  0  0  0  0  0  0  0
    7.3282   -3.8948   29.1186 C   0  0  0  0  0  0  0  0  0  0  0  0
  1  3  4  0
  1  7  4  0
  2  3  1  0
  2  6  4  0
  2 16  4  0
  3 22  4  0
  4  9  4  0
  4 10  1  0
  4 20  4  0
  5 16  4  0
  5 23  4  0
  6 15  4  0
  7 12  4  0
  8 13  4  0
  8 14  4  0
  9 11  4  0
 11 14  4  0
 11 19  4  0
 12 18  4  0
 13 21  4  0
 15 23  4  0
 17 19  4  0
 17 20  4  0
 18 22  4  0
 19 21  4  0
M  END
$$$$

 Created by Python create_sdf_string function

 23 25  0  0  0  0  0  0  0  0999 V2000
    2.4610   -5.3070   29.1240 C   0  0  0  0  0  0  0  0  0  0  0  0
    4.7710   -4.6952   28.4803 C   0  0  0  0  0  0  0  0  0  0  0  0
    3.4047   -5.1087   28.1314 C   0  0  0  0  0  0  0  0  0  0  0  0
   -0.2234  -11.8615   16.8874 C   0  0  0  0  0  0  0  0  0  0  0  0
    6.4491   -4.1532   30.1213 C   0  0  0  0  0  0  0  0  0  0  0  0
    5.7060   -4.4340   27.4975 C   0  0  0  0  0  0  0  0  0  0  0  0
    1.1818   -5.6612   28.8399 C   0  0  0  0  0  0  0  0  0  0  0  0
   -1.2067   -7.3287   17.7772 C   0  0  0  0  0  0  0  0  0  0  0  0
   -0.0206  -10.5585   16.6210 C   0  0  0  0  0  0  0  0  0  0  0  0
    0.3696  -12.7626   16.2169 O   0  0  0  0  0  0  0  0  0  0  0  0
   -0.6895   -9.5676   17.3297 C   0  0  0  0  0  0  0  0  0  0  0  0
    0.8388   -5.8417   27.5264 C   0  0  0  0  0  0  0  0  0  0  0  0
   -2.0709   -7.6637   18.7817 C   0  0  0  0  0  0  0  0  0  0  0  0
   -0.5279   -8.2168   17.0717 C   0  0  0  0  0  0  0  0  0  0  0  0
    6.9694   -4.0191   27.8190 C   0  0  0  0  0  0  0  0  0  0  0  0
    5.1733   -4.5469   29.8123 C   0  0  0  0  0  0  0  0  0  0  0  0
   -1.7508  -11.3016   18.6072 C   0  0  0  0  0  0  0  0  0  0  0  0
    1.7497   -5.6771   26.4971 C   0  0  0  0  0  0  0  0  0  0  0  0
   -1.5799   -9.9322   18.3468 C   0  0  0  0  0  0  0  0  0  0  0  0
   -1.0871  -12.2214   17.8851 C   0  0  0  0  0  0  0  0  0  0  0  0
   -2.2706   -8.9669   19.0691 C   0  0  0  0  0  0  0  0  0  0  0  0
    3.0279   -5.3073   26.8197 C   0  0  0  0  0  0  0  0  0  0  0  0
    7.3282   -3.8948   29.1186 C   0  0  0  0  0  0  0  0  0  0  0  0
  1  3  4  0
  1  7  4  0
  2  3  1  0
  2  6  4  0
  2 16  4  0
  3 22  4  0
  4  9  4  0
  4 10  1  0
  4 20  4  0
  5 16  4  0
  5 23  4  0
  6 15  4  0
  7 12  4  0
  8 13  4  0
  8 14  4  0
  9 11  4  0
 11 14  4  0
 11 19  4  0
 12 18  4  0
 13 21  4  0
 15 23  4  0
 17 19  4  0
 17 20  4  0
 18 22  4  0
 19 21  4  0
M  END
$$$$

 Created by Python create_sdf_string function

 23 25  0  0  0  0  0  0  0  0999 V2000
    2.4610   -5.3070   29.1240 C   0  0  0  0  0  0  0  0  0  0  0  0
    4.7710   -4.6952   28.4803 C   0  0  0  0  0  0  0  0  0  0  0  0
    3.4047   -5.1087   28.1314 C   0  0  0  0  0  0  0  0  0  0  0  0
   -0.2234  -11.8615   16.8874 C   0  0  0  0  0  0  0  0  0  0  0  0
    6.4491   -4.1532   30.1213 C   0  0  0  0  0  0  0  0  0  0  0  0
    5.7060   -4.4340   27.4975 C   0  0  0  0  0  0  0  0  0  0  0  0
    1.1818   -5.6612   28.8399 C   0  0  0  0  0  0  0  0  0  0  0  0
   -1.2067   -7.3287   17.7772 C   0  0  0  0  0  0  0  0  0  0  0  0
   -0.0206  -10.5585   16.6210 C   0  0  0  0  0  0  0  0  0  0  0  0
    0.3696  -12.7626   16.2169 O   0  0  0  0  0  0  0  0  0  0  0  0
   -0.6895   -9.5676   17.3297 C   0  0  0  0  0  0  0  0  0  0  0  0
    0.8388   -5.8417   27.5264 C   0  0  0  0  0  0  0  0  0  0  0  0
   -2.0709   -7.6637   18.7817 C   0  0  0  0  0  0  0  0  0  0  0  0
   -0.5279   -8.2168   17.0717 C   0  0  0  0  0  0  0  0  0  0  0  0
    6.9694   -4.0191   27.8190 C   0  0  0  0  0  0  0  0  0  0  0  0
    5.1733   -4.5469   29.8123 C   0  0  0  0  0  0  0  0  0  0  0  0
   -1.7508  -11.3016   18.6072 C   0  0  0  0  0  0  0  0  0  0  0  0
    1.7497   -5.6771   26.4971 C   0  0  0  0  0  0  0  0  0  0  0  0
   -1.5799   -9.9322   18.3468 C   0  0  0  0  0  0  0  0  0  0  0  0
   -1.0871  -12.2214   17.8851 C   0  0  0  0  0  0  0  0  0  0  0  0
   -2.2706   -8.9669   19.0691 C   0  0  0  0  0  0  0  0  0  0  0  0
    3.0279   -5.3073   26.8197 C   0  0  0  0  0  0  0  0  0  0  0  0
    7.3282   -3.8948   29.1186 C   0  0  0  0  0  0  0  0  0  0  0  0
  1  3  4  0
  1  7  4  0
  2  3  1  0
  2  6  4  0
  2 16  4  0
  3 22  4  0
  4  9  4  0
  4 10  1  0
  4 20  4  0
  5 16  4  0
  5 23  4  0
  6 15  4  0
  7 12  4  0
  8 13  4  0
  8 14  4  0
  9 11  4  0
 11 14  4  0
 11 19  4  0
 12 18  4  0
 13 21  4  0
 15 23  4  0
 17 19  4  0
 17 20  4  0
 18 22  4  0
 19 21  4  0
M  END
$$$$

 Created by Python create_sdf_string function

 23 25  0  0  0  0  0  0  0  0999 V2000
    2.4610   -5.3070   29.1240 C   0  0  0  0  0  0  0  0  0  0  0  0
    4.7710   -4.6952   28.4803 C   0  0  0  0  0  0  0  0  0  0  0  0
    3.4047   -5.1087   28.1314 C   0  0  0  0  0  0  0  0  0  0  0  0
   -0.2234  -11.8615   16.8874 C   0  0  0  0  0  0  0  0  0  0  0  0
    6.4491   -4.1532   30.1213 C   0  0  0  0  0  0  0  0  0  0  0  0
    5.7060   -4.4340   27.4975 C   0  0  0  0  0  0  0  0  0  0  0  0
    1.1818   -5.6612   28.8399 C   0  0  0  0  0  0  0  0  0  0  0  0
   -1.2067   -7.3287   17.7772 C   0  0  0  0  0  0  0  0  0  0  0  0
   -0.0206  -10.5585   16.6210 C   0  0  0  0  0  0  0  0  0  0  0  0
    0.3696  -12.7626   16.2169 O   0  0  0  0  0  0  0  0  0  0  0  0
   -0.6895   -9.5676   17.3297 C   0  0  0  0  0  0  0  0  0  0  0  0
    0.8388   -5.8417   27.5264 C   0  0  0  0  0  0  0  0  0  0  0  0
   -2.0709   -7.6637   18.7817 C   0  0  0  0  0  0  0  0  0  0  0  0
   -0.5279   -8.2168   17.0717 C   0  0  0  0  0  0  0  0  0  0  0  0
    6.9694   -4.0191   27.8190 C   0  0  0  0  0  0  0  0  0  0  0  0
    5.1733   -4.5469   29.8123 C   0  0  0  0  0  0  0  0  0  0  0  0
   -1.7508  -11.3016   18.6072 C   0  0  0  0  0  0  0  0  0  0  0  0
    1.7497   -5.6771   26.4971 C   0  0  0  0  0  0  0  0  0  0  0  0
   -1.5799   -9.9322   18.3468 C   0  0  0  0  0  0  0  0  0  0  0  0
   -1.0871  -12.2214   17.8851 C   0  0  0  0  0  0  0  0  0  0  0  0
   -2.2706   -8.9669   19.0691 C   0  0  0  0  0  0  0  0  0  0  0  0
    3.0279   -5.3073   26.8197 C   0  0  0  0  0  0  0  0  0  0  0  0
    7.3282   -3.8948   29.1186 C   0  0  0  0  0  0  0  0  0  0  0  0
  1  3  4  0
  1  7  4  0
  2  3  1  0
  2  6  4  0
  2 16  4  0
  3 22  4  0
  4  9  4  0
  4 10  1  0
  4 20  4  0
  5 16  4  0
  5 23  4  0
  6 15  4  0
  7 12  4  0
  8 13  4  0
  8 14  4  0
  9 11  4  0
 11 14  4  0
 11 19  4  0
 12 18  4  0
 13 21  4  0
 15 23  4  0
 17 19  4  0
 17 20  4  0
 18 22  4  0
 19 21  4  0
M  END
$$$$

 Created by Python create_sdf_string function

 23 25  0  0  0  0  0  0  0  0999 V2000
    2.4610   -5.3070   29.1240 C   0  0  0  0  0  0  0  0  0  0  0  0
    4.7710   -4.6952   28.4803 C   0  0  0  0  0  0  0  0  0  0  0  0
    3.4047   -5.1087   28.1314 C   0  0  0  0  0  0  0  0  0  0  0  0
   -0.2234  -11.8615   16.8874 C   0  0  0  0  0  0  0  0  0  0  0  0
    6.4491   -4.1532   30.1213 C   0  0  0  0  0  0  0  0  0  0  0  0
    5.7060   -4.4340   27.4975 C   0  0  0  0  0  0  0  0  0  0  0  0
    1.1818   -5.6612   28.8399 C   0  0  0  0  0  0  0  0  0  0  0  0
   -1.2067   -7.3287   17.7772 C   0  0  0  0  0  0  0  0  0  0  0  0
   -0.0206  -10.5585   16.6210 C   0  0  0  0  0  0  0  0  0  0  0  0
    0.3696  -12.7626   16.2169 O   0  0  0  0  0  0  0  0  0  0  0  0
   -0.6895   -9.5676   17.3297 C   0  0  0  0  0  0  0  0  0  0  0  0
    0.8388   -5.8417   27.5264 C   0  0  0  0  0  0  0  0  0  0  0  0
   -2.0709   -7.6637   18.7817 C   0  0  0  0  0  0  0  0  0  0  0  0
   -0.5279   -8.2168   17.0717 C   0  0  0  0  0  0  0  0  0  0  0  0
    6.9694   -4.0191   27.8190 C   0  0  0  0  0  0  0  0  0  0  0  0
    5.1733   -4.5469   29.8123 C   0  0  0  0  0  0  0  0  0  0  0  0
   -1.7508  -11.3016   18.6072 C   0  0  0  0  0  0  0  0  0  0  0  0
    1.7497   -5.6771   26.4971 C   0  0  0  0  0  0  0  0  0  0  0  0
   -1.5799   -9.9322   18.3468 C   0  0  0  0  0  0  0  0  0  0  0  0
   -1.0871  -12.2214   17.8851 C   0  0  0  0  0  0  0  0  0  0  0  0
   -2.2706   -8.9669   19.0691 C   0  0  0  0  0  0  0  0  0  0  0  0
    3.0279   -5.3073   26.8197 C   0  0  0  0  0  0  0  0  0  0  0  0
    7.3282   -3.8948   29.1186 C   0  0  0  0  0  0  0  0  0  0  0  0
  1  3  4  0
  1  7  4  0
  2  3  1  0
  2  6  4  0
  2 16  4  0
  3 22  4  0
  4  9  4  0
  4 10  1  0
  4 20  4  0
  5 16  4  0
  5 23  4  0
  6 15  4  0
  7 12  4  0
  8 13  4  0
  8 14  4  0
  9 11  4  0
 11 14  4  0
 11 19  4  0
 12 18  4  0
 13 21  4  0
 15 23  4  0
 17 19  4  0
 17 20  4  0
 18 22  4  0
 19 21  4  0
M  END
$$$$

 Created by Python create_sdf_string function

 23 25  0  0  0  0  0  0  0  0999 V2000
    2.4610   -5.3070   29.1240 C   0  0  0  0  0  0  0  0  0  0  0  0
    4.7710   -4.6952   28.4803 C   0  0  0  0  0  0  0  0  0  0  0  0
    3.4047   -5.1087   28.1314 C   0  0  0  0  0  0  0  0  0  0  0  0
   -0.2234  -11.8615   16.8874 C   0  0  0  0  0  0  0  0  0  0  0  0
    6.4491   -4.1532   30.1213 C   0  0  0  0  0  0  0  0  0  0  0  0
    5.7060   -4.4340   27.4975 C   0  0  0  0  0  0  0  0  0  0  0  0
    1.1818   -5.6612   28.8399 C   0  0  0  0  0  0  0  0  0  0  0  0
   -1.2067   -7.3287   17.7772 C   0  0  0  0  0  0  0  0  0  0  0  0
   -0.0206  -10.5585   16.6210 C   0  0  0  0  0  0  0  0  0  0  0  0
    0.3696  -12.7626   16.2169 O   0  0  0  0  0  0  0  0  0  0  0  0
   -0.6895   -9.5676   17.3297 C   0  0  0  0  0  0  0  0  0  0  0  0
    0.8388   -5.8417   27.5264 C   0  0  0  0  0  0  0  0  0  0  0  0
   -2.0709   -7.6637   18.7817 C   0  0  0  0  0  0  0  0  0  0  0  0
   -0.5279   -8.2168   17.0717 C   0  0  0  0  0  0  0  0  0  0  0  0
    6.9694   -4.0191   27.8190 C   0  0  0  0  0  0  0  0  0  0  0  0
    5.1733   -4.5469   29.8123 C   0  0  0  0  0  0  0  0  0  0  0  0
   -1.7508  -11.3016   18.6072 C   0  0  0  0  0  0  0  0  0  0  0  0
    1.7497   -5.6771   26.4971 C   0  0  0  0  0  0  0  0  0  0  0  0
   -1.5799   -9.9322   18.3468 C   0  0  0  0  0  0  0  0  0  0  0  0
   -1.0871  -12.2214   17.8851 C   0  0  0  0  0  0  0  0  0  0  0  0
   -2.2706   -8.9669   19.0691 C   0  0  0  0  0  0  0  0  0  0  0  0
    3.0279   -5.3073   26.8197 C   0  0  0  0  0  0  0  0  0  0  0  0
    7.3282   -3.8948   29.1186 C   0  0  0  0  0  0  0  0  0  0  0  0
  1  3  4  0
  1  7  4  0
  2  3  1  0
  2  6  4  0
  2 16  4  0
  3 22  4  0
  4  9  4  0
  4 10  1  0
  4 20  4  0
  5 16  4  0
  5 23  4  0
  6 15  4  0
  7 12  4  0
  8 13  4  0
  8 14  4  0
  9 11  4  0
 11 14  4  0
 11 19  4  0
 12 18  4  0
 13 21  4  0
 15 23  4  0
 17 19  4  0
 17 20  4  0
 18 22  4  0
 19 21  4  0
M  END
$$$$

 Created by Python create_sdf_string function

 23 25  0  0  0  0  0  0  0  0999 V2000
    2.4610   -5.3070   29.1240 C   0  0  0  0  0  0  0  0  0  0  0  0
    4.7710   -4.6952   28.4803 C   0  0  0  0  0  0  0  0  0  0  0  0
    3.4047   -5.1087   28.1314 C   0  0  0  0  0  0  0  0  0  0  0  0
   -0.2234  -11.8615   16.8874 C   0  0  0  0  0  0  0  0  0  0  0  0
    6.4491   -4.1532   30.1213 C   0  0  0  0  0  0  0  0  0  0  0  0
    5.7060   -4.4340   27.4975 C   0  0  0  0  0  0  0  0  0  0  0  0
    1.1818   -5.6612   28.8399 C   0  0  0  0  0  0  0  0  0  0  0  0
   -1.2067   -7.3287   17.7772 C   0  0  0  0  0  0  0  0  0  0  0  0
   -0.0206  -10.5585   16.6210 C   0  0  0  0  0  0  0  0  0  0  0  0
    0.3696  -12.7626   16.2169 O   0  0  0  0  0  0  0  0  0  0  0  0
   -0.6895   -9.5676   17.3297 C   0  0  0  0  0  0  0  0  0  0  0  0
    0.8388   -5.8417   27.5264 C   0  0  0  0  0  0  0  0  0  0  0  0
   -2.0709   -7.6637   18.7817 C   0  0  0  0  0  0  0  0  0  0  0  0
   -0.5279   -8.2168   17.0717 C   0  0  0  0  0  0  0  0  0  0  0  0
    6.9694   -4.0191   27.8190 C   0  0  0  0  0  0  0  0  0  0  0  0
    5.1733   -4.5469   29.8123 C   0  0  0  0  0  0  0  0  0  0  0  0
   -1.7508  -11.3016   18.6072 C   0  0  0  0  0  0  0  0  0  0  0  0
    1.7497   -5.6771   26.4971 C   0  0  0  0  0  0  0  0  0  0  0  0
   -1.5799   -9.9322   18.3468 C   0  0  0  0  0  0  0  0  0  0  0  0
   -1.0871  -12.2214   17.8851 C   0  0  0  0  0  0  0  0  0  0  0  0
   -2.2706   -8.9669   19.0691 C   0  0  0  0  0  0  0  0  0  0  0  0
    3.0279   -5.3073   26.8197 C   0  0  0  0  0  0  0  0  0  0  0  0
    7.3282   -3.8948   29.1186 C   0  0  0  0  0  0  0  0  0  0  0  0
  1  3  4  0
  1  7  4  0
  2  3  1  0
  2  6  4  0
  2 16  4  0
  3 22  4  0
  4  9  4  0
  4 10  1  0
  4 20  4  0
  5 16  4  0
  5 23  4  0
  6 15  4  0
  7 12  4  0
  8 13  4  0
  8 14  4  0
  9 11  4  0
 11 14  4  0
 11 19  4  0
 12 18  4  0
 13 21  4  0
 15 23  4  0
 17 19  4  0
 17 20  4  0
 18 22  4  0
 19 21  4  0
M  END
$$$$

 Created by Python create_sdf_string function

 23 25  0  0  0  0  0  0  0  0999 V2000
    2.4610   -5.3070   29.1240 C   0  0  0  0  0  0  0  0  0  0  0  0
    4.7710   -4.6952   28.4803 C   0  0  0  0  0  0  0  0  0  0  0  0
    3.4047   -5.1087   28.1314 C   0  0  0  0  0  0  0  0  0  0  0  0
   -0.2234  -11.8615   16.8874 C   0  0  0  0  0  0  0  0  0  0  0  0
    6.4491   -4.1532   30.1213 C   0  0  0  0  0  0  0  0  0  0  0  0
    5.7060   -4.4340   27.4975 C   0  0  0  0  0  0  0  0  0  0  0  0
    1.1818   -5.6612   28.8399 C   0  0  0  0  0  0  0  0  0  0  0  0
   -1.2067   -7.3287   17.7772 C   0  0  0  0  0  0  0  0  0  0  0  0
   -0.0206  -10.5585   16.6210 C   0  0  0  0  0  0  0  0  0  0  0  0
    0.3696  -12.7626   16.2169 O   0  0  0  0  0  0  0  0  0  0  0  0
   -0.6895   -9.5676   17.3297 C   0  0  0  0  0  0  0  0  0  0  0  0
    0.8388   -5.8417   27.5264 C   0  0  0  0  0  0  0  0  0  0  0  0
   -2.0709   -7.6637   18.7817 C   0  0  0  0  0  0  0  0  0  0  0  0
   -0.5279   -8.2168   17.0717 C   0  0  0  0  0  0  0  0  0  0  0  0
    6.9694   -4.0191   27.8190 C   0  0  0  0  0  0  0  0  0  0  0  0
    5.1733   -4.5469   29.8123 C   0  0  0  0  0  0  0  0  0  0  0  0
   -1.7508  -11.3016   18.6072 C   0  0  0  0  0  0  0  0  0  0  0  0
    1.7497   -5.6771   26.4971 C   0  0  0  0  0  0  0  0  0  0  0  0
   -1.5799   -9.9322   18.3468 C   0  0  0  0  0  0  0  0  0  0  0  0
   -1.0871  -12.2214   17.8851 C   0  0  0  0  0  0  0  0  0  0  0  0
   -2.2706   -8.9669   19.0691 C   0  0  0  0  0  0  0  0  0  0  0  0
    3.0279   -5.3073   26.8197 C   0  0  0  0  0  0  0  0  0  0  0  0
    7.3282   -3.8948   29.1186 C   0  0  0  0  0  0  0  0  0  0  0  0
  1  3  4  0
  1  7  4  0
  2  3  1  0
  2  6  4  0
  2 16  4  0
  3 22  4  0
  4  9  4  0
  4 10  1  0
  4 20  4  0
  5 16  4  0
  5 23  4  0
  6 15  4  0
  7 12  4  0
  8 13  4  0
  8 14  4  0
  9 11  4  0
 11 14  4  0
 11 19  4  0
 12 18  4  0
 13 21  4  0
 15 23  4  0
 17 19  4  0
 17 20  4  0
 18 22  4  0
 19 21  4  0
M  END
$$$$

 Created by Python create_sdf_string function

 23 25  0  0  0  0  0  0  0  0999 V2000
    2.4610   -5.3070   29.1240 C   0  0  0  0  0  0  0  0  0  0  0  0
    4.7710   -4.6952   28.4803 C   0  0  0  0  0  0  0  0  0  0  0  0
    3.4047   -5.1087   28.1314 C   0  0  0  0  0  0  0  0  0  0  0  0
   -0.2234  -11.8615   16.8874 C   0  0  0  0  0  0  0  0  0  0  0  0
    6.4491   -4.1532   30.1213 C   0  0  0  0  0  0  0  0  0  0  0  0
    5.7060   -4.4340   27.4975 C   0  0  0  0  0  0  0  0  0  0  0  0
    1.1818   -5.6612   28.8399 C   0  0  0  0  0  0  0  0  0  0  0  0
   -1.2067   -7.3287   17.7772 C   0  0  0  0  0  0  0  0  0  0  0  0
   -0.0206  -10.5585   16.6210 C   0  0  0  0  0  0  0  0  0  0  0  0
    0.3696  -12.7626   16.2169 O   0  0  0  0  0  0  0  0  0  0  0  0
   -0.6895   -9.5676   17.3297 C   0  0  0  0  0  0  0  0  0  0  0  0
    0.8388   -5.8417   27.5264 C   0  0  0  0  0  0  0  0  0  0  0  0
   -2.0709   -7.6637   18.7817 C   0  0  0  0  0  0  0  0  0  0  0  0
   -0.5279   -8.2168   17.0717 C   0  0  0  0  0  0  0  0  0  0  0  0
    6.9694   -4.0191   27.8190 C   0  0  0  0  0  0  0  0  0  0  0  0
    5.1733   -4.5469   29.8123 C   0  0  0  0  0  0  0  0  0  0  0  0
   -1.7508  -11.3016   18.6072 C   0  0  0  0  0  0  0  0  0  0  0  0
    1.7497   -5.6771   26.4971 C   0  0  0  0  0  0  0  0  0  0  0  0
   -1.5799   -9.9322   18.3468 C   0  0  0  0  0  0  0  0  0  0  0  0
   -1.0871  -12.2214   17.8851 C   0  0  0  0  0  0  0  0  0  0  0  0
   -2.2706   -8.9669   19.0691 C   0  0  0  0  0  0  0  0  0  0  0  0
    3.0279   -5.3073   26.8197 C   0  0  0  0  0  0  0  0  0  0  0  0
    7.3282   -3.8948   29.1186 C   0  0  0  0  0  0  0  0  0  0  0  0
  1  3  4  0
  1  7  4  0
  2  3  1  0
  2  6  4  0
  2 16  4  0
  3 22  4  0
  4  9  4  0
  4 10  1  0
  4 20  4  0
  5 16  4  0
  5 23  4  0
  6 15  4  0
  7 12  4  0
  8 13  4  0
  8 14  4  0
  9 11  4  0
 11 14  4  0
 11 19  4  0
 12 18  4  0
 13 21  4  0
 15 23  4  0
 17 19  4  0
 17 20  4  0
 18 22  4  0
 19 21  4  0
M  END
$$$$

 Created by Python create_sdf_string function

 23 25  0  0  0  0  0  0  0  0999 V2000
    2.4610   -5.3070   29.1240 C   0  0  0  0  0  0  0  0  0  0  0  0
    4.7710   -4.6952   28.4803 C   0  0  0  0  0  0  0  0  0  0  0  0
    3.4047   -5.1087   28.1314 C   0  0  0  0  0  0  0  0  0  0  0  0
   -0.2234  -11.8615   16.8874 C   0  0  0  0  0  0  0  0  0  0  0  0
    6.4491   -4.1532   30.1213 C   0  0  0  0  0  0  0  0  0  0  0  0
    5.7060   -4.4340   27.4975 C   0  0  0  0  0  0  0  0  0  0  0  0
    1.1818   -5.6612   28.8399 C   0  0  0  0  0  0  0  0  0  0  0  0
   -1.2067   -7.3287   17.7772 C   0  0  0  0  0  0  0  0  0  0  0  0
   -0.0206  -10.5585   16.6210 C   0  0  0  0  0  0  0  0  0  0  0  0
    0.3696  -12.7626   16.2169 O   0  0  0  0  0  0  0  0  0  0  0  0
   -0.6895   -9.5676   17.3297 C   0  0  0  0  0  0  0  0  0  0  0  0
    0.8388   -5.8417   27.5264 C   0  0  0  0  0  0  0  0  0  0  0  0
   -2.0709   -7.6637   18.7817 C   0  0  0  0  0  0  0  0  0  0  0  0
   -0.5279   -8.2168   17.0717 C   0  0  0  0  0  0  0  0  0  0  0  0
    6.9694   -4.0191   27.8190 C   0  0  0  0  0  0  0  0  0  0  0  0
    5.1733   -4.5469   29.8123 C   0  0  0  0  0  0  0  0  0  0  0  0
   -1.7508  -11.3016   18.6072 C   0  0  0  0  0  0  0  0  0  0  0  0
    1.7497   -5.6771   26.4971 C   0  0  0  0  0  0  0  0  0  0  0  0
   -1.5799   -9.9322   18.3468 C   0  0  0  0  0  0  0  0  0  0  0  0
   -1.0871  -12.2214   17.8851 C   0  0  0  0  0  0  0  0  0  0  0  0
   -2.2706   -8.9669   19.0691 C   0  0  0  0  0  0  0  0  0  0  0  0
    3.0279   -5.3073   26.8197 C   0  0  0  0  0  0  0  0  0  0  0  0
    7.3282   -3.8948   29.1186 C   0  0  0  0  0  0  0  0  0  0  0  0
  1  3  4  0
  1  7  4  0
  2  3  1  0
  2  6  4  0
  2 16  4  0
  3 22  4  0
  4  9  4  0
  4 10  1  0
  4 20  4  0
  5 16  4  0
  5 23  4  0
  6 15  4  0
  7 12  4  0
  8 13  4  0
  8 14  4  0
  9 11  4  0
 11 14  4  0
 11 19  4  0
 12 18  4  0
 13 21  4  0
 15 23  4  0
 17 19  4  0
 17 20  4  0
 18 22  4  0
 19 21  4  0
M  END
$$$$

 Created by Python create_sdf_string function

 23 25  0  0  0  0  0  0  0  0999 V2000
    2.4610   -5.3070   29.1240 C   0  0  0  0  0  0  0  0  0  0  0  0
    4.7710   -4.6952   28.4803 C   0  0  0  0  0  0  0  0  0  0  0  0
    3.4047   -5.1087   28.1314 C   0  0  0  0  0  0  0  0  0  0  0  0
   -0.2234  -11.8615   16.8874 C   0  0  0  0  0  0  0  0  0  0  0  0
    6.4491   -4.1532   30.1213 C   0  0  0  0  0  0  0  0  0  0  0  0
    5.7060   -4.4340   27.4975 C   0  0  0  0  0  0  0  0  0  0  0  0
    1.1818   -5.6612   28.8399 C   0  0  0  0  0  0  0  0  0  0  0  0
   -1.2067   -7.3287   17.7772 C   0  0  0  0  0  0  0  0  0  0  0  0
   -0.0206  -10.5585   16.6210 C   0  0  0  0  0  0  0  0  0  0  0  0
    0.3696  -12.7626   16.2169 O   0  0  0  0  0  0  0  0  0  0  0  0
   -0.6895   -9.5676   17.3297 C   0  0  0  0  0  0  0  0  0  0  0  0
    0.8388   -5.8417   27.5264 C   0  0  0  0  0  0  0  0  0  0  0  0
   -2.0709   -7.6637   18.7817 C   0  0  0  0  0  0  0  0  0  0  0  0
   -0.5279   -8.2168   17.0717 C   0  0  0  0  0  0  0  0  0  0  0  0
    6.9694   -4.0191   27.8190 C   0  0  0  0  0  0  0  0  0  0  0  0
    5.1733   -4.5469   29.8123 C   0  0  0  0  0  0  0  0  0  0  0  0
   -1.7508  -11.3016   18.6072 C   0  0  0  0  0  0  0  0  0  0  0  0
    1.7497   -5.6771   26.4971 C   0  0  0  0  0  0  0  0  0  0  0  0
   -1.5799   -9.9322   18.3468 C   0  0  0  0  0  0  0  0  0  0  0  0
   -1.0871  -12.2214   17.8851 C   0  0  0  0  0  0  0  0  0  0  0  0
   -2.2706   -8.9669   19.0691 C   0  0  0  0  0  0  0  0  0  0  0  0
    3.0279   -5.3073   26.8197 C   0  0  0  0  0  0  0  0  0  0  0  0
    7.3282   -3.8948   29.1186 C   0  0  0  0  0  0  0  0  0  0  0  0
  1  3  4  0
  1  7  4  0
  2  3  1  0
  2  6  4  0
  2 16  4  0
  3 22  4  0
  4  9  4  0
  4 10  1  0
  4 20  4  0
  5 16  4  0
  5 23  4  0
  6 15  4  0
  7 12  4  0
  8 13  4  0
  8 14  4  0
  9 11  4  0
 11 14  4  0
 11 19  4  0
 12 18  4  0
 13 21  4  0
 15 23  4  0
 17 19  4  0
 17 20  4  0
 18 22  4  0
 19 21  4  0
M  END
$$$$

 Created by Python create_sdf_string function

 23 25  0  0  0  0  0  0  0  0999 V2000
    2.4610   -5.3070   29.1240 C   0  0  0  0  0  0  0  0  0  0  0  0
    4.7710   -4.6952   28.4803 C   0  0  0  0  0  0  0  0  0  0  0  0
    3.4047   -5.1087   28.1314 C   0  0  0  0  0  0  0  0  0  0  0  0
   -0.2234  -11.8615   16.8874 C   0  0  0  0  0  0  0  0  0  0  0  0
    6.4491   -4.1532   30.1213 C   0  0  0  0  0  0  0  0  0  0  0  0
    5.7060   -4.4340   27.4975 C   0  0  0  0  0  0  0  0  0  0  0  0
    1.1818   -5.6612   28.8399 C   0  0  0  0  0  0  0  0  0  0  0  0
   -1.2067   -7.3287   17.7772 C   0  0  0  0  0  0  0  0  0  0  0  0
   -0.0206  -10.5585   16.6210 C   0  0  0  0  0  0  0  0  0  0  0  0
    0.3696  -12.7626   16.2169 O   0  0  0  0  0  0  0  0  0  0  0  0
   -0.6895   -9.5676   17.3297 C   0  0  0  0  0  0  0  0  0  0  0  0
    0.8388   -5.8417   27.5264 C   0  0  0  0  0  0  0  0  0  0  0  0
   -2.0709   -7.6637   18.7817 C   0  0  0  0  0  0  0  0  0  0  0  0
   -0.5279   -8.2168   17.0717 C   0  0  0  0  0  0  0  0  0  0  0  0
    6.9694   -4.0191   27.8190 C   0  0  0  0  0  0  0  0  0  0  0  0
    5.1733   -4.5469   29.8123 C   0  0  0  0  0  0  0  0  0  0  0  0
   -1.7508  -11.3016   18.6072 C   0  0  0  0  0  0  0  0  0  0  0  0
    1.7497   -5.6771   26.4971 C   0  0  0  0  0  0  0  0  0  0  0  0
   -1.5799   -9.9322   18.3468 C   0  0  0  0  0  0  0  0  0  0  0  0
   -1.0871  -12.2214   17.8851 C   0  0  0  0  0  0  0  0  0  0  0  0
   -2.2706   -8.9669   19.0691 C   0  0  0  0  0  0  0  0  0  0  0  0
    3.0279   -5.3073   26.8197 C   0  0  0  0  0  0  0  0  0  0  0  0
    7.3282   -3.8948   29.1186 C   0  0  0  0  0  0  0  0  0  0  0  0
  1  3  4  0
  1  7  4  0
  2  3  1  0
  2  6  4  0
  2 16  4  0
  3 22  4  0
  4  9  4  0
  4 10  1  0
  4 20  4  0
  5 16  4  0
  5 23  4  0
  6 15  4  0
  7 12  4  0
  8 13  4  0
  8 14  4  0
  9 11  4  0
 11 14  4  0
 11 19  4  0
 12 18  4  0
 13 21  4  0
 15 23  4  0
 17 19  4  0
 17 20  4  0
 18 22  4  0
 19 21  4  0
M  END
$$$$

 Created by Python create_sdf_string function

 23 25  0  0  0  0  0  0  0  0999 V2000
    2.4610   -5.3070   29.1240 C   0  0  0  0  0  0  0  0  0  0  0  0
    4.7710   -4.6952   28.4803 C   0  0  0  0  0  0  0  0  0  0  0  0
    3.4047   -5.1087   28.1314 C   0  0  0  0  0  0  0  0  0  0  0  0
   -0.2234  -11.8615   16.8874 C   0  0  0  0  0  0  0  0  0  0  0  0
    6.4491   -4.1532   30.1213 C   0  0  0  0  0  0  0  0  0  0  0  0
    5.7060   -4.4340   27.4975 C   0  0  0  0  0  0  0  0  0  0  0  0
    1.1818   -5.6612   28.8399 C   0  0  0  0  0  0  0  0  0  0  0  0
   -1.2067   -7.3287   17.7772 C   0  0  0  0  0  0  0  0  0  0  0  0
   -0.0206  -10.5585   16.6210 C   0  0  0  0  0  0  0  0  0  0  0  0
    0.3696  -12.7626   16.2169 O   0  0  0  0  0  0  0  0  0  0  0  0
   -0.6895   -9.5676   17.3297 C   0  0  0  0  0  0  0  0  0  0  0  0
    0.8388   -5.8417   27.5264 C   0  0  0  0  0  0  0  0  0  0  0  0
   -2.0709   -7.6637   18.7817 C   0  0  0  0  0  0  0  0  0  0  0  0
   -0.5279   -8.2168   17.0717 C   0  0  0  0  0  0  0  0  0  0  0  0
    6.9694   -4.0191   27.8190 C   0  0  0  0  0  0  0  0  0  0  0  0
    5.1733   -4.5469   29.8123 C   0  0  0  0  0  0  0  0  0  0  0  0
   -1.7508  -11.3016   18.6072 C   0  0  0  0  0  0  0  0  0  0  0  0
    1.7497   -5.6771   26.4971 C   0  0  0  0  0  0  0  0  0  0  0  0
   -1.5799   -9.9322   18.3468 C   0  0  0  0  0  0  0  0  0  0  0  0
   -1.0871  -12.2214   17.8851 C   0  0  0  0  0  0  0  0  0  0  0  0
   -2.2706   -8.9669   19.0691 C   0  0  0  0  0  0  0  0  0  0  0  0
    3.0279   -5.3073   26.8197 C   0  0  0  0  0  0  0  0  0  0  0  0
    7.3282   -3.8948   29.1186 C   0  0  0  0  0  0  0  0  0  0  0  0
  1  3  4  0
  1  7  4  0
  2  3  1  0
  2  6  4  0
  2 16  4  0
  3 22  4  0
  4  9  4  0
  4 10  1  0
  4 20  4  0
  5 16  4  0
  5 23  4  0
  6 15  4  0
  7 12  4  0
  8 13  4  0
  8 14  4  0
  9 11  4  0
 11 14  4  0
 11 19  4  0
 12 18  4  0
 13 21  4  0
 15 23  4  0
 17 19  4  0
 17 20  4  0
 18 22  4  0
 19 21  4  0
M  END
$$$$

 Created by Python create_sdf_string function

 23 25  0  0  0  0  0  0  0  0999 V2000
    2.4610   -5.3070   29.1240 C   0  0  0  0  0  0  0  0  0  0  0  0
    4.7710   -4.6952   28.4803 C   0  0  0  0  0  0  0  0  0  0  0  0
    3.4047   -5.1087   28.1314 C   0  0  0  0  0  0  0  0  0  0  0  0
   -0.2234  -11.8615   16.8874 C   0  0  0  0  0  0  0  0  0  0  0  0
    6.4491   -4.1532   30.1213 C   0  0  0  0  0  0  0  0  0  0  0  0
    5.7060   -4.4340   27.4975 C   0  0  0  0  0  0  0  0  0  0  0  0
    1.1818   -5.6612   28.8399 C   0  0  0  0  0  0  0  0  0  0  0  0
   -1.2067   -7.3287   17.7772 C   0  0  0  0  0  0  0  0  0  0  0  0
   -0.0206  -10.5585   16.6210 C   0  0  0  0  0  0  0  0  0  0  0  0
    0.3696  -12.7626   16.2169 O   0  0  0  0  0  0  0  0  0  0  0  0
   -0.6895   -9.5676   17.3297 C   0  0  0  0  0  0  0  0  0  0  0  0
    0.8388   -5.8417   27.5264 C   0  0  0  0  0  0  0  0  0  0  0  0
   -2.0709   -7.6637   18.7817 C   0  0  0  0  0  0  0  0  0  0  0  0
   -0.5279   -8.2168   17.0717 C   0  0  0  0  0  0  0  0  0  0  0  0
    6.9694   -4.0191   27.8190 C   0  0  0  0  0  0  0  0  0  0  0  0
    5.1733   -4.5469   29.8123 C   0  0  0  0  0  0  0  0  0  0  0  0
   -1.7508  -11.3016   18.6072 C   0  0  0  0  0  0  0  0  0  0  0  0
    1.7497   -5.6771   26.4971 C   0  0  0  0  0  0  0  0  0  0  0  0
   -1.5799   -9.9322   18.3468 C   0  0  0  0  0  0  0  0  0  0  0  0
   -1.0871  -12.2214   17.8851 C   0  0  0  0  0  0  0  0  0  0  0  0
   -2.2706   -8.9669   19.0691 C   0  0  0  0  0  0  0  0  0  0  0  0
    3.0279   -5.3073   26.8197 C   0  0  0  0  0  0  0  0  0  0  0  0
    7.3282   -3.8948   29.1186 C   0  0  0  0  0  0  0  0  0  0  0  0
  1  3  4  0
  1  7  4  0
  2  3  1  0
  2  6  4  0
  2 16  4  0
  3 22  4  0
  4  9  4  0
  4 10  1  0
  4 20  4  0
  5 16  4  0
  5 23  4  0
  6 15  4  0
  7 12  4  0
  8 13  4  0
  8 14  4  0
  9 11  4  0
 11 14  4  0
 11 19  4  0
 12 18  4  0
 13 21  4  0
 15 23  4  0
 17 19  4  0
 17 20  4  0
 18 22  4  0
 19 21  4  0
M  END
$$$$

 Created by Python create_sdf_string function

 23 25  0  0  0  0  0  0  0  0999 V2000
    2.4610   -5.3070   29.1240 C   0  0  0  0  0  0  0  0  0  0  0  0
    4.7710   -4.6952   28.4803 C   0  0  0  0  0  0  0  0  0  0  0  0
    3.4047   -5.1087   28.1314 C   0  0  0  0  0  0  0  0  0  0  0  0
   -0.2234  -11.8615   16.8874 C   0  0  0  0  0  0  0  0  0  0  0  0
    6.4491   -4.1532   30.1213 C   0  0  0  0  0  0  0  0  0  0  0  0
    5.7060   -4.4340   27.4975 C   0  0  0  0  0  0  0  0  0  0  0  0
    1.1818   -5.6612   28.8399 C   0  0  0  0  0  0  0  0  0  0  0  0
   -1.2067   -7.3287   17.7772 C   0  0  0  0  0  0  0  0  0  0  0  0
   -0.0206  -10.5585   16.6210 C   0  0  0  0  0  0  0  0  0  0  0  0
    0.3696  -12.7626   16.2169 O   0  0  0  0  0  0  0  0  0  0  0  0
   -0.6895   -9.5676   17.3297 C   0  0  0  0  0  0  0  0  0  0  0  0
    0.8388   -5.8417   27.5264 C   0  0  0  0  0  0  0  0  0  0  0  0
   -2.0709   -7.6637   18.7817 C   0  0  0  0  0  0  0  0  0  0  0  0
   -0.5279   -8.2168   17.0717 C   0  0  0  0  0  0  0  0  0  0  0  0
    6.9694   -4.0191   27.8190 C   0  0  0  0  0  0  0  0  0  0  0  0
    5.1733   -4.5469   29.8123 C   0  0  0  0  0  0  0  0  0  0  0  0
   -1.7508  -11.3016   18.6072 C   0  0  0  0  0  0  0  0  0  0  0  0
    1.7497   -5.6771   26.4971 C   0  0  0  0  0  0  0  0  0  0  0  0
   -1.5799   -9.9322   18.3468 C   0  0  0  0  0  0  0  0  0  0  0  0
   -1.0871  -12.2214   17.8851 C   0  0  0  0  0  0  0  0  0  0  0  0
   -2.2706   -8.9669   19.0691 C   0  0  0  0  0  0  0  0  0  0  0  0
    3.0279   -5.3073   26.8197 C   0  0  0  0  0  0  0  0  0  0  0  0
    7.3282   -3.8948   29.1186 C   0  0  0  0  0  0  0  0  0  0  0  0
  1  3  4  0
  1  7  4  0
  2  3  1  0
  2  6  4  0
  2 16  4  0
  3 22  4  0
  4  9  4  0
  4 10  1  0
  4 20  4  0
  5 16  4  0
  5 23  4  0
  6 15  4  0
  7 12  4  0
  8 13  4  0
  8 14  4  0
  9 11  4  0
 11 14  4  0
 11 19  4  0
 12 18  4  0
 13 21  4  0
 15 23  4  0
 17 19  4  0
 17 20  4  0
 18 22  4  0
 19 21  4  0
M  END
$$$$

 Created by Python create_sdf_string function

 23 25  0  0  0  0  0  0  0  0999 V2000
    2.4610   -5.3070   29.1240 C   0  0  0  0  0  0  0  0  0  0  0  0
    4.7710   -4.6952   28.4803 C   0  0  0  0  0  0  0  0  0  0  0  0
    3.4047   -5.1087   28.1314 C   0  0  0  0  0  0  0  0  0  0  0  0
   -0.2234  -11.8615   16.8874 C   0  0  0  0  0  0  0  0  0  0  0  0
    6.4491   -4.1532   30.1213 C   0  0  0  0  0  0  0  0  0  0  0  0
    5.7060   -4.4340   27.4975 C   0  0  0  0  0  0  0  0  0  0  0  0
    1.1818   -5.6612   28.8399 C   0  0  0  0  0  0  0  0  0  0  0  0
   -1.2067   -7.3287   17.7772 C   0  0  0  0  0  0  0  0  0  0  0  0
   -0.0206  -10.5585   16.6210 C   0  0  0  0  0  0  0  0  0  0  0  0
    0.3696  -12.7626   16.2169 O   0  0  0  0  0  0  0  0  0  0  0  0
   -0.6895   -9.5676   17.3297 C   0  0  0  0  0  0  0  0  0  0  0  0
    0.8388   -5.8417   27.5264 C   0  0  0  0  0  0  0  0  0  0  0  0
   -2.0709   -7.6637   18.7817 C   0  0  0  0  0  0  0  0  0  0  0  0
   -0.5279   -8.2168   17.0717 C   0  0  0  0  0  0  0  0  0  0  0  0
    6.9694   -4.0191   27.8190 C   0  0  0  0  0  0  0  0  0  0  0  0
    5.1733   -4.5469   29.8123 C   0  0  0  0  0  0  0  0  0  0  0  0
   -1.7508  -11.3016   18.6072 C   0  0  0  0  0  0  0  0  0  0  0  0
    1.7497   -5.6771   26.4971 C   0  0  0  0  0  0  0  0  0  0  0  0
   -1.5799   -9.9322   18.3468 C   0  0  0  0  0  0  0  0  0  0  0  0
   -1.0871  -12.2214   17.8851 C   0  0  0  0  0  0  0  0  0  0  0  0
   -2.2706   -8.9669   19.0691 C   0  0  0  0  0  0  0  0  0  0  0  0
    3.0279   -5.3073   26.8197 C   0  0  0  0  0  0  0  0  0  0  0  0
    7.3282   -3.8948   29.1186 C   0  0  0  0  0  0  0  0  0  0  0  0
  1  3  4  0
  1  7  4  0
  2  3  1  0
  2  6  4  0
  2 16  4  0
  3 22  4  0
  4  9  4  0
  4 10  1  0
  4 20  4  0
  5 16  4  0
  5 23  4  0
  6 15  4  0
  7 12  4  0
  8 13  4  0
  8 14  4  0
  9 11  4  0
 11 14  4  0
 11 19  4  0
 12 18  4  0
 13 21  4  0
 15 23  4  0
 17 19  4  0
 17 20  4  0
 18 22  4  0
 19 21  4  0
M  END
$$$$

 Created by Python create_sdf_string function

 23 25  0  0  0  0  0  0  0  0999 V2000
    2.4610   -5.3070   29.1240 C   0  0  0  0  0  0  0  0  0  0  0  0
    4.7710   -4.6952   28.4803 C   0  0  0  0  0  0  0  0  0  0  0  0
    3.4047   -5.1087   28.1314 C   0  0  0  0  0  0  0  0  0  0  0  0
   -0.2234  -11.8615   16.8874 C   0  0  0  0  0  0  0  0  0  0  0  0
    6.4491   -4.1532   30.1213 C   0  0  0  0  0  0  0  0  0  0  0  0
    5.7060   -4.4340   27.4975 C   0  0  0  0  0  0  0  0  0  0  0  0
    1.1818   -5.6612   28.8399 C   0  0  0  0  0  0  0  0  0  0  0  0
   -1.2067   -7.3287   17.7772 C   0  0  0  0  0  0  0  0  0  0  0  0
   -0.0206  -10.5585   16.6210 C   0  0  0  0  0  0  0  0  0  0  0  0
    0.3696  -12.7626   16.2169 O   0  0  0  0  0  0  0  0  0  0  0  0
   -0.6895   -9.5676   17.3297 C   0  0  0  0  0  0  0  0  0  0  0  0
    0.8388   -5.8417   27.5264 C   0  0  0  0  0  0  0  0  0  0  0  0
   -2.0709   -7.6637   18.7817 C   0  0  0  0  0  0  0  0  0  0  0  0
   -0.5279   -8.2168   17.0717 C   0  0  0  0  0  0  0  0  0  0  0  0
    6.9694   -4.0191   27.8190 C   0  0  0  0  0  0  0  0  0  0  0  0
    5.1733   -4.5469   29.8123 C   0  0  0  0  0  0  0  0  0  0  0  0
   -1.7508  -11.3016   18.6072 C   0  0  0  0  0  0  0  0  0  0  0  0
    1.7497   -5.6771   26.4971 C   0  0  0  0  0  0  0  0  0  0  0  0
   -1.5799   -9.9322   18.3468 C   0  0  0  0  0  0  0  0  0  0  0  0
   -1.0871  -12.2214   17.8851 C   0  0  0  0  0  0  0  0  0  0  0  0
   -2.2706   -8.9669   19.0691 C   0  0  0  0  0  0  0  0  0  0  0  0
    3.0279   -5.3073   26.8197 C   0  0  0  0  0  0  0  0  0  0  0  0
    7.3282   -3.8948   29.1186 C   0  0  0  0  0  0  0  0  0  0  0  0
  1  3  4  0
  1  7  4  0
  2  3  1  0
  2  6  4  0
  2 16  4  0
  3 22  4  0
  4  9  4  0
  4 10  1  0
  4 20  4  0
  5 16  4  0
  5 23  4  0
  6 15  4  0
  7 12  4  0
  8 13  4  0
  8 14  4  0
  9 11  4  0
 11 14  4  0
 11 19  4  0
 12 18  4  0
 13 21  4  0
 15 23  4  0
 17 19  4  0
 17 20  4  0
 18 22  4  0
 19 21  4  0
M  END
$$$$

 Created by Python create_sdf_string function

 23 25  0  0  0  0  0  0  0  0999 V2000
    2.4610   -5.3070   29.1240 C   0  0  0  0  0  0  0  0  0  0  0  0
    4.7710   -4.6952   28.4803 C   0  0  0  0  0  0  0  0  0  0  0  0
    3.4047   -5.1087   28.1314 C   0  0  0  0  0  0  0  0  0  0  0  0
   -0.2234  -11.8615   16.8874 C   0  0  0  0  0  0  0  0  0  0  0  0
    6.4491   -4.1532   30.1213 C   0  0  0  0  0  0  0  0  0  0  0  0
    5.7060   -4.4340   27.4975 C   0  0  0  0  0  0  0  0  0  0  0  0
    1.1818   -5.6612   28.8399 C   0  0  0  0  0  0  0  0  0  0  0  0
   -1.2067   -7.3287   17.7772 C   0  0  0  0  0  0  0  0  0  0  0  0
   -0.0206  -10.5585   16.6210 C   0  0  0  0  0  0  0  0  0  0  0  0
    0.3696  -12.7626   16.2169 O   0  0  0  0  0  0  0  0  0  0  0  0
   -0.6895   -9.5676   17.3297 C   0  0  0  0  0  0  0  0  0  0  0  0
    0.8388   -5.8417   27.5264 C   0  0  0  0  0  0  0  0  0  0  0  0
   -2.0709   -7.6637   18.7817 C   0  0  0  0  0  0  0  0  0  0  0  0
   -0.5279   -8.2168   17.0717 C   0  0  0  0  0  0  0  0  0  0  0  0
    6.9694   -4.0191   27.8190 C   0  0  0  0  0  0  0  0  0  0  0  0
    5.1733   -4.5469   29.8123 C   0  0  0  0  0  0  0  0  0  0  0  0
   -1.7508  -11.3016   18.6072 C   0  0  0  0  0  0  0  0  0  0  0  0
    1.7497   -5.6771   26.4971 C   0  0  0  0  0  0  0  0  0  0  0  0
   -1.5799   -9.9322   18.3468 C   0  0  0  0  0  0  0  0  0  0  0  0
   -1.0871  -12.2214   17.8851 C   0  0  0  0  0  0  0  0  0  0  0  0
   -2.2706   -8.9669   19.0691 C   0  0  0  0  0  0  0  0  0  0  0  0
    3.0279   -5.3073   26.8197 C   0  0  0  0  0  0  0  0  0  0  0  0
    7.3282   -3.8948   29.1186 C   0  0  0  0  0  0  0  0  0  0  0  0
  1  3  4  0
  1  7  4  0
  2  3  1  0
  2  6  4  0
  2 16  4  0
  3 22  4  0
  4  9  4  0
  4 10  1  0
  4 20  4  0
  5 16  4  0
  5 23  4  0
  6 15  4  0
  7 12  4  0
  8 13  4  0
  8 14  4  0
  9 11  4  0
 11 14  4  0
 11 19  4  0
 12 18  4  0
 13 21  4  0
 15 23  4  0
 17 19  4  0
 17 20  4  0
 18 22  4  0
 19 21  4  0
M  END
$$$$

 Created by Python create_sdf_string function

 23 25  0  0  0  0  0  0  0  0999 V2000
    2.4610   -5.3070   29.1240 C   0  0  0  0  0  0  0  0  0  0  0  0
    4.7710   -4.6952   28.4803 C   0  0  0  0  0  0  0  0  0  0  0  0
    3.4047   -5.1087   28.1314 C   0  0  0  0  0  0  0  0  0  0  0  0
   -0.2234  -11.8615   16.8874 C   0  0  0  0  0  0  0  0  0  0  0  0
    6.4491   -4.1532   30.1213 C   0  0  0  0  0  0  0  0  0  0  0  0
    5.7060   -4.4340   27.4975 C   0  0  0  0  0  0  0  0  0  0  0  0
    1.1818   -5.6612   28.8399 C   0  0  0  0  0  0  0  0  0  0  0  0
   -1.2067   -7.3287   17.7772 C   0  0  0  0  0  0  0  0  0  0  0  0
   -0.0206  -10.5585   16.6210 C   0  0  0  0  0  0  0  0  0  0  0  0
    0.3696  -12.7626   16.2169 O   0  0  0  0  0  0  0  0  0  0  0  0
   -0.6895   -9.5676   17.3297 C   0  0  0  0  0  0  0  0  0  0  0  0
    0.8388   -5.8417   27.5264 C   0  0  0  0  0  0  0  0  0  0  0  0
   -2.0709   -7.6637   18.7817 C   0  0  0  0  0  0  0  0  0  0  0  0
   -0.5279   -8.2168   17.0717 C   0  0  0  0  0  0  0  0  0  0  0  0
    6.9694   -4.0191   27.8190 C   0  0  0  0  0  0  0  0  0  0  0  0
    5.1733   -4.5469   29.8123 C   0  0  0  0  0  0  0  0  0  0  0  0
   -1.7508  -11.3016   18.6072 C   0  0  0  0  0  0  0  0  0  0  0  0
    1.7497   -5.6771   26.4971 C   0  0  0  0  0  0  0  0  0  0  0  0
   -1.5799   -9.9322   18.3468 C   0  0  0  0  0  0  0  0  0  0  0  0
   -1.0871  -12.2214   17.8851 C   0  0  0  0  0  0  0  0  0  0  0  0
   -2.2706   -8.9669   19.0691 C   0  0  0  0  0  0  0  0  0  0  0  0
    3.0279   -5.3073   26.8197 C   0  0  0  0  0  0  0  0  0  0  0  0
    7.3282   -3.8948   29.1186 C   0  0  0  0  0  0  0  0  0  0  0  0
  1  3  4  0
  1  7  4  0
  2  3  1  0
  2  6  4  0
  2 16  4  0
  3 22  4  0
  4  9  4  0
  4 10  1  0
  4 20  4  0
  5 16  4  0
  5 23  4  0
  6 15  4  0
  7 12  4  0
  8 13  4  0
  8 14  4  0
  9 11  4  0
 11 14  4  0
 11 19  4  0
 12 18  4  0
 13 21  4  0
 15 23  4  0
 17 19  4  0
 17 20  4  0
 18 22  4  0
 19 21  4  0
M  END
$$$$

 Created by Python create_sdf_string function

 23 25  0  0  0  0  0  0  0  0999 V2000
    2.4610   -5.3070   29.1240 C   0  0  0  0  0  0  0  0  0  0  0  0
    4.7710   -4.6952   28.4803 C   0  0  0  0  0  0  0  0  0  0  0  0
    3.4047   -5.1087   28.1314 C   0  0  0  0  0  0  0  0  0  0  0  0
   -0.2234  -11.8615   16.8874 C   0  0  0  0  0  0  0  0  0  0  0  0
    6.4491   -4.1532   30.1213 C   0  0  0  0  0  0  0  0  0  0  0  0
    5.7060   -4.4340   27.4975 C   0  0  0  0  0  0  0  0  0  0  0  0
    1.1818   -5.6612   28.8399 C   0  0  0  0  0  0  0  0  0  0  0  0
   -1.2067   -7.3287   17.7772 C   0  0  0  0  0  0  0  0  0  0  0  0
   -0.0206  -10.5585   16.6210 C   0  0  0  0  0  0  0  0  0  0  0  0
    0.3696  -12.7626   16.2169 O   0  0  0  0  0  0  0  0  0  0  0  0
   -0.6895   -9.5676   17.3297 C   0  0  0  0  0  0  0  0  0  0  0  0
    0.8388   -5.8417   27.5264 C   0  0  0  0  0  0  0  0  0  0  0  0
   -2.0709   -7.6637   18.7817 C   0  0  0  0  0  0  0  0  0  0  0  0
   -0.5279   -8.2168   17.0717 C   0  0  0  0  0  0  0  0  0  0  0  0
    6.9694   -4.0191   27.8190 C   0  0  0  0  0  0  0  0  0  0  0  0
    5.1733   -4.5469   29.8123 C   0  0  0  0  0  0  0  0  0  0  0  0
   -1.7508  -11.3016   18.6072 C   0  0  0  0  0  0  0  0  0  0  0  0
    1.7497   -5.6771   26.4971 C   0  0  0  0  0  0  0  0  0  0  0  0
   -1.5799   -9.9322   18.3468 C   0  0  0  0  0  0  0  0  0  0  0  0
   -1.0871  -12.2214   17.8851 C   0  0  0  0  0  0  0  0  0  0  0  0
   -2.2706   -8.9669   19.0691 C   0  0  0  0  0  0  0  0  0  0  0  0
    3.0279   -5.3073   26.8197 C   0  0  0  0  0  0  0  0  0  0  0  0
    7.3282   -3.8948   29.1186 C   0  0  0  0  0  0  0  0  0  0  0  0
  1  3  4  0
  1  7  4  0
  2  3  1  0
  2  6  4  0
  2 16  4  0
  3 22  4  0
  4  9  4  0
  4 10  1  0
  4 20  4  0
  5 16  4  0
  5 23  4  0
  6 15  4  0
  7 12  4  0
  8 13  4  0
  8 14  4  0
  9 11  4  0
 11 14  4  0
 11 19  4  0
 12 18  4  0
 13 21  4  0
 15 23  4  0
 17 19  4  0
 17 20  4  0
 18 22  4  0
 19 21  4  0
M  END
$$$$

 Created by Python create_sdf_string function

 23 25  0  0  0  0  0  0  0  0999 V2000
    2.4610   -5.3070   29.1240 C   0  0  0  0  0  0  0  0  0  0  0  0
    4.7710   -4.6952   28.4803 C   0  0  0  0  0  0  0  0  0  0  0  0
    3.4047   -5.1087   28.1314 C   0  0  0  0  0  0  0  0  0  0  0  0
   -0.2234  -11.8615   16.8874 C   0  0  0  0  0  0  0  0  0  0  0  0
    6.4491   -4.1532   30.1213 C   0  0  0  0  0  0  0  0  0  0  0  0
    5.7060   -4.4340   27.4975 C   0  0  0  0  0  0  0  0  0  0  0  0
    1.1818   -5.6612   28.8399 C   0  0  0  0  0  0  0  0  0  0  0  0
   -1.2067   -7.3287   17.7772 C   0  0  0  0  0  0  0  0  0  0  0  0
   -0.0206  -10.5585   16.6210 C   0  0  0  0  0  0  0  0  0  0  0  0
    0.3696  -12.7626   16.2169 O   0  0  0  0  0  0  0  0  0  0  0  0
   -0.6895   -9.5676   17.3297 C   0  0  0  0  0  0  0  0  0  0  0  0
    0.8388   -5.8417   27.5264 C   0  0  0  0  0  0  0  0  0  0  0  0
   -2.0709   -7.6637   18.7817 C   0  0  0  0  0  0  0  0  0  0  0  0
   -0.5279   -8.2168   17.0717 C   0  0  0  0  0  0  0  0  0  0  0  0
    6.9694   -4.0191   27.8190 C   0  0  0  0  0  0  0  0  0  0  0  0
    5.1733   -4.5469   29.8123 C   0  0  0  0  0  0  0  0  0  0  0  0
   -1.7508  -11.3016   18.6072 C   0  0  0  0  0  0  0  0  0  0  0  0
    1.7497   -5.6771   26.4971 C   0  0  0  0  0  0  0  0  0  0  0  0
   -1.5799   -9.9322   18.3468 C   0  0  0  0  0  0  0  0  0  0  0  0
   -1.0871  -12.2214   17.8851 C   0  0  0  0  0  0  0  0  0  0  0  0
   -2.2706   -8.9669   19.0691 C   0  0  0  0  0  0  0  0  0  0  0  0
    3.0279   -5.3073   26.8197 C   0  0  0  0  0  0  0  0  0  0  0  0
    7.3282   -3.8948   29.1186 C   0  0  0  0  0  0  0  0  0  0  0  0
  1  3  4  0
  1  7  4  0
  2  3  1  0
  2  6  4  0
  2 16  4  0
  3 22  4  0
  4  9  4  0
  4 10  1  0
  4 20  4  0
  5 16  4  0
  5 23  4  0
  6 15  4  0
  7 12  4  0
  8 13  4  0
  8 14  4  0
  9 11  4  0
 11 14  4  0
 11 19  4  0
 12 18  4  0
 13 21  4  0
 15 23  4  0
 17 19  4  0
 17 20  4  0
 18 22  4  0
 19 21  4  0
M  END
$$$$

 Created by Python create_sdf_string function

 23 25  0  0  0  0  0  0  0  0999 V2000
    2.4610   -5.3070   29.1240 C   0  0  0  0  0  0  0  0  0  0  0  0
    4.7710   -4.6952   28.4803 C   0  0  0  0  0  0  0  0  0  0  0  0
    3.4047   -5.1087   28.1314 C   0  0  0  0  0  0  0  0  0  0  0  0
   -0.2234  -11.8615   16.8874 C   0  0  0  0  0  0  0  0  0  0  0  0
    6.4491   -4.1532   30.1213 C   0  0  0  0  0  0  0  0  0  0  0  0
    5.7060   -4.4340   27.4975 C   0  0  0  0  0  0  0  0  0  0  0  0
    1.1818   -5.6612   28.8399 C   0  0  0  0  0  0  0  0  0  0  0  0
   -1.2067   -7.3287   17.7772 C   0  0  0  0  0  0  0  0  0  0  0  0
   -0.0206  -10.5585   16.6210 C   0  0  0  0  0  0  0  0  0  0  0  0
    0.3696  -12.7626   16.2169 O   0  0  0  0  0  0  0  0  0  0  0  0
   -0.6895   -9.5676   17.3297 C   0  0  0  0  0  0  0  0  0  0  0  0
    0.8388   -5.8417   27.5264 C   0  0  0  0  0  0  0  0  0  0  0  0
   -2.0709   -7.6637   18.7817 C   0  0  0  0  0  0  0  0  0  0  0  0
   -0.5279   -8.2168   17.0717 C   0  0  0  0  0  0  0  0  0  0  0  0
    6.9694   -4.0191   27.8190 C   0  0  0  0  0  0  0  0  0  0  0  0
    5.1733   -4.5469   29.8123 C   0  0  0  0  0  0  0  0  0  0  0  0
   -1.7508  -11.3016   18.6072 C   0  0  0  0  0  0  0  0  0  0  0  0
    1.7497   -5.6771   26.4971 C   0  0  0  0  0  0  0  0  0  0  0  0
   -1.5799   -9.9322   18.3468 C   0  0  0  0  0  0  0  0  0  0  0  0
   -1.0871  -12.2214   17.8851 C   0  0  0  0  0  0  0  0  0  0  0  0
   -2.2706   -8.9669   19.0691 C   0  0  0  0  0  0  0  0  0  0  0  0
    3.0279   -5.3073   26.8197 C   0  0  0  0  0  0  0  0  0  0  0  0
    7.3282   -3.8948   29.1186 C   0  0  0  0  0  0  0  0  0  0  0  0
  1  3  4  0
  1  7  4  0
  2  3  1  0
  2  6  4  0
  2 16  4  0
  3 22  4  0
  4  9  4  0
  4 10  1  0
  4 20  4  0
  5 16  4  0
  5 23  4  0
  6 15  4  0
  7 12  4  0
  8 13  4  0
  8 14  4  0
  9 11  4  0
 11 14  4  0
 11 19  4  0
 12 18  4  0
 13 21  4  0
 15 23  4  0
 17 19  4  0
 17 20  4  0
 18 22  4  0
 19 21  4  0
M  END
$$$$

 Created by Python create_sdf_string function

 23 25  0  0  0  0  0  0  0  0999 V2000
    2.4610   -5.3070   29.1240 C   0  0  0  0  0  0  0  0  0  0  0  0
    4.7710   -4.6952   28.4803 C   0  0  0  0  0  0  0  0  0  0  0  0
    3.4047   -5.1087   28.1314 C   0  0  0  0  0  0  0  0  0  0  0  0
   -0.2234  -11.8615   16.8874 C   0  0  0  0  0  0  0  0  0  0  0  0
    6.4491   -4.1532   30.1213 C   0  0  0  0  0  0  0  0  0  0  0  0
    5.7060   -4.4340   27.4975 C   0  0  0  0  0  0  0  0  0  0  0  0
    1.1818   -5.6612   28.8399 C   0  0  0  0  0  0  0  0  0  0  0  0
   -1.2067   -7.3287   17.7772 C   0  0  0  0  0  0  0  0  0  0  0  0
   -0.0206  -10.5585   16.6210 C   0  0  0  0  0  0  0  0  0  0  0  0
    0.3696  -12.7626   16.2169 O   0  0  0  0  0  0  0  0  0  0  0  0
   -0.6895   -9.5676   17.3297 C   0  0  0  0  0  0  0  0  0  0  0  0
    0.8388   -5.8417   27.5264 C   0  0  0  0  0  0  0  0  0  0  0  0
   -2.0709   -7.6637   18.7817 C   0  0  0  0  0  0  0  0  0  0  0  0
   -0.5279   -8.2168   17.0717 C   0  0  0  0  0  0  0  0  0  0  0  0
    6.9694   -4.0191   27.8190 C   0  0  0  0  0  0  0  0  0  0  0  0
    5.1733   -4.5469   29.8123 C   0  0  0  0  0  0  0  0  0  0  0  0
   -1.7508  -11.3016   18.6072 C   0  0  0  0  0  0  0  0  0  0  0  0
    1.7497   -5.6771   26.4971 C   0  0  0  0  0  0  0  0  0  0  0  0
   -1.5799   -9.9322   18.3468 C   0  0  0  0  0  0  0  0  0  0  0  0
   -1.0871  -12.2214   17.8851 C   0  0  0  0  0  0  0  0  0  0  0  0
   -2.2706   -8.9669   19.0691 C   0  0  0  0  0  0  0  0  0  0  0  0
    3.0279   -5.3073   26.8197 C   0  0  0  0  0  0  0  0  0  0  0  0
    7.3282   -3.8948   29.1186 C   0  0  0  0  0  0  0  0  0  0  0  0
  1  3  4  0
  1  7  4  0
  2  3  1  0
  2  6  4  0
  2 16  4  0
  3 22  4  0
  4  9  4  0
  4 10  1  0
  4 20  4  0
  5 16  4  0
  5 23  4  0
  6 15  4  0
  7 12  4  0
  8 13  4  0
  8 14  4  0
  9 11  4  0
 11 14  4  0
 11 19  4  0
 12 18  4  0
 13 21  4  0
 15 23  4  0
 17 19  4  0
 17 20  4  0
 18 22  4  0
 19 21  4  0
M  END
$$$$

 Created by Python create_sdf_string function

 23 25  0  0  0  0  0  0  0  0999 V2000
    2.4610   -5.3070   29.1240 C   0  0  0  0  0  0  0  0  0  0  0  0
    4.7710   -4.6952   28.4803 C   0  0  0  0  0  0  0  0  0  0  0  0
    3.4047   -5.1087   28.1314 C   0  0  0  0  0  0  0  0  0  0  0  0
   -0.2234  -11.8615   16.8874 C   0  0  0  0  0  0  0  0  0  0  0  0
    6.4491   -4.1532   30.1213 C   0  0  0  0  0  0  0  0  0  0  0  0
    5.7060   -4.4340   27.4975 C   0  0  0  0  0  0  0  0  0  0  0  0
    1.1818   -5.6612   28.8399 C   0  0  0  0  0  0  0  0  0  0  0  0
   -1.2067   -7.3287   17.7772 C   0  0  0  0  0  0  0  0  0  0  0  0
   -0.0206  -10.5585   16.6210 C   0  0  0  0  0  0  0  0  0  0  0  0
    0.3696  -12.7626   16.2169 O   0  0  0  0  0  0  0  0  0  0  0  0
   -0.6895   -9.5676   17.3297 C   0  0  0  0  0  0  0  0  0  0  0  0
    0.8388   -5.8417   27.5264 C   0  0  0  0  0  0  0  0  0  0  0  0
   -2.0709   -7.6637   18.7817 C   0  0  0  0  0  0  0  0  0  0  0  0
   -0.5279   -8.2168   17.0717 C   0  0  0  0  0  0  0  0  0  0  0  0
    6.9694   -4.0191   27.8190 C   0  0  0  0  0  0  0  0  0  0  0  0
    5.1733   -4.5469   29.8123 C   0  0  0  0  0  0  0  0  0  0  0  0
   -1.7508  -11.3016   18.6072 C   0  0  0  0  0  0  0  0  0  0  0  0
    1.7497   -5.6771   26.4971 C   0  0  0  0  0  0  0  0  0  0  0  0
   -1.5799   -9.9322   18.3468 C   0  0  0  0  0  0  0  0  0  0  0  0
   -1.0871  -12.2214   17.8851 C   0  0  0  0  0  0  0  0  0  0  0  0
   -2.2706   -8.9669   19.0691 C   0  0  0  0  0  0  0  0  0  0  0  0
    3.0279   -5.3073   26.8197 C   0  0  0  0  0  0  0  0  0  0  0  0
    7.3282   -3.8948   29.1186 C   0  0  0  0  0  0  0  0  0  0  0  0
  1  3  4  0
  1  7  4  0
  2  3  1  0
  2  6  4  0
  2 16  4  0
  3 22  4  0
  4  9  4  0
  4 10  1  0
  4 20  4  0
  5 16  4  0
  5 23  4  0
  6 15  4  0
  7 12  4  0
  8 13  4  0
  8 14  4  0
  9 11  4  0
 11 14  4  0
 11 19  4  0
 12 18  4  0
 13 21  4  0
 15 23  4  0
 17 19  4  0
 17 20  4  0
 18 22  4  0
 19 21  4  0
M  END
$$$$

 Created by Python create_sdf_string function

 23 25  0  0  0  0  0  0  0  0999 V2000
    2.4610   -5.3070   29.1240 C   0  0  0  0  0  0  0  0  0  0  0  0
    4.7710   -4.6952   28.4803 C   0  0  0  0  0  0  0  0  0  0  0  0
    3.4047   -5.1087   28.1314 C   0  0  0  0  0  0  0  0  0  0  0  0
   -0.2234  -11.8615   16.8874 C   0  0  0  0  0  0  0  0  0  0  0  0
    6.4491   -4.1532   30.1213 C   0  0  0  0  0  0  0  0  0  0  0  0
    5.7060   -4.4340   27.4975 C   0  0  0  0  0  0  0  0  0  0  0  0
    1.1818   -5.6612   28.8399 C   0  0  0  0  0  0  0  0  0  0  0  0
   -1.2067   -7.3287   17.7772 C   0  0  0  0  0  0  0  0  0  0  0  0
   -0.0206  -10.5585   16.6210 C   0  0  0  0  0  0  0  0  0  0  0  0
    0.3696  -12.7626   16.2169 O   0  0  0  0  0  0  0  0  0  0  0  0
   -0.6895   -9.5676   17.3297 C   0  0  0  0  0  0  0  0  0  0  0  0
    0.8388   -5.8417   27.5264 C   0  0  0  0  0  0  0  0  0  0  0  0
   -2.0709   -7.6637   18.7817 C   0  0  0  0  0  0  0  0  0  0  0  0
   -0.5279   -8.2168   17.0717 C   0  0  0  0  0  0  0  0  0  0  0  0
    6.9694   -4.0191   27.8190 C   0  0  0  0  0  0  0  0  0  0  0  0
    5.1733   -4.5469   29.8123 C   0  0  0  0  0  0  0  0  0  0  0  0
   -1.7508  -11.3016   18.6072 C   0  0  0  0  0  0  0  0  0  0  0  0
    1.7497   -5.6771   26.4971 C   0  0  0  0  0  0  0  0  0  0  0  0
   -1.5799   -9.9322   18.3468 C   0  0  0  0  0  0  0  0  0  0  0  0
   -1.0871  -12.2214   17.8851 C   0  0  0  0  0  0  0  0  0  0  0  0
   -2.2706   -8.9669   19.0691 C   0  0  0  0  0  0  0  0  0  0  0  0
    3.0279   -5.3073   26.8197 C   0  0  0  0  0  0  0  0  0  0  0  0
    7.3282   -3.8948   29.1186 C   0  0  0  0  0  0  0  0  0  0  0  0
  1  3  4  0
  1  7  4  0
  2  3  1  0
  2  6  4  0
  2 16  4  0
  3 22  4  0
  4  9  4  0
  4 10  1  0
  4 20  4  0
  5 16  4  0
  5 23  4  0
  6 15  4  0
  7 12  4  0
  8 13  4  0
  8 14  4  0
  9 11  4  0
 11 14  4  0
 11 19  4  0
 12 18  4  0
 13 21  4  0
 15 23  4  0
 17 19  4  0
 17 20  4  0
 18 22  4  0
 19 21  4  0
M  END
$$$$

 Created by Python create_sdf_string function

 23 25  0  0  0  0  0  0  0  0999 V2000
    2.4610   -5.3070   29.1240 C   0  0  0  0  0  0  0  0  0  0  0  0
    4.7710   -4.6952   28.4803 C   0  0  0  0  0  0  0  0  0  0  0  0
    3.4047   -5.1087   28.1314 C   0  0  0  0  0  0  0  0  0  0  0  0
   -0.2234  -11.8615   16.8874 C   0  0  0  0  0  0  0  0  0  0  0  0
    6.4491   -4.1532   30.1213 C   0  0  0  0  0  0  0  0  0  0  0  0
    5.7060   -4.4340   27.4975 C   0  0  0  0  0  0  0  0  0  0  0  0
    1.1818   -5.6612   28.8399 C   0  0  0  0  0  0  0  0  0  0  0  0
   -1.2067   -7.3287   17.7772 C   0  0  0  0  0  0  0  0  0  0  0  0
   -0.0206  -10.5585   16.6210 C   0  0  0  0  0  0  0  0  0  0  0  0
    0.3696  -12.7626   16.2169 O   0  0  0  0  0  0  0  0  0  0  0  0
   -0.6895   -9.5676   17.3297 C   0  0  0  0  0  0  0  0  0  0  0  0
    0.8388   -5.8417   27.5264 C   0  0  0  0  0  0  0  0  0  0  0  0
   -2.0709   -7.6637   18.7817 C   0  0  0  0  0  0  0  0  0  0  0  0
   -0.5279   -8.2168   17.0717 C   0  0  0  0  0  0  0  0  0  0  0  0
    6.9694   -4.0191   27.8190 C   0  0  0  0  0  0  0  0  0  0  0  0
    5.1733   -4.5469   29.8123 C   0  0  0  0  0  0  0  0  0  0  0  0
   -1.7508  -11.3016   18.6072 C   0  0  0  0  0  0  0  0  0  0  0  0
    1.7497   -5.6771   26.4971 C   0  0  0  0  0  0  0  0  0  0  0  0
   -1.5799   -9.9322   18.3468 C   0  0  0  0  0  0  0  0  0  0  0  0
   -1.0871  -12.2214   17.8851 C   0  0  0  0  0  0  0  0  0  0  0  0
   -2.2706   -8.9669   19.0691 C   0  0  0  0  0  0  0  0  0  0  0  0
    3.0279   -5.3073   26.8197 C   0  0  0  0  0  0  0  0  0  0  0  0
    7.3282   -3.8948   29.1186 C   0  0  0  0  0  0  0  0  0  0  0  0
  1  3  4  0
  1  7  4  0
  2  3  1  0
  2  6  4  0
  2 16  4  0
  3 22  4  0
  4  9  4  0
  4 10  1  0
  4 20  4  0
  5 16  4  0
  5 23  4  0
  6 15  4  0
  7 12  4  0
  8 13  4  0
  8 14  4  0
  9 11  4  0
 11 14  4  0
 11 19  4  0
 12 18  4  0
 13 21  4  0
 15 23  4  0
 17 19  4  0
 17 20  4  0
 18 22  4  0
 19 21  4  0
M  END
$$$$

 Created by Python create_sdf_string function

 23 25  0  0  0  0  0  0  0  0999 V2000
    2.4610   -5.3070   29.1240 C   0  0  0  0  0  0  0  0  0  0  0  0
    4.7710   -4.6952   28.4803 C   0  0  0  0  0  0  0  0  0  0  0  0
    3.4047   -5.1087   28.1314 C   0  0  0  0  0  0  0  0  0  0  0  0
   -0.2234  -11.8615   16.8874 C   0  0  0  0  0  0  0  0  0  0  0  0
    6.4491   -4.1532   30.1213 C   0  0  0  0  0  0  0  0  0  0  0  0
    5.7060   -4.4340   27.4975 C   0  0  0  0  0  0  0  0  0  0  0  0
    1.1818   -5.6612   28.8399 C   0  0  0  0  0  0  0  0  0  0  0  0
   -1.2067   -7.3287   17.7772 C   0  0  0  0  0  0  0  0  0  0  0  0
   -0.0206  -10.5585   16.6210 C   0  0  0  0  0  0  0  0  0  0  0  0
    0.3696  -12.7626   16.2169 O   0  0  0  0  0  0  0  0  0  0  0  0
   -0.6895   -9.5676   17.3297 C   0  0  0  0  0  0  0  0  0  0  0  0
    0.8388   -5.8417   27.5264 C   0  0  0  0  0  0  0  0  0  0  0  0
   -2.0709   -7.6637   18.7817 C   0  0  0  0  0  0  0  0  0  0  0  0
   -0.5279   -8.2168   17.0717 C   0  0  0  0  0  0  0  0  0  0  0  0
    6.9694   -4.0191   27.8190 C   0  0  0  0  0  0  0  0  0  0  0  0
    5.1733   -4.5469   29.8123 C   0  0  0  0  0  0  0  0  0  0  0  0
   -1.7508  -11.3016   18.6072 C   0  0  0  0  0  0  0  0  0  0  0  0
    1.7497   -5.6771   26.4971 C   0  0  0  0  0  0  0  0  0  0  0  0
   -1.5799   -9.9322   18.3468 C   0  0  0  0  0  0  0  0  0  0  0  0
   -1.0871  -12.2214   17.8851 C   0  0  0  0  0  0  0  0  0  0  0  0
   -2.2706   -8.9669   19.0691 C   0  0  0  0  0  0  0  0  0  0  0  0
    3.0279   -5.3073   26.8197 C   0  0  0  0  0  0  0  0  0  0  0  0
    7.3282   -3.8948   29.1186 C   0  0  0  0  0  0  0  0  0  0  0  0
  1  3  4  0
  1  7  4  0
  2  3  1  0
  2  6  4  0
  2 16  4  0
  3 22  4  0
  4  9  4  0
  4 10  1  0
  4 20  4  0
  5 16  4  0
  5 23  4  0
  6 15  4  0
  7 12  4  0
  8 13  4  0
  8 14  4  0
  9 11  4  0
 11 14  4  0
 11 19  4  0
 12 18  4  0
 13 21  4  0
 15 23  4  0
 17 19  4  0
 17 20  4  0
 18 22  4  0
 19 21  4  0
M  END
$$$$

 Created by Python create_sdf_string function

 23 25  0  0  0  0  0  0  0  0999 V2000
    2.4610   -5.3070   29.1240 C   0  0  0  0  0  0  0  0  0  0  0  0
    4.7710   -4.6952   28.4803 C   0  0  0  0  0  0  0  0  0  0  0  0
    3.4047   -5.1087   28.1314 C   0  0  0  0  0  0  0  0  0  0  0  0
   -0.2234  -11.8615   16.8874 C   0  0  0  0  0  0  0  0  0  0  0  0
    6.4491   -4.1532   30.1213 C   0  0  0  0  0  0  0  0  0  0  0  0
    5.7060   -4.4340   27.4975 C   0  0  0  0  0  0  0  0  0  0  0  0
    1.1818   -5.6612   28.8399 C   0  0  0  0  0  0  0  0  0  0  0  0
   -1.2067   -7.3287   17.7772 C   0  0  0  0  0  0  0  0  0  0  0  0
   -0.0206  -10.5585   16.6210 C   0  0  0  0  0  0  0  0  0  0  0  0
    0.3696  -12.7626   16.2169 O   0  0  0  0  0  0  0  0  0  0  0  0
   -0.6895   -9.5676   17.3297 C   0  0  0  0  0  0  0  0  0  0  0  0
    0.8388   -5.8417   27.5264 C   0  0  0  0  0  0  0  0  0  0  0  0
   -2.0709   -7.6637   18.7817 C   0  0  0  0  0  0  0  0  0  0  0  0
   -0.5279   -8.2168   17.0717 C   0  0  0  0  0  0  0  0  0  0  0  0
    6.9694   -4.0191   27.8190 C   0  0  0  0  0  0  0  0  0  0  0  0
    5.1733   -4.5469   29.8123 C   0  0  0  0  0  0  0  0  0  0  0  0
   -1.7508  -11.3016   18.6072 C   0  0  0  0  0  0  0  0  0  0  0  0
    1.7497   -5.6771   26.4971 C   0  0  0  0  0  0  0  0  0  0  0  0
   -1.5799   -9.9322   18.3468 C   0  0  0  0  0  0  0  0  0  0  0  0
   -1.0871  -12.2214   17.8851 C   0  0  0  0  0  0  0  0  0  0  0  0
   -2.2706   -8.9669   19.0691 C   0  0  0  0  0  0  0  0  0  0  0  0
    3.0279   -5.3073   26.8197 C   0  0  0  0  0  0  0  0  0  0  0  0
    7.3282   -3.8948   29.1186 C   0  0  0  0  0  0  0  0  0  0  0  0
  1  3  4  0
  1  7  4  0
  2  3  1  0
  2  6  4  0
  2 16  4  0
  3 22  4  0
  4  9  4  0
  4 10  1  0
  4 20  4  0
  5 16  4  0
  5 23  4  0
  6 15  4  0
  7 12  4  0
  8 13  4  0
  8 14  4  0
  9 11  4  0
 11 14  4  0
 11 19  4  0
 12 18  4  0
 13 21  4  0
 15 23  4  0
 17 19  4  0
 17 20  4  0
 18 22  4  0
 19 21  4  0
M  END
$$$$

 Created by Python create_sdf_string function

 23 25  0  0  0  0  0  0  0  0999 V2000
    2.4610   -5.3070   29.1240 C   0  0  0  0  0  0  0  0  0  0  0  0
    4.7710   -4.6952   28.4803 C   0  0  0  0  0  0  0  0  0  0  0  0
    3.4047   -5.1087   28.1314 C   0  0  0  0  0  0  0  0  0  0  0  0
   -0.2234  -11.8615   16.8874 C   0  0  0  0  0  0  0  0  0  0  0  0
    6.4491   -4.1532   30.1213 C   0  0  0  0  0  0  0  0  0  0  0  0
    5.7060   -4.4340   27.4975 C   0  0  0  0  0  0  0  0  0  0  0  0
    1.1818   -5.6612   28.8399 C   0  0  0  0  0  0  0  0  0  0  0  0
   -1.2067   -7.3287   17.7772 C   0  0  0  0  0  0  0  0  0  0  0  0
   -0.0206  -10.5585   16.6210 C   0  0  0  0  0  0  0  0  0  0  0  0
    0.3696  -12.7626   16.2169 O   0  0  0  0  0  0  0  0  0  0  0  0
   -0.6895   -9.5676   17.3297 C   0  0  0  0  0  0  0  0  0  0  0  0
    0.8388   -5.8417   27.5264 C   0  0  0  0  0  0  0  0  0  0  0  0
   -2.0709   -7.6637   18.7817 C   0  0  0  0  0  0  0  0  0  0  0  0
   -0.5279   -8.2168   17.0717 C   0  0  0  0  0  0  0  0  0  0  0  0
    6.9694   -4.0191   27.8190 C   0  0  0  0  0  0  0  0  0  0  0  0
    5.1733   -4.5469   29.8123 C   0  0  0  0  0  0  0  0  0  0  0  0
   -1.7508  -11.3016   18.6072 C   0  0  0  0  0  0  0  0  0  0  0  0
    1.7497   -5.6771   26.4971 C   0  0  0  0  0  0  0  0  0  0  0  0
   -1.5799   -9.9322   18.3468 C   0  0  0  0  0  0  0  0  0  0  0  0
   -1.0871  -12.2214   17.8851 C   0  0  0  0  0  0  0  0  0  0  0  0
   -2.2706   -8.9669   19.0691 C   0  0  0  0  0  0  0  0  0  0  0  0
    3.0279   -5.3073   26.8197 C   0  0  0  0  0  0  0  0  0  0  0  0
    7.3282   -3.8948   29.1186 C   0  0  0  0  0  0  0  0  0  0  0  0
  1  3  4  0
  1  7  4  0
  2  3  1  0
  2  6  4  0
  2 16  4  0
  3 22  4  0
  4  9  4  0
  4 10  1  0
  4 20  4  0
  5 16  4  0
  5 23  4  0
  6 15  4  0
  7 12  4  0
  8 13  4  0
  8 14  4  0
  9 11  4  0
 11 14  4  0
 11 19  4  0
 12 18  4  0
 13 21  4  0
 15 23  4  0
 17 19  4  0
 17 20  4  0
 18 22  4  0
 19 21  4  0
M  END
$$$$

 Created by Python create_sdf_string function

 23 25  0  0  0  0  0  0  0  0999 V2000
    2.4610   -5.3070   29.1240 C   0  0  0  0  0  0  0  0  0  0  0  0
    4.7710   -4.6952   28.4803 C   0  0  0  0  0  0  0  0  0  0  0  0
    3.4047   -5.1087   28.1314 C   0  0  0  0  0  0  0  0  0  0  0  0
   -0.2234  -11.8615   16.8874 C   0  0  0  0  0  0  0  0  0  0  0  0
    6.4491   -4.1532   30.1213 C   0  0  0  0  0  0  0  0  0  0  0  0
    5.7060   -4.4340   27.4975 C   0  0  0  0  0  0  0  0  0  0  0  0
    1.1818   -5.6612   28.8399 C   0  0  0  0  0  0  0  0  0  0  0  0
   -1.2067   -7.3287   17.7772 C   0  0  0  0  0  0  0  0  0  0  0  0
   -0.0206  -10.5585   16.6210 C   0  0  0  0  0  0  0  0  0  0  0  0
    0.3696  -12.7626   16.2169 O   0  0  0  0  0  0  0  0  0  0  0  0
   -0.6895   -9.5676   17.3297 C   0  0  0  0  0  0  0  0  0  0  0  0
    0.8388   -5.8417   27.5264 C   0  0  0  0  0  0  0  0  0  0  0  0
   -2.0709   -7.6637   18.7817 C   0  0  0  0  0  0  0  0  0  0  0  0
   -0.5279   -8.2168   17.0717 C   0  0  0  0  0  0  0  0  0  0  0  0
    6.9694   -4.0191   27.8190 C   0  0  0  0  0  0  0  0  0  0  0  0
    5.1733   -4.5469   29.8123 C   0  0  0  0  0  0  0  0  0  0  0  0
   -1.7508  -11.3016   18.6072 C   0  0  0  0  0  0  0  0  0  0  0  0
    1.7497   -5.6771   26.4971 C   0  0  0  0  0  0  0  0  0  0  0  0
   -1.5799   -9.9322   18.3468 C   0  0  0  0  0  0  0  0  0  0  0  0
   -1.0871  -12.2214   17.8851 C   0  0  0  0  0  0  0  0  0  0  0  0
   -2.2706   -8.9669   19.0691 C   0  0  0  0  0  0  0  0  0  0  0  0
    3.0279   -5.3073   26.8197 C   0  0  0  0  0  0  0  0  0  0  0  0
    7.3282   -3.8948   29.1186 C   0  0  0  0  0  0  0  0  0  0  0  0
  1  3  4  0
  1  7  4  0
  2  3  1  0
  2  6  4  0
  2 16  4  0
  3 22  4  0
  4  9  4  0
  4 10  1  0
  4 20  4  0
  5 16  4  0
  5 23  4  0
  6 15  4  0
  7 12  4  0
  8 13  4  0
  8 14  4  0
  9 11  4  0
 11 14  4  0
 11 19  4  0
 12 18  4  0
 13 21  4  0
 15 23  4  0
 17 19  4  0
 17 20  4  0
 18 22  4  0
 19 21  4  0
M  END
$$$$

 Created by Python create_sdf_string function

 23 25  0  0  0  0  0  0  0  0999 V2000
    2.4610   -5.3070   29.1240 C   0  0  0  0  0  0  0  0  0  0  0  0
    4.7710   -4.6952   28.4803 C   0  0  0  0  0  0  0  0  0  0  0  0
    3.4047   -5.1087   28.1314 C   0  0  0  0  0  0  0  0  0  0  0  0
   -0.2234  -11.8615   16.8874 C   0  0  0  0  0  0  0  0  0  0  0  0
    6.4491   -4.1532   30.1213 C   0  0  0  0  0  0  0  0  0  0  0  0
    5.7060   -4.4340   27.4975 C   0  0  0  0  0  0  0  0  0  0  0  0
    1.1818   -5.6612   28.8399 C   0  0  0  0  0  0  0  0  0  0  0  0
   -1.2067   -7.3287   17.7772 C   0  0  0  0  0  0  0  0  0  0  0  0
   -0.0206  -10.5585   16.6210 C   0  0  0  0  0  0  0  0  0  0  0  0
    0.3696  -12.7626   16.2169 O   0  0  0  0  0  0  0  0  0  0  0  0
   -0.6895   -9.5676   17.3297 C   0  0  0  0  0  0  0  0  0  0  0  0
    0.8388   -5.8417   27.5264 C   0  0  0  0  0  0  0  0  0  0  0  0
   -2.0709   -7.6637   18.7817 C   0  0  0  0  0  0  0  0  0  0  0  0
   -0.5279   -8.2168   17.0717 C   0  0  0  0  0  0  0  0  0  0  0  0
    6.9694   -4.0191   27.8190 C   0  0  0  0  0  0  0  0  0  0  0  0
    5.1733   -4.5469   29.8123 C   0  0  0  0  0  0  0  0  0  0  0  0
   -1.7508  -11.3016   18.6072 C   0  0  0  0  0  0  0  0  0  0  0  0
    1.7497   -5.6771   26.4971 C   0  0  0  0  0  0  0  0  0  0  0  0
   -1.5799   -9.9322   18.3468 C   0  0  0  0  0  0  0  0  0  0  0  0
   -1.0871  -12.2214   17.8851 C   0  0  0  0  0  0  0  0  0  0  0  0
   -2.2706   -8.9669   19.0691 C   0  0  0  0  0  0  0  0  0  0  0  0
    3.0279   -5.3073   26.8197 C   0  0  0  0  0  0  0  0  0  0  0  0
    7.3282   -3.8948   29.1186 C   0  0  0  0  0  0  0  0  0  0  0  0
  1  3  4  0
  1  7  4  0
  2  3  1  0
  2  6  4  0
  2 16  4  0
  3 22  4  0
  4  9  4  0
  4 10  1  0
  4 20  4  0
  5 16  4  0
  5 23  4  0
  6 15  4  0
  7 12  4  0
  8 13  4  0
  8 14  4  0
  9 11  4  0
 11 14  4  0
 11 19  4  0
 12 18  4  0
 13 21  4  0
 15 23  4  0
 17 19  4  0
 17 20  4  0
 18 22  4  0
 19 21  4  0
M  END
$$$$

 Created by Python create_sdf_string function

 23 25  0  0  0  0  0  0  0  0999 V2000
    2.4610   -5.3070   29.1240 C   0  0  0  0  0  0  0  0  0  0  0  0
    4.7710   -4.6952   28.4803 C   0  0  0  0  0  0  0  0  0  0  0  0
    3.4047   -5.1087   28.1314 C   0  0  0  0  0  0  0  0  0  0  0  0
   -0.2234  -11.8615   16.8874 C   0  0  0  0  0  0  0  0  0  0  0  0
    6.4491   -4.1532   30.1213 C   0  0  0  0  0  0  0  0  0  0  0  0
    5.7060   -4.4340   27.4975 C   0  0  0  0  0  0  0  0  0  0  0  0
    1.1818   -5.6612   28.8399 C   0  0  0  0  0  0  0  0  0  0  0  0
   -1.2067   -7.3287   17.7772 C   0  0  0  0  0  0  0  0  0  0  0  0
   -0.0206  -10.5585   16.6210 C   0  0  0  0  0  0  0  0  0  0  0  0
    0.3696  -12.7626   16.2169 O   0  0  0  0  0  0  0  0  0  0  0  0
   -0.6895   -9.5676   17.3297 C   0  0  0  0  0  0  0  0  0  0  0  0
    0.8388   -5.8417   27.5264 C   0  0  0  0  0  0  0  0  0  0  0  0
   -2.0709   -7.6637   18.7817 C   0  0  0  0  0  0  0  0  0  0  0  0
   -0.5279   -8.2168   17.0717 C   0  0  0  0  0  0  0  0  0  0  0  0
    6.9694   -4.0191   27.8190 C   0  0  0  0  0  0  0  0  0  0  0  0
    5.1733   -4.5469   29.8123 C   0  0  0  0  0  0  0  0  0  0  0  0
   -1.7508  -11.3016   18.6072 C   0  0  0  0  0  0  0  0  0  0  0  0
    1.7497   -5.6771   26.4971 C   0  0  0  0  0  0  0  0  0  0  0  0
   -1.5799   -9.9322   18.3468 C   0  0  0  0  0  0  0  0  0  0  0  0
   -1.0871  -12.2214   17.8851 C   0  0  0  0  0  0  0  0  0  0  0  0
   -2.2706   -8.9669   19.0691 C   0  0  0  0  0  0  0  0  0  0  0  0
    3.0279   -5.3073   26.8197 C   0  0  0  0  0  0  0  0  0  0  0  0
    7.3282   -3.8948   29.1186 C   0  0  0  0  0  0  0  0  0  0  0  0
  1  3  4  0
  1  7  4  0
  2  3  1  0
  2  6  4  0
  2 16  4  0
  3 22  4  0
  4  9  4  0
  4 10  1  0
  4 20  4  0
  5 16  4  0
  5 23  4  0
  6 15  4  0
  7 12  4  0
  8 13  4  0
  8 14  4  0
  9 11  4  0
 11 14  4  0
 11 19  4  0
 12 18  4  0
 13 21  4  0
 15 23  4  0
 17 19  4  0
 17 20  4  0
 18 22  4  0
 19 21  4  0
M  END
$$$$

 Created by Python create_sdf_string function

 23 25  0  0  0  0  0  0  0  0999 V2000
    2.4610   -5.3070   29.1240 C   0  0  0  0  0  0  0  0  0  0  0  0
    4.7710   -4.6952   28.4803 C   0  0  0  0  0  0  0  0  0  0  0  0
    3.4047   -5.1087   28.1314 C   0  0  0  0  0  0  0  0  0  0  0  0
   -0.2234  -11.8615   16.8874 C   0  0  0  0  0  0  0  0  0  0  0  0
    6.4491   -4.1532   30.1213 C   0  0  0  0  0  0  0  0  0  0  0  0
    5.7060   -4.4340   27.4975 C   0  0  0  0  0  0  0  0  0  0  0  0
    1.1818   -5.6612   28.8399 C   0  0  0  0  0  0  0  0  0  0  0  0
   -1.2067   -7.3287   17.7772 C   0  0  0  0  0  0  0  0  0  0  0  0
   -0.0206  -10.5585   16.6210 C   0  0  0  0  0  0  0  0  0  0  0  0
    0.3696  -12.7626   16.2169 O   0  0  0  0  0  0  0  0  0  0  0  0
   -0.6895   -9.5676   17.3297 C   0  0  0  0  0  0  0  0  0  0  0  0
    0.8388   -5.8417   27.5264 C   0  0  0  0  0  0  0  0  0  0  0  0
   -2.0709   -7.6637   18.7817 C   0  0  0  0  0  0  0  0  0  0  0  0
   -0.5279   -8.2168   17.0717 C   0  0  0  0  0  0  0  0  0  0  0  0
    6.9694   -4.0191   27.8190 C   0  0  0  0  0  0  0  0  0  0  0  0
    5.1733   -4.5469   29.8123 C   0  0  0  0  0  0  0  0  0  0  0  0
   -1.7508  -11.3016   18.6072 C   0  0  0  0  0  0  0  0  0  0  0  0
    1.7497   -5.6771   26.4971 C   0  0  0  0  0  0  0  0  0  0  0  0
   -1.5799   -9.9322   18.3468 C   0  0  0  0  0  0  0  0  0  0  0  0
   -1.0871  -12.2214   17.8851 C   0  0  0  0  0  0  0  0  0  0  0  0
   -2.2706   -8.9669   19.0691 C   0  0  0  0  0  0  0  0  0  0  0  0
    3.0279   -5.3073   26.8197 C   0  0  0  0  0  0  0  0  0  0  0  0
    7.3282   -3.8948   29.1186 C   0  0  0  0  0  0  0  0  0  0  0  0
  1  3  4  0
  1  7  4  0
  2  3  1  0
  2  6  4  0
  2 16  4  0
  3 22  4  0
  4  9  4  0
  4 10  1  0
  4 20  4  0
  5 16  4  0
  5 23  4  0
  6 15  4  0
  7 12  4  0
  8 13  4  0
  8 14  4  0
  9 11  4  0
 11 14  4  0
 11 19  4  0
 12 18  4  0
 13 21  4  0
 15 23  4  0
 17 19  4  0
 17 20  4  0
 18 22  4  0
 19 21  4  0
M  END
$$$$

 Created by Python create_sdf_string function

 23 25  0  0  0  0  0  0  0  0999 V2000
    2.4610   -5.3070   29.1240 C   0  0  0  0  0  0  0  0  0  0  0  0
    4.7710   -4.6952   28.4803 C   0  0  0  0  0  0  0  0  0  0  0  0
    3.4047   -5.1087   28.1314 C   0  0  0  0  0  0  0  0  0  0  0  0
   -0.2234  -11.8615   16.8874 C   0  0  0  0  0  0  0  0  0  0  0  0
    6.4491   -4.1532   30.1213 C   0  0  0  0  0  0  0  0  0  0  0  0
    5.7060   -4.4340   27.4975 C   0  0  0  0  0  0  0  0  0  0  0  0
    1.1818   -5.6612   28.8399 C   0  0  0  0  0  0  0  0  0  0  0  0
   -1.2067   -7.3287   17.7772 C   0  0  0  0  0  0  0  0  0  0  0  0
   -0.0206  -10.5585   16.6210 C   0  0  0  0  0  0  0  0  0  0  0  0
    0.3696  -12.7626   16.2169 O   0  0  0  0  0  0  0  0  0  0  0  0
   -0.6895   -9.5676   17.3297 C   0  0  0  0  0  0  0  0  0  0  0  0
    0.8388   -5.8417   27.5264 C   0  0  0  0  0  0  0  0  0  0  0  0
   -2.0709   -7.6637   18.7817 C   0  0  0  0  0  0  0  0  0  0  0  0
   -0.5279   -8.2168   17.0717 C   0  0  0  0  0  0  0  0  0  0  0  0
    6.9694   -4.0191   27.8190 C   0  0  0  0  0  0  0  0  0  0  0  0
    5.1733   -4.5469   29.8123 C   0  0  0  0  0  0  0  0  0  0  0  0
   -1.7508  -11.3016   18.6072 C   0  0  0  0  0  0  0  0  0  0  0  0
    1.7497   -5.6771   26.4971 C   0  0  0  0  0  0  0  0  0  0  0  0
   -1.5799   -9.9322   18.3468 C   0  0  0  0  0  0  0  0  0  0  0  0
   -1.0871  -12.2214   17.8851 C   0  0  0  0  0  0  0  0  0  0  0  0
   -2.2706   -8.9669   19.0691 C   0  0  0  0  0  0  0  0  0  0  0  0
    3.0279   -5.3073   26.8197 C   0  0  0  0  0  0  0  0  0  0  0  0
    7.3282   -3.8948   29.1186 C   0  0  0  0  0  0  0  0  0  0  0  0
  1  3  4  0
  1  7  4  0
  2  3  1  0
  2  6  4  0
  2 16  4  0
  3 22  4  0
  4  9  4  0
  4 10  1  0
  4 20  4  0
  5 16  4  0
  5 23  4  0
  6 15  4  0
  7 12  4  0
  8 13  4  0
  8 14  4  0
  9 11  4  0
 11 14  4  0
 11 19  4  0
 12 18  4  0
 13 21  4  0
 15 23  4  0
 17 19  4  0
 17 20  4  0
 18 22  4  0
 19 21  4  0
M  END
$$$$

 Created by Python create_sdf_string function

 23 25  0  0  0  0  0  0  0  0999 V2000
    2.4610   -5.3070   29.1240 C   0  0  0  0  0  0  0  0  0  0  0  0
    4.7710   -4.6952   28.4803 C   0  0  0  0  0  0  0  0  0  0  0  0
    3.4047   -5.1087   28.1314 C   0  0  0  0  0  0  0  0  0  0  0  0
   -0.2234  -11.8615   16.8874 C   0  0  0  0  0  0  0  0  0  0  0  0
    6.4491   -4.1532   30.1213 C   0  0  0  0  0  0  0  0  0  0  0  0
    5.7060   -4.4340   27.4975 C   0  0  0  0  0  0  0  0  0  0  0  0
    1.1818   -5.6612   28.8399 C   0  0  0  0  0  0  0  0  0  0  0  0
   -1.2067   -7.3287   17.7772 C   0  0  0  0  0  0  0  0  0  0  0  0
   -0.0206  -10.5585   16.6210 C   0  0  0  0  0  0  0  0  0  0  0  0
    0.3696  -12.7626   16.2169 O   0  0  0  0  0  0  0  0  0  0  0  0
   -0.6895   -9.5676   17.3297 C   0  0  0  0  0  0  0  0  0  0  0  0
    0.8388   -5.8417   27.5264 C   0  0  0  0  0  0  0  0  0  0  0  0
   -2.0709   -7.6637   18.7817 C   0  0  0  0  0  0  0  0  0  0  0  0
   -0.5279   -8.2168   17.0717 C   0  0  0  0  0  0  0  0  0  0  0  0
    6.9694   -4.0191   27.8190 C   0  0  0  0  0  0  0  0  0  0  0  0
    5.1733   -4.5469   29.8123 C   0  0  0  0  0  0  0  0  0  0  0  0
   -1.7508  -11.3016   18.6072 C   0  0  0  0  0  0  0  0  0  0  0  0
    1.7497   -5.6771   26.4971 C   0  0  0  0  0  0  0  0  0  0  0  0
   -1.5799   -9.9322   18.3468 C   0  0  0  0  0  0  0  0  0  0  0  0
   -1.0871  -12.2214   17.8851 C   0  0  0  0  0  0  0  0  0  0  0  0
   -2.2706   -8.9669   19.0691 C   0  0  0  0  0  0  0  0  0  0  0  0
    3.0279   -5.3073   26.8197 C   0  0  0  0  0  0  0  0  0  0  0  0
    7.3282   -3.8948   29.1186 C   0  0  0  0  0  0  0  0  0  0  0  0
  1  3  4  0
  1  7  4  0
  2  3  1  0
  2  6  4  0
  2 16  4  0
  3 22  4  0
  4  9  4  0
  4 10  1  0
  4 20  4  0
  5 16  4  0
  5 23  4  0
  6 15  4  0
  7 12  4  0
  8 13  4  0
  8 14  4  0
  9 11  4  0
 11 14  4  0
 11 19  4  0
 12 18  4  0
 13 21  4  0
 15 23  4  0
 17 19  4  0
 17 20  4  0
 18 22  4  0
 19 21  4  0
M  END
$$$$

 Created by Python create_sdf_string function

 23 25  0  0  0  0  0  0  0  0999 V2000
    2.4610   -5.3070   29.1240 C   0  0  0  0  0  0  0  0  0  0  0  0
    4.7710   -4.6952   28.4803 C   0  0  0  0  0  0  0  0  0  0  0  0
    3.4047   -5.1087   28.1314 C   0  0  0  0  0  0  0  0  0  0  0  0
   -0.2234  -11.8615   16.8874 C   0  0  0  0  0  0  0  0  0  0  0  0
    6.4491   -4.1532   30.1213 C   0  0  0  0  0  0  0  0  0  0  0  0
    5.7060   -4.4340   27.4975 C   0  0  0  0  0  0  0  0  0  0  0  0
    1.1818   -5.6612   28.8399 C   0  0  0  0  0  0  0  0  0  0  0  0
   -1.2067   -7.3287   17.7772 C   0  0  0  0  0  0  0  0  0  0  0  0
   -0.0206  -10.5585   16.6210 C   0  0  0  0  0  0  0  0  0  0  0  0
    0.3696  -12.7626   16.2169 O   0  0  0  0  0  0  0  0  0  0  0  0
   -0.6895   -9.5676   17.3297 C   0  0  0  0  0  0  0  0  0  0  0  0
    0.8388   -5.8417   27.5264 C   0  0  0  0  0  0  0  0  0  0  0  0
   -2.0709   -7.6637   18.7817 C   0  0  0  0  0  0  0  0  0  0  0  0
   -0.5279   -8.2168   17.0717 C   0  0  0  0  0  0  0  0  0  0  0  0
    6.9694   -4.0191   27.8190 C   0  0  0  0  0  0  0  0  0  0  0  0
    5.1733   -4.5469   29.8123 C   0  0  0  0  0  0  0  0  0  0  0  0
   -1.7508  -11.3016   18.6072 C   0  0  0  0  0  0  0  0  0  0  0  0
    1.7497   -5.6771   26.4971 C   0  0  0  0  0  0  0  0  0  0  0  0
   -1.5799   -9.9322   18.3468 C   0  0  0  0  0  0  0  0  0  0  0  0
   -1.0871  -12.2214   17.8851 C   0  0  0  0  0  0  0  0  0  0  0  0
   -2.2706   -8.9669   19.0691 C   0  0  0  0  0  0  0  0  0  0  0  0
    3.0279   -5.3073   26.8197 C   0  0  0  0  0  0  0  0  0  0  0  0
    7.3282   -3.8948   29.1186 C   0  0  0  0  0  0  0  0  0  0  0  0
  1  3  4  0
  1  7  4  0
  2  3  1  0
  2  6  4  0
  2 16  4  0
  3 22  4  0
  4  9  4  0
  4 10  1  0
  4 20  4  0
  5 16  4  0
  5 23  4  0
  6 15  4  0
  7 12  4  0
  8 13  4  0
  8 14  4  0
  9 11  4  0
 11 14  4  0
 11 19  4  0
 12 18  4  0
 13 21  4  0
 15 23  4  0
 17 19  4  0
 17 20  4  0
 18 22  4  0
 19 21  4  0
M  END
$$$$

 Created by Python create_sdf_string function

 23 25  0  0  0  0  0  0  0  0999 V2000
    2.4610   -5.3070   29.1240 C   0  0  0  0  0  0  0  0  0  0  0  0
    4.7710   -4.6952   28.4803 C   0  0  0  0  0  0  0  0  0  0  0  0
    3.4047   -5.1087   28.1314 C   0  0  0  0  0  0  0  0  0  0  0  0
   -0.2234  -11.8615   16.8874 C   0  0  0  0  0  0  0  0  0  0  0  0
    6.4491   -4.1532   30.1213 C   0  0  0  0  0  0  0  0  0  0  0  0
    5.7060   -4.4340   27.4975 C   0  0  0  0  0  0  0  0  0  0  0  0
    1.1818   -5.6612   28.8399 C   0  0  0  0  0  0  0  0  0  0  0  0
   -1.2067   -7.3287   17.7772 C   0  0  0  0  0  0  0  0  0  0  0  0
   -0.0206  -10.5585   16.6210 C   0  0  0  0  0  0  0  0  0  0  0  0
    0.3696  -12.7626   16.2169 O   0  0  0  0  0  0  0  0  0  0  0  0
   -0.6895   -9.5676   17.3297 C   0  0  0  0  0  0  0  0  0  0  0  0
    0.8388   -5.8417   27.5264 C   0  0  0  0  0  0  0  0  0  0  0  0
   -2.0709   -7.6637   18.7817 C   0  0  0  0  0  0  0  0  0  0  0  0
   -0.5279   -8.2168   17.0717 C   0  0  0  0  0  0  0  0  0  0  0  0
    6.9694   -4.0191   27.8190 C   0  0  0  0  0  0  0  0  0  0  0  0
    5.1733   -4.5469   29.8123 C   0  0  0  0  0  0  0  0  0  0  0  0
   -1.7508  -11.3016   18.6072 C   0  0  0  0  0  0  0  0  0  0  0  0
    1.7497   -5.6771   26.4971 C   0  0  0  0  0  0  0  0  0  0  0  0
   -1.5799   -9.9322   18.3468 C   0  0  0  0  0  0  0  0  0  0  0  0
   -1.0871  -12.2214   17.8851 C   0  0  0  0  0  0  0  0  0  0  0  0
   -2.2706   -8.9669   19.0691 C   0  0  0  0  0  0  0  0  0  0  0  0
    3.0279   -5.3073   26.8197 C   0  0  0  0  0  0  0  0  0  0  0  0
    7.3282   -3.8948   29.1186 C   0  0  0  0  0  0  0  0  0  0  0  0
  1  3  4  0
  1  7  4  0
  2  3  1  0
  2  6  4  0
  2 16  4  0
  3 22  4  0
  4  9  4  0
  4 10  1  0
  4 20  4  0
  5 16  4  0
  5 23  4  0
  6 15  4  0
  7 12  4  0
  8 13  4  0
  8 14  4  0
  9 11  4  0
 11 14  4  0
 11 19  4  0
 12 18  4  0
 13 21  4  0
 15 23  4  0
 17 19  4  0
 17 20  4  0
 18 22  4  0
 19 21  4  0
M  END
$$$$

 Created by Python create_sdf_string function

 23 25  0  0  0  0  0  0  0  0999 V2000
    2.4610   -5.3070   29.1240 C   0  0  0  0  0  0  0  0  0  0  0  0
    4.7710   -4.6952   28.4803 C   0  0  0  0  0  0  0  0  0  0  0  0
    3.4047   -5.1087   28.1314 C   0  0  0  0  0  0  0  0  0  0  0  0
   -0.2234  -11.8615   16.8874 C   0  0  0  0  0  0  0  0  0  0  0  0
    6.4491   -4.1532   30.1213 C   0  0  0  0  0  0  0  0  0  0  0  0
    5.7060   -4.4340   27.4975 C   0  0  0  0  0  0  0  0  0  0  0  0
    1.1818   -5.6612   28.8399 C   0  0  0  0  0  0  0  0  0  0  0  0
   -1.2067   -7.3287   17.7772 C   0  0  0  0  0  0  0  0  0  0  0  0
   -0.0206  -10.5585   16.6210 C   0  0  0  0  0  0  0  0  0  0  0  0
    0.3696  -12.7626   16.2169 O   0  0  0  0  0  0  0  0  0  0  0  0
   -0.6895   -9.5676   17.3297 C   0  0  0  0  0  0  0  0  0  0  0  0
    0.8388   -5.8417   27.5264 C   0  0  0  0  0  0  0  0  0  0  0  0
   -2.0709   -7.6637   18.7817 C   0  0  0  0  0  0  0  0  0  0  0  0
   -0.5279   -8.2168   17.0717 C   0  0  0  0  0  0  0  0  0  0  0  0
    6.9694   -4.0191   27.8190 C   0  0  0  0  0  0  0  0  0  0  0  0
    5.1733   -4.5469   29.8123 C   0  0  0  0  0  0  0  0  0  0  0  0
   -1.7508  -11.3016   18.6072 C   0  0  0  0  0  0  0  0  0  0  0  0
    1.7497   -5.6771   26.4971 C   0  0  0  0  0  0  0  0  0  0  0  0
   -1.5799   -9.9322   18.3468 C   0  0  0  0  0  0  0  0  0  0  0  0
   -1.0871  -12.2214   17.8851 C   0  0  0  0  0  0  0  0  0  0  0  0
   -2.2706   -8.9669   19.0691 C   0  0  0  0  0  0  0  0  0  0  0  0
    3.0279   -5.3073   26.8197 C   0  0  0  0  0  0  0  0  0  0  0  0
    7.3282   -3.8948   29.1186 C   0  0  0  0  0  0  0  0  0  0  0  0
  1  3  4  0
  1  7  4  0
  2  3  1  0
  2  6  4  0
  2 16  4  0
  3 22  4  0
  4  9  4  0
  4 10  1  0
  4 20  4  0
  5 16  4  0
  5 23  4  0
  6 15  4  0
  7 12  4  0
  8 13  4  0
  8 14  4  0
  9 11  4  0
 11 14  4  0
 11 19  4  0
 12 18  4  0
 13 21  4  0
 15 23  4  0
 17 19  4  0
 17 20  4  0
 18 22  4  0
 19 21  4  0
M  END
$$$$

 Created by Python create_sdf_string function

 23 25  0  0  0  0  0  0  0  0999 V2000
    2.4610   -5.3070   29.1240 C   0  0  0  0  0  0  0  0  0  0  0  0
    4.7710   -4.6952   28.4803 C   0  0  0  0  0  0  0  0  0  0  0  0
    3.4047   -5.1087   28.1314 C   0  0  0  0  0  0  0  0  0  0  0  0
   -0.2234  -11.8615   16.8874 C   0  0  0  0  0  0  0  0  0  0  0  0
    6.4491   -4.1532   30.1213 C   0  0  0  0  0  0  0  0  0  0  0  0
    5.7060   -4.4340   27.4975 C   0  0  0  0  0  0  0  0  0  0  0  0
    1.1818   -5.6612   28.8399 C   0  0  0  0  0  0  0  0  0  0  0  0
   -1.2067   -7.3287   17.7772 C   0  0  0  0  0  0  0  0  0  0  0  0
   -0.0206  -10.5585   16.6210 C   0  0  0  0  0  0  0  0  0  0  0  0
    0.3696  -12.7626   16.2169 O   0  0  0  0  0  0  0  0  0  0  0  0
   -0.6895   -9.5676   17.3297 C   0  0  0  0  0  0  0  0  0  0  0  0
    0.8388   -5.8417   27.5264 C   0  0  0  0  0  0  0  0  0  0  0  0
   -2.0709   -7.6637   18.7817 C   0  0  0  0  0  0  0  0  0  0  0  0
   -0.5279   -8.2168   17.0717 C   0  0  0  0  0  0  0  0  0  0  0  0
    6.9694   -4.0191   27.8190 C   0  0  0  0  0  0  0  0  0  0  0  0
    5.1733   -4.5469   29.8123 C   0  0  0  0  0  0  0  0  0  0  0  0
   -1.7508  -11.3016   18.6072 C   0  0  0  0  0  0  0  0  0  0  0  0
    1.7497   -5.6771   26.4971 C   0  0  0  0  0  0  0  0  0  0  0  0
   -1.5799   -9.9322   18.3468 C   0  0  0  0  0  0  0  0  0  0  0  0
   -1.0871  -12.2214   17.8851 C   0  0  0  0  0  0  0  0  0  0  0  0
   -2.2706   -8.9669   19.0691 C   0  0  0  0  0  0  0  0  0  0  0  0
    3.0279   -5.3073   26.8197 C   0  0  0  0  0  0  0  0  0  0  0  0
    7.3282   -3.8948   29.1186 C   0  0  0  0  0  0  0  0  0  0  0  0
  1  3  4  0
  1  7  4  0
  2  3  1  0
  2  6  4  0
  2 16  4  0
  3 22  4  0
  4  9  4  0
  4 10  1  0
  4 20  4  0
  5 16  4  0
  5 23  4  0
  6 15  4  0
  7 12  4  0
  8 13  4  0
  8 14  4  0
  9 11  4  0
 11 14  4  0
 11 19  4  0
 12 18  4  0
 13 21  4  0
 15 23  4  0
 17 19  4  0
 17 20  4  0
 18 22  4  0
 19 21  4  0
M  END
$$$$

 Created by Python create_sdf_string function

 23 25  0  0  0  0  0  0  0  0999 V2000
    2.4610   -5.3070   29.1240 C   0  0  0  0  0  0  0  0  0  0  0  0
    4.7710   -4.6952   28.4803 C   0  0  0  0  0  0  0  0  0  0  0  0
    3.4047   -5.1087   28.1314 C   0  0  0  0  0  0  0  0  0  0  0  0
   -0.2234  -11.8615   16.8874 C   0  0  0  0  0  0  0  0  0  0  0  0
    6.4491   -4.1532   30.1213 C   0  0  0  0  0  0  0  0  0  0  0  0
    5.7060   -4.4340   27.4975 C   0  0  0  0  0  0  0  0  0  0  0  0
    1.1818   -5.6612   28.8399 C   0  0  0  0  0  0  0  0  0  0  0  0
   -1.2067   -7.3287   17.7772 C   0  0  0  0  0  0  0  0  0  0  0  0
   -0.0206  -10.5585   16.6210 C   0  0  0  0  0  0  0  0  0  0  0  0
    0.3696  -12.7626   16.2169 O   0  0  0  0  0  0  0  0  0  0  0  0
   -0.6895   -9.5676   17.3297 C   0  0  0  0  0  0  0  0  0  0  0  0
    0.8388   -5.8417   27.5264 C   0  0  0  0  0  0  0  0  0  0  0  0
   -2.0709   -7.6637   18.7817 C   0  0  0  0  0  0  0  0  0  0  0  0
   -0.5279   -8.2168   17.0717 C   0  0  0  0  0  0  0  0  0  0  0  0
    6.9694   -4.0191   27.8190 C   0  0  0  0  0  0  0  0  0  0  0  0
    5.1733   -4.5469   29.8123 C   0  0  0  0  0  0  0  0  0  0  0  0
   -1.7508  -11.3016   18.6072 C   0  0  0  0  0  0  0  0  0  0  0  0
    1.7497   -5.6771   26.4971 C   0  0  0  0  0  0  0  0  0  0  0  0
   -1.5799   -9.9322   18.3468 C   0  0  0  0  0  0  0  0  0  0  0  0
   -1.0871  -12.2214   17.8851 C   0  0  0  0  0  0  0  0  0  0  0  0
   -2.2706   -8.9669   19.0691 C   0  0  0  0  0  0  0  0  0  0  0  0
    3.0279   -5.3073   26.8197 C   0  0  0  0  0  0  0  0  0  0  0  0
    7.3282   -3.8948   29.1186 C   0  0  0  0  0  0  0  0  0  0  0  0
  1  3  4  0
  1  7  4  0
  2  3  1  0
  2  6  4  0
  2 16  4  0
  3 22  4  0
  4  9  4  0
  4 10  1  0
  4 20  4  0
  5 16  4  0
  5 23  4  0
  6 15  4  0
  7 12  4  0
  8 13  4  0
  8 14  4  0
  9 11  4  0
 11 14  4  0
 11 19  4  0
 12 18  4  0
 13 21  4  0
 15 23  4  0
 17 19  4  0
 17 20  4  0
 18 22  4  0
 19 21  4  0
M  END
$$$$

 Created by Python create_sdf_string function

 23 25  0  0  0  0  0  0  0  0999 V2000
    2.4610   -5.3070   29.1240 C   0  0  0  0  0  0  0  0  0  0  0  0
    4.7710   -4.6952   28.4803 C   0  0  0  0  0  0  0  0  0  0  0  0
    3.4047   -5.1087   28.1314 C   0  0  0  0  0  0  0  0  0  0  0  0
   -0.2234  -11.8615   16.8874 C   0  0  0  0  0  0  0  0  0  0  0  0
    6.4491   -4.1532   30.1213 C   0  0  0  0  0  0  0  0  0  0  0  0
    5.7060   -4.4340   27.4975 C   0  0  0  0  0  0  0  0  0  0  0  0
    1.1818   -5.6612   28.8399 C   0  0  0  0  0  0  0  0  0  0  0  0
   -1.2067   -7.3287   17.7772 C   0  0  0  0  0  0  0  0  0  0  0  0
   -0.0206  -10.5585   16.6210 C   0  0  0  0  0  0  0  0  0  0  0  0
    0.3696  -12.7626   16.2169 O   0  0  0  0  0  0  0  0  0  0  0  0
   -0.6895   -9.5676   17.3297 C   0  0  0  0  0  0  0  0  0  0  0  0
    0.8388   -5.8417   27.5264 C   0  0  0  0  0  0  0  0  0  0  0  0
   -2.0709   -7.6637   18.7817 C   0  0  0  0  0  0  0  0  0  0  0  0
   -0.5279   -8.2168   17.0717 C   0  0  0  0  0  0  0  0  0  0  0  0
    6.9694   -4.0191   27.8190 C   0  0  0  0  0  0  0  0  0  0  0  0
    5.1733   -4.5469   29.8123 C   0  0  0  0  0  0  0  0  0  0  0  0
   -1.7508  -11.3016   18.6072 C   0  0  0  0  0  0  0  0  0  0  0  0
    1.7497   -5.6771   26.4971 C   0  0  0  0  0  0  0  0  0  0  0  0
   -1.5799   -9.9322   18.3468 C   0  0  0  0  0  0  0  0  0  0  0  0
   -1.0871  -12.2214   17.8851 C   0  0  0  0  0  0  0  0  0  0  0  0
   -2.2706   -8.9669   19.0691 C   0  0  0  0  0  0  0  0  0  0  0  0
    3.0279   -5.3073   26.8197 C   0  0  0  0  0  0  0  0  0  0  0  0
    7.3282   -3.8948   29.1186 C   0  0  0  0  0  0  0  0  0  0  0  0
  1  3  4  0
  1  7  4  0
  2  3  1  0
  2  6  4  0
  2 16  4  0
  3 22  4  0
  4  9  4  0
  4 10  1  0
  4 20  4  0
  5 16  4  0
  5 23  4  0
  6 15  4  0
  7 12  4  0
  8 13  4  0
  8 14  4  0
  9 11  4  0
 11 14  4  0
 11 19  4  0
 12 18  4  0
 13 21  4  0
 15 23  4  0
 17 19  4  0
 17 20  4  0
 18 22  4  0
 19 21  4  0
M  END
$$$$

 Created by Python create_sdf_string function

 23 25  0  0  0  0  0  0  0  0999 V2000
    2.4610   -5.3070   29.1240 C   0  0  0  0  0  0  0  0  0  0  0  0
    4.7710   -4.6952   28.4803 C   0  0  0  0  0  0  0  0  0  0  0  0
    3.4047   -5.1087   28.1314 C   0  0  0  0  0  0  0  0  0  0  0  0
   -0.2234  -11.8615   16.8874 C   0  0  0  0  0  0  0  0  0  0  0  0
    6.4491   -4.1532   30.1213 C   0  0  0  0  0  0  0  0  0  0  0  0
    5.7060   -4.4340   27.4975 C   0  0  0  0  0  0  0  0  0  0  0  0
    1.1818   -5.6612   28.8399 C   0  0  0  0  0  0  0  0  0  0  0  0
   -1.2067   -7.3287   17.7772 C   0  0  0  0  0  0  0  0  0  0  0  0
   -0.0206  -10.5585   16.6210 C   0  0  0  0  0  0  0  0  0  0  0  0
    0.3696  -12.7626   16.2169 O   0  0  0  0  0  0  0  0  0  0  0  0
   -0.6895   -9.5676   17.3297 C   0  0  0  0  0  0  0  0  0  0  0  0
    0.8388   -5.8417   27.5264 C   0  0  0  0  0  0  0  0  0  0  0  0
   -2.0709   -7.6637   18.7817 C   0  0  0  0  0  0  0  0  0  0  0  0
   -0.5279   -8.2168   17.0717 C   0  0  0  0  0  0  0  0  0  0  0  0
    6.9694   -4.0191   27.8190 C   0  0  0  0  0  0  0  0  0  0  0  0
    5.1733   -4.5469   29.8123 C   0  0  0  0  0  0  0  0  0  0  0  0
   -1.7508  -11.3016   18.6072 C   0  0  0  0  0  0  0  0  0  0  0  0
    1.7497   -5.6771   26.4971 C   0  0  0  0  0  0  0  0  0  0  0  0
   -1.5799   -9.9322   18.3468 C   0  0  0  0  0  0  0  0  0  0  0  0
   -1.0871  -12.2214   17.8851 C   0  0  0  0  0  0  0  0  0  0  0  0
   -2.2706   -8.9669   19.0691 C   0  0  0  0  0  0  0  0  0  0  0  0
    3.0279   -5.3073   26.8197 C   0  0  0  0  0  0  0  0  0  0  0  0
    7.3282   -3.8948   29.1186 C   0  0  0  0  0  0  0  0  0  0  0  0
  1  3  4  0
  1  7  4  0
  2  3  1  0
  2  6  4  0
  2 16  4  0
  3 22  4  0
  4  9  4  0
  4 10  1  0
  4 20  4  0
  5 16  4  0
  5 23  4  0
  6 15  4  0
  7 12  4  0
  8 13  4  0
  8 14  4  0
  9 11  4  0
 11 14  4  0
 11 19  4  0
 12 18  4  0
 13 21  4  0
 15 23  4  0
 17 19  4  0
 17 20  4  0
 18 22  4  0
 19 21  4  0
M  END
$$$$

 Created by Python create_sdf_string function

 23 25  0  0  0  0  0  0  0  0999 V2000
    2.4610   -5.3070   29.1240 C   0  0  0  0  0  0  0  0  0  0  0  0
    4.7710   -4.6952   28.4803 C   0  0  0  0  0  0  0  0  0  0  0  0
    3.4047   -5.1087   28.1314 C   0  0  0  0  0  0  0  0  0  0  0  0
   -0.2234  -11.8615   16.8874 C   0  0  0  0  0  0  0  0  0  0  0  0
    6.4491   -4.1532   30.1213 C   0  0  0  0  0  0  0  0  0  0  0  0
    5.7060   -4.4340   27.4975 C   0  0  0  0  0  0  0  0  0  0  0  0
    1.1818   -5.6612   28.8399 C   0  0  0  0  0  0  0  0  0  0  0  0
   -1.2067   -7.3287   17.7772 C   0  0  0  0  0  0  0  0  0  0  0  0
   -0.0206  -10.5585   16.6210 C   0  0  0  0  0  0  0  0  0  0  0  0
    0.3696  -12.7626   16.2169 O   0  0  0  0  0  0  0  0  0  0  0  0
   -0.6895   -9.5676   17.3297 C   0  0  0  0  0  0  0  0  0  0  0  0
    0.8388   -5.8417   27.5264 C   0  0  0  0  0  0  0  0  0  0  0  0
   -2.0709   -7.6637   18.7817 C   0  0  0  0  0  0  0  0  0  0  0  0
   -0.5279   -8.2168   17.0717 C   0  0  0  0  0  0  0  0  0  0  0  0
    6.9694   -4.0191   27.8190 C   0  0  0  0  0  0  0  0  0  0  0  0
    5.1733   -4.5469   29.8123 C   0  0  0  0  0  0  0  0  0  0  0  0
   -1.7508  -11.3016   18.6072 C   0  0  0  0  0  0  0  0  0  0  0  0
    1.7497   -5.6771   26.4971 C   0  0  0  0  0  0  0  0  0  0  0  0
   -1.5799   -9.9322   18.3468 C   0  0  0  0  0  0  0  0  0  0  0  0
   -1.0871  -12.2214   17.8851 C   0  0  0  0  0  0  0  0  0  0  0  0
   -2.2706   -8.9669   19.0691 C   0  0  0  0  0  0  0  0  0  0  0  0
    3.0279   -5.3073   26.8197 C   0  0  0  0  0  0  0  0  0  0  0  0
    7.3282   -3.8948   29.1186 C   0  0  0  0  0  0  0  0  0  0  0  0
  1  3  4  0
  1  7  4  0
  2  3  1  0
  2  6  4  0
  2 16  4  0
  3 22  4  0
  4  9  4  0
  4 10  1  0
  4 20  4  0
  5 16  4  0
  5 23  4  0
  6 15  4  0
  7 12  4  0
  8 13  4  0
  8 14  4  0
  9 11  4  0
 11 14  4  0
 11 19  4  0
 12 18  4  0
 13 21  4  0
 15 23  4  0
 17 19  4  0
 17 20  4  0
 18 22  4  0
 19 21  4  0
M  END
$$$$

 Created by Python create_sdf_string function

 23 25  0  0  0  0  0  0  0  0999 V2000
    2.4610   -5.3070   29.1240 C   0  0  0  0  0  0  0  0  0  0  0  0
    4.7710   -4.6952   28.4803 C   0  0  0  0  0  0  0  0  0  0  0  0
    3.4047   -5.1087   28.1314 C   0  0  0  0  0  0  0  0  0  0  0  0
   -0.2234  -11.8615   16.8874 C   0  0  0  0  0  0  0  0  0  0  0  0
    6.4491   -4.1532   30.1213 C   0  0  0  0  0  0  0  0  0  0  0  0
    5.7060   -4.4340   27.4975 C   0  0  0  0  0  0  0  0  0  0  0  0
    1.1818   -5.6612   28.8399 C   0  0  0  0  0  0  0  0  0  0  0  0
   -1.2067   -7.3287   17.7772 C   0  0  0  0  0  0  0  0  0  0  0  0
   -0.0206  -10.5585   16.6210 C   0  0  0  0  0  0  0  0  0  0  0  0
    0.3696  -12.7626   16.2169 O   0  0  0  0  0  0  0  0  0  0  0  0
   -0.6895   -9.5676   17.3297 C   0  0  0  0  0  0  0  0  0  0  0  0
    0.8388   -5.8417   27.5264 C   0  0  0  0  0  0  0  0  0  0  0  0
   -2.0709   -7.6637   18.7817 C   0  0  0  0  0  0  0  0  0  0  0  0
   -0.5279   -8.2168   17.0717 C   0  0  0  0  0  0  0  0  0  0  0  0
    6.9694   -4.0191   27.8190 C   0  0  0  0  0  0  0  0  0  0  0  0
    5.1733   -4.5469   29.8123 C   0  0  0  0  0  0  0  0  0  0  0  0
   -1.7508  -11.3016   18.6072 C   0  0  0  0  0  0  0  0  0  0  0  0
    1.7497   -5.6771   26.4971 C   0  0  0  0  0  0  0  0  0  0  0  0
   -1.5799   -9.9322   18.3468 C   0  0  0  0  0  0  0  0  0  0  0  0
   -1.0871  -12.2214   17.8851 C   0  0  0  0  0  0  0  0  0  0  0  0
   -2.2706   -8.9669   19.0691 C   0  0  0  0  0  0  0  0  0  0  0  0
    3.0279   -5.3073   26.8197 C   0  0  0  0  0  0  0  0  0  0  0  0
    7.3282   -3.8948   29.1186 C   0  0  0  0  0  0  0  0  0  0  0  0
  1  3  4  0
  1  7  4  0
  2  3  1  0
  2  6  4  0
  2 16  4  0
  3 22  4  0
  4  9  4  0
  4 10  1  0
  4 20  4  0
  5 16  4  0
  5 23  4  0
  6 15  4  0
  7 12  4  0
  8 13  4  0
  8 14  4  0
  9 11  4  0
 11 14  4  0
 11 19  4  0
 12 18  4  0
 13 21  4  0
 15 23  4  0
 17 19  4  0
 17 20  4  0
 18 22  4  0
 19 21  4  0
M  END
$$$$

 Created by Python create_sdf_string function

 23 25  0  0  0  0  0  0  0  0999 V2000
    2.4610   -5.3070   29.1240 C   0  0  0  0  0  0  0  0  0  0  0  0
    4.7710   -4.6952   28.4803 C   0  0  0  0  0  0  0  0  0  0  0  0
    3.4047   -5.1087   28.1314 C   0  0  0  0  0  0  0  0  0  0  0  0
   -0.2234  -11.8615   16.8874 C   0  0  0  0  0  0  0  0  0  0  0  0
    6.4491   -4.1532   30.1213 C   0  0  0  0  0  0  0  0  0  0  0  0
    5.7060   -4.4340   27.4975 C   0  0  0  0  0  0  0  0  0  0  0  0
    1.1818   -5.6612   28.8399 C   0  0  0  0  0  0  0  0  0  0  0  0
   -1.2067   -7.3287   17.7772 C   0  0  0  0  0  0  0  0  0  0  0  0
   -0.0206  -10.5585   16.6210 C   0  0  0  0  0  0  0  0  0  0  0  0
    0.3696  -12.7626   16.2169 O   0  0  0  0  0  0  0  0  0  0  0  0
   -0.6895   -9.5676   17.3297 C   0  0  0  0  0  0  0  0  0  0  0  0
    0.8388   -5.8417   27.5264 C   0  0  0  0  0  0  0  0  0  0  0  0
   -2.0709   -7.6637   18.7817 C   0  0  0  0  0  0  0  0  0  0  0  0
   -0.5279   -8.2168   17.0717 C   0  0  0  0  0  0  0  0  0  0  0  0
    6.9694   -4.0191   27.8190 C   0  0  0  0  0  0  0  0  0  0  0  0
    5.1733   -4.5469   29.8123 C   0  0  0  0  0  0  0  0  0  0  0  0
   -1.7508  -11.3016   18.6072 C   0  0  0  0  0  0  0  0  0  0  0  0
    1.7497   -5.6771   26.4971 C   0  0  0  0  0  0  0  0  0  0  0  0
   -1.5799   -9.9322   18.3468 C   0  0  0  0  0  0  0  0  0  0  0  0
   -1.0871  -12.2214   17.8851 C   0  0  0  0  0  0  0  0  0  0  0  0
   -2.2706   -8.9669   19.0691 C   0  0  0  0  0  0  0  0  0  0  0  0
    3.0279   -5.3073   26.8197 C   0  0  0  0  0  0  0  0  0  0  0  0
    7.3282   -3.8948   29.1186 C   0  0  0  0  0  0  0  0  0  0  0  0
  1  3  4  0
  1  7  4  0
  2  3  1  0
  2  6  4  0
  2 16  4  0
  3 22  4  0
  4  9  4  0
  4 10  1  0
  4 20  4  0
  5 16  4  0
  5 23  4  0
  6 15  4  0
  7 12  4  0
  8 13  4  0
  8 14  4  0
  9 11  4  0
 11 14  4  0
 11 19  4  0
 12 18  4  0
 13 21  4  0
 15 23  4  0
 17 19  4  0
 17 20  4  0
 18 22  4  0
 19 21  4  0
M  END
$$$$

 Created by Python create_sdf_string function

 23 25  0  0  0  0  0  0  0  0999 V2000
    2.4610   -5.3070   29.1240 C   0  0  0  0  0  0  0  0  0  0  0  0
    4.7710   -4.6952   28.4803 C   0  0  0  0  0  0  0  0  0  0  0  0
    3.4047   -5.1087   28.1314 C   0  0  0  0  0  0  0  0  0  0  0  0
   -0.2234  -11.8615   16.8874 C   0  0  0  0  0  0  0  0  0  0  0  0
    6.4491   -4.1532   30.1213 C   0  0  0  0  0  0  0  0  0  0  0  0
    5.7060   -4.4340   27.4975 C   0  0  0  0  0  0  0  0  0  0  0  0
    1.1818   -5.6612   28.8399 C   0  0  0  0  0  0  0  0  0  0  0  0
   -1.2067   -7.3287   17.7772 C   0  0  0  0  0  0  0  0  0  0  0  0
   -0.0206  -10.5585   16.6210 C   0  0  0  0  0  0  0  0  0  0  0  0
    0.3696  -12.7626   16.2169 O   0  0  0  0  0  0  0  0  0  0  0  0
   -0.6895   -9.5676   17.3297 C   0  0  0  0  0  0  0  0  0  0  0  0
    0.8388   -5.8417   27.5264 C   0  0  0  0  0  0  0  0  0  0  0  0
   -2.0709   -7.6637   18.7817 C   0  0  0  0  0  0  0  0  0  0  0  0
   -0.5279   -8.2168   17.0717 C   0  0  0  0  0  0  0  0  0  0  0  0
    6.9694   -4.0191   27.8190 C   0  0  0  0  0  0  0  0  0  0  0  0
    5.1733   -4.5469   29.8123 C   0  0  0  0  0  0  0  0  0  0  0  0
   -1.7508  -11.3016   18.6072 C   0  0  0  0  0  0  0  0  0  0  0  0
    1.7497   -5.6771   26.4971 C   0  0  0  0  0  0  0  0  0  0  0  0
   -1.5799   -9.9322   18.3468 C   0  0  0  0  0  0  0  0  0  0  0  0
   -1.0871  -12.2214   17.8851 C   0  0  0  0  0  0  0  0  0  0  0  0
   -2.2706   -8.9669   19.0691 C   0  0  0  0  0  0  0  0  0  0  0  0
    3.0279   -5.3073   26.8197 C   0  0  0  0  0  0  0  0  0  0  0  0
    7.3282   -3.8948   29.1186 C   0  0  0  0  0  0  0  0  0  0  0  0
  1  3  4  0
  1  7  4  0
  2  3  1  0
  2  6  4  0
  2 16  4  0
  3 22  4  0
  4  9  4  0
  4 10  1  0
  4 20  4  0
  5 16  4  0
  5 23  4  0
  6 15  4  0
  7 12  4  0
  8 13  4  0
  8 14  4  0
  9 11  4  0
 11 14  4  0
 11 19  4  0
 12 18  4  0
 13 21  4  0
 15 23  4  0
 17 19  4  0
 17 20  4  0
 18 22  4  0
 19 21  4  0
M  END
$$$$

 Created by Python create_sdf_string function

 23 25  0  0  0  0  0  0  0  0999 V2000
    2.4610   -5.3070   29.1240 C   0  0  0  0  0  0  0  0  0  0  0  0
    4.7710   -4.6952   28.4803 C   0  0  0  0  0  0  0  0  0  0  0  0
    3.4047   -5.1087   28.1314 C   0  0  0  0  0  0  0  0  0  0  0  0
   -0.2234  -11.8615   16.8874 C   0  0  0  0  0  0  0  0  0  0  0  0
    6.4491   -4.1532   30.1213 C   0  0  0  0  0  0  0  0  0  0  0  0
    5.7060   -4.4340   27.4975 C   0  0  0  0  0  0  0  0  0  0  0  0
    1.1818   -5.6612   28.8399 C   0  0  0  0  0  0  0  0  0  0  0  0
   -1.2067   -7.3287   17.7772 C   0  0  0  0  0  0  0  0  0  0  0  0
   -0.0206  -10.5585   16.6210 C   0  0  0  0  0  0  0  0  0  0  0  0
    0.3696  -12.7626   16.2169 O   0  0  0  0  0  0  0  0  0  0  0  0
   -0.6895   -9.5676   17.3297 C   0  0  0  0  0  0  0  0  0  0  0  0
    0.8388   -5.8417   27.5264 C   0  0  0  0  0  0  0  0  0  0  0  0
   -2.0709   -7.6637   18.7817 C   0  0  0  0  0  0  0  0  0  0  0  0
   -0.5279   -8.2168   17.0717 C   0  0  0  0  0  0  0  0  0  0  0  0
    6.9694   -4.0191   27.8190 C   0  0  0  0  0  0  0  0  0  0  0  0
    5.1733   -4.5469   29.8123 C   0  0  0  0  0  0  0  0  0  0  0  0
   -1.7508  -11.3016   18.6072 C   0  0  0  0  0  0  0  0  0  0  0  0
    1.7497   -5.6771   26.4971 C   0  0  0  0  0  0  0  0  0  0  0  0
   -1.5799   -9.9322   18.3468 C   0  0  0  0  0  0  0  0  0  0  0  0
   -1.0871  -12.2214   17.8851 C   0  0  0  0  0  0  0  0  0  0  0  0
   -2.2706   -8.9669   19.0691 C   0  0  0  0  0  0  0  0  0  0  0  0
    3.0279   -5.3073   26.8197 C   0  0  0  0  0  0  0  0  0  0  0  0
    7.3282   -3.8948   29.1186 C   0  0  0  0  0  0  0  0  0  0  0  0
  1  3  4  0
  1  7  4  0
  2  3  1  0
  2  6  4  0
  2 16  4  0
  3 22  4  0
  4  9  4  0
  4 10  1  0
  4 20  4  0
  5 16  4  0
  5 23  4  0
  6 15  4  0
  7 12  4  0
  8 13  4  0
  8 14  4  0
  9 11  4  0
 11 14  4  0
 11 19  4  0
 12 18  4  0
 13 21  4  0
 15 23  4  0
 17 19  4  0
 17 20  4  0
 18 22  4  0
 19 21  4  0
M  END
$$$$

 Created by Python create_sdf_string function

 23 25  0  0  0  0  0  0  0  0999 V2000
    2.4610   -5.3070   29.1240 C   0  0  0  0  0  0  0  0  0  0  0  0
    4.7710   -4.6952   28.4803 C   0  0  0  0  0  0  0  0  0  0  0  0
    3.4047   -5.1087   28.1314 C   0  0  0  0  0  0  0  0  0  0  0  0
   -0.2234  -11.8615   16.8874 C   0  0  0  0  0  0  0  0  0  0  0  0
    6.4491   -4.1532   30.1213 C   0  0  0  0  0  0  0  0  0  0  0  0
    5.7060   -4.4340   27.4975 C   0  0  0  0  0  0  0  0  0  0  0  0
    1.1818   -5.6612   28.8399 C   0  0  0  0  0  0  0  0  0  0  0  0
   -1.2067   -7.3287   17.7772 C   0  0  0  0  0  0  0  0  0  0  0  0
   -0.0206  -10.5585   16.6210 C   0  0  0  0  0  0  0  0  0  0  0  0
    0.3696  -12.7626   16.2169 O   0  0  0  0  0  0  0  0  0  0  0  0
   -0.6895   -9.5676   17.3297 C   0  0  0  0  0  0  0  0  0  0  0  0
    0.8388   -5.8417   27.5264 C   0  0  0  0  0  0  0  0  0  0  0  0
   -2.0709   -7.6637   18.7817 C   0  0  0  0  0  0  0  0  0  0  0  0
   -0.5279   -8.2168   17.0717 C   0  0  0  0  0  0  0  0  0  0  0  0
    6.9694   -4.0191   27.8190 C   0  0  0  0  0  0  0  0  0  0  0  0
    5.1733   -4.5469   29.8123 C   0  0  0  0  0  0  0  0  0  0  0  0
   -1.7508  -11.3016   18.6072 C   0  0  0  0  0  0  0  0  0  0  0  0
    1.7497   -5.6771   26.4971 C   0  0  0  0  0  0  0  0  0  0  0  0
   -1.5799   -9.9322   18.3468 C   0  0  0  0  0  0  0  0  0  0  0  0
   -1.0871  -12.2214   17.8851 C   0  0  0  0  0  0  0  0  0  0  0  0
   -2.2706   -8.9669   19.0691 C   0  0  0  0  0  0  0  0  0  0  0  0
    3.0279   -5.3073   26.8197 C   0  0  0  0  0  0  0  0  0  0  0  0
    7.3282   -3.8948   29.1186 C   0  0  0  0  0  0  0  0  0  0  0  0
  1  3  4  0
  1  7  4  0
  2  3  1  0
  2  6  4  0
  2 16  4  0
  3 22  4  0
  4  9  4  0
  4 10  1  0
  4 20  4  0
  5 16  4  0
  5 23  4  0
  6 15  4  0
  7 12  4  0
  8 13  4  0
  8 14  4  0
  9 11  4  0
 11 14  4  0
 11 19  4  0
 12 18  4  0
 13 21  4  0
 15 23  4  0
 17 19  4  0
 17 20  4  0
 18 22  4  0
 19 21  4  0
M  END
$$$$

 Created by Python create_sdf_string function

 23 25  0  0  0  0  0  0  0  0999 V2000
    2.4610   -5.3070   29.1240 C   0  0  0  0  0  0  0  0  0  0  0  0
    4.7710   -4.6952   28.4803 C   0  0  0  0  0  0  0  0  0  0  0  0
    3.4047   -5.1087   28.1314 C   0  0  0  0  0  0  0  0  0  0  0  0
   -0.2234  -11.8615   16.8874 C   0  0  0  0  0  0  0  0  0  0  0  0
    6.4491   -4.1532   30.1213 C   0  0  0  0  0  0  0  0  0  0  0  0
    5.7060   -4.4340   27.4975 C   0  0  0  0  0  0  0  0  0  0  0  0
    1.1818   -5.6612   28.8399 C   0  0  0  0  0  0  0  0  0  0  0  0
   -1.2067   -7.3287   17.7772 C   0  0  0  0  0  0  0  0  0  0  0  0
   -0.0206  -10.5585   16.6210 C   0  0  0  0  0  0  0  0  0  0  0  0
    0.3696  -12.7626   16.2169 O   0  0  0  0  0  0  0  0  0  0  0  0
   -0.6895   -9.5676   17.3297 C   0  0  0  0  0  0  0  0  0  0  0  0
    0.8388   -5.8417   27.5264 C   0  0  0  0  0  0  0  0  0  0  0  0
   -2.0709   -7.6637   18.7817 C   0  0  0  0  0  0  0  0  0  0  0  0
   -0.5279   -8.2168   17.0717 C   0  0  0  0  0  0  0  0  0  0  0  0
    6.9694   -4.0191   27.8190 C   0  0  0  0  0  0  0  0  0  0  0  0
    5.1733   -4.5469   29.8123 C   0  0  0  0  0  0  0  0  0  0  0  0
   -1.7508  -11.3016   18.6072 C   0  0  0  0  0  0  0  0  0  0  0  0
    1.7497   -5.6771   26.4971 C   0  0  0  0  0  0  0  0  0  0  0  0
   -1.5799   -9.9322   18.3468 C   0  0  0  0  0  0  0  0  0  0  0  0
   -1.0871  -12.2214   17.8851 C   0  0  0  0  0  0  0  0  0  0  0  0
   -2.2706   -8.9669   19.0691 C   0  0  0  0  0  0  0  0  0  0  0  0
    3.0279   -5.3073   26.8197 C   0  0  0  0  0  0  0  0  0  0  0  0
    7.3282   -3.8948   29.1186 C   0  0  0  0  0  0  0  0  0  0  0  0
  1  3  4  0
  1  7  4  0
  2  3  1  0
  2  6  4  0
  2 16  4  0
  3 22  4  0
  4  9  4  0
  4 10  1  0
  4 20  4  0
  5 16  4  0
  5 23  4  0
  6 15  4  0
  7 12  4  0
  8 13  4  0
  8 14  4  0
  9 11  4  0
 11 14  4  0
 11 19  4  0
 12 18  4  0
 13 21  4  0
 15 23  4  0
 17 19  4  0
 17 20  4  0
 18 22  4  0
 19 21  4  0
M  END
$$$$

 Created by Python create_sdf_string function

 23 25  0  0  0  0  0  0  0  0999 V2000
    2.4610   -5.3070   29.1240 C   0  0  0  0  0  0  0  0  0  0  0  0
    4.7710   -4.6952   28.4803 C   0  0  0  0  0  0  0  0  0  0  0  0
    3.4047   -5.1087   28.1314 C   0  0  0  0  0  0  0  0  0  0  0  0
   -0.2234  -11.8615   16.8874 C   0  0  0  0  0  0  0  0  0  0  0  0
    6.4491   -4.1532   30.1213 C   0  0  0  0  0  0  0  0  0  0  0  0
    5.7060   -4.4340   27.4975 C   0  0  0  0  0  0  0  0  0  0  0  0
    1.1818   -5.6612   28.8399 C   0  0  0  0  0  0  0  0  0  0  0  0
   -1.2067   -7.3287   17.7772 C   0  0  0  0  0  0  0  0  0  0  0  0
   -0.0206  -10.5585   16.6210 C   0  0  0  0  0  0  0  0  0  0  0  0
    0.3696  -12.7626   16.2169 O   0  0  0  0  0  0  0  0  0  0  0  0
   -0.6895   -9.5676   17.3297 C   0  0  0  0  0  0  0  0  0  0  0  0
    0.8388   -5.8417   27.5264 C   0  0  0  0  0  0  0  0  0  0  0  0
   -2.0709   -7.6637   18.7817 C   0  0  0  0  0  0  0  0  0  0  0  0
   -0.5279   -8.2168   17.0717 C   0  0  0  0  0  0  0  0  0  0  0  0
    6.9694   -4.0191   27.8190 C   0  0  0  0  0  0  0  0  0  0  0  0
    5.1733   -4.5469   29.8123 C   0  0  0  0  0  0  0  0  0  0  0  0
   -1.7508  -11.3016   18.6072 C   0  0  0  0  0  0  0  0  0  0  0  0
    1.7497   -5.6771   26.4971 C   0  0  0  0  0  0  0  0  0  0  0  0
   -1.5799   -9.9322   18.3468 C   0  0  0  0  0  0  0  0  0  0  0  0
   -1.0871  -12.2214   17.8851 C   0  0  0  0  0  0  0  0  0  0  0  0
   -2.2706   -8.9669   19.0691 C   0  0  0  0  0  0  0  0  0  0  0  0
    3.0279   -5.3073   26.8197 C   0  0  0  0  0  0  0  0  0  0  0  0
    7.3282   -3.8948   29.1186 C   0  0  0  0  0  0  0  0  0  0  0  0
  1  3  4  0
  1  7  4  0
  2  3  1  0
  2  6  4  0
  2 16  4  0
  3 22  4  0
  4  9  4  0
  4 10  1  0
  4 20  4  0
  5 16  4  0
  5 23  4  0
  6 15  4  0
  7 12  4  0
  8 13  4  0
  8 14  4  0
  9 11  4  0
 11 14  4  0
 11 19  4  0
 12 18  4  0
 13 21  4  0
 15 23  4  0
 17 19  4  0
 17 20  4  0
 18 22  4  0
 19 21  4  0
M  END
$$$$

 Created by Python create_sdf_string function

 23 25  0  0  0  0  0  0  0  0999 V2000
    2.4610   -5.3070   29.1240 C   0  0  0  0  0  0  0  0  0  0  0  0
    4.7710   -4.6952   28.4803 C   0  0  0  0  0  0  0  0  0  0  0  0
    3.4047   -5.1087   28.1314 C   0  0  0  0  0  0  0  0  0  0  0  0
   -0.2234  -11.8615   16.8874 C   0  0  0  0  0  0  0  0  0  0  0  0
    6.4491   -4.1532   30.1213 C   0  0  0  0  0  0  0  0  0  0  0  0
    5.7060   -4.4340   27.4975 C   0  0  0  0  0  0  0  0  0  0  0  0
    1.1818   -5.6612   28.8399 C   0  0  0  0  0  0  0  0  0  0  0  0
   -1.2067   -7.3287   17.7772 C   0  0  0  0  0  0  0  0  0  0  0  0
   -0.0206  -10.5585   16.6210 C   0  0  0  0  0  0  0  0  0  0  0  0
    0.3696  -12.7626   16.2169 O   0  0  0  0  0  0  0  0  0  0  0  0
   -0.6895   -9.5676   17.3297 C   0  0  0  0  0  0  0  0  0  0  0  0
    0.8388   -5.8417   27.5264 C   0  0  0  0  0  0  0  0  0  0  0  0
   -2.0709   -7.6637   18.7817 C   0  0  0  0  0  0  0  0  0  0  0  0
   -0.5279   -8.2168   17.0717 C   0  0  0  0  0  0  0  0  0  0  0  0
    6.9694   -4.0191   27.8190 C   0  0  0  0  0  0  0  0  0  0  0  0
    5.1733   -4.5469   29.8123 C   0  0  0  0  0  0  0  0  0  0  0  0
   -1.7508  -11.3016   18.6072 C   0  0  0  0  0  0  0  0  0  0  0  0
    1.7497   -5.6771   26.4971 C   0  0  0  0  0  0  0  0  0  0  0  0
   -1.5799   -9.9322   18.3468 C   0  0  0  0  0  0  0  0  0  0  0  0
   -1.0871  -12.2214   17.8851 C   0  0  0  0  0  0  0  0  0  0  0  0
   -2.2706   -8.9669   19.0691 C   0  0  0  0  0  0  0  0  0  0  0  0
    3.0279   -5.3073   26.8197 C   0  0  0  0  0  0  0  0  0  0  0  0
    7.3282   -3.8948   29.1186 C   0  0  0  0  0  0  0  0  0  0  0  0
  1  3  4  0
  1  7  4  0
  2  3  1  0
  2  6  4  0
  2 16  4  0
  3 22  4  0
  4  9  4  0
  4 10  1  0
  4 20  4  0
  5 16  4  0
  5 23  4  0
  6 15  4  0
  7 12  4  0
  8 13  4  0
  8 14  4  0
  9 11  4  0
 11 14  4  0
 11 19  4  0
 12 18  4  0
 13 21  4  0
 15 23  4  0
 17 19  4  0
 17 20  4  0
 18 22  4  0
 19 21  4  0
M  END
$$$$

 Created by Python create_sdf_string function

 23 25  0  0  0  0  0  0  0  0999 V2000
    2.4610   -5.3070   29.1240 C   0  0  0  0  0  0  0  0  0  0  0  0
    4.7710   -4.6952   28.4803 C   0  0  0  0  0  0  0  0  0  0  0  0
    3.4047   -5.1087   28.1314 C   0  0  0  0  0  0  0  0  0  0  0  0
   -0.2234  -11.8615   16.8874 C   0  0  0  0  0  0  0  0  0  0  0  0
    6.4491   -4.1532   30.1213 C   0  0  0  0  0  0  0  0  0  0  0  0
    5.7060   -4.4340   27.4975 C   0  0  0  0  0  0  0  0  0  0  0  0
    1.1818   -5.6612   28.8399 C   0  0  0  0  0  0  0  0  0  0  0  0
   -1.2067   -7.3287   17.7772 C   0  0  0  0  0  0  0  0  0  0  0  0
   -0.0206  -10.5585   16.6210 C   0  0  0  0  0  0  0  0  0  0  0  0
    0.3696  -12.7626   16.2169 O   0  0  0  0  0  0  0  0  0  0  0  0
   -0.6895   -9.5676   17.3297 C   0  0  0  0  0  0  0  0  0  0  0  0
    0.8388   -5.8417   27.5264 C   0  0  0  0  0  0  0  0  0  0  0  0
   -2.0709   -7.6637   18.7817 C   0  0  0  0  0  0  0  0  0  0  0  0
   -0.5279   -8.2168   17.0717 C   0  0  0  0  0  0  0  0  0  0  0  0
    6.9694   -4.0191   27.8190 C   0  0  0  0  0  0  0  0  0  0  0  0
    5.1733   -4.5469   29.8123 C   0  0  0  0  0  0  0  0  0  0  0  0
   -1.7508  -11.3016   18.6072 C   0  0  0  0  0  0  0  0  0  0  0  0
    1.7497   -5.6771   26.4971 C   0  0  0  0  0  0  0  0  0  0  0  0
   -1.5799   -9.9322   18.3468 C   0  0  0  0  0  0  0  0  0  0  0  0
   -1.0871  -12.2214   17.8851 C   0  0  0  0  0  0  0  0  0  0  0  0
   -2.2706   -8.9669   19.0691 C   0  0  0  0  0  0  0  0  0  0  0  0
    3.0279   -5.3073   26.8197 C   0  0  0  0  0  0  0  0  0  0  0  0
    7.3282   -3.8948   29.1186 C   0  0  0  0  0  0  0  0  0  0  0  0
  1  3  4  0
  1  7  4  0
  2  3  1  0
  2  6  4  0
  2 16  4  0
  3 22  4  0
  4  9  4  0
  4 10  1  0
  4 20  4  0
  5 16  4  0
  5 23  4  0
  6 15  4  0
  7 12  4  0
  8 13  4  0
  8 14  4  0
  9 11  4  0
 11 14  4  0
 11 19  4  0
 12 18  4  0
 13 21  4  0
 15 23  4  0
 17 19  4  0
 17 20  4  0
 18 22  4  0
 19 21  4  0
M  END
$$$$

 Created by Python create_sdf_string function

 23 25  0  0  0  0  0  0  0  0999 V2000
    2.4610   -5.3070   29.1240 C   0  0  0  0  0  0  0  0  0  0  0  0
    4.7710   -4.6952   28.4803 C   0  0  0  0  0  0  0  0  0  0  0  0
    3.4047   -5.1087   28.1314 C   0  0  0  0  0  0  0  0  0  0  0  0
   -0.2234  -11.8615   16.8874 C   0  0  0  0  0  0  0  0  0  0  0  0
    6.4491   -4.1532   30.1213 C   0  0  0  0  0  0  0  0  0  0  0  0
    5.7060   -4.4340   27.4975 C   0  0  0  0  0  0  0  0  0  0  0  0
    1.1818   -5.6612   28.8399 C   0  0  0  0  0  0  0  0  0  0  0  0
   -1.2067   -7.3287   17.7772 C   0  0  0  0  0  0  0  0  0  0  0  0
   -0.0206  -10.5585   16.6210 C   0  0  0  0  0  0  0  0  0  0  0  0
    0.3696  -12.7626   16.2169 O   0  0  0  0  0  0  0  0  0  0  0  0
   -0.6895   -9.5676   17.3297 C   0  0  0  0  0  0  0  0  0  0  0  0
    0.8388   -5.8417   27.5264 C   0  0  0  0  0  0  0  0  0  0  0  0
   -2.0709   -7.6637   18.7817 C   0  0  0  0  0  0  0  0  0  0  0  0
   -0.5279   -8.2168   17.0717 C   0  0  0  0  0  0  0  0  0  0  0  0
    6.9694   -4.0191   27.8190 C   0  0  0  0  0  0  0  0  0  0  0  0
    5.1733   -4.5469   29.8123 C   0  0  0  0  0  0  0  0  0  0  0  0
   -1.7508  -11.3016   18.6072 C   0  0  0  0  0  0  0  0  0  0  0  0
    1.7497   -5.6771   26.4971 C   0  0  0  0  0  0  0  0  0  0  0  0
   -1.5799   -9.9322   18.3468 C   0  0  0  0  0  0  0  0  0  0  0  0
   -1.0871  -12.2214   17.8851 C   0  0  0  0  0  0  0  0  0  0  0  0
   -2.2706   -8.9669   19.0691 C   0  0  0  0  0  0  0  0  0  0  0  0
    3.0279   -5.3073   26.8197 C   0  0  0  0  0  0  0  0  0  0  0  0
    7.3282   -3.8948   29.1186 C   0  0  0  0  0  0  0  0  0  0  0  0
  1  3  4  0
  1  7  4  0
  2  3  1  0
  2  6  4  0
  2 16  4  0
  3 22  4  0
  4  9  4  0
  4 10  1  0
  4 20  4  0
  5 16  4  0
  5 23  4  0
  6 15  4  0
  7 12  4  0
  8 13  4  0
  8 14  4  0
  9 11  4  0
 11 14  4  0
 11 19  4  0
 12 18  4  0
 13 21  4  0
 15 23  4  0
 17 19  4  0
 17 20  4  0
 18 22  4  0
 19 21  4  0
M  END
$$$$

 Created by Python create_sdf_string function

 23 25  0  0  0  0  0  0  0  0999 V2000
    2.4610   -5.3070   29.1240 C   0  0  0  0  0  0  0  0  0  0  0  0
    4.7710   -4.6952   28.4803 C   0  0  0  0  0  0  0  0  0  0  0  0
    3.4047   -5.1087   28.1314 C   0  0  0  0  0  0  0  0  0  0  0  0
   -0.2234  -11.8615   16.8874 C   0  0  0  0  0  0  0  0  0  0  0  0
    6.4491   -4.1532   30.1213 C   0  0  0  0  0  0  0  0  0  0  0  0
    5.7060   -4.4340   27.4975 C   0  0  0  0  0  0  0  0  0  0  0  0
    1.1818   -5.6612   28.8399 C   0  0  0  0  0  0  0  0  0  0  0  0
   -1.2067   -7.3287   17.7772 C   0  0  0  0  0  0  0  0  0  0  0  0
   -0.0206  -10.5585   16.6210 C   0  0  0  0  0  0  0  0  0  0  0  0
    0.3696  -12.7626   16.2169 O   0  0  0  0  0  0  0  0  0  0  0  0
   -0.6895   -9.5676   17.3297 C   0  0  0  0  0  0  0  0  0  0  0  0
    0.8388   -5.8417   27.5264 C   0  0  0  0  0  0  0  0  0  0  0  0
   -2.0709   -7.6637   18.7817 C   0  0  0  0  0  0  0  0  0  0  0  0
   -0.5279   -8.2168   17.0717 C   0  0  0  0  0  0  0  0  0  0  0  0
    6.9694   -4.0191   27.8190 C   0  0  0  0  0  0  0  0  0  0  0  0
    5.1733   -4.5469   29.8123 C   0  0  0  0  0  0  0  0  0  0  0  0
   -1.7508  -11.3016   18.6072 C   0  0  0  0  0  0  0  0  0  0  0  0
    1.7497   -5.6771   26.4971 C   0  0  0  0  0  0  0  0  0  0  0  0
   -1.5799   -9.9322   18.3468 C   0  0  0  0  0  0  0  0  0  0  0  0
   -1.0871  -12.2214   17.8851 C   0  0  0  0  0  0  0  0  0  0  0  0
   -2.2706   -8.9669   19.0691 C   0  0  0  0  0  0  0  0  0  0  0  0
    3.0279   -5.3073   26.8197 C   0  0  0  0  0  0  0  0  0  0  0  0
    7.3282   -3.8948   29.1186 C   0  0  0  0  0  0  0  0  0  0  0  0
  1  3  4  0
  1  7  4  0
  2  3  1  0
  2  6  4  0
  2 16  4  0
  3 22  4  0
  4  9  4  0
  4 10  1  0
  4 20  4  0
  5 16  4  0
  5 23  4  0
  6 15  4  0
  7 12  4  0
  8 13  4  0
  8 14  4  0
  9 11  4  0
 11 14  4  0
 11 19  4  0
 12 18  4  0
 13 21  4  0
 15 23  4  0
 17 19  4  0
 17 20  4  0
 18 22  4  0
 19 21  4  0
M  END
$$$$

 Created by Python create_sdf_string function

 23 25  0  0  0  0  0  0  0  0999 V2000
    2.4610   -5.3070   29.1240 C   0  0  0  0  0  0  0  0  0  0  0  0
    4.7710   -4.6952   28.4803 C   0  0  0  0  0  0  0  0  0  0  0  0
    3.4047   -5.1087   28.1314 C   0  0  0  0  0  0  0  0  0  0  0  0
   -0.2234  -11.8615   16.8874 C   0  0  0  0  0  0  0  0  0  0  0  0
    6.4491   -4.1532   30.1213 C   0  0  0  0  0  0  0  0  0  0  0  0
    5.7060   -4.4340   27.4975 C   0  0  0  0  0  0  0  0  0  0  0  0
    1.1818   -5.6612   28.8399 C   0  0  0  0  0  0  0  0  0  0  0  0
   -1.2067   -7.3287   17.7772 C   0  0  0  0  0  0  0  0  0  0  0  0
   -0.0206  -10.5585   16.6210 C   0  0  0  0  0  0  0  0  0  0  0  0
    0.3696  -12.7626   16.2169 O   0  0  0  0  0  0  0  0  0  0  0  0
   -0.6895   -9.5676   17.3297 C   0  0  0  0  0  0  0  0  0  0  0  0
    0.8388   -5.8417   27.5264 C   0  0  0  0  0  0  0  0  0  0  0  0
   -2.0709   -7.6637   18.7817 C   0  0  0  0  0  0  0  0  0  0  0  0
   -0.5279   -8.2168   17.0717 C   0  0  0  0  0  0  0  0  0  0  0  0
    6.9694   -4.0191   27.8190 C   0  0  0  0  0  0  0  0  0  0  0  0
    5.1733   -4.5469   29.8123 C   0  0  0  0  0  0  0  0  0  0  0  0
   -1.7508  -11.3016   18.6072 C   0  0  0  0  0  0  0  0  0  0  0  0
    1.7497   -5.6771   26.4971 C   0  0  0  0  0  0  0  0  0  0  0  0
   -1.5799   -9.9322   18.3468 C   0  0  0  0  0  0  0  0  0  0  0  0
   -1.0871  -12.2214   17.8851 C   0  0  0  0  0  0  0  0  0  0  0  0
   -2.2706   -8.9669   19.0691 C   0  0  0  0  0  0  0  0  0  0  0  0
    3.0279   -5.3073   26.8197 C   0  0  0  0  0  0  0  0  0  0  0  0
    7.3282   -3.8948   29.1186 C   0  0  0  0  0  0  0  0  0  0  0  0
  1  3  4  0
  1  7  4  0
  2  3  1  0
  2  6  4  0
  2 16  4  0
  3 22  4  0
  4  9  4  0
  4 10  1  0
  4 20  4  0
  5 16  4  0
  5 23  4  0
  6 15  4  0
  7 12  4  0
  8 13  4  0
  8 14  4  0
  9 11  4  0
 11 14  4  0
 11 19  4  0
 12 18  4  0
 13 21  4  0
 15 23  4  0
 17 19  4  0
 17 20  4  0
 18 22  4  0
 19 21  4  0
M  END
$$$$

 Created by Python create_sdf_string function

 23 25  0  0  0  0  0  0  0  0999 V2000
    2.4610   -5.3070   29.1240 C   0  0  0  0  0  0  0  0  0  0  0  0
    4.7710   -4.6952   28.4803 C   0  0  0  0  0  0  0  0  0  0  0  0
    3.4047   -5.1087   28.1314 C   0  0  0  0  0  0  0  0  0  0  0  0
   -0.2234  -11.8615   16.8874 C   0  0  0  0  0  0  0  0  0  0  0  0
    6.4491   -4.1532   30.1213 C   0  0  0  0  0  0  0  0  0  0  0  0
    5.7060   -4.4340   27.4975 C   0  0  0  0  0  0  0  0  0  0  0  0
    1.1818   -5.6612   28.8399 C   0  0  0  0  0  0  0  0  0  0  0  0
   -1.2067   -7.3287   17.7772 C   0  0  0  0  0  0  0  0  0  0  0  0
   -0.0206  -10.5585   16.6210 C   0  0  0  0  0  0  0  0  0  0  0  0
    0.3696  -12.7626   16.2169 O   0  0  0  0  0  0  0  0  0  0  0  0
   -0.6895   -9.5676   17.3297 C   0  0  0  0  0  0  0  0  0  0  0  0
    0.8388   -5.8417   27.5264 C   0  0  0  0  0  0  0  0  0  0  0  0
   -2.0709   -7.6637   18.7817 C   0  0  0  0  0  0  0  0  0  0  0  0
   -0.5279   -8.2168   17.0717 C   0  0  0  0  0  0  0  0  0  0  0  0
    6.9694   -4.0191   27.8190 C   0  0  0  0  0  0  0  0  0  0  0  0
    5.1733   -4.5469   29.8123 C   0  0  0  0  0  0  0  0  0  0  0  0
   -1.7508  -11.3016   18.6072 C   0  0  0  0  0  0  0  0  0  0  0  0
    1.7497   -5.6771   26.4971 C   0  0  0  0  0  0  0  0  0  0  0  0
   -1.5799   -9.9322   18.3468 C   0  0  0  0  0  0  0  0  0  0  0  0
   -1.0871  -12.2214   17.8851 C   0  0  0  0  0  0  0  0  0  0  0  0
   -2.2706   -8.9669   19.0691 C   0  0  0  0  0  0  0  0  0  0  0  0
    3.0279   -5.3073   26.8197 C   0  0  0  0  0  0  0  0  0  0  0  0
    7.3282   -3.8948   29.1186 C   0  0  0  0  0  0  0  0  0  0  0  0
  1  3  4  0
  1  7  4  0
  2  3  1  0
  2  6  4  0
  2 16  4  0
  3 22  4  0
  4  9  4  0
  4 10  1  0
  4 20  4  0
  5 16  4  0
  5 23  4  0
  6 15  4  0
  7 12  4  0
  8 13  4  0
  8 14  4  0
  9 11  4  0
 11 14  4  0
 11 19  4  0
 12 18  4  0
 13 21  4  0
 15 23  4  0
 17 19  4  0
 17 20  4  0
 18 22  4  0
 19 21  4  0
M  END
$$$$

 Created by Python create_sdf_string function

 23 25  0  0  0  0  0  0  0  0999 V2000
    2.4610   -5.3070   29.1240 C   0  0  0  0  0  0  0  0  0  0  0  0
    4.7710   -4.6952   28.4803 C   0  0  0  0  0  0  0  0  0  0  0  0
    3.4047   -5.1087   28.1314 C   0  0  0  0  0  0  0  0  0  0  0  0
   -0.2234  -11.8615   16.8874 C   0  0  0  0  0  0  0  0  0  0  0  0
    6.4491   -4.1532   30.1213 C   0  0  0  0  0  0  0  0  0  0  0  0
    5.7060   -4.4340   27.4975 C   0  0  0  0  0  0  0  0  0  0  0  0
    1.1818   -5.6612   28.8399 C   0  0  0  0  0  0  0  0  0  0  0  0
   -1.2067   -7.3287   17.7772 C   0  0  0  0  0  0  0  0  0  0  0  0
   -0.0206  -10.5585   16.6210 C   0  0  0  0  0  0  0  0  0  0  0  0
    0.3696  -12.7626   16.2169 O   0  0  0  0  0  0  0  0  0  0  0  0
   -0.6895   -9.5676   17.3297 C   0  0  0  0  0  0  0  0  0  0  0  0
    0.8388   -5.8417   27.5264 C   0  0  0  0  0  0  0  0  0  0  0  0
   -2.0709   -7.6637   18.7817 C   0  0  0  0  0  0  0  0  0  0  0  0
   -0.5279   -8.2168   17.0717 C   0  0  0  0  0  0  0  0  0  0  0  0
    6.9694   -4.0191   27.8190 C   0  0  0  0  0  0  0  0  0  0  0  0
    5.1733   -4.5469   29.8123 C   0  0  0  0  0  0  0  0  0  0  0  0
   -1.7508  -11.3016   18.6072 C   0  0  0  0  0  0  0  0  0  0  0  0
    1.7497   -5.6771   26.4971 C   0  0  0  0  0  0  0  0  0  0  0  0
   -1.5799   -9.9322   18.3468 C   0  0  0  0  0  0  0  0  0  0  0  0
   -1.0871  -12.2214   17.8851 C   0  0  0  0  0  0  0  0  0  0  0  0
   -2.2706   -8.9669   19.0691 C   0  0  0  0  0  0  0  0  0  0  0  0
    3.0279   -5.3073   26.8197 C   0  0  0  0  0  0  0  0  0  0  0  0
    7.3282   -3.8948   29.1186 C   0  0  0  0  0  0  0  0  0  0  0  0
  1  3  4  0
  1  7  4  0
  2  3  1  0
  2  6  4  0
  2 16  4  0
  3 22  4  0
  4  9  4  0
  4 10  1  0
  4 20  4  0
  5 16  4  0
  5 23  4  0
  6 15  4  0
  7 12  4  0
  8 13  4  0
  8 14  4  0
  9 11  4  0
 11 14  4  0
 11 19  4  0
 12 18  4  0
 13 21  4  0
 15 23  4  0
 17 19  4  0
 17 20  4  0
 18 22  4  0
 19 21  4  0
M  END
$$$$

 Created by Python create_sdf_string function

 23 25  0  0  0  0  0  0  0  0999 V2000
    2.4610   -5.3070   29.1240 C   0  0  0  0  0  0  0  0  0  0  0  0
    4.7710   -4.6952   28.4803 C   0  0  0  0  0  0  0  0  0  0  0  0
    3.4047   -5.1087   28.1314 C   0  0  0  0  0  0  0  0  0  0  0  0
   -0.2234  -11.8615   16.8874 C   0  0  0  0  0  0  0  0  0  0  0  0
    6.4491   -4.1532   30.1213 C   0  0  0  0  0  0  0  0  0  0  0  0
    5.7060   -4.4340   27.4975 C   0  0  0  0  0  0  0  0  0  0  0  0
    1.1818   -5.6612   28.8399 C   0  0  0  0  0  0  0  0  0  0  0  0
   -1.2067   -7.3287   17.7772 C   0  0  0  0  0  0  0  0  0  0  0  0
   -0.0206  -10.5585   16.6210 C   0  0  0  0  0  0  0  0  0  0  0  0
    0.3696  -12.7626   16.2169 O   0  0  0  0  0  0  0  0  0  0  0  0
   -0.6895   -9.5676   17.3297 C   0  0  0  0  0  0  0  0  0  0  0  0
    0.8388   -5.8417   27.5264 C   0  0  0  0  0  0  0  0  0  0  0  0
   -2.0709   -7.6637   18.7817 C   0  0  0  0  0  0  0  0  0  0  0  0
   -0.5279   -8.2168   17.0717 C   0  0  0  0  0  0  0  0  0  0  0  0
    6.9694   -4.0191   27.8190 C   0  0  0  0  0  0  0  0  0  0  0  0
    5.1733   -4.5469   29.8123 C   0  0  0  0  0  0  0  0  0  0  0  0
   -1.7508  -11.3016   18.6072 C   0  0  0  0  0  0  0  0  0  0  0  0
    1.7497   -5.6771   26.4971 C   0  0  0  0  0  0  0  0  0  0  0  0
   -1.5799   -9.9322   18.3468 C   0  0  0  0  0  0  0  0  0  0  0  0
   -1.0871  -12.2214   17.8851 C   0  0  0  0  0  0  0  0  0  0  0  0
   -2.2706   -8.9669   19.0691 C   0  0  0  0  0  0  0  0  0  0  0  0
    3.0279   -5.3073   26.8197 C   0  0  0  0  0  0  0  0  0  0  0  0
    7.3282   -3.8948   29.1186 C   0  0  0  0  0  0  0  0  0  0  0  0
  1  3  4  0
  1  7  4  0
  2  3  1  0
  2  6  4  0
  2 16  4  0
  3 22  4  0
  4  9  4  0
  4 10  1  0
  4 20  4  0
  5 16  4  0
  5 23  4  0
  6 15  4  0
  7 12  4  0
  8 13  4  0
  8 14  4  0
  9 11  4  0
 11 14  4  0
 11 19  4  0
 12 18  4  0
 13 21  4  0
 15 23  4  0
 17 19  4  0
 17 20  4  0
 18 22  4  0
 19 21  4  0
M  END
$$$$

 Created by Python create_sdf_string function

 23 25  0  0  0  0  0  0  0  0999 V2000
    2.4610   -5.3070   29.1240 C   0  0  0  0  0  0  0  0  0  0  0  0
    4.7710   -4.6952   28.4803 C   0  0  0  0  0  0  0  0  0  0  0  0
    3.4047   -5.1087   28.1314 C   0  0  0  0  0  0  0  0  0  0  0  0
   -0.2234  -11.8615   16.8874 C   0  0  0  0  0  0  0  0  0  0  0  0
    6.4491   -4.1532   30.1213 C   0  0  0  0  0  0  0  0  0  0  0  0
    5.7060   -4.4340   27.4975 C   0  0  0  0  0  0  0  0  0  0  0  0
    1.1818   -5.6612   28.8399 C   0  0  0  0  0  0  0  0  0  0  0  0
   -1.2067   -7.3287   17.7772 C   0  0  0  0  0  0  0  0  0  0  0  0
   -0.0206  -10.5585   16.6210 C   0  0  0  0  0  0  0  0  0  0  0  0
    0.3696  -12.7626   16.2169 O   0  0  0  0  0  0  0  0  0  0  0  0
   -0.6895   -9.5676   17.3297 C   0  0  0  0  0  0  0  0  0  0  0  0
    0.8388   -5.8417   27.5264 C   0  0  0  0  0  0  0  0  0  0  0  0
   -2.0709   -7.6637   18.7817 C   0  0  0  0  0  0  0  0  0  0  0  0
   -0.5279   -8.2168   17.0717 C   0  0  0  0  0  0  0  0  0  0  0  0
    6.9694   -4.0191   27.8190 C   0  0  0  0  0  0  0  0  0  0  0  0
    5.1733   -4.5469   29.8123 C   0  0  0  0  0  0  0  0  0  0  0  0
   -1.7508  -11.3016   18.6072 C   0  0  0  0  0  0  0  0  0  0  0  0
    1.7497   -5.6771   26.4971 C   0  0  0  0  0  0  0  0  0  0  0  0
   -1.5799   -9.9322   18.3468 C   0  0  0  0  0  0  0  0  0  0  0  0
   -1.0871  -12.2214   17.8851 C   0  0  0  0  0  0  0  0  0  0  0  0
   -2.2706   -8.9669   19.0691 C   0  0  0  0  0  0  0  0  0  0  0  0
    3.0279   -5.3073   26.8197 C   0  0  0  0  0  0  0  0  0  0  0  0
    7.3282   -3.8948   29.1186 C   0  0  0  0  0  0  0  0  0  0  0  0
  1  3  4  0
  1  7  4  0
  2  3  1  0
  2  6  4  0
  2 16  4  0
  3 22  4  0
  4  9  4  0
  4 10  1  0
  4 20  4  0
  5 16  4  0
  5 23  4  0
  6 15  4  0
  7 12  4  0
  8 13  4  0
  8 14  4  0
  9 11  4  0
 11 14  4  0
 11 19  4  0
 12 18  4  0
 13 21  4  0
 15 23  4  0
 17 19  4  0
 17 20  4  0
 18 22  4  0
 19 21  4  0
M  END
$$$$

 Created by Python create_sdf_string function

 23 25  0  0  0  0  0  0  0  0999 V2000
    2.4610   -5.3070   29.1240 C   0  0  0  0  0  0  0  0  0  0  0  0
    4.7710   -4.6952   28.4803 C   0  0  0  0  0  0  0  0  0  0  0  0
    3.4047   -5.1087   28.1314 C   0  0  0  0  0  0  0  0  0  0  0  0
   -0.2234  -11.8615   16.8874 C   0  0  0  0  0  0  0  0  0  0  0  0
    6.4491   -4.1532   30.1213 C   0  0  0  0  0  0  0  0  0  0  0  0
    5.7060   -4.4340   27.4975 C   0  0  0  0  0  0  0  0  0  0  0  0
    1.1818   -5.6612   28.8399 C   0  0  0  0  0  0  0  0  0  0  0  0
   -1.2067   -7.3287   17.7772 C   0  0  0  0  0  0  0  0  0  0  0  0
   -0.0206  -10.5585   16.6210 C   0  0  0  0  0  0  0  0  0  0  0  0
    0.3696  -12.7626   16.2169 O   0  0  0  0  0  0  0  0  0  0  0  0
   -0.6895   -9.5676   17.3297 C   0  0  0  0  0  0  0  0  0  0  0  0
    0.8388   -5.8417   27.5264 C   0  0  0  0  0  0  0  0  0  0  0  0
   -2.0709   -7.6637   18.7817 C   0  0  0  0  0  0  0  0  0  0  0  0
   -0.5279   -8.2168   17.0717 C   0  0  0  0  0  0  0  0  0  0  0  0
    6.9694   -4.0191   27.8190 C   0  0  0  0  0  0  0  0  0  0  0  0
    5.1733   -4.5469   29.8123 C   0  0  0  0  0  0  0  0  0  0  0  0
   -1.7508  -11.3016   18.6072 C   0  0  0  0  0  0  0  0  0  0  0  0
    1.7497   -5.6771   26.4971 C   0  0  0  0  0  0  0  0  0  0  0  0
   -1.5799   -9.9322   18.3468 C   0  0  0  0  0  0  0  0  0  0  0  0
   -1.0871  -12.2214   17.8851 C   0  0  0  0  0  0  0  0  0  0  0  0
   -2.2706   -8.9669   19.0691 C   0  0  0  0  0  0  0  0  0  0  0  0
    3.0279   -5.3073   26.8197 C   0  0  0  0  0  0  0  0  0  0  0  0
    7.3282   -3.8948   29.1186 C   0  0  0  0  0  0  0  0  0  0  0  0
  1  3  4  0
  1  7  4  0
  2  3  1  0
  2  6  4  0
  2 16  4  0
  3 22  4  0
  4  9  4  0
  4 10  1  0
  4 20  4  0
  5 16  4  0
  5 23  4  0
  6 15  4  0
  7 12  4  0
  8 13  4  0
  8 14  4  0
  9 11  4  0
 11 14  4  0
 11 19  4  0
 12 18  4  0
 13 21  4  0
 15 23  4  0
 17 19  4  0
 17 20  4  0
 18 22  4  0
 19 21  4  0
M  END
$$$$

 Created by Python create_sdf_string function

 23 25  0  0  0  0  0  0  0  0999 V2000
    2.4610   -5.3070   29.1240 C   0  0  0  0  0  0  0  0  0  0  0  0
    4.7710   -4.6952   28.4803 C   0  0  0  0  0  0  0  0  0  0  0  0
    3.4047   -5.1087   28.1314 C   0  0  0  0  0  0  0  0  0  0  0  0
   -0.2234  -11.8615   16.8874 C   0  0  0  0  0  0  0  0  0  0  0  0
    6.4491   -4.1532   30.1213 C   0  0  0  0  0  0  0  0  0  0  0  0
    5.7060   -4.4340   27.4975 C   0  0  0  0  0  0  0  0  0  0  0  0
    1.1818   -5.6612   28.8399 C   0  0  0  0  0  0  0  0  0  0  0  0
   -1.2067   -7.3287   17.7772 C   0  0  0  0  0  0  0  0  0  0  0  0
   -0.0206  -10.5585   16.6210 C   0  0  0  0  0  0  0  0  0  0  0  0
    0.3696  -12.7626   16.2169 O   0  0  0  0  0  0  0  0  0  0  0  0
   -0.6895   -9.5676   17.3297 C   0  0  0  0  0  0  0  0  0  0  0  0
    0.8388   -5.8417   27.5264 C   0  0  0  0  0  0  0  0  0  0  0  0
   -2.0709   -7.6637   18.7817 C   0  0  0  0  0  0  0  0  0  0  0  0
   -0.5279   -8.2168   17.0717 C   0  0  0  0  0  0  0  0  0  0  0  0
    6.9694   -4.0191   27.8190 C   0  0  0  0  0  0  0  0  0  0  0  0
    5.1733   -4.5469   29.8123 C   0  0  0  0  0  0  0  0  0  0  0  0
   -1.7508  -11.3016   18.6072 C   0  0  0  0  0  0  0  0  0  0  0  0
    1.7497   -5.6771   26.4971 C   0  0  0  0  0  0  0  0  0  0  0  0
   -1.5799   -9.9322   18.3468 C   0  0  0  0  0  0  0  0  0  0  0  0
   -1.0871  -12.2214   17.8851 C   0  0  0  0  0  0  0  0  0  0  0  0
   -2.2706   -8.9669   19.0691 C   0  0  0  0  0  0  0  0  0  0  0  0
    3.0279   -5.3073   26.8197 C   0  0  0  0  0  0  0  0  0  0  0  0
    7.3282   -3.8948   29.1186 C   0  0  0  0  0  0  0  0  0  0  0  0
  1  3  4  0
  1  7  4  0
  2  3  1  0
  2  6  4  0
  2 16  4  0
  3 22  4  0
  4  9  4  0
  4 10  1  0
  4 20  4  0
  5 16  4  0
  5 23  4  0
  6 15  4  0
  7 12  4  0
  8 13  4  0
  8 14  4  0
  9 11  4  0
 11 14  4  0
 11 19  4  0
 12 18  4  0
 13 21  4  0
 15 23  4  0
 17 19  4  0
 17 20  4  0
 18 22  4  0
 19 21  4  0
M  END
$$$$

 Created by Python create_sdf_string function

 23 25  0  0  0  0  0  0  0  0999 V2000
    2.4610   -5.3070   29.1240 C   0  0  0  0  0  0  0  0  0  0  0  0
    4.7710   -4.6952   28.4803 C   0  0  0  0  0  0  0  0  0  0  0  0
    3.4047   -5.1087   28.1314 C   0  0  0  0  0  0  0  0  0  0  0  0
   -0.2234  -11.8615   16.8874 C   0  0  0  0  0  0  0  0  0  0  0  0
    6.4491   -4.1532   30.1213 C   0  0  0  0  0  0  0  0  0  0  0  0
    5.7060   -4.4340   27.4975 C   0  0  0  0  0  0  0  0  0  0  0  0
    1.1818   -5.6612   28.8399 C   0  0  0  0  0  0  0  0  0  0  0  0
   -1.2067   -7.3287   17.7772 C   0  0  0  0  0  0  0  0  0  0  0  0
   -0.0206  -10.5585   16.6210 C   0  0  0  0  0  0  0  0  0  0  0  0
    0.3696  -12.7626   16.2169 O   0  0  0  0  0  0  0  0  0  0  0  0
   -0.6895   -9.5676   17.3297 C   0  0  0  0  0  0  0  0  0  0  0  0
    0.8388   -5.8417   27.5264 C   0  0  0  0  0  0  0  0  0  0  0  0
   -2.0709   -7.6637   18.7817 C   0  0  0  0  0  0  0  0  0  0  0  0
   -0.5279   -8.2168   17.0717 C   0  0  0  0  0  0  0  0  0  0  0  0
    6.9694   -4.0191   27.8190 C   0  0  0  0  0  0  0  0  0  0  0  0
    5.1733   -4.5469   29.8123 C   0  0  0  0  0  0  0  0  0  0  0  0
   -1.7508  -11.3016   18.6072 C   0  0  0  0  0  0  0  0  0  0  0  0
    1.7497   -5.6771   26.4971 C   0  0  0  0  0  0  0  0  0  0  0  0
   -1.5799   -9.9322   18.3468 C   0  0  0  0  0  0  0  0  0  0  0  0
   -1.0871  -12.2214   17.8851 C   0  0  0  0  0  0  0  0  0  0  0  0
   -2.2706   -8.9669   19.0691 C   0  0  0  0  0  0  0  0  0  0  0  0
    3.0279   -5.3073   26.8197 C   0  0  0  0  0  0  0  0  0  0  0  0
    7.3282   -3.8948   29.1186 C   0  0  0  0  0  0  0  0  0  0  0  0
  1  3  4  0
  1  7  4  0
  2  3  1  0
  2  6  4  0
  2 16  4  0
  3 22  4  0
  4  9  4  0
  4 10  1  0
  4 20  4  0
  5 16  4  0
  5 23  4  0
  6 15  4  0
  7 12  4  0
  8 13  4  0
  8 14  4  0
  9 11  4  0
 11 14  4  0
 11 19  4  0
 12 18  4  0
 13 21  4  0
 15 23  4  0
 17 19  4  0
 17 20  4  0
 18 22  4  0
 19 21  4  0
M  END
$$$$

 Created by Python create_sdf_string function

 23 25  0  0  0  0  0  0  0  0999 V2000
    2.4610   -5.3070   29.1240 C   0  0  0  0  0  0  0  0  0  0  0  0
    4.7710   -4.6952   28.4803 C   0  0  0  0  0  0  0  0  0  0  0  0
    3.4047   -5.1087   28.1314 C   0  0  0  0  0  0  0  0  0  0  0  0
   -0.2234  -11.8615   16.8874 C   0  0  0  0  0  0  0  0  0  0  0  0
    6.4491   -4.1532   30.1213 C   0  0  0  0  0  0  0  0  0  0  0  0
    5.7060   -4.4340   27.4975 C   0  0  0  0  0  0  0  0  0  0  0  0
    1.1818   -5.6612   28.8399 C   0  0  0  0  0  0  0  0  0  0  0  0
   -1.2067   -7.3287   17.7772 C   0  0  0  0  0  0  0  0  0  0  0  0
   -0.0206  -10.5585   16.6210 C   0  0  0  0  0  0  0  0  0  0  0  0
    0.3696  -12.7626   16.2169 O   0  0  0  0  0  0  0  0  0  0  0  0
   -0.6895   -9.5676   17.3297 C   0  0  0  0  0  0  0  0  0  0  0  0
    0.8388   -5.8417   27.5264 C   0  0  0  0  0  0  0  0  0  0  0  0
   -2.0709   -7.6637   18.7817 C   0  0  0  0  0  0  0  0  0  0  0  0
   -0.5279   -8.2168   17.0717 C   0  0  0  0  0  0  0  0  0  0  0  0
    6.9694   -4.0191   27.8190 C   0  0  0  0  0  0  0  0  0  0  0  0
    5.1733   -4.5469   29.8123 C   0  0  0  0  0  0  0  0  0  0  0  0
   -1.7508  -11.3016   18.6072 C   0  0  0  0  0  0  0  0  0  0  0  0
    1.7497   -5.6771   26.4971 C   0  0  0  0  0  0  0  0  0  0  0  0
   -1.5799   -9.9322   18.3468 C   0  0  0  0  0  0  0  0  0  0  0  0
   -1.0871  -12.2214   17.8851 C   0  0  0  0  0  0  0  0  0  0  0  0
   -2.2706   -8.9669   19.0691 C   0  0  0  0  0  0  0  0  0  0  0  0
    3.0279   -5.3073   26.8197 C   0  0  0  0  0  0  0  0  0  0  0  0
    7.3282   -3.8948   29.1186 C   0  0  0  0  0  0  0  0  0  0  0  0
  1  3  4  0
  1  7  4  0
  2  3  1  0
  2  6  4  0
  2 16  4  0
  3 22  4  0
  4  9  4  0
  4 10  1  0
  4 20  4  0
  5 16  4  0
  5 23  4  0
  6 15  4  0
  7 12  4  0
  8 13  4  0
  8 14  4  0
  9 11  4  0
 11 14  4  0
 11 19  4  0
 12 18  4  0
 13 21  4  0
 15 23  4  0
 17 19  4  0
 17 20  4  0
 18 22  4  0
 19 21  4  0
M  END
$$$$

 Created by Python create_sdf_string function

 23 25  0  0  0  0  0  0  0  0999 V2000
    2.4610   -5.3070   29.1240 C   0  0  0  0  0  0  0  0  0  0  0  0
    4.7710   -4.6952   28.4803 C   0  0  0  0  0  0  0  0  0  0  0  0
    3.4047   -5.1087   28.1314 C   0  0  0  0  0  0  0  0  0  0  0  0
   -0.2234  -11.8615   16.8874 C   0  0  0  0  0  0  0  0  0  0  0  0
    6.4491   -4.1532   30.1213 C   0  0  0  0  0  0  0  0  0  0  0  0
    5.7060   -4.4340   27.4975 C   0  0  0  0  0  0  0  0  0  0  0  0
    1.1818   -5.6612   28.8399 C   0  0  0  0  0  0  0  0  0  0  0  0
   -1.2067   -7.3287   17.7772 C   0  0  0  0  0  0  0  0  0  0  0  0
   -0.0206  -10.5585   16.6210 C   0  0  0  0  0  0  0  0  0  0  0  0
    0.3696  -12.7626   16.2169 O   0  0  0  0  0  0  0  0  0  0  0  0
   -0.6895   -9.5676   17.3297 C   0  0  0  0  0  0  0  0  0  0  0  0
    0.8388   -5.8417   27.5264 C   0  0  0  0  0  0  0  0  0  0  0  0
   -2.0709   -7.6637   18.7817 C   0  0  0  0  0  0  0  0  0  0  0  0
   -0.5279   -8.2168   17.0717 C   0  0  0  0  0  0  0  0  0  0  0  0
    6.9694   -4.0191   27.8190 C   0  0  0  0  0  0  0  0  0  0  0  0
    5.1733   -4.5469   29.8123 C   0  0  0  0  0  0  0  0  0  0  0  0
   -1.7508  -11.3016   18.6072 C   0  0  0  0  0  0  0  0  0  0  0  0
    1.7497   -5.6771   26.4971 C   0  0  0  0  0  0  0  0  0  0  0  0
   -1.5799   -9.9322   18.3468 C   0  0  0  0  0  0  0  0  0  0  0  0
   -1.0871  -12.2214   17.8851 C   0  0  0  0  0  0  0  0  0  0  0  0
   -2.2706   -8.9669   19.0691 C   0  0  0  0  0  0  0  0  0  0  0  0
    3.0279   -5.3073   26.8197 C   0  0  0  0  0  0  0  0  0  0  0  0
    7.3282   -3.8948   29.1186 C   0  0  0  0  0  0  0  0  0  0  0  0
  1  3  4  0
  1  7  4  0
  2  3  1  0
  2  6  4  0
  2 16  4  0
  3 22  4  0
  4  9  4  0
  4 10  1  0
  4 20  4  0
  5 16  4  0
  5 23  4  0
  6 15  4  0
  7 12  4  0
  8 13  4  0
  8 14  4  0
  9 11  4  0
 11 14  4  0
 11 19  4  0
 12 18  4  0
 13 21  4  0
 15 23  4  0
 17 19  4  0
 17 20  4  0
 18 22  4  0
 19 21  4  0
M  END
$$$$

 Created by Python create_sdf_string function

 23 25  0  0  0  0  0  0  0  0999 V2000
    2.4610   -5.3070   29.1240 C   0  0  0  0  0  0  0  0  0  0  0  0
    4.7710   -4.6952   28.4803 C   0  0  0  0  0  0  0  0  0  0  0  0
    3.4047   -5.1087   28.1314 C   0  0  0  0  0  0  0  0  0  0  0  0
   -0.2234  -11.8615   16.8874 C   0  0  0  0  0  0  0  0  0  0  0  0
    6.4491   -4.1532   30.1213 C   0  0  0  0  0  0  0  0  0  0  0  0
    5.7060   -4.4340   27.4975 C   0  0  0  0  0  0  0  0  0  0  0  0
    1.1818   -5.6612   28.8399 C   0  0  0  0  0  0  0  0  0  0  0  0
   -1.2067   -7.3287   17.7772 C   0  0  0  0  0  0  0  0  0  0  0  0
   -0.0206  -10.5585   16.6210 C   0  0  0  0  0  0  0  0  0  0  0  0
    0.3696  -12.7626   16.2169 O   0  0  0  0  0  0  0  0  0  0  0  0
   -0.6895   -9.5676   17.3297 C   0  0  0  0  0  0  0  0  0  0  0  0
    0.8388   -5.8417   27.5264 C   0  0  0  0  0  0  0  0  0  0  0  0
   -2.0709   -7.6637   18.7817 C   0  0  0  0  0  0  0  0  0  0  0  0
   -0.5279   -8.2168   17.0717 C   0  0  0  0  0  0  0  0  0  0  0  0
    6.9694   -4.0191   27.8190 C   0  0  0  0  0  0  0  0  0  0  0  0
    5.1733   -4.5469   29.8123 C   0  0  0  0  0  0  0  0  0  0  0  0
   -1.7508  -11.3016   18.6072 C   0  0  0  0  0  0  0  0  0  0  0  0
    1.7497   -5.6771   26.4971 C   0  0  0  0  0  0  0  0  0  0  0  0
   -1.5799   -9.9322   18.3468 C   0  0  0  0  0  0  0  0  0  0  0  0
   -1.0871  -12.2214   17.8851 C   0  0  0  0  0  0  0  0  0  0  0  0
   -2.2706   -8.9669   19.0691 C   0  0  0  0  0  0  0  0  0  0  0  0
    3.0279   -5.3073   26.8197 C   0  0  0  0  0  0  0  0  0  0  0  0
    7.3282   -3.8948   29.1186 C   0  0  0  0  0  0  0  0  0  0  0  0
  1  3  4  0
  1  7  4  0
  2  3  1  0
  2  6  4  0
  2 16  4  0
  3 22  4  0
  4  9  4  0
  4 10  1  0
  4 20  4  0
  5 16  4  0
  5 23  4  0
  6 15  4  0
  7 12  4  0
  8 13  4  0
  8 14  4  0
  9 11  4  0
 11 14  4  0
 11 19  4  0
 12 18  4  0
 13 21  4  0
 15 23  4  0
 17 19  4  0
 17 20  4  0
 18 22  4  0
 19 21  4  0
M  END
$$$$

 Created by Python create_sdf_string function

 23 25  0  0  0  0  0  0  0  0999 V2000
    2.4610   -5.3070   29.1240 C   0  0  0  0  0  0  0  0  0  0  0  0
    4.7710   -4.6952   28.4803 C   0  0  0  0  0  0  0  0  0  0  0  0
    3.4047   -5.1087   28.1314 C   0  0  0  0  0  0  0  0  0  0  0  0
   -0.2234  -11.8615   16.8874 C   0  0  0  0  0  0  0  0  0  0  0  0
    6.4491   -4.1532   30.1213 C   0  0  0  0  0  0  0  0  0  0  0  0
    5.7060   -4.4340   27.4975 C   0  0  0  0  0  0  0  0  0  0  0  0
    1.1818   -5.6612   28.8399 C   0  0  0  0  0  0  0  0  0  0  0  0
   -1.2067   -7.3287   17.7772 C   0  0  0  0  0  0  0  0  0  0  0  0
   -0.0206  -10.5585   16.6210 C   0  0  0  0  0  0  0  0  0  0  0  0
    0.3696  -12.7626   16.2169 O   0  0  0  0  0  0  0  0  0  0  0  0
   -0.6895   -9.5676   17.3297 C   0  0  0  0  0  0  0  0  0  0  0  0
    0.8388   -5.8417   27.5264 C   0  0  0  0  0  0  0  0  0  0  0  0
   -2.0709   -7.6637   18.7817 C   0  0  0  0  0  0  0  0  0  0  0  0
   -0.5279   -8.2168   17.0717 C   0  0  0  0  0  0  0  0  0  0  0  0
    6.9694   -4.0191   27.8190 C   0  0  0  0  0  0  0  0  0  0  0  0
    5.1733   -4.5469   29.8123 C   0  0  0  0  0  0  0  0  0  0  0  0
   -1.7508  -11.3016   18.6072 C   0  0  0  0  0  0  0  0  0  0  0  0
    1.7497   -5.6771   26.4971 C   0  0  0  0  0  0  0  0  0  0  0  0
   -1.5799   -9.9322   18.3468 C   0  0  0  0  0  0  0  0  0  0  0  0
   -1.0871  -12.2214   17.8851 C   0  0  0  0  0  0  0  0  0  0  0  0
   -2.2706   -8.9669   19.0691 C   0  0  0  0  0  0  0  0  0  0  0  0
    3.0279   -5.3073   26.8197 C   0  0  0  0  0  0  0  0  0  0  0  0
    7.3282   -3.8948   29.1186 C   0  0  0  0  0  0  0  0  0  0  0  0
  1  3  4  0
  1  7  4  0
  2  3  1  0
  2  6  4  0
  2 16  4  0
  3 22  4  0
  4  9  4  0
  4 10  1  0
  4 20  4  0
  5 16  4  0
  5 23  4  0
  6 15  4  0
  7 12  4  0
  8 13  4  0
  8 14  4  0
  9 11  4  0
 11 14  4  0
 11 19  4  0
 12 18  4  0
 13 21  4  0
 15 23  4  0
 17 19  4  0
 17 20  4  0
 18 22  4  0
 19 21  4  0
M  END
$$$$

 Created by Python create_sdf_string function

 23 25  0  0  0  0  0  0  0  0999 V2000
    2.4610   -5.3070   29.1240 C   0  0  0  0  0  0  0  0  0  0  0  0
    4.7710   -4.6952   28.4803 C   0  0  0  0  0  0  0  0  0  0  0  0
    3.4047   -5.1087   28.1314 C   0  0  0  0  0  0  0  0  0  0  0  0
   -0.2234  -11.8615   16.8874 C   0  0  0  0  0  0  0  0  0  0  0  0
    6.4491   -4.1532   30.1213 C   0  0  0  0  0  0  0  0  0  0  0  0
    5.7060   -4.4340   27.4975 C   0  0  0  0  0  0  0  0  0  0  0  0
    1.1818   -5.6612   28.8399 C   0  0  0  0  0  0  0  0  0  0  0  0
   -1.2067   -7.3287   17.7772 C   0  0  0  0  0  0  0  0  0  0  0  0
   -0.0206  -10.5585   16.6210 C   0  0  0  0  0  0  0  0  0  0  0  0
    0.3696  -12.7626   16.2169 O   0  0  0  0  0  0  0  0  0  0  0  0
   -0.6895   -9.5676   17.3297 C   0  0  0  0  0  0  0  0  0  0  0  0
    0.8388   -5.8417   27.5264 C   0  0  0  0  0  0  0  0  0  0  0  0
   -2.0709   -7.6637   18.7817 C   0  0  0  0  0  0  0  0  0  0  0  0
   -0.5279   -8.2168   17.0717 C   0  0  0  0  0  0  0  0  0  0  0  0
    6.9694   -4.0191   27.8190 C   0  0  0  0  0  0  0  0  0  0  0  0
    5.1733   -4.5469   29.8123 C   0  0  0  0  0  0  0  0  0  0  0  0
   -1.7508  -11.3016   18.6072 C   0  0  0  0  0  0  0  0  0  0  0  0
    1.7497   -5.6771   26.4971 C   0  0  0  0  0  0  0  0  0  0  0  0
   -1.5799   -9.9322   18.3468 C   0  0  0  0  0  0  0  0  0  0  0  0
   -1.0871  -12.2214   17.8851 C   0  0  0  0  0  0  0  0  0  0  0  0
   -2.2706   -8.9669   19.0691 C   0  0  0  0  0  0  0  0  0  0  0  0
    3.0279   -5.3073   26.8197 C   0  0  0  0  0  0  0  0  0  0  0  0
    7.3282   -3.8948   29.1186 C   0  0  0  0  0  0  0  0  0  0  0  0
  1  3  4  0
  1  7  4  0
  2  3  1  0
  2  6  4  0
  2 16  4  0
  3 22  4  0
  4  9  4  0
  4 10  1  0
  4 20  4  0
  5 16  4  0
  5 23  4  0
  6 15  4  0
  7 12  4  0
  8 13  4  0
  8 14  4  0
  9 11  4  0
 11 14  4  0
 11 19  4  0
 12 18  4  0
 13 21  4  0
 15 23  4  0
 17 19  4  0
 17 20  4  0
 18 22  4  0
 19 21  4  0
M  END
$$$$

 Created by Python create_sdf_string function

 23 25  0  0  0  0  0  0  0  0999 V2000
    2.4610   -5.3070   29.1240 C   0  0  0  0  0  0  0  0  0  0  0  0
    4.7710   -4.6952   28.4803 C   0  0  0  0  0  0  0  0  0  0  0  0
    3.4047   -5.1087   28.1314 C   0  0  0  0  0  0  0  0  0  0  0  0
   -0.2234  -11.8615   16.8874 C   0  0  0  0  0  0  0  0  0  0  0  0
    6.4491   -4.1532   30.1213 C   0  0  0  0  0  0  0  0  0  0  0  0
    5.7060   -4.4340   27.4975 C   0  0  0  0  0  0  0  0  0  0  0  0
    1.1818   -5.6612   28.8399 C   0  0  0  0  0  0  0  0  0  0  0  0
   -1.2067   -7.3287   17.7772 C   0  0  0  0  0  0  0  0  0  0  0  0
   -0.0206  -10.5585   16.6210 C   0  0  0  0  0  0  0  0  0  0  0  0
    0.3696  -12.7626   16.2169 O   0  0  0  0  0  0  0  0  0  0  0  0
   -0.6895   -9.5676   17.3297 C   0  0  0  0  0  0  0  0  0  0  0  0
    0.8388   -5.8417   27.5264 C   0  0  0  0  0  0  0  0  0  0  0  0
   -2.0709   -7.6637   18.7817 C   0  0  0  0  0  0  0  0  0  0  0  0
   -0.5279   -8.2168   17.0717 C   0  0  0  0  0  0  0  0  0  0  0  0
    6.9694   -4.0191   27.8190 C   0  0  0  0  0  0  0  0  0  0  0  0
    5.1733   -4.5469   29.8123 C   0  0  0  0  0  0  0  0  0  0  0  0
   -1.7508  -11.3016   18.6072 C   0  0  0  0  0  0  0  0  0  0  0  0
    1.7497   -5.6771   26.4971 C   0  0  0  0  0  0  0  0  0  0  0  0
   -1.5799   -9.9322   18.3468 C   0  0  0  0  0  0  0  0  0  0  0  0
   -1.0871  -12.2214   17.8851 C   0  0  0  0  0  0  0  0  0  0  0  0
   -2.2706   -8.9669   19.0691 C   0  0  0  0  0  0  0  0  0  0  0  0
    3.0279   -5.3073   26.8197 C   0  0  0  0  0  0  0  0  0  0  0  0
    7.3282   -3.8948   29.1186 C   0  0  0  0  0  0  0  0  0  0  0  0
  1  3  4  0
  1  7  4  0
  2  3  1  0
  2  6  4  0
  2 16  4  0
  3 22  4  0
  4  9  4  0
  4 10  1  0
  4 20  4  0
  5 16  4  0
  5 23  4  0
  6 15  4  0
  7 12  4  0
  8 13  4  0
  8 14  4  0
  9 11  4  0
 11 14  4  0
 11 19  4  0
 12 18  4  0
 13 21  4  0
 15 23  4  0
 17 19  4  0
 17 20  4  0
 18 22  4  0
 19 21  4  0
M  END
$$$$

 Created by Python create_sdf_string function

 23 25  0  0  0  0  0  0  0  0999 V2000
    2.4610   -5.3070   29.1240 C   0  0  0  0  0  0  0  0  0  0  0  0
    4.7710   -4.6952   28.4803 C   0  0  0  0  0  0  0  0  0  0  0  0
    3.4047   -5.1087   28.1314 C   0  0  0  0  0  0  0  0  0  0  0  0
   -0.2234  -11.8615   16.8874 C   0  0  0  0  0  0  0  0  0  0  0  0
    6.4491   -4.1532   30.1213 C   0  0  0  0  0  0  0  0  0  0  0  0
    5.7060   -4.4340   27.4975 C   0  0  0  0  0  0  0  0  0  0  0  0
    1.1818   -5.6612   28.8399 C   0  0  0  0  0  0  0  0  0  0  0  0
   -1.2067   -7.3287   17.7772 C   0  0  0  0  0  0  0  0  0  0  0  0
   -0.0206  -10.5585   16.6210 C   0  0  0  0  0  0  0  0  0  0  0  0
    0.3696  -12.7626   16.2169 O   0  0  0  0  0  0  0  0  0  0  0  0
   -0.6895   -9.5676   17.3297 C   0  0  0  0  0  0  0  0  0  0  0  0
    0.8388   -5.8417   27.5264 C   0  0  0  0  0  0  0  0  0  0  0  0
   -2.0709   -7.6637   18.7817 C   0  0  0  0  0  0  0  0  0  0  0  0
   -0.5279   -8.2168   17.0717 C   0  0  0  0  0  0  0  0  0  0  0  0
    6.9694   -4.0191   27.8190 C   0  0  0  0  0  0  0  0  0  0  0  0
    5.1733   -4.5469   29.8123 C   0  0  0  0  0  0  0  0  0  0  0  0
   -1.7508  -11.3016   18.6072 C   0  0  0  0  0  0  0  0  0  0  0  0
    1.7497   -5.6771   26.4971 C   0  0  0  0  0  0  0  0  0  0  0  0
   -1.5799   -9.9322   18.3468 C   0  0  0  0  0  0  0  0  0  0  0  0
   -1.0871  -12.2214   17.8851 C   0  0  0  0  0  0  0  0  0  0  0  0
   -2.2706   -8.9669   19.0691 C   0  0  0  0  0  0  0  0  0  0  0  0
    3.0279   -5.3073   26.8197 C   0  0  0  0  0  0  0  0  0  0  0  0
    7.3282   -3.8948   29.1186 C   0  0  0  0  0  0  0  0  0  0  0  0
  1  3  4  0
  1  7  4  0
  2  3  1  0
  2  6  4  0
  2 16  4  0
  3 22  4  0
  4  9  4  0
  4 10  1  0
  4 20  4  0
  5 16  4  0
  5 23  4  0
  6 15  4  0
  7 12  4  0
  8 13  4  0
  8 14  4  0
  9 11  4  0
 11 14  4  0
 11 19  4  0
 12 18  4  0
 13 21  4  0
 15 23  4  0
 17 19  4  0
 17 20  4  0
 18 22  4  0
 19 21  4  0
M  END
$$$$

 Created by Python create_sdf_string function

 23 25  0  0  0  0  0  0  0  0999 V2000
    2.4610   -5.3070   29.1240 C   0  0  0  0  0  0  0  0  0  0  0  0
    4.7710   -4.6952   28.4803 C   0  0  0  0  0  0  0  0  0  0  0  0
    3.4047   -5.1087   28.1314 C   0  0  0  0  0  0  0  0  0  0  0  0
   -0.2234  -11.8615   16.8874 C   0  0  0  0  0  0  0  0  0  0  0  0
    6.4491   -4.1532   30.1213 C   0  0  0  0  0  0  0  0  0  0  0  0
    5.7060   -4.4340   27.4975 C   0  0  0  0  0  0  0  0  0  0  0  0
    1.1818   -5.6612   28.8399 C   0  0  0  0  0  0  0  0  0  0  0  0
   -1.2067   -7.3287   17.7772 C   0  0  0  0  0  0  0  0  0  0  0  0
   -0.0206  -10.5585   16.6210 C   0  0  0  0  0  0  0  0  0  0  0  0
    0.3696  -12.7626   16.2169 O   0  0  0  0  0  0  0  0  0  0  0  0
   -0.6895   -9.5676   17.3297 C   0  0  0  0  0  0  0  0  0  0  0  0
    0.8388   -5.8417   27.5264 C   0  0  0  0  0  0  0  0  0  0  0  0
   -2.0709   -7.6637   18.7817 C   0  0  0  0  0  0  0  0  0  0  0  0
   -0.5279   -8.2168   17.0717 C   0  0  0  0  0  0  0  0  0  0  0  0
    6.9694   -4.0191   27.8190 C   0  0  0  0  0  0  0  0  0  0  0  0
    5.1733   -4.5469   29.8123 C   0  0  0  0  0  0  0  0  0  0  0  0
   -1.7508  -11.3016   18.6072 C   0  0  0  0  0  0  0  0  0  0  0  0
    1.7497   -5.6771   26.4971 C   0  0  0  0  0  0  0  0  0  0  0  0
   -1.5799   -9.9322   18.3468 C   0  0  0  0  0  0  0  0  0  0  0  0
   -1.0871  -12.2214   17.8851 C   0  0  0  0  0  0  0  0  0  0  0  0
   -2.2706   -8.9669   19.0691 C   0  0  0  0  0  0  0  0  0  0  0  0
    3.0279   -5.3073   26.8197 C   0  0  0  0  0  0  0  0  0  0  0  0
    7.3282   -3.8948   29.1186 C   0  0  0  0  0  0  0  0  0  0  0  0
  1  3  4  0
  1  7  4  0
  2  3  1  0
  2  6  4  0
  2 16  4  0
  3 22  4  0
  4  9  4  0
  4 10  1  0
  4 20  4  0
  5 16  4  0
  5 23  4  0
  6 15  4  0
  7 12  4  0
  8 13  4  0
  8 14  4  0
  9 11  4  0
 11 14  4  0
 11 19  4  0
 12 18  4  0
 13 21  4  0
 15 23  4  0
 17 19  4  0
 17 20  4  0
 18 22  4  0
 19 21  4  0
M  END
$$$$

 Created by Python create_sdf_string function

 23 25  0  0  0  0  0  0  0  0999 V2000
    2.4610   -5.3070   29.1240 C   0  0  0  0  0  0  0  0  0  0  0  0
    4.7710   -4.6952   28.4803 C   0  0  0  0  0  0  0  0  0  0  0  0
    3.4047   -5.1087   28.1314 C   0  0  0  0  0  0  0  0  0  0  0  0
   -0.2234  -11.8615   16.8874 C   0  0  0  0  0  0  0  0  0  0  0  0
    6.4491   -4.1532   30.1213 C   0  0  0  0  0  0  0  0  0  0  0  0
    5.7060   -4.4340   27.4975 C   0  0  0  0  0  0  0  0  0  0  0  0
    1.1818   -5.6612   28.8399 C   0  0  0  0  0  0  0  0  0  0  0  0
   -1.2067   -7.3287   17.7772 C   0  0  0  0  0  0  0  0  0  0  0  0
   -0.0206  -10.5585   16.6210 C   0  0  0  0  0  0  0  0  0  0  0  0
    0.3696  -12.7626   16.2169 O   0  0  0  0  0  0  0  0  0  0  0  0
   -0.6895   -9.5676   17.3297 C   0  0  0  0  0  0  0  0  0  0  0  0
    0.8388   -5.8417   27.5264 C   0  0  0  0  0  0  0  0  0  0  0  0
   -2.0709   -7.6637   18.7817 C   0  0  0  0  0  0  0  0  0  0  0  0
   -0.5279   -8.2168   17.0717 C   0  0  0  0  0  0  0  0  0  0  0  0
    6.9694   -4.0191   27.8190 C   0  0  0  0  0  0  0  0  0  0  0  0
    5.1733   -4.5469   29.8123 C   0  0  0  0  0  0  0  0  0  0  0  0
   -1.7508  -11.3016   18.6072 C   0  0  0  0  0  0  0  0  0  0  0  0
    1.7497   -5.6771   26.4971 C   0  0  0  0  0  0  0  0  0  0  0  0
   -1.5799   -9.9322   18.3468 C   0  0  0  0  0  0  0  0  0  0  0  0
   -1.0871  -12.2214   17.8851 C   0  0  0  0  0  0  0  0  0  0  0  0
   -2.2706   -8.9669   19.0691 C   0  0  0  0  0  0  0  0  0  0  0  0
    3.0279   -5.3073   26.8197 C   0  0  0  0  0  0  0  0  0  0  0  0
    7.3282   -3.8948   29.1186 C   0  0  0  0  0  0  0  0  0  0  0  0
  1  3  4  0
  1  7  4  0
  2  3  1  0
  2  6  4  0
  2 16  4  0
  3 22  4  0
  4  9  4  0
  4 10  1  0
  4 20  4  0
  5 16  4  0
  5 23  4  0
  6 15  4  0
  7 12  4  0
  8 13  4  0
  8 14  4  0
  9 11  4  0
 11 14  4  0
 11 19  4  0
 12 18  4  0
 13 21  4  0
 15 23  4  0
 17 19  4  0
 17 20  4  0
 18 22  4  0
 19 21  4  0
M  END
$$$$

 Created by Python create_sdf_string function

 23 25  0  0  0  0  0  0  0  0999 V2000
    2.4610   -5.3070   29.1240 C   0  0  0  0  0  0  0  0  0  0  0  0
    4.7710   -4.6952   28.4803 C   0  0  0  0  0  0  0  0  0  0  0  0
    3.4047   -5.1087   28.1314 C   0  0  0  0  0  0  0  0  0  0  0  0
   -0.2234  -11.8615   16.8874 C   0  0  0  0  0  0  0  0  0  0  0  0
    6.4491   -4.1532   30.1213 C   0  0  0  0  0  0  0  0  0  0  0  0
    5.7060   -4.4340   27.4975 C   0  0  0  0  0  0  0  0  0  0  0  0
    1.1818   -5.6612   28.8399 C   0  0  0  0  0  0  0  0  0  0  0  0
   -1.2067   -7.3287   17.7772 C   0  0  0  0  0  0  0  0  0  0  0  0
   -0.0206  -10.5585   16.6210 C   0  0  0  0  0  0  0  0  0  0  0  0
    0.3696  -12.7626   16.2169 O   0  0  0  0  0  0  0  0  0  0  0  0
   -0.6895   -9.5676   17.3297 C   0  0  0  0  0  0  0  0  0  0  0  0
    0.8388   -5.8417   27.5264 C   0  0  0  0  0  0  0  0  0  0  0  0
   -2.0709   -7.6637   18.7817 C   0  0  0  0  0  0  0  0  0  0  0  0
   -0.5279   -8.2168   17.0717 C   0  0  0  0  0  0  0  0  0  0  0  0
    6.9694   -4.0191   27.8190 C   0  0  0  0  0  0  0  0  0  0  0  0
    5.1733   -4.5469   29.8123 C   0  0  0  0  0  0  0  0  0  0  0  0
   -1.7508  -11.3016   18.6072 C   0  0  0  0  0  0  0  0  0  0  0  0
    1.7497   -5.6771   26.4971 C   0  0  0  0  0  0  0  0  0  0  0  0
   -1.5799   -9.9322   18.3468 C   0  0  0  0  0  0  0  0  0  0  0  0
   -1.0871  -12.2214   17.8851 C   0  0  0  0  0  0  0  0  0  0  0  0
   -2.2706   -8.9669   19.0691 C   0  0  0  0  0  0  0  0  0  0  0  0
    3.0279   -5.3073   26.8197 C   0  0  0  0  0  0  0  0  0  0  0  0
    7.3282   -3.8948   29.1186 C   0  0  0  0  0  0  0  0  0  0  0  0
  1  3  4  0
  1  7  4  0
  2  3  1  0
  2  6  4  0
  2 16  4  0
  3 22  4  0
  4  9  4  0
  4 10  1  0
  4 20  4  0
  5 16  4  0
  5 23  4  0
  6 15  4  0
  7 12  4  0
  8 13  4  0
  8 14  4  0
  9 11  4  0
 11 14  4  0
 11 19  4  0
 12 18  4  0
 13 21  4  0
 15 23  4  0
 17 19  4  0
 17 20  4  0
 18 22  4  0
 19 21  4  0
M  END
$$$$

 Created by Python create_sdf_string function

 23 25  0  0  0  0  0  0  0  0999 V2000
    2.4610   -5.3070   29.1240 C   0  0  0  0  0  0  0  0  0  0  0  0
    4.7710   -4.6952   28.4803 C   0  0  0  0  0  0  0  0  0  0  0  0
    3.4047   -5.1087   28.1314 C   0  0  0  0  0  0  0  0  0  0  0  0
   -0.2234  -11.8615   16.8874 C   0  0  0  0  0  0  0  0  0  0  0  0
    6.4491   -4.1532   30.1213 C   0  0  0  0  0  0  0  0  0  0  0  0
    5.7060   -4.4340   27.4975 C   0  0  0  0  0  0  0  0  0  0  0  0
    1.1818   -5.6612   28.8399 C   0  0  0  0  0  0  0  0  0  0  0  0
   -1.2067   -7.3287   17.7772 C   0  0  0  0  0  0  0  0  0  0  0  0
   -0.0206  -10.5585   16.6210 C   0  0  0  0  0  0  0  0  0  0  0  0
    0.3696  -12.7626   16.2169 O   0  0  0  0  0  0  0  0  0  0  0  0
   -0.6895   -9.5676   17.3297 C   0  0  0  0  0  0  0  0  0  0  0  0
    0.8388   -5.8417   27.5264 C   0  0  0  0  0  0  0  0  0  0  0  0
   -2.0709   -7.6637   18.7817 C   0  0  0  0  0  0  0  0  0  0  0  0
   -0.5279   -8.2168   17.0717 C   0  0  0  0  0  0  0  0  0  0  0  0
    6.9694   -4.0191   27.8190 C   0  0  0  0  0  0  0  0  0  0  0  0
    5.1733   -4.5469   29.8123 C   0  0  0  0  0  0  0  0  0  0  0  0
   -1.7508  -11.3016   18.6072 C   0  0  0  0  0  0  0  0  0  0  0  0
    1.7497   -5.6771   26.4971 C   0  0  0  0  0  0  0  0  0  0  0  0
   -1.5799   -9.9322   18.3468 C   0  0  0  0  0  0  0  0  0  0  0  0
   -1.0871  -12.2214   17.8851 C   0  0  0  0  0  0  0  0  0  0  0  0
   -2.2706   -8.9669   19.0691 C   0  0  0  0  0  0  0  0  0  0  0  0
    3.0279   -5.3073   26.8197 C   0  0  0  0  0  0  0  0  0  0  0  0
    7.3282   -3.8948   29.1186 C   0  0  0  0  0  0  0  0  0  0  0  0
  1  3  4  0
  1  7  4  0
  2  3  1  0
  2  6  4  0
  2 16  4  0
  3 22  4  0
  4  9  4  0
  4 10  1  0
  4 20  4  0
  5 16  4  0
  5 23  4  0
  6 15  4  0
  7 12  4  0
  8 13  4  0
  8 14  4  0
  9 11  4  0
 11 14  4  0
 11 19  4  0
 12 18  4  0
 13 21  4  0
 15 23  4  0
 17 19  4  0
 17 20  4  0
 18 22  4  0
 19 21  4  0
M  END
$$$$

 Created by Python create_sdf_string function

 23 25  0  0  0  0  0  0  0  0999 V2000
    2.4610   -5.3070   29.1240 C   0  0  0  0  0  0  0  0  0  0  0  0
    4.7710   -4.6952   28.4803 C   0  0  0  0  0  0  0  0  0  0  0  0
    3.4047   -5.1087   28.1314 C   0  0  0  0  0  0  0  0  0  0  0  0
   -0.2234  -11.8615   16.8874 C   0  0  0  0  0  0  0  0  0  0  0  0
    6.4491   -4.1532   30.1213 C   0  0  0  0  0  0  0  0  0  0  0  0
    5.7060   -4.4340   27.4975 C   0  0  0  0  0  0  0  0  0  0  0  0
    1.1818   -5.6612   28.8399 C   0  0  0  0  0  0  0  0  0  0  0  0
   -1.2067   -7.3287   17.7772 C   0  0  0  0  0  0  0  0  0  0  0  0
   -0.0206  -10.5585   16.6210 C   0  0  0  0  0  0  0  0  0  0  0  0
    0.3696  -12.7626   16.2169 O   0  0  0  0  0  0  0  0  0  0  0  0
   -0.6895   -9.5676   17.3297 C   0  0  0  0  0  0  0  0  0  0  0  0
    0.8388   -5.8417   27.5264 C   0  0  0  0  0  0  0  0  0  0  0  0
   -2.0709   -7.6637   18.7817 C   0  0  0  0  0  0  0  0  0  0  0  0
   -0.5279   -8.2168   17.0717 C   0  0  0  0  0  0  0  0  0  0  0  0
    6.9694   -4.0191   27.8190 C   0  0  0  0  0  0  0  0  0  0  0  0
    5.1733   -4.5469   29.8123 C   0  0  0  0  0  0  0  0  0  0  0  0
   -1.7508  -11.3016   18.6072 C   0  0  0  0  0  0  0  0  0  0  0  0
    1.7497   -5.6771   26.4971 C   0  0  0  0  0  0  0  0  0  0  0  0
   -1.5799   -9.9322   18.3468 C   0  0  0  0  0  0  0  0  0  0  0  0
   -1.0871  -12.2214   17.8851 C   0  0  0  0  0  0  0  0  0  0  0  0
   -2.2706   -8.9669   19.0691 C   0  0  0  0  0  0  0  0  0  0  0  0
    3.0279   -5.3073   26.8197 C   0  0  0  0  0  0  0  0  0  0  0  0
    7.3282   -3.8948   29.1186 C   0  0  0  0  0  0  0  0  0  0  0  0
  1  3  4  0
  1  7  4  0
  2  3  1  0
  2  6  4  0
  2 16  4  0
  3 22  4  0
  4  9  4  0
  4 10  1  0
  4 20  4  0
  5 16  4  0
  5 23  4  0
  6 15  4  0
  7 12  4  0
  8 13  4  0
  8 14  4  0
  9 11  4  0
 11 14  4  0
 11 19  4  0
 12 18  4  0
 13 21  4  0
 15 23  4  0
 17 19  4  0
 17 20  4  0
 18 22  4  0
 19 21  4  0
M  END
$$$$

 Created by Python create_sdf_string function

 23 25  0  0  0  0  0  0  0  0999 V2000
    2.4610   -5.3070   29.1240 C   0  0  0  0  0  0  0  0  0  0  0  0
    4.7710   -4.6952   28.4803 C   0  0  0  0  0  0  0  0  0  0  0  0
    3.4047   -5.1087   28.1314 C   0  0  0  0  0  0  0  0  0  0  0  0
   -0.2234  -11.8615   16.8874 C   0  0  0  0  0  0  0  0  0  0  0  0
    6.4491   -4.1532   30.1213 C   0  0  0  0  0  0  0  0  0  0  0  0
    5.7060   -4.4340   27.4975 C   0  0  0  0  0  0  0  0  0  0  0  0
    1.1818   -5.6612   28.8399 C   0  0  0  0  0  0  0  0  0  0  0  0
   -1.2067   -7.3287   17.7772 C   0  0  0  0  0  0  0  0  0  0  0  0
   -0.0206  -10.5585   16.6210 C   0  0  0  0  0  0  0  0  0  0  0  0
    0.3696  -12.7626   16.2169 O   0  0  0  0  0  0  0  0  0  0  0  0
   -0.6895   -9.5676   17.3297 C   0  0  0  0  0  0  0  0  0  0  0  0
    0.8388   -5.8417   27.5264 C   0  0  0  0  0  0  0  0  0  0  0  0
   -2.0709   -7.6637   18.7817 C   0  0  0  0  0  0  0  0  0  0  0  0
   -0.5279   -8.2168   17.0717 C   0  0  0  0  0  0  0  0  0  0  0  0
    6.9694   -4.0191   27.8190 C   0  0  0  0  0  0  0  0  0  0  0  0
    5.1733   -4.5469   29.8123 C   0  0  0  0  0  0  0  0  0  0  0  0
   -1.7508  -11.3016   18.6072 C   0  0  0  0  0  0  0  0  0  0  0  0
    1.7497   -5.6771   26.4971 C   0  0  0  0  0  0  0  0  0  0  0  0
   -1.5799   -9.9322   18.3468 C   0  0  0  0  0  0  0  0  0  0  0  0
   -1.0871  -12.2214   17.8851 C   0  0  0  0  0  0  0  0  0  0  0  0
   -2.2706   -8.9669   19.0691 C   0  0  0  0  0  0  0  0  0  0  0  0
    3.0279   -5.3073   26.8197 C   0  0  0  0  0  0  0  0  0  0  0  0
    7.3282   -3.8948   29.1186 C   0  0  0  0  0  0  0  0  0  0  0  0
  1  3  4  0
  1  7  4  0
  2  3  1  0
  2  6  4  0
  2 16  4  0
  3 22  4  0
  4  9  4  0
  4 10  1  0
  4 20  4  0
  5 16  4  0
  5 23  4  0
  6 15  4  0
  7 12  4  0
  8 13  4  0
  8 14  4  0
  9 11  4  0
 11 14  4  0
 11 19  4  0
 12 18  4  0
 13 21  4  0
 15 23  4  0
 17 19  4  0
 17 20  4  0
 18 22  4  0
 19 21  4  0
M  END
$$$$

 Created by Python create_sdf_string function

 23 25  0  0  0  0  0  0  0  0999 V2000
    2.4610   -5.3070   29.1240 C   0  0  0  0  0  0  0  0  0  0  0  0
    4.7710   -4.6952   28.4803 C   0  0  0  0  0  0  0  0  0  0  0  0
    3.4047   -5.1087   28.1314 C   0  0  0  0  0  0  0  0  0  0  0  0
   -0.2234  -11.8615   16.8874 C   0  0  0  0  0  0  0  0  0  0  0  0
    6.4491   -4.1532   30.1213 C   0  0  0  0  0  0  0  0  0  0  0  0
    5.7060   -4.4340   27.4975 C   0  0  0  0  0  0  0  0  0  0  0  0
    1.1818   -5.6612   28.8399 C   0  0  0  0  0  0  0  0  0  0  0  0
   -1.2067   -7.3287   17.7772 C   0  0  0  0  0  0  0  0  0  0  0  0
   -0.0206  -10.5585   16.6210 C   0  0  0  0  0  0  0  0  0  0  0  0
    0.3696  -12.7626   16.2169 O   0  0  0  0  0  0  0  0  0  0  0  0
   -0.6895   -9.5676   17.3297 C   0  0  0  0  0  0  0  0  0  0  0  0
    0.8388   -5.8417   27.5264 C   0  0  0  0  0  0  0  0  0  0  0  0
   -2.0709   -7.6637   18.7817 C   0  0  0  0  0  0  0  0  0  0  0  0
   -0.5279   -8.2168   17.0717 C   0  0  0  0  0  0  0  0  0  0  0  0
    6.9694   -4.0191   27.8190 C   0  0  0  0  0  0  0  0  0  0  0  0
    5.1733   -4.5469   29.8123 C   0  0  0  0  0  0  0  0  0  0  0  0
   -1.7508  -11.3016   18.6072 C   0  0  0  0  0  0  0  0  0  0  0  0
    1.7497   -5.6771   26.4971 C   0  0  0  0  0  0  0  0  0  0  0  0
   -1.5799   -9.9322   18.3468 C   0  0  0  0  0  0  0  0  0  0  0  0
   -1.0871  -12.2214   17.8851 C   0  0  0  0  0  0  0  0  0  0  0  0
   -2.2706   -8.9669   19.0691 C   0  0  0  0  0  0  0  0  0  0  0  0
    3.0279   -5.3073   26.8197 C   0  0  0  0  0  0  0  0  0  0  0  0
    7.3282   -3.8948   29.1186 C   0  0  0  0  0  0  0  0  0  0  0  0
  1  3  4  0
  1  7  4  0
  2  3  1  0
  2  6  4  0
  2 16  4  0
  3 22  4  0
  4  9  4  0
  4 10  1  0
  4 20  4  0
  5 16  4  0
  5 23  4  0
  6 15  4  0
  7 12  4  0
  8 13  4  0
  8 14  4  0
  9 11  4  0
 11 14  4  0
 11 19  4  0
 12 18  4  0
 13 21  4  0
 15 23  4  0
 17 19  4  0
 17 20  4  0
 18 22  4  0
 19 21  4  0
M  END
$$$$

 Created by Python create_sdf_string function

 23 25  0  0  0  0  0  0  0  0999 V2000
    2.4610   -5.3070   29.1240 C   0  0  0  0  0  0  0  0  0  0  0  0
    4.7710   -4.6952   28.4803 C   0  0  0  0  0  0  0  0  0  0  0  0
    3.4047   -5.1087   28.1314 C   0  0  0  0  0  0  0  0  0  0  0  0
   -0.2234  -11.8615   16.8874 C   0  0  0  0  0  0  0  0  0  0  0  0
    6.4491   -4.1532   30.1213 C   0  0  0  0  0  0  0  0  0  0  0  0
    5.7060   -4.4340   27.4975 C   0  0  0  0  0  0  0  0  0  0  0  0
    1.1818   -5.6612   28.8399 C   0  0  0  0  0  0  0  0  0  0  0  0
   -1.2067   -7.3287   17.7772 C   0  0  0  0  0  0  0  0  0  0  0  0
   -0.0206  -10.5585   16.6210 C   0  0  0  0  0  0  0  0  0  0  0  0
    0.3696  -12.7626   16.2169 O   0  0  0  0  0  0  0  0  0  0  0  0
   -0.6895   -9.5676   17.3297 C   0  0  0  0  0  0  0  0  0  0  0  0
    0.8388   -5.8417   27.5264 C   0  0  0  0  0  0  0  0  0  0  0  0
   -2.0709   -7.6637   18.7817 C   0  0  0  0  0  0  0  0  0  0  0  0
   -0.5279   -8.2168   17.0717 C   0  0  0  0  0  0  0  0  0  0  0  0
    6.9694   -4.0191   27.8190 C   0  0  0  0  0  0  0  0  0  0  0  0
    5.1733   -4.5469   29.8123 C   0  0  0  0  0  0  0  0  0  0  0  0
   -1.7508  -11.3016   18.6072 C   0  0  0  0  0  0  0  0  0  0  0  0
    1.7497   -5.6771   26.4971 C   0  0  0  0  0  0  0  0  0  0  0  0
   -1.5799   -9.9322   18.3468 C   0  0  0  0  0  0  0  0  0  0  0  0
   -1.0871  -12.2214   17.8851 C   0  0  0  0  0  0  0  0  0  0  0  0
   -2.2706   -8.9669   19.0691 C   0  0  0  0  0  0  0  0  0  0  0  0
    3.0279   -5.3073   26.8197 C   0  0  0  0  0  0  0  0  0  0  0  0
    7.3282   -3.8948   29.1186 C   0  0  0  0  0  0  0  0  0  0  0  0
  1  3  4  0
  1  7  4  0
  2  3  1  0
  2  6  4  0
  2 16  4  0
  3 22  4  0
  4  9  4  0
  4 10  1  0
  4 20  4  0
  5 16  4  0
  5 23  4  0
  6 15  4  0
  7 12  4  0
  8 13  4  0
  8 14  4  0
  9 11  4  0
 11 14  4  0
 11 19  4  0
 12 18  4  0
 13 21  4  0
 15 23  4  0
 17 19  4  0
 17 20  4  0
 18 22  4  0
 19 21  4  0
M  END
$$$$

 Created by Python create_sdf_string function

 23 25  0  0  0  0  0  0  0  0999 V2000
    2.4610   -5.3070   29.1240 C   0  0  0  0  0  0  0  0  0  0  0  0
    4.7710   -4.6952   28.4803 C   0  0  0  0  0  0  0  0  0  0  0  0
    3.4047   -5.1087   28.1314 C   0  0  0  0  0  0  0  0  0  0  0  0
   -0.2234  -11.8615   16.8874 C   0  0  0  0  0  0  0  0  0  0  0  0
    6.4491   -4.1532   30.1213 C   0  0  0  0  0  0  0  0  0  0  0  0
    5.7060   -4.4340   27.4975 C   0  0  0  0  0  0  0  0  0  0  0  0
    1.1818   -5.6612   28.8399 C   0  0  0  0  0  0  0  0  0  0  0  0
   -1.2067   -7.3287   17.7772 C   0  0  0  0  0  0  0  0  0  0  0  0
   -0.0206  -10.5585   16.6210 C   0  0  0  0  0  0  0  0  0  0  0  0
    0.3696  -12.7626   16.2169 O   0  0  0  0  0  0  0  0  0  0  0  0
   -0.6895   -9.5676   17.3297 C   0  0  0  0  0  0  0  0  0  0  0  0
    0.8388   -5.8417   27.5264 C   0  0  0  0  0  0  0  0  0  0  0  0
   -2.0709   -7.6637   18.7817 C   0  0  0  0  0  0  0  0  0  0  0  0
   -0.5279   -8.2168   17.0717 C   0  0  0  0  0  0  0  0  0  0  0  0
    6.9694   -4.0191   27.8190 C   0  0  0  0  0  0  0  0  0  0  0  0
    5.1733   -4.5469   29.8123 C   0  0  0  0  0  0  0  0  0  0  0  0
   -1.7508  -11.3016   18.6072 C   0  0  0  0  0  0  0  0  0  0  0  0
    1.7497   -5.6771   26.4971 C   0  0  0  0  0  0  0  0  0  0  0  0
   -1.5799   -9.9322   18.3468 C   0  0  0  0  0  0  0  0  0  0  0  0
   -1.0871  -12.2214   17.8851 C   0  0  0  0  0  0  0  0  0  0  0  0
   -2.2706   -8.9669   19.0691 C   0  0  0  0  0  0  0  0  0  0  0  0
    3.0279   -5.3073   26.8197 C   0  0  0  0  0  0  0  0  0  0  0  0
    7.3282   -3.8948   29.1186 C   0  0  0  0  0  0  0  0  0  0  0  0
  1  3  4  0
  1  7  4  0
  2  3  1  0
  2  6  4  0
  2 16  4  0
  3 22  4  0
  4  9  4  0
  4 10  1  0
  4 20  4  0
  5 16  4  0
  5 23  4  0
  6 15  4  0
  7 12  4  0
  8 13  4  0
  8 14  4  0
  9 11  4  0
 11 14  4  0
 11 19  4  0
 12 18  4  0
 13 21  4  0
 15 23  4  0
 17 19  4  0
 17 20  4  0
 18 22  4  0
 19 21  4  0
M  END
$$$$

 Created by Python create_sdf_string function

 23 25  0  0  0  0  0  0  0  0999 V2000
    2.4610   -5.3070   29.1240 C   0  0  0  0  0  0  0  0  0  0  0  0
    4.7710   -4.6952   28.4803 C   0  0  0  0  0  0  0  0  0  0  0  0
    3.4047   -5.1087   28.1314 C   0  0  0  0  0  0  0  0  0  0  0  0
   -0.2234  -11.8615   16.8874 C   0  0  0  0  0  0  0  0  0  0  0  0
    6.4491   -4.1532   30.1213 C   0  0  0  0  0  0  0  0  0  0  0  0
    5.7060   -4.4340   27.4975 C   0  0  0  0  0  0  0  0  0  0  0  0
    1.1818   -5.6612   28.8399 C   0  0  0  0  0  0  0  0  0  0  0  0
   -1.2067   -7.3287   17.7772 C   0  0  0  0  0  0  0  0  0  0  0  0
   -0.0206  -10.5585   16.6210 C   0  0  0  0  0  0  0  0  0  0  0  0
    0.3696  -12.7626   16.2169 O   0  0  0  0  0  0  0  0  0  0  0  0
   -0.6895   -9.5676   17.3297 C   0  0  0  0  0  0  0  0  0  0  0  0
    0.8388   -5.8417   27.5264 C   0  0  0  0  0  0  0  0  0  0  0  0
   -2.0709   -7.6637   18.7817 C   0  0  0  0  0  0  0  0  0  0  0  0
   -0.5279   -8.2168   17.0717 C   0  0  0  0  0  0  0  0  0  0  0  0
    6.9694   -4.0191   27.8190 C   0  0  0  0  0  0  0  0  0  0  0  0
    5.1733   -4.5469   29.8123 C   0  0  0  0  0  0  0  0  0  0  0  0
   -1.7508  -11.3016   18.6072 C   0  0  0  0  0  0  0  0  0  0  0  0
    1.7497   -5.6771   26.4971 C   0  0  0  0  0  0  0  0  0  0  0  0
   -1.5799   -9.9322   18.3468 C   0  0  0  0  0  0  0  0  0  0  0  0
   -1.0871  -12.2214   17.8851 C   0  0  0  0  0  0  0  0  0  0  0  0
   -2.2706   -8.9669   19.0691 C   0  0  0  0  0  0  0  0  0  0  0  0
    3.0279   -5.3073   26.8197 C   0  0  0  0  0  0  0  0  0  0  0  0
    7.3282   -3.8948   29.1186 C   0  0  0  0  0  0  0  0  0  0  0  0
  1  3  4  0
  1  7  4  0
  2  3  1  0
  2  6  4  0
  2 16  4  0
  3 22  4  0
  4  9  4  0
  4 10  1  0
  4 20  4  0
  5 16  4  0
  5 23  4  0
  6 15  4  0
  7 12  4  0
  8 13  4  0
  8 14  4  0
  9 11  4  0
 11 14  4  0
 11 19  4  0
 12 18  4  0
 13 21  4  0
 15 23  4  0
 17 19  4  0
 17 20  4  0
 18 22  4  0
 19 21  4  0
M  END
$$$$

 Created by Python create_sdf_string function

 23 25  0  0  0  0  0  0  0  0999 V2000
    2.4610   -5.3070   29.1240 C   0  0  0  0  0  0  0  0  0  0  0  0
    4.7710   -4.6952   28.4803 C   0  0  0  0  0  0  0  0  0  0  0  0
    3.4047   -5.1087   28.1314 C   0  0  0  0  0  0  0  0  0  0  0  0
   -0.2234  -11.8615   16.8874 C   0  0  0  0  0  0  0  0  0  0  0  0
    6.4491   -4.1532   30.1213 C   0  0  0  0  0  0  0  0  0  0  0  0
    5.7060   -4.4340   27.4975 C   0  0  0  0  0  0  0  0  0  0  0  0
    1.1818   -5.6612   28.8399 C   0  0  0  0  0  0  0  0  0  0  0  0
   -1.2067   -7.3287   17.7772 C   0  0  0  0  0  0  0  0  0  0  0  0
   -0.0206  -10.5585   16.6210 C   0  0  0  0  0  0  0  0  0  0  0  0
    0.3696  -12.7626   16.2169 O   0  0  0  0  0  0  0  0  0  0  0  0
   -0.6895   -9.5676   17.3297 C   0  0  0  0  0  0  0  0  0  0  0  0
    0.8388   -5.8417   27.5264 C   0  0  0  0  0  0  0  0  0  0  0  0
   -2.0709   -7.6637   18.7817 C   0  0  0  0  0  0  0  0  0  0  0  0
   -0.5279   -8.2168   17.0717 C   0  0  0  0  0  0  0  0  0  0  0  0
    6.9694   -4.0191   27.8190 C   0  0  0  0  0  0  0  0  0  0  0  0
    5.1733   -4.5469   29.8123 C   0  0  0  0  0  0  0  0  0  0  0  0
   -1.7508  -11.3016   18.6072 C   0  0  0  0  0  0  0  0  0  0  0  0
    1.7497   -5.6771   26.4971 C   0  0  0  0  0  0  0  0  0  0  0  0
   -1.5799   -9.9322   18.3468 C   0  0  0  0  0  0  0  0  0  0  0  0
   -1.0871  -12.2214   17.8851 C   0  0  0  0  0  0  0  0  0  0  0  0
   -2.2706   -8.9669   19.0691 C   0  0  0  0  0  0  0  0  0  0  0  0
    3.0279   -5.3073   26.8197 C   0  0  0  0  0  0  0  0  0  0  0  0
    7.3282   -3.8948   29.1186 C   0  0  0  0  0  0  0  0  0  0  0  0
  1  3  4  0
  1  7  4  0
  2  3  1  0
  2  6  4  0
  2 16  4  0
  3 22  4  0
  4  9  4  0
  4 10  1  0
  4 20  4  0
  5 16  4  0
  5 23  4  0
  6 15  4  0
  7 12  4  0
  8 13  4  0
  8 14  4  0
  9 11  4  0
 11 14  4  0
 11 19  4  0
 12 18  4  0
 13 21  4  0
 15 23  4  0
 17 19  4  0
 17 20  4  0
 18 22  4  0
 19 21  4  0
M  END
$$$$

 Created by Python create_sdf_string function

 23 25  0  0  0  0  0  0  0  0999 V2000
    2.4610   -5.3070   29.1240 C   0  0  0  0  0  0  0  0  0  0  0  0
    4.7710   -4.6952   28.4803 C   0  0  0  0  0  0  0  0  0  0  0  0
    3.4047   -5.1087   28.1314 C   0  0  0  0  0  0  0  0  0  0  0  0
   -0.2234  -11.8615   16.8874 C   0  0  0  0  0  0  0  0  0  0  0  0
    6.4491   -4.1532   30.1213 C   0  0  0  0  0  0  0  0  0  0  0  0
    5.7060   -4.4340   27.4975 C   0  0  0  0  0  0  0  0  0  0  0  0
    1.1818   -5.6612   28.8399 C   0  0  0  0  0  0  0  0  0  0  0  0
   -1.2067   -7.3287   17.7772 C   0  0  0  0  0  0  0  0  0  0  0  0
   -0.0206  -10.5585   16.6210 C   0  0  0  0  0  0  0  0  0  0  0  0
    0.3696  -12.7626   16.2169 O   0  0  0  0  0  0  0  0  0  0  0  0
   -0.6895   -9.5676   17.3297 C   0  0  0  0  0  0  0  0  0  0  0  0
    0.8388   -5.8417   27.5264 C   0  0  0  0  0  0  0  0  0  0  0  0
   -2.0709   -7.6637   18.7817 C   0  0  0  0  0  0  0  0  0  0  0  0
   -0.5279   -8.2168   17.0717 C   0  0  0  0  0  0  0  0  0  0  0  0
    6.9694   -4.0191   27.8190 C   0  0  0  0  0  0  0  0  0  0  0  0
    5.1733   -4.5469   29.8123 C   0  0  0  0  0  0  0  0  0  0  0  0
   -1.7508  -11.3016   18.6072 C   0  0  0  0  0  0  0  0  0  0  0  0
    1.7497   -5.6771   26.4971 C   0  0  0  0  0  0  0  0  0  0  0  0
   -1.5799   -9.9322   18.3468 C   0  0  0  0  0  0  0  0  0  0  0  0
   -1.0871  -12.2214   17.8851 C   0  0  0  0  0  0  0  0  0  0  0  0
   -2.2706   -8.9669   19.0691 C   0  0  0  0  0  0  0  0  0  0  0  0
    3.0279   -5.3073   26.8197 C   0  0  0  0  0  0  0  0  0  0  0  0
    7.3282   -3.8948   29.1186 C   0  0  0  0  0  0  0  0  0  0  0  0
  1  3  4  0
  1  7  4  0
  2  3  1  0
  2  6  4  0
  2 16  4  0
  3 22  4  0
  4  9  4  0
  4 10  1  0
  4 20  4  0
  5 16  4  0
  5 23  4  0
  6 15  4  0
  7 12  4  0
  8 13  4  0
  8 14  4  0
  9 11  4  0
 11 14  4  0
 11 19  4  0
 12 18  4  0
 13 21  4  0
 15 23  4  0
 17 19  4  0
 17 20  4  0
 18 22  4  0
 19 21  4  0
M  END
$$$$

 Created by Python create_sdf_string function

 23 25  0  0  0  0  0  0  0  0999 V2000
    2.4610   -5.3070   29.1240 C   0  0  0  0  0  0  0  0  0  0  0  0
    4.7710   -4.6952   28.4803 C   0  0  0  0  0  0  0  0  0  0  0  0
    3.4047   -5.1087   28.1314 C   0  0  0  0  0  0  0  0  0  0  0  0
   -0.2234  -11.8615   16.8874 C   0  0  0  0  0  0  0  0  0  0  0  0
    6.4491   -4.1532   30.1213 C   0  0  0  0  0  0  0  0  0  0  0  0
    5.7060   -4.4340   27.4975 C   0  0  0  0  0  0  0  0  0  0  0  0
    1.1818   -5.6612   28.8399 C   0  0  0  0  0  0  0  0  0  0  0  0
   -1.2067   -7.3287   17.7772 C   0  0  0  0  0  0  0  0  0  0  0  0
   -0.0206  -10.5585   16.6210 C   0  0  0  0  0  0  0  0  0  0  0  0
    0.3696  -12.7626   16.2169 O   0  0  0  0  0  0  0  0  0  0  0  0
   -0.6895   -9.5676   17.3297 C   0  0  0  0  0  0  0  0  0  0  0  0
    0.8388   -5.8417   27.5264 C   0  0  0  0  0  0  0  0  0  0  0  0
   -2.0709   -7.6637   18.7817 C   0  0  0  0  0  0  0  0  0  0  0  0
   -0.5279   -8.2168   17.0717 C   0  0  0  0  0  0  0  0  0  0  0  0
    6.9694   -4.0191   27.8190 C   0  0  0  0  0  0  0  0  0  0  0  0
    5.1733   -4.5469   29.8123 C   0  0  0  0  0  0  0  0  0  0  0  0
   -1.7508  -11.3016   18.6072 C   0  0  0  0  0  0  0  0  0  0  0  0
    1.7497   -5.6771   26.4971 C   0  0  0  0  0  0  0  0  0  0  0  0
   -1.5799   -9.9322   18.3468 C   0  0  0  0  0  0  0  0  0  0  0  0
   -1.0871  -12.2214   17.8851 C   0  0  0  0  0  0  0  0  0  0  0  0
   -2.2706   -8.9669   19.0691 C   0  0  0  0  0  0  0  0  0  0  0  0
    3.0279   -5.3073   26.8197 C   0  0  0  0  0  0  0  0  0  0  0  0
    7.3282   -3.8948   29.1186 C   0  0  0  0  0  0  0  0  0  0  0  0
  1  3  4  0
  1  7  4  0
  2  3  1  0
  2  6  4  0
  2 16  4  0
  3 22  4  0
  4  9  4  0
  4 10  1  0
  4 20  4  0
  5 16  4  0
  5 23  4  0
  6 15  4  0
  7 12  4  0
  8 13  4  0
  8 14  4  0
  9 11  4  0
 11 14  4  0
 11 19  4  0
 12 18  4  0
 13 21  4  0
 15 23  4  0
 17 19  4  0
 17 20  4  0
 18 22  4  0
 19 21  4  0
M  END
$$$$

 Created by Python create_sdf_string function

 23 25  0  0  0  0  0  0  0  0999 V2000
    2.4610   -5.3070   29.1240 C   0  0  0  0  0  0  0  0  0  0  0  0
    4.7710   -4.6952   28.4803 C   0  0  0  0  0  0  0  0  0  0  0  0
    3.4047   -5.1087   28.1314 C   0  0  0  0  0  0  0  0  0  0  0  0
   -0.2234  -11.8615   16.8874 C   0  0  0  0  0  0  0  0  0  0  0  0
    6.4491   -4.1532   30.1213 C   0  0  0  0  0  0  0  0  0  0  0  0
    5.7060   -4.4340   27.4975 C   0  0  0  0  0  0  0  0  0  0  0  0
    1.1818   -5.6612   28.8399 C   0  0  0  0  0  0  0  0  0  0  0  0
   -1.2067   -7.3287   17.7772 C   0  0  0  0  0  0  0  0  0  0  0  0
   -0.0206  -10.5585   16.6210 C   0  0  0  0  0  0  0  0  0  0  0  0
    0.3696  -12.7626   16.2169 O   0  0  0  0  0  0  0  0  0  0  0  0
   -0.6895   -9.5676   17.3297 C   0  0  0  0  0  0  0  0  0  0  0  0
    0.8388   -5.8417   27.5264 C   0  0  0  0  0  0  0  0  0  0  0  0
   -2.0709   -7.6637   18.7817 C   0  0  0  0  0  0  0  0  0  0  0  0
   -0.5279   -8.2168   17.0717 C   0  0  0  0  0  0  0  0  0  0  0  0
    6.9694   -4.0191   27.8190 C   0  0  0  0  0  0  0  0  0  0  0  0
    5.1733   -4.5469   29.8123 C   0  0  0  0  0  0  0  0  0  0  0  0
   -1.7508  -11.3016   18.6072 C   0  0  0  0  0  0  0  0  0  0  0  0
    1.7497   -5.6771   26.4971 C   0  0  0  0  0  0  0  0  0  0  0  0
   -1.5799   -9.9322   18.3468 C   0  0  0  0  0  0  0  0  0  0  0  0
   -1.0871  -12.2214   17.8851 C   0  0  0  0  0  0  0  0  0  0  0  0
   -2.2706   -8.9669   19.0691 C   0  0  0  0  0  0  0  0  0  0  0  0
    3.0279   -5.3073   26.8197 C   0  0  0  0  0  0  0  0  0  0  0  0
    7.3282   -3.8948   29.1186 C   0  0  0  0  0  0  0  0  0  0  0  0
  1  3  4  0
  1  7  4  0
  2  3  1  0
  2  6  4  0
  2 16  4  0
  3 22  4  0
  4  9  4  0
  4 10  1  0
  4 20  4  0
  5 16  4  0
  5 23  4  0
  6 15  4  0
  7 12  4  0
  8 13  4  0
  8 14  4  0
  9 11  4  0
 11 14  4  0
 11 19  4  0
 12 18  4  0
 13 21  4  0
 15 23  4  0
 17 19  4  0
 17 20  4  0
 18 22  4  0
 19 21  4  0
M  END
$$$$

 Created by Python create_sdf_string function

 23 25  0  0  0  0  0  0  0  0999 V2000
    2.4610   -5.3070   29.1240 C   0  0  0  0  0  0  0  0  0  0  0  0
    4.7710   -4.6952   28.4803 C   0  0  0  0  0  0  0  0  0  0  0  0
    3.4047   -5.1087   28.1314 C   0  0  0  0  0  0  0  0  0  0  0  0
   -0.2234  -11.8615   16.8874 C   0  0  0  0  0  0  0  0  0  0  0  0
    6.4491   -4.1532   30.1213 C   0  0  0  0  0  0  0  0  0  0  0  0
    5.7060   -4.4340   27.4975 C   0  0  0  0  0  0  0  0  0  0  0  0
    1.1818   -5.6612   28.8399 C   0  0  0  0  0  0  0  0  0  0  0  0
   -1.2067   -7.3287   17.7772 C   0  0  0  0  0  0  0  0  0  0  0  0
   -0.0206  -10.5585   16.6210 C   0  0  0  0  0  0  0  0  0  0  0  0
    0.3696  -12.7626   16.2169 O   0  0  0  0  0  0  0  0  0  0  0  0
   -0.6895   -9.5676   17.3297 C   0  0  0  0  0  0  0  0  0  0  0  0
    0.8388   -5.8417   27.5264 C   0  0  0  0  0  0  0  0  0  0  0  0
   -2.0709   -7.6637   18.7817 C   0  0  0  0  0  0  0  0  0  0  0  0
   -0.5279   -8.2168   17.0717 C   0  0  0  0  0  0  0  0  0  0  0  0
    6.9694   -4.0191   27.8190 C   0  0  0  0  0  0  0  0  0  0  0  0
    5.1733   -4.5469   29.8123 C   0  0  0  0  0  0  0  0  0  0  0  0
   -1.7508  -11.3016   18.6072 C   0  0  0  0  0  0  0  0  0  0  0  0
    1.7497   -5.6771   26.4971 C   0  0  0  0  0  0  0  0  0  0  0  0
   -1.5799   -9.9322   18.3468 C   0  0  0  0  0  0  0  0  0  0  0  0
   -1.0871  -12.2214   17.8851 C   0  0  0  0  0  0  0  0  0  0  0  0
   -2.2706   -8.9669   19.0691 C   0  0  0  0  0  0  0  0  0  0  0  0
    3.0279   -5.3073   26.8197 C   0  0  0  0  0  0  0  0  0  0  0  0
    7.3282   -3.8948   29.1186 C   0  0  0  0  0  0  0  0  0  0  0  0
  1  3  4  0
  1  7  4  0
  2  3  1  0
  2  6  4  0
  2 16  4  0
  3 22  4  0
  4  9  4  0
  4 10  1  0
  4 20  4  0
  5 16  4  0
  5 23  4  0
  6 15  4  0
  7 12  4  0
  8 13  4  0
  8 14  4  0
  9 11  4  0
 11 14  4  0
 11 19  4  0
 12 18  4  0
 13 21  4  0
 15 23  4  0
 17 19  4  0
 17 20  4  0
 18 22  4  0
 19 21  4  0
M  END
$$$$

 Created by Python create_sdf_string function

 23 25  0  0  0  0  0  0  0  0999 V2000
    2.4610   -5.3070   29.1240 C   0  0  0  0  0  0  0  0  0  0  0  0
    4.7710   -4.6952   28.4803 C   0  0  0  0  0  0  0  0  0  0  0  0
    3.4047   -5.1087   28.1314 C   0  0  0  0  0  0  0  0  0  0  0  0
   -0.2234  -11.8615   16.8874 C   0  0  0  0  0  0  0  0  0  0  0  0
    6.4491   -4.1532   30.1213 C   0  0  0  0  0  0  0  0  0  0  0  0
    5.7060   -4.4340   27.4975 C   0  0  0  0  0  0  0  0  0  0  0  0
    1.1818   -5.6612   28.8399 C   0  0  0  0  0  0  0  0  0  0  0  0
   -1.2067   -7.3287   17.7772 C   0  0  0  0  0  0  0  0  0  0  0  0
   -0.0206  -10.5585   16.6210 C   0  0  0  0  0  0  0  0  0  0  0  0
    0.3696  -12.7626   16.2169 O   0  0  0  0  0  0  0  0  0  0  0  0
   -0.6895   -9.5676   17.3297 C   0  0  0  0  0  0  0  0  0  0  0  0
    0.8388   -5.8417   27.5264 C   0  0  0  0  0  0  0  0  0  0  0  0
   -2.0709   -7.6637   18.7817 C   0  0  0  0  0  0  0  0  0  0  0  0
   -0.5279   -8.2168   17.0717 C   0  0  0  0  0  0  0  0  0  0  0  0
    6.9694   -4.0191   27.8190 C   0  0  0  0  0  0  0  0  0  0  0  0
    5.1733   -4.5469   29.8123 C   0  0  0  0  0  0  0  0  0  0  0  0
   -1.7508  -11.3016   18.6072 C   0  0  0  0  0  0  0  0  0  0  0  0
    1.7497   -5.6771   26.4971 C   0  0  0  0  0  0  0  0  0  0  0  0
   -1.5799   -9.9322   18.3468 C   0  0  0  0  0  0  0  0  0  0  0  0
   -1.0871  -12.2214   17.8851 C   0  0  0  0  0  0  0  0  0  0  0  0
   -2.2706   -8.9669   19.0691 C   0  0  0  0  0  0  0  0  0  0  0  0
    3.0279   -5.3073   26.8197 C   0  0  0  0  0  0  0  0  0  0  0  0
    7.3282   -3.8948   29.1186 C   0  0  0  0  0  0  0  0  0  0  0  0
  1  3  4  0
  1  7  4  0
  2  3  1  0
  2  6  4  0
  2 16  4  0
  3 22  4  0
  4  9  4  0
  4 10  1  0
  4 20  4  0
  5 16  4  0
  5 23  4  0
  6 15  4  0
  7 12  4  0
  8 13  4  0
  8 14  4  0
  9 11  4  0
 11 14  4  0
 11 19  4  0
 12 18  4  0
 13 21  4  0
 15 23  4  0
 17 19  4  0
 17 20  4  0
 18 22  4  0
 19 21  4  0
M  END
$$$$

 Created by Python create_sdf_string function

 23 25  0  0  0  0  0  0  0  0999 V2000
    2.4610   -5.3070   29.1240 C   0  0  0  0  0  0  0  0  0  0  0  0
    4.7710   -4.6952   28.4803 C   0  0  0  0  0  0  0  0  0  0  0  0
    3.4047   -5.1087   28.1314 C   0  0  0  0  0  0  0  0  0  0  0  0
   -0.2234  -11.8615   16.8874 C   0  0  0  0  0  0  0  0  0  0  0  0
    6.4491   -4.1532   30.1213 C   0  0  0  0  0  0  0  0  0  0  0  0
    5.7060   -4.4340   27.4975 C   0  0  0  0  0  0  0  0  0  0  0  0
    1.1818   -5.6612   28.8399 C   0  0  0  0  0  0  0  0  0  0  0  0
   -1.2067   -7.3287   17.7772 C   0  0  0  0  0  0  0  0  0  0  0  0
   -0.0206  -10.5585   16.6210 C   0  0  0  0  0  0  0  0  0  0  0  0
    0.3696  -12.7626   16.2169 O   0  0  0  0  0  0  0  0  0  0  0  0
   -0.6895   -9.5676   17.3297 C   0  0  0  0  0  0  0  0  0  0  0  0
    0.8388   -5.8417   27.5264 C   0  0  0  0  0  0  0  0  0  0  0  0
   -2.0709   -7.6637   18.7817 C   0  0  0  0  0  0  0  0  0  0  0  0
   -0.5279   -8.2168   17.0717 C   0  0  0  0  0  0  0  0  0  0  0  0
    6.9694   -4.0191   27.8190 C   0  0  0  0  0  0  0  0  0  0  0  0
    5.1733   -4.5469   29.8123 C   0  0  0  0  0  0  0  0  0  0  0  0
   -1.7508  -11.3016   18.6072 C   0  0  0  0  0  0  0  0  0  0  0  0
    1.7497   -5.6771   26.4971 C   0  0  0  0  0  0  0  0  0  0  0  0
   -1.5799   -9.9322   18.3468 C   0  0  0  0  0  0  0  0  0  0  0  0
   -1.0871  -12.2214   17.8851 C   0  0  0  0  0  0  0  0  0  0  0  0
   -2.2706   -8.9669   19.0691 C   0  0  0  0  0  0  0  0  0  0  0  0
    3.0279   -5.3073   26.8197 C   0  0  0  0  0  0  0  0  0  0  0  0
    7.3282   -3.8948   29.1186 C   0  0  0  0  0  0  0  0  0  0  0  0
  1  3  4  0
  1  7  4  0
  2  3  1  0
  2  6  4  0
  2 16  4  0
  3 22  4  0
  4  9  4  0
  4 10  1  0
  4 20  4  0
  5 16  4  0
  5 23  4  0
  6 15  4  0
  7 12  4  0
  8 13  4  0
  8 14  4  0
  9 11  4  0
 11 14  4  0
 11 19  4  0
 12 18  4  0
 13 21  4  0
 15 23  4  0
 17 19  4  0
 17 20  4  0
 18 22  4  0
 19 21  4  0
M  END
$$$$

 Created by Python create_sdf_string function

 23 25  0  0  0  0  0  0  0  0999 V2000
    2.4610   -5.3070   29.1240 C   0  0  0  0  0  0  0  0  0  0  0  0
    4.7710   -4.6952   28.4803 C   0  0  0  0  0  0  0  0  0  0  0  0
    3.4047   -5.1087   28.1314 C   0  0  0  0  0  0  0  0  0  0  0  0
   -0.2234  -11.8615   16.8874 C   0  0  0  0  0  0  0  0  0  0  0  0
    6.4491   -4.1532   30.1213 C   0  0  0  0  0  0  0  0  0  0  0  0
    5.7060   -4.4340   27.4975 C   0  0  0  0  0  0  0  0  0  0  0  0
    1.1818   -5.6612   28.8399 C   0  0  0  0  0  0  0  0  0  0  0  0
   -1.2067   -7.3287   17.7772 C   0  0  0  0  0  0  0  0  0  0  0  0
   -0.0206  -10.5585   16.6210 C   0  0  0  0  0  0  0  0  0  0  0  0
    0.3696  -12.7626   16.2169 O   0  0  0  0  0  0  0  0  0  0  0  0
   -0.6895   -9.5676   17.3297 C   0  0  0  0  0  0  0  0  0  0  0  0
    0.8388   -5.8417   27.5264 C   0  0  0  0  0  0  0  0  0  0  0  0
   -2.0709   -7.6637   18.7817 C   0  0  0  0  0  0  0  0  0  0  0  0
   -0.5279   -8.2168   17.0717 C   0  0  0  0  0  0  0  0  0  0  0  0
    6.9694   -4.0191   27.8190 C   0  0  0  0  0  0  0  0  0  0  0  0
    5.1733   -4.5469   29.8123 C   0  0  0  0  0  0  0  0  0  0  0  0
   -1.7508  -11.3016   18.6072 C   0  0  0  0  0  0  0  0  0  0  0  0
    1.7497   -5.6771   26.4971 C   0  0  0  0  0  0  0  0  0  0  0  0
   -1.5799   -9.9322   18.3468 C   0  0  0  0  0  0  0  0  0  0  0  0
   -1.0871  -12.2214   17.8851 C   0  0  0  0  0  0  0  0  0  0  0  0
   -2.2706   -8.9669   19.0691 C   0  0  0  0  0  0  0  0  0  0  0  0
    3.0279   -5.3073   26.8197 C   0  0  0  0  0  0  0  0  0  0  0  0
    7.3282   -3.8948   29.1186 C   0  0  0  0  0  0  0  0  0  0  0  0
  1  3  4  0
  1  7  4  0
  2  3  1  0
  2  6  4  0
  2 16  4  0
  3 22  4  0
  4  9  4  0
  4 10  1  0
  4 20  4  0
  5 16  4  0
  5 23  4  0
  6 15  4  0
  7 12  4  0
  8 13  4  0
  8 14  4  0
  9 11  4  0
 11 14  4  0
 11 19  4  0
 12 18  4  0
 13 21  4  0
 15 23  4  0
 17 19  4  0
 17 20  4  0
 18 22  4  0
 19 21  4  0
M  END
$$$$

 Created by Python create_sdf_string function

 23 25  0  0  0  0  0  0  0  0999 V2000
    2.4610   -5.3070   29.1240 C   0  0  0  0  0  0  0  0  0  0  0  0
    4.7710   -4.6952   28.4803 C   0  0  0  0  0  0  0  0  0  0  0  0
    3.4047   -5.1087   28.1314 C   0  0  0  0  0  0  0  0  0  0  0  0
   -0.2234  -11.8615   16.8874 C   0  0  0  0  0  0  0  0  0  0  0  0
    6.4491   -4.1532   30.1213 C   0  0  0  0  0  0  0  0  0  0  0  0
    5.7060   -4.4340   27.4975 C   0  0  0  0  0  0  0  0  0  0  0  0
    1.1818   -5.6612   28.8399 C   0  0  0  0  0  0  0  0  0  0  0  0
   -1.2067   -7.3287   17.7772 C   0  0  0  0  0  0  0  0  0  0  0  0
   -0.0206  -10.5585   16.6210 C   0  0  0  0  0  0  0  0  0  0  0  0
    0.3696  -12.7626   16.2169 O   0  0  0  0  0  0  0  0  0  0  0  0
   -0.6895   -9.5676   17.3297 C   0  0  0  0  0  0  0  0  0  0  0  0
    0.8388   -5.8417   27.5264 C   0  0  0  0  0  0  0  0  0  0  0  0
   -2.0709   -7.6637   18.7817 C   0  0  0  0  0  0  0  0  0  0  0  0
   -0.5279   -8.2168   17.0717 C   0  0  0  0  0  0  0  0  0  0  0  0
    6.9694   -4.0191   27.8190 C   0  0  0  0  0  0  0  0  0  0  0  0
    5.1733   -4.5469   29.8123 C   0  0  0  0  0  0  0  0  0  0  0  0
   -1.7508  -11.3016   18.6072 C   0  0  0  0  0  0  0  0  0  0  0  0
    1.7497   -5.6771   26.4971 C   0  0  0  0  0  0  0  0  0  0  0  0
   -1.5799   -9.9322   18.3468 C   0  0  0  0  0  0  0  0  0  0  0  0
   -1.0871  -12.2214   17.8851 C   0  0  0  0  0  0  0  0  0  0  0  0
   -2.2706   -8.9669   19.0691 C   0  0  0  0  0  0  0  0  0  0  0  0
    3.0279   -5.3073   26.8197 C   0  0  0  0  0  0  0  0  0  0  0  0
    7.3282   -3.8948   29.1186 C   0  0  0  0  0  0  0  0  0  0  0  0
  1  3  4  0
  1  7  4  0
  2  3  1  0
  2  6  4  0
  2 16  4  0
  3 22  4  0
  4  9  4  0
  4 10  1  0
  4 20  4  0
  5 16  4  0
  5 23  4  0
  6 15  4  0
  7 12  4  0
  8 13  4  0
  8 14  4  0
  9 11  4  0
 11 14  4  0
 11 19  4  0
 12 18  4  0
 13 21  4  0
 15 23  4  0
 17 19  4  0
 17 20  4  0
 18 22  4  0
 19 21  4  0
M  END
$$$$

 Created by Python create_sdf_string function

 23 25  0  0  0  0  0  0  0  0999 V2000
    2.4610   -5.3070   29.1240 C   0  0  0  0  0  0  0  0  0  0  0  0
    4.7710   -4.6952   28.4803 C   0  0  0  0  0  0  0  0  0  0  0  0
    3.4047   -5.1087   28.1314 C   0  0  0  0  0  0  0  0  0  0  0  0
   -0.2234  -11.8615   16.8874 C   0  0  0  0  0  0  0  0  0  0  0  0
    6.4491   -4.1532   30.1213 C   0  0  0  0  0  0  0  0  0  0  0  0
    5.7060   -4.4340   27.4975 C   0  0  0  0  0  0  0  0  0  0  0  0
    1.1818   -5.6612   28.8399 C   0  0  0  0  0  0  0  0  0  0  0  0
   -1.2067   -7.3287   17.7772 C   0  0  0  0  0  0  0  0  0  0  0  0
   -0.0206  -10.5585   16.6210 C   0  0  0  0  0  0  0  0  0  0  0  0
    0.3696  -12.7626   16.2169 O   0  0  0  0  0  0  0  0  0  0  0  0
   -0.6895   -9.5676   17.3297 C   0  0  0  0  0  0  0  0  0  0  0  0
    0.8388   -5.8417   27.5264 C   0  0  0  0  0  0  0  0  0  0  0  0
   -2.0709   -7.6637   18.7817 C   0  0  0  0  0  0  0  0  0  0  0  0
   -0.5279   -8.2168   17.0717 C   0  0  0  0  0  0  0  0  0  0  0  0
    6.9694   -4.0191   27.8190 C   0  0  0  0  0  0  0  0  0  0  0  0
    5.1733   -4.5469   29.8123 C   0  0  0  0  0  0  0  0  0  0  0  0
   -1.7508  -11.3016   18.6072 C   0  0  0  0  0  0  0  0  0  0  0  0
    1.7497   -5.6771   26.4971 C   0  0  0  0  0  0  0  0  0  0  0  0
   -1.5799   -9.9322   18.3468 C   0  0  0  0  0  0  0  0  0  0  0  0
   -1.0871  -12.2214   17.8851 C   0  0  0  0  0  0  0  0  0  0  0  0
   -2.2706   -8.9669   19.0691 C   0  0  0  0  0  0  0  0  0  0  0  0
    3.0279   -5.3073   26.8197 C   0  0  0  0  0  0  0  0  0  0  0  0
    7.3282   -3.8948   29.1186 C   0  0  0  0  0  0  0  0  0  0  0  0
  1  3  4  0
  1  7  4  0
  2  3  1  0
  2  6  4  0
  2 16  4  0
  3 22  4  0
  4  9  4  0
  4 10  1  0
  4 20  4  0
  5 16  4  0
  5 23  4  0
  6 15  4  0
  7 12  4  0
  8 13  4  0
  8 14  4  0
  9 11  4  0
 11 14  4  0
 11 19  4  0
 12 18  4  0
 13 21  4  0
 15 23  4  0
 17 19  4  0
 17 20  4  0
 18 22  4  0
 19 21  4  0
M  END
$$$$

 Created by Python create_sdf_string function

 23 25  0  0  0  0  0  0  0  0999 V2000
    2.4610   -5.3070   29.1240 C   0  0  0  0  0  0  0  0  0  0  0  0
    4.7710   -4.6952   28.4803 C   0  0  0  0  0  0  0  0  0  0  0  0
    3.4047   -5.1087   28.1314 C   0  0  0  0  0  0  0  0  0  0  0  0
   -0.2234  -11.8615   16.8874 C   0  0  0  0  0  0  0  0  0  0  0  0
    6.4491   -4.1532   30.1213 C   0  0  0  0  0  0  0  0  0  0  0  0
    5.7060   -4.4340   27.4975 C   0  0  0  0  0  0  0  0  0  0  0  0
    1.1818   -5.6612   28.8399 C   0  0  0  0  0  0  0  0  0  0  0  0
   -1.2067   -7.3287   17.7772 C   0  0  0  0  0  0  0  0  0  0  0  0
   -0.0206  -10.5585   16.6210 C   0  0  0  0  0  0  0  0  0  0  0  0
    0.3696  -12.7626   16.2169 O   0  0  0  0  0  0  0  0  0  0  0  0
   -0.6895   -9.5676   17.3297 C   0  0  0  0  0  0  0  0  0  0  0  0
    0.8388   -5.8417   27.5264 C   0  0  0  0  0  0  0  0  0  0  0  0
   -2.0709   -7.6637   18.7817 C   0  0  0  0  0  0  0  0  0  0  0  0
   -0.5279   -8.2168   17.0717 C   0  0  0  0  0  0  0  0  0  0  0  0
    6.9694   -4.0191   27.8190 C   0  0  0  0  0  0  0  0  0  0  0  0
    5.1733   -4.5469   29.8123 C   0  0  0  0  0  0  0  0  0  0  0  0
   -1.7508  -11.3016   18.6072 C   0  0  0  0  0  0  0  0  0  0  0  0
    1.7497   -5.6771   26.4971 C   0  0  0  0  0  0  0  0  0  0  0  0
   -1.5799   -9.9322   18.3468 C   0  0  0  0  0  0  0  0  0  0  0  0
   -1.0871  -12.2214   17.8851 C   0  0  0  0  0  0  0  0  0  0  0  0
   -2.2706   -8.9669   19.0691 C   0  0  0  0  0  0  0  0  0  0  0  0
    3.0279   -5.3073   26.8197 C   0  0  0  0  0  0  0  0  0  0  0  0
    7.3282   -3.8948   29.1186 C   0  0  0  0  0  0  0  0  0  0  0  0
  1  3  4  0
  1  7  4  0
  2  3  1  0
  2  6  4  0
  2 16  4  0
  3 22  4  0
  4  9  4  0
  4 10  1  0
  4 20  4  0
  5 16  4  0
  5 23  4  0
  6 15  4  0
  7 12  4  0
  8 13  4  0
  8 14  4  0
  9 11  4  0
 11 14  4  0
 11 19  4  0
 12 18  4  0
 13 21  4  0
 15 23  4  0
 17 19  4  0
 17 20  4  0
 18 22  4  0
 19 21  4  0
M  END
$$$$

 Created by Python create_sdf_string function

 23 25  0  0  0  0  0  0  0  0999 V2000
    2.4610   -5.3070   29.1240 C   0  0  0  0  0  0  0  0  0  0  0  0
    4.7710   -4.6952   28.4803 C   0  0  0  0  0  0  0  0  0  0  0  0
    3.4047   -5.1087   28.1314 C   0  0  0  0  0  0  0  0  0  0  0  0
   -0.2234  -11.8615   16.8874 C   0  0  0  0  0  0  0  0  0  0  0  0
    6.4491   -4.1532   30.1213 C   0  0  0  0  0  0  0  0  0  0  0  0
    5.7060   -4.4340   27.4975 C   0  0  0  0  0  0  0  0  0  0  0  0
    1.1818   -5.6612   28.8399 C   0  0  0  0  0  0  0  0  0  0  0  0
   -1.2067   -7.3287   17.7772 C   0  0  0  0  0  0  0  0  0  0  0  0
   -0.0206  -10.5585   16.6210 C   0  0  0  0  0  0  0  0  0  0  0  0
    0.3696  -12.7626   16.2169 O   0  0  0  0  0  0  0  0  0  0  0  0
   -0.6895   -9.5676   17.3297 C   0  0  0  0  0  0  0  0  0  0  0  0
    0.8388   -5.8417   27.5264 C   0  0  0  0  0  0  0  0  0  0  0  0
   -2.0709   -7.6637   18.7817 C   0  0  0  0  0  0  0  0  0  0  0  0
   -0.5279   -8.2168   17.0717 C   0  0  0  0  0  0  0  0  0  0  0  0
    6.9694   -4.0191   27.8190 C   0  0  0  0  0  0  0  0  0  0  0  0
    5.1733   -4.5469   29.8123 C   0  0  0  0  0  0  0  0  0  0  0  0
   -1.7508  -11.3016   18.6072 C   0  0  0  0  0  0  0  0  0  0  0  0
    1.7497   -5.6771   26.4971 C   0  0  0  0  0  0  0  0  0  0  0  0
   -1.5799   -9.9322   18.3468 C   0  0  0  0  0  0  0  0  0  0  0  0
   -1.0871  -12.2214   17.8851 C   0  0  0  0  0  0  0  0  0  0  0  0
   -2.2706   -8.9669   19.0691 C   0  0  0  0  0  0  0  0  0  0  0  0
    3.0279   -5.3073   26.8197 C   0  0  0  0  0  0  0  0  0  0  0  0
    7.3282   -3.8948   29.1186 C   0  0  0  0  0  0  0  0  0  0  0  0
  1  3  4  0
  1  7  4  0
  2  3  1  0
  2  6  4  0
  2 16  4  0
  3 22  4  0
  4  9  4  0
  4 10  1  0
  4 20  4  0
  5 16  4  0
  5 23  4  0
  6 15  4  0
  7 12  4  0
  8 13  4  0
  8 14  4  0
  9 11  4  0
 11 14  4  0
 11 19  4  0
 12 18  4  0
 13 21  4  0
 15 23  4  0
 17 19  4  0
 17 20  4  0
 18 22  4  0
 19 21  4  0
M  END
$$$$

 Created by Python create_sdf_string function

 23 25  0  0  0  0  0  0  0  0999 V2000
    2.4610   -5.3070   29.1240 C   0  0  0  0  0  0  0  0  0  0  0  0
    4.7710   -4.6952   28.4803 C   0  0  0  0  0  0  0  0  0  0  0  0
    3.4047   -5.1087   28.1314 C   0  0  0  0  0  0  0  0  0  0  0  0
   -0.2234  -11.8615   16.8874 C   0  0  0  0  0  0  0  0  0  0  0  0
    6.4491   -4.1532   30.1213 C   0  0  0  0  0  0  0  0  0  0  0  0
    5.7060   -4.4340   27.4975 C   0  0  0  0  0  0  0  0  0  0  0  0
    1.1818   -5.6612   28.8399 C   0  0  0  0  0  0  0  0  0  0  0  0
   -1.2067   -7.3287   17.7772 C   0  0  0  0  0  0  0  0  0  0  0  0
   -0.0206  -10.5585   16.6210 C   0  0  0  0  0  0  0  0  0  0  0  0
    0.3696  -12.7626   16.2169 O   0  0  0  0  0  0  0  0  0  0  0  0
   -0.6895   -9.5676   17.3297 C   0  0  0  0  0  0  0  0  0  0  0  0
    0.8388   -5.8417   27.5264 C   0  0  0  0  0  0  0  0  0  0  0  0
   -2.0709   -7.6637   18.7817 C   0  0  0  0  0  0  0  0  0  0  0  0
   -0.5279   -8.2168   17.0717 C   0  0  0  0  0  0  0  0  0  0  0  0
    6.9694   -4.0191   27.8190 C   0  0  0  0  0  0  0  0  0  0  0  0
    5.1733   -4.5469   29.8123 C   0  0  0  0  0  0  0  0  0  0  0  0
   -1.7508  -11.3016   18.6072 C   0  0  0  0  0  0  0  0  0  0  0  0
    1.7497   -5.6771   26.4971 C   0  0  0  0  0  0  0  0  0  0  0  0
   -1.5799   -9.9322   18.3468 C   0  0  0  0  0  0  0  0  0  0  0  0
   -1.0871  -12.2214   17.8851 C   0  0  0  0  0  0  0  0  0  0  0  0
   -2.2706   -8.9669   19.0691 C   0  0  0  0  0  0  0  0  0  0  0  0
    3.0279   -5.3073   26.8197 C   0  0  0  0  0  0  0  0  0  0  0  0
    7.3282   -3.8948   29.1186 C   0  0  0  0  0  0  0  0  0  0  0  0
  1  3  4  0
  1  7  4  0
  2  3  1  0
  2  6  4  0
  2 16  4  0
  3 22  4  0
  4  9  4  0
  4 10  1  0
  4 20  4  0
  5 16  4  0
  5 23  4  0
  6 15  4  0
  7 12  4  0
  8 13  4  0
  8 14  4  0
  9 11  4  0
 11 14  4  0
 11 19  4  0
 12 18  4  0
 13 21  4  0
 15 23  4  0
 17 19  4  0
 17 20  4  0
 18 22  4  0
 19 21  4  0
M  END
$$$$

 Created by Python create_sdf_string function

 23 25  0  0  0  0  0  0  0  0999 V2000
    2.4610   -5.3070   29.1240 C   0  0  0  0  0  0  0  0  0  0  0  0
    4.7710   -4.6952   28.4803 C   0  0  0  0  0  0  0  0  0  0  0  0
    3.4047   -5.1087   28.1314 C   0  0  0  0  0  0  0  0  0  0  0  0
   -0.2234  -11.8615   16.8874 C   0  0  0  0  0  0  0  0  0  0  0  0
    6.4491   -4.1532   30.1213 C   0  0  0  0  0  0  0  0  0  0  0  0
    5.7060   -4.4340   27.4975 C   0  0  0  0  0  0  0  0  0  0  0  0
    1.1818   -5.6612   28.8399 C   0  0  0  0  0  0  0  0  0  0  0  0
   -1.2067   -7.3287   17.7772 C   0  0  0  0  0  0  0  0  0  0  0  0
   -0.0206  -10.5585   16.6210 C   0  0  0  0  0  0  0  0  0  0  0  0
    0.3696  -12.7626   16.2169 O   0  0  0  0  0  0  0  0  0  0  0  0
   -0.6895   -9.5676   17.3297 C   0  0  0  0  0  0  0  0  0  0  0  0
    0.8388   -5.8417   27.5264 C   0  0  0  0  0  0  0  0  0  0  0  0
   -2.0709   -7.6637   18.7817 C   0  0  0  0  0  0  0  0  0  0  0  0
   -0.5279   -8.2168   17.0717 C   0  0  0  0  0  0  0  0  0  0  0  0
    6.9694   -4.0191   27.8190 C   0  0  0  0  0  0  0  0  0  0  0  0
    5.1733   -4.5469   29.8123 C   0  0  0  0  0  0  0  0  0  0  0  0
   -1.7508  -11.3016   18.6072 C   0  0  0  0  0  0  0  0  0  0  0  0
    1.7497   -5.6771   26.4971 C   0  0  0  0  0  0  0  0  0  0  0  0
   -1.5799   -9.9322   18.3468 C   0  0  0  0  0  0  0  0  0  0  0  0
   -1.0871  -12.2214   17.8851 C   0  0  0  0  0  0  0  0  0  0  0  0
   -2.2706   -8.9669   19.0691 C   0  0  0  0  0  0  0  0  0  0  0  0
    3.0279   -5.3073   26.8197 C   0  0  0  0  0  0  0  0  0  0  0  0
    7.3282   -3.8948   29.1186 C   0  0  0  0  0  0  0  0  0  0  0  0
  1  3  4  0
  1  7  4  0
  2  3  1  0
  2  6  4  0
  2 16  4  0
  3 22  4  0
  4  9  4  0
  4 10  1  0
  4 20  4  0
  5 16  4  0
  5 23  4  0
  6 15  4  0
  7 12  4  0
  8 13  4  0
  8 14  4  0
  9 11  4  0
 11 14  4  0
 11 19  4  0
 12 18  4  0
 13 21  4  0
 15 23  4  0
 17 19  4  0
 17 20  4  0
 18 22  4  0
 19 21  4  0
M  END
$$$$

 Created by Python create_sdf_string function

 23 25  0  0  0  0  0  0  0  0999 V2000
    2.4610   -5.3070   29.1240 C   0  0  0  0  0  0  0  0  0  0  0  0
    4.7710   -4.6952   28.4803 C   0  0  0  0  0  0  0  0  0  0  0  0
    3.4047   -5.1087   28.1314 C   0  0  0  0  0  0  0  0  0  0  0  0
   -0.2234  -11.8615   16.8874 C   0  0  0  0  0  0  0  0  0  0  0  0
    6.4491   -4.1532   30.1213 C   0  0  0  0  0  0  0  0  0  0  0  0
    5.7060   -4.4340   27.4975 C   0  0  0  0  0  0  0  0  0  0  0  0
    1.1818   -5.6612   28.8399 C   0  0  0  0  0  0  0  0  0  0  0  0
   -1.2067   -7.3287   17.7772 C   0  0  0  0  0  0  0  0  0  0  0  0
   -0.0206  -10.5585   16.6210 C   0  0  0  0  0  0  0  0  0  0  0  0
    0.3696  -12.7626   16.2169 O   0  0  0  0  0  0  0  0  0  0  0  0
   -0.6895   -9.5676   17.3297 C   0  0  0  0  0  0  0  0  0  0  0  0
    0.8388   -5.8417   27.5264 C   0  0  0  0  0  0  0  0  0  0  0  0
   -2.0709   -7.6637   18.7817 C   0  0  0  0  0  0  0  0  0  0  0  0
   -0.5279   -8.2168   17.0717 C   0  0  0  0  0  0  0  0  0  0  0  0
    6.9694   -4.0191   27.8190 C   0  0  0  0  0  0  0  0  0  0  0  0
    5.1733   -4.5469   29.8123 C   0  0  0  0  0  0  0  0  0  0  0  0
   -1.7508  -11.3016   18.6072 C   0  0  0  0  0  0  0  0  0  0  0  0
    1.7497   -5.6771   26.4971 C   0  0  0  0  0  0  0  0  0  0  0  0
   -1.5799   -9.9322   18.3468 C   0  0  0  0  0  0  0  0  0  0  0  0
   -1.0871  -12.2214   17.8851 C   0  0  0  0  0  0  0  0  0  0  0  0
   -2.2706   -8.9669   19.0691 C   0  0  0  0  0  0  0  0  0  0  0  0
    3.0279   -5.3073   26.8197 C   0  0  0  0  0  0  0  0  0  0  0  0
    7.3282   -3.8948   29.1186 C   0  0  0  0  0  0  0  0  0  0  0  0
  1  3  4  0
  1  7  4  0
  2  3  1  0
  2  6  4  0
  2 16  4  0
  3 22  4  0
  4  9  4  0
  4 10  1  0
  4 20  4  0
  5 16  4  0
  5 23  4  0
  6 15  4  0
  7 12  4  0
  8 13  4  0
  8 14  4  0
  9 11  4  0
 11 14  4  0
 11 19  4  0
 12 18  4  0
 13 21  4  0
 15 23  4  0
 17 19  4  0
 17 20  4  0
 18 22  4  0
 19 21  4  0
M  END
$$$$

 Created by Python create_sdf_string function

 23 25  0  0  0  0  0  0  0  0999 V2000
    2.4610   -5.3070   29.1240 C   0  0  0  0  0  0  0  0  0  0  0  0
    4.7710   -4.6952   28.4803 C   0  0  0  0  0  0  0  0  0  0  0  0
    3.4047   -5.1087   28.1314 C   0  0  0  0  0  0  0  0  0  0  0  0
   -0.2234  -11.8615   16.8874 C   0  0  0  0  0  0  0  0  0  0  0  0
    6.4491   -4.1532   30.1213 C   0  0  0  0  0  0  0  0  0  0  0  0
    5.7060   -4.4340   27.4975 C   0  0  0  0  0  0  0  0  0  0  0  0
    1.1818   -5.6612   28.8399 C   0  0  0  0  0  0  0  0  0  0  0  0
   -1.2067   -7.3287   17.7772 C   0  0  0  0  0  0  0  0  0  0  0  0
   -0.0206  -10.5585   16.6210 C   0  0  0  0  0  0  0  0  0  0  0  0
    0.3696  -12.7626   16.2169 O   0  0  0  0  0  0  0  0  0  0  0  0
   -0.6895   -9.5676   17.3297 C   0  0  0  0  0  0  0  0  0  0  0  0
    0.8388   -5.8417   27.5264 C   0  0  0  0  0  0  0  0  0  0  0  0
   -2.0709   -7.6637   18.7817 C   0  0  0  0  0  0  0  0  0  0  0  0
   -0.5279   -8.2168   17.0717 C   0  0  0  0  0  0  0  0  0  0  0  0
    6.9694   -4.0191   27.8190 C   0  0  0  0  0  0  0  0  0  0  0  0
    5.1733   -4.5469   29.8123 C   0  0  0  0  0  0  0  0  0  0  0  0
   -1.7508  -11.3016   18.6072 C   0  0  0  0  0  0  0  0  0  0  0  0
    1.7497   -5.6771   26.4971 C   0  0  0  0  0  0  0  0  0  0  0  0
   -1.5799   -9.9322   18.3468 C   0  0  0  0  0  0  0  0  0  0  0  0
   -1.0871  -12.2214   17.8851 C   0  0  0  0  0  0  0  0  0  0  0  0
   -2.2706   -8.9669   19.0691 C   0  0  0  0  0  0  0  0  0  0  0  0
    3.0279   -5.3073   26.8197 C   0  0  0  0  0  0  0  0  0  0  0  0
    7.3282   -3.8948   29.1186 C   0  0  0  0  0  0  0  0  0  0  0  0
  1  3  4  0
  1  7  4  0
  2  3  1  0
  2  6  4  0
  2 16  4  0
  3 22  4  0
  4  9  4  0
  4 10  1  0
  4 20  4  0
  5 16  4  0
  5 23  4  0
  6 15  4  0
  7 12  4  0
  8 13  4  0
  8 14  4  0
  9 11  4  0
 11 14  4  0
 11 19  4  0
 12 18  4  0
 13 21  4  0
 15 23  4  0
 17 19  4  0
 17 20  4  0
 18 22  4  0
 19 21  4  0
M  END
$$$$

 Created by Python create_sdf_string function

 23 25  0  0  0  0  0  0  0  0999 V2000
    2.4610   -5.3070   29.1240 C   0  0  0  0  0  0  0  0  0  0  0  0
    4.7710   -4.6952   28.4803 C   0  0  0  0  0  0  0  0  0  0  0  0
    3.4047   -5.1087   28.1314 C   0  0  0  0  0  0  0  0  0  0  0  0
   -0.2234  -11.8615   16.8874 C   0  0  0  0  0  0  0  0  0  0  0  0
    6.4491   -4.1532   30.1213 C   0  0  0  0  0  0  0  0  0  0  0  0
    5.7060   -4.4340   27.4975 C   0  0  0  0  0  0  0  0  0  0  0  0
    1.1818   -5.6612   28.8399 C   0  0  0  0  0  0  0  0  0  0  0  0
   -1.2067   -7.3287   17.7772 C   0  0  0  0  0  0  0  0  0  0  0  0
   -0.0206  -10.5585   16.6210 C   0  0  0  0  0  0  0  0  0  0  0  0
    0.3696  -12.7626   16.2169 O   0  0  0  0  0  0  0  0  0  0  0  0
   -0.6895   -9.5676   17.3297 C   0  0  0  0  0  0  0  0  0  0  0  0
    0.8388   -5.8417   27.5264 C   0  0  0  0  0  0  0  0  0  0  0  0
   -2.0709   -7.6637   18.7817 C   0  0  0  0  0  0  0  0  0  0  0  0
   -0.5279   -8.2168   17.0717 C   0  0  0  0  0  0  0  0  0  0  0  0
    6.9694   -4.0191   27.8190 C   0  0  0  0  0  0  0  0  0  0  0  0
    5.1733   -4.5469   29.8123 C   0  0  0  0  0  0  0  0  0  0  0  0
   -1.7508  -11.3016   18.6072 C   0  0  0  0  0  0  0  0  0  0  0  0
    1.7497   -5.6771   26.4971 C   0  0  0  0  0  0  0  0  0  0  0  0
   -1.5799   -9.9322   18.3468 C   0  0  0  0  0  0  0  0  0  0  0  0
   -1.0871  -12.2214   17.8851 C   0  0  0  0  0  0  0  0  0  0  0  0
   -2.2706   -8.9669   19.0691 C   0  0  0  0  0  0  0  0  0  0  0  0
    3.0279   -5.3073   26.8197 C   0  0  0  0  0  0  0  0  0  0  0  0
    7.3282   -3.8948   29.1186 C   0  0  0  0  0  0  0  0  0  0  0  0
  1  3  4  0
  1  7  4  0
  2  3  1  0
  2  6  4  0
  2 16  4  0
  3 22  4  0
  4  9  4  0
  4 10  1  0
  4 20  4  0
  5 16  4  0
  5 23  4  0
  6 15  4  0
  7 12  4  0
  8 13  4  0
  8 14  4  0
  9 11  4  0
 11 14  4  0
 11 19  4  0
 12 18  4  0
 13 21  4  0
 15 23  4  0
 17 19  4  0
 17 20  4  0
 18 22  4  0
 19 21  4  0
M  END
$$$$

 Created by Python create_sdf_string function

 23 25  0  0  0  0  0  0  0  0999 V2000
    2.4610   -5.3070   29.1240 C   0  0  0  0  0  0  0  0  0  0  0  0
    4.7710   -4.6952   28.4803 C   0  0  0  0  0  0  0  0  0  0  0  0
    3.4047   -5.1087   28.1314 C   0  0  0  0  0  0  0  0  0  0  0  0
   -0.2234  -11.8615   16.8874 C   0  0  0  0  0  0  0  0  0  0  0  0
    6.4491   -4.1532   30.1213 C   0  0  0  0  0  0  0  0  0  0  0  0
    5.7060   -4.4340   27.4975 C   0  0  0  0  0  0  0  0  0  0  0  0
    1.1818   -5.6612   28.8399 C   0  0  0  0  0  0  0  0  0  0  0  0
   -1.2067   -7.3287   17.7772 C   0  0  0  0  0  0  0  0  0  0  0  0
   -0.0206  -10.5585   16.6210 C   0  0  0  0  0  0  0  0  0  0  0  0
    0.3696  -12.7626   16.2169 O   0  0  0  0  0  0  0  0  0  0  0  0
   -0.6895   -9.5676   17.3297 C   0  0  0  0  0  0  0  0  0  0  0  0
    0.8388   -5.8417   27.5264 C   0  0  0  0  0  0  0  0  0  0  0  0
   -2.0709   -7.6637   18.7817 C   0  0  0  0  0  0  0  0  0  0  0  0
   -0.5279   -8.2168   17.0717 C   0  0  0  0  0  0  0  0  0  0  0  0
    6.9694   -4.0191   27.8190 C   0  0  0  0  0  0  0  0  0  0  0  0
    5.1733   -4.5469   29.8123 C   0  0  0  0  0  0  0  0  0  0  0  0
   -1.7508  -11.3016   18.6072 C   0  0  0  0  0  0  0  0  0  0  0  0
    1.7497   -5.6771   26.4971 C   0  0  0  0  0  0  0  0  0  0  0  0
   -1.5799   -9.9322   18.3468 C   0  0  0  0  0  0  0  0  0  0  0  0
   -1.0871  -12.2214   17.8851 C   0  0  0  0  0  0  0  0  0  0  0  0
   -2.2706   -8.9669   19.0691 C   0  0  0  0  0  0  0  0  0  0  0  0
    3.0279   -5.3073   26.8197 C   0  0  0  0  0  0  0  0  0  0  0  0
    7.3282   -3.8948   29.1186 C   0  0  0  0  0  0  0  0  0  0  0  0
  1  3  4  0
  1  7  4  0
  2  3  1  0
  2  6  4  0
  2 16  4  0
  3 22  4  0
  4  9  4  0
  4 10  1  0
  4 20  4  0
  5 16  4  0
  5 23  4  0
  6 15  4  0
  7 12  4  0
  8 13  4  0
  8 14  4  0
  9 11  4  0
 11 14  4  0
 11 19  4  0
 12 18  4  0
 13 21  4  0
 15 23  4  0
 17 19  4  0
 17 20  4  0
 18 22  4  0
 19 21  4  0
M  END
$$$$

 Created by Python create_sdf_string function

 23 25  0  0  0  0  0  0  0  0999 V2000
    2.4610   -5.3070   29.1240 C   0  0  0  0  0  0  0  0  0  0  0  0
    4.7710   -4.6952   28.4803 C   0  0  0  0  0  0  0  0  0  0  0  0
    3.4047   -5.1087   28.1314 C   0  0  0  0  0  0  0  0  0  0  0  0
   -0.2234  -11.8615   16.8874 C   0  0  0  0  0  0  0  0  0  0  0  0
    6.4491   -4.1532   30.1213 C   0  0  0  0  0  0  0  0  0  0  0  0
    5.7060   -4.4340   27.4975 C   0  0  0  0  0  0  0  0  0  0  0  0
    1.1818   -5.6612   28.8399 C   0  0  0  0  0  0  0  0  0  0  0  0
   -1.2067   -7.3287   17.7772 C   0  0  0  0  0  0  0  0  0  0  0  0
   -0.0206  -10.5585   16.6210 C   0  0  0  0  0  0  0  0  0  0  0  0
    0.3696  -12.7626   16.2169 O   0  0  0  0  0  0  0  0  0  0  0  0
   -0.6895   -9.5676   17.3297 C   0  0  0  0  0  0  0  0  0  0  0  0
    0.8388   -5.8417   27.5264 C   0  0  0  0  0  0  0  0  0  0  0  0
   -2.0709   -7.6637   18.7817 C   0  0  0  0  0  0  0  0  0  0  0  0
   -0.5279   -8.2168   17.0717 C   0  0  0  0  0  0  0  0  0  0  0  0
    6.9694   -4.0191   27.8190 C   0  0  0  0  0  0  0  0  0  0  0  0
    5.1733   -4.5469   29.8123 C   0  0  0  0  0  0  0  0  0  0  0  0
   -1.7508  -11.3016   18.6072 C   0  0  0  0  0  0  0  0  0  0  0  0
    1.7497   -5.6771   26.4971 C   0  0  0  0  0  0  0  0  0  0  0  0
   -1.5799   -9.9322   18.3468 C   0  0  0  0  0  0  0  0  0  0  0  0
   -1.0871  -12.2214   17.8851 C   0  0  0  0  0  0  0  0  0  0  0  0
   -2.2706   -8.9669   19.0691 C   0  0  0  0  0  0  0  0  0  0  0  0
    3.0279   -5.3073   26.8197 C   0  0  0  0  0  0  0  0  0  0  0  0
    7.3282   -3.8948   29.1186 C   0  0  0  0  0  0  0  0  0  0  0  0
  1  3  4  0
  1  7  4  0
  2  3  1  0
  2  6  4  0
  2 16  4  0
  3 22  4  0
  4  9  4  0
  4 10  1  0
  4 20  4  0
  5 16  4  0
  5 23  4  0
  6 15  4  0
  7 12  4  0
  8 13  4  0
  8 14  4  0
  9 11  4  0
 11 14  4  0
 11 19  4  0
 12 18  4  0
 13 21  4  0
 15 23  4  0
 17 19  4  0
 17 20  4  0
 18 22  4  0
 19 21  4  0
M  END
$$$$

 Created by Python create_sdf_string function

 23 25  0  0  0  0  0  0  0  0999 V2000
    2.4610   -5.3070   29.1240 C   0  0  0  0  0  0  0  0  0  0  0  0
    4.7710   -4.6952   28.4803 C   0  0  0  0  0  0  0  0  0  0  0  0
    3.4047   -5.1087   28.1314 C   0  0  0  0  0  0  0  0  0  0  0  0
   -0.2234  -11.8615   16.8874 C   0  0  0  0  0  0  0  0  0  0  0  0
    6.4491   -4.1532   30.1213 C   0  0  0  0  0  0  0  0  0  0  0  0
    5.7060   -4.4340   27.4975 C   0  0  0  0  0  0  0  0  0  0  0  0
    1.1818   -5.6612   28.8399 C   0  0  0  0  0  0  0  0  0  0  0  0
   -1.2067   -7.3287   17.7772 C   0  0  0  0  0  0  0  0  0  0  0  0
   -0.0206  -10.5585   16.6210 C   0  0  0  0  0  0  0  0  0  0  0  0
    0.3696  -12.7626   16.2169 O   0  0  0  0  0  0  0  0  0  0  0  0
   -0.6895   -9.5676   17.3297 C   0  0  0  0  0  0  0  0  0  0  0  0
    0.8388   -5.8417   27.5264 C   0  0  0  0  0  0  0  0  0  0  0  0
   -2.0709   -7.6637   18.7817 C   0  0  0  0  0  0  0  0  0  0  0  0
   -0.5279   -8.2168   17.0717 C   0  0  0  0  0  0  0  0  0  0  0  0
    6.9694   -4.0191   27.8190 C   0  0  0  0  0  0  0  0  0  0  0  0
    5.1733   -4.5469   29.8123 C   0  0  0  0  0  0  0  0  0  0  0  0
   -1.7508  -11.3016   18.6072 C   0  0  0  0  0  0  0  0  0  0  0  0
    1.7497   -5.6771   26.4971 C   0  0  0  0  0  0  0  0  0  0  0  0
   -1.5799   -9.9322   18.3468 C   0  0  0  0  0  0  0  0  0  0  0  0
   -1.0871  -12.2214   17.8851 C   0  0  0  0  0  0  0  0  0  0  0  0
   -2.2706   -8.9669   19.0691 C   0  0  0  0  0  0  0  0  0  0  0  0
    3.0279   -5.3073   26.8197 C   0  0  0  0  0  0  0  0  0  0  0  0
    7.3282   -3.8948   29.1186 C   0  0  0  0  0  0  0  0  0  0  0  0
  1  3  4  0
  1  7  4  0
  2  3  1  0
  2  6  4  0
  2 16  4  0
  3 22  4  0
  4  9  4  0
  4 10  1  0
  4 20  4  0
  5 16  4  0
  5 23  4  0
  6 15  4  0
  7 12  4  0
  8 13  4  0
  8 14  4  0
  9 11  4  0
 11 14  4  0
 11 19  4  0
 12 18  4  0
 13 21  4  0
 15 23  4  0
 17 19  4  0
 17 20  4  0
 18 22  4  0
 19 21  4  0
M  END
$$$$

 Created by Python create_sdf_string function

 23 25  0  0  0  0  0  0  0  0999 V2000
    2.4610   -5.3070   29.1240 C   0  0  0  0  0  0  0  0  0  0  0  0
    4.7710   -4.6952   28.4803 C   0  0  0  0  0  0  0  0  0  0  0  0
    3.4047   -5.1087   28.1314 C   0  0  0  0  0  0  0  0  0  0  0  0
   -0.2234  -11.8615   16.8874 C   0  0  0  0  0  0  0  0  0  0  0  0
    6.4491   -4.1532   30.1213 C   0  0  0  0  0  0  0  0  0  0  0  0
    5.7060   -4.4340   27.4975 C   0  0  0  0  0  0  0  0  0  0  0  0
    1.1818   -5.6612   28.8399 C   0  0  0  0  0  0  0  0  0  0  0  0
   -1.2067   -7.3287   17.7772 C   0  0  0  0  0  0  0  0  0  0  0  0
   -0.0206  -10.5585   16.6210 C   0  0  0  0  0  0  0  0  0  0  0  0
    0.3696  -12.7626   16.2169 O   0  0  0  0  0  0  0  0  0  0  0  0
   -0.6895   -9.5676   17.3297 C   0  0  0  0  0  0  0  0  0  0  0  0
    0.8388   -5.8417   27.5264 C   0  0  0  0  0  0  0  0  0  0  0  0
   -2.0709   -7.6637   18.7817 C   0  0  0  0  0  0  0  0  0  0  0  0
   -0.5279   -8.2168   17.0717 C   0  0  0  0  0  0  0  0  0  0  0  0
    6.9694   -4.0191   27.8190 C   0  0  0  0  0  0  0  0  0  0  0  0
    5.1733   -4.5469   29.8123 C   0  0  0  0  0  0  0  0  0  0  0  0
   -1.7508  -11.3016   18.6072 C   0  0  0  0  0  0  0  0  0  0  0  0
    1.7497   -5.6771   26.4971 C   0  0  0  0  0  0  0  0  0  0  0  0
   -1.5799   -9.9322   18.3468 C   0  0  0  0  0  0  0  0  0  0  0  0
   -1.0871  -12.2214   17.8851 C   0  0  0  0  0  0  0  0  0  0  0  0
   -2.2706   -8.9669   19.0691 C   0  0  0  0  0  0  0  0  0  0  0  0
    3.0279   -5.3073   26.8197 C   0  0  0  0  0  0  0  0  0  0  0  0
    7.3282   -3.8948   29.1186 C   0  0  0  0  0  0  0  0  0  0  0  0
  1  3  4  0
  1  7  4  0
  2  3  1  0
  2  6  4  0
  2 16  4  0
  3 22  4  0
  4  9  4  0
  4 10  1  0
  4 20  4  0
  5 16  4  0
  5 23  4  0
  6 15  4  0
  7 12  4  0
  8 13  4  0
  8 14  4  0
  9 11  4  0
 11 14  4  0
 11 19  4  0
 12 18  4  0
 13 21  4  0
 15 23  4  0
 17 19  4  0
 17 20  4  0
 18 22  4  0
 19 21  4  0
M  END
$$$$

 Created by Python create_sdf_string function

 23 25  0  0  0  0  0  0  0  0999 V2000
    2.4610   -5.3070   29.1240 C   0  0  0  0  0  0  0  0  0  0  0  0
    4.7710   -4.6952   28.4803 C   0  0  0  0  0  0  0  0  0  0  0  0
    3.4047   -5.1087   28.1314 C   0  0  0  0  0  0  0  0  0  0  0  0
   -0.2234  -11.8615   16.8874 C   0  0  0  0  0  0  0  0  0  0  0  0
    6.4491   -4.1532   30.1213 C   0  0  0  0  0  0  0  0  0  0  0  0
    5.7060   -4.4340   27.4975 C   0  0  0  0  0  0  0  0  0  0  0  0
    1.1818   -5.6612   28.8399 C   0  0  0  0  0  0  0  0  0  0  0  0
   -1.2067   -7.3287   17.7772 C   0  0  0  0  0  0  0  0  0  0  0  0
   -0.0206  -10.5585   16.6210 C   0  0  0  0  0  0  0  0  0  0  0  0
    0.3696  -12.7626   16.2169 O   0  0  0  0  0  0  0  0  0  0  0  0
   -0.6895   -9.5676   17.3297 C   0  0  0  0  0  0  0  0  0  0  0  0
    0.8388   -5.8417   27.5264 C   0  0  0  0  0  0  0  0  0  0  0  0
   -2.0709   -7.6637   18.7817 C   0  0  0  0  0  0  0  0  0  0  0  0
   -0.5279   -8.2168   17.0717 C   0  0  0  0  0  0  0  0  0  0  0  0
    6.9694   -4.0191   27.8190 C   0  0  0  0  0  0  0  0  0  0  0  0
    5.1733   -4.5469   29.8123 C   0  0  0  0  0  0  0  0  0  0  0  0
   -1.7508  -11.3016   18.6072 C   0  0  0  0  0  0  0  0  0  0  0  0
    1.7497   -5.6771   26.4971 C   0  0  0  0  0  0  0  0  0  0  0  0
   -1.5799   -9.9322   18.3468 C   0  0  0  0  0  0  0  0  0  0  0  0
   -1.0871  -12.2214   17.8851 C   0  0  0  0  0  0  0  0  0  0  0  0
   -2.2706   -8.9669   19.0691 C   0  0  0  0  0  0  0  0  0  0  0  0
    3.0279   -5.3073   26.8197 C   0  0  0  0  0  0  0  0  0  0  0  0
    7.3282   -3.8948   29.1186 C   0  0  0  0  0  0  0  0  0  0  0  0
  1  3  4  0
  1  7  4  0
  2  3  1  0
  2  6  4  0
  2 16  4  0
  3 22  4  0
  4  9  4  0
  4 10  1  0
  4 20  4  0
  5 16  4  0
  5 23  4  0
  6 15  4  0
  7 12  4  0
  8 13  4  0
  8 14  4  0
  9 11  4  0
 11 14  4  0
 11 19  4  0
 12 18  4  0
 13 21  4  0
 15 23  4  0
 17 19  4  0
 17 20  4  0
 18 22  4  0
 19 21  4  0
M  END
$$$$

 Created by Python create_sdf_string function

 23 25  0  0  0  0  0  0  0  0999 V2000
    2.4610   -5.3070   29.1240 C   0  0  0  0  0  0  0  0  0  0  0  0
    4.7710   -4.6952   28.4803 C   0  0  0  0  0  0  0  0  0  0  0  0
    3.4047   -5.1087   28.1314 C   0  0  0  0  0  0  0  0  0  0  0  0
   -0.2234  -11.8615   16.8874 C   0  0  0  0  0  0  0  0  0  0  0  0
    6.4491   -4.1532   30.1213 C   0  0  0  0  0  0  0  0  0  0  0  0
    5.7060   -4.4340   27.4975 C   0  0  0  0  0  0  0  0  0  0  0  0
    1.1818   -5.6612   28.8399 C   0  0  0  0  0  0  0  0  0  0  0  0
   -1.2067   -7.3287   17.7772 C   0  0  0  0  0  0  0  0  0  0  0  0
   -0.0206  -10.5585   16.6210 C   0  0  0  0  0  0  0  0  0  0  0  0
    0.3696  -12.7626   16.2169 O   0  0  0  0  0  0  0  0  0  0  0  0
   -0.6895   -9.5676   17.3297 C   0  0  0  0  0  0  0  0  0  0  0  0
    0.8388   -5.8417   27.5264 C   0  0  0  0  0  0  0  0  0  0  0  0
   -2.0709   -7.6637   18.7817 C   0  0  0  0  0  0  0  0  0  0  0  0
   -0.5279   -8.2168   17.0717 C   0  0  0  0  0  0  0  0  0  0  0  0
    6.9694   -4.0191   27.8190 C   0  0  0  0  0  0  0  0  0  0  0  0
    5.1733   -4.5469   29.8123 C   0  0  0  0  0  0  0  0  0  0  0  0
   -1.7508  -11.3016   18.6072 C   0  0  0  0  0  0  0  0  0  0  0  0
    1.7497   -5.6771   26.4971 C   0  0  0  0  0  0  0  0  0  0  0  0
   -1.5799   -9.9322   18.3468 C   0  0  0  0  0  0  0  0  0  0  0  0
   -1.0871  -12.2214   17.8851 C   0  0  0  0  0  0  0  0  0  0  0  0
   -2.2706   -8.9669   19.0691 C   0  0  0  0  0  0  0  0  0  0  0  0
    3.0279   -5.3073   26.8197 C   0  0  0  0  0  0  0  0  0  0  0  0
    7.3282   -3.8948   29.1186 C   0  0  0  0  0  0  0  0  0  0  0  0
  1  3  4  0
  1  7  4  0
  2  3  1  0
  2  6  4  0
  2 16  4  0
  3 22  4  0
  4  9  4  0
  4 10  1  0
  4 20  4  0
  5 16  4  0
  5 23  4  0
  6 15  4  0
  7 12  4  0
  8 13  4  0
  8 14  4  0
  9 11  4  0
 11 14  4  0
 11 19  4  0
 12 18  4  0
 13 21  4  0
 15 23  4  0
 17 19  4  0
 17 20  4  0
 18 22  4  0
 19 21  4  0
M  END
$$$$

 Created by Python create_sdf_string function

 23 25  0  0  0  0  0  0  0  0999 V2000
    2.4610   -5.3070   29.1240 C   0  0  0  0  0  0  0  0  0  0  0  0
    4.7710   -4.6952   28.4803 C   0  0  0  0  0  0  0  0  0  0  0  0
    3.4047   -5.1087   28.1314 C   0  0  0  0  0  0  0  0  0  0  0  0
   -0.2234  -11.8615   16.8874 C   0  0  0  0  0  0  0  0  0  0  0  0
    6.4491   -4.1532   30.1213 C   0  0  0  0  0  0  0  0  0  0  0  0
    5.7060   -4.4340   27.4975 C   0  0  0  0  0  0  0  0  0  0  0  0
    1.1818   -5.6612   28.8399 C   0  0  0  0  0  0  0  0  0  0  0  0
   -1.2067   -7.3287   17.7772 C   0  0  0  0  0  0  0  0  0  0  0  0
   -0.0206  -10.5585   16.6210 C   0  0  0  0  0  0  0  0  0  0  0  0
    0.3696  -12.7626   16.2169 O   0  0  0  0  0  0  0  0  0  0  0  0
   -0.6895   -9.5676   17.3297 C   0  0  0  0  0  0  0  0  0  0  0  0
    0.8388   -5.8417   27.5264 C   0  0  0  0  0  0  0  0  0  0  0  0
   -2.0709   -7.6637   18.7817 C   0  0  0  0  0  0  0  0  0  0  0  0
   -0.5279   -8.2168   17.0717 C   0  0  0  0  0  0  0  0  0  0  0  0
    6.9694   -4.0191   27.8190 C   0  0  0  0  0  0  0  0  0  0  0  0
    5.1733   -4.5469   29.8123 C   0  0  0  0  0  0  0  0  0  0  0  0
   -1.7508  -11.3016   18.6072 C   0  0  0  0  0  0  0  0  0  0  0  0
    1.7497   -5.6771   26.4971 C   0  0  0  0  0  0  0  0  0  0  0  0
   -1.5799   -9.9322   18.3468 C   0  0  0  0  0  0  0  0  0  0  0  0
   -1.0871  -12.2214   17.8851 C   0  0  0  0  0  0  0  0  0  0  0  0
   -2.2706   -8.9669   19.0691 C   0  0  0  0  0  0  0  0  0  0  0  0
    3.0279   -5.3073   26.8197 C   0  0  0  0  0  0  0  0  0  0  0  0
    7.3282   -3.8948   29.1186 C   0  0  0  0  0  0  0  0  0  0  0  0
  1  3  4  0
  1  7  4  0
  2  3  1  0
  2  6  4  0
  2 16  4  0
  3 22  4  0
  4  9  4  0
  4 10  1  0
  4 20  4  0
  5 16  4  0
  5 23  4  0
  6 15  4  0
  7 12  4  0
  8 13  4  0
  8 14  4  0
  9 11  4  0
 11 14  4  0
 11 19  4  0
 12 18  4  0
 13 21  4  0
 15 23  4  0
 17 19  4  0
 17 20  4  0
 18 22  4  0
 19 21  4  0
M  END
$$$$

 Created by Python create_sdf_string function

 23 25  0  0  0  0  0  0  0  0999 V2000
    2.4610   -5.3070   29.1240 C   0  0  0  0  0  0  0  0  0  0  0  0
    4.7710   -4.6952   28.4803 C   0  0  0  0  0  0  0  0  0  0  0  0
    3.4047   -5.1087   28.1314 C   0  0  0  0  0  0  0  0  0  0  0  0
   -0.2234  -11.8615   16.8874 C   0  0  0  0  0  0  0  0  0  0  0  0
    6.4491   -4.1532   30.1213 C   0  0  0  0  0  0  0  0  0  0  0  0
    5.7060   -4.4340   27.4975 C   0  0  0  0  0  0  0  0  0  0  0  0
    1.1818   -5.6612   28.8399 C   0  0  0  0  0  0  0  0  0  0  0  0
   -1.2067   -7.3287   17.7772 C   0  0  0  0  0  0  0  0  0  0  0  0
   -0.0206  -10.5585   16.6210 C   0  0  0  0  0  0  0  0  0  0  0  0
    0.3696  -12.7626   16.2169 O   0  0  0  0  0  0  0  0  0  0  0  0
   -0.6895   -9.5676   17.3297 C   0  0  0  0  0  0  0  0  0  0  0  0
    0.8388   -5.8417   27.5264 C   0  0  0  0  0  0  0  0  0  0  0  0
   -2.0709   -7.6637   18.7817 C   0  0  0  0  0  0  0  0  0  0  0  0
   -0.5279   -8.2168   17.0717 C   0  0  0  0  0  0  0  0  0  0  0  0
    6.9694   -4.0191   27.8190 C   0  0  0  0  0  0  0  0  0  0  0  0
    5.1733   -4.5469   29.8123 C   0  0  0  0  0  0  0  0  0  0  0  0
   -1.7508  -11.3016   18.6072 C   0  0  0  0  0  0  0  0  0  0  0  0
    1.7497   -5.6771   26.4971 C   0  0  0  0  0  0  0  0  0  0  0  0
   -1.5799   -9.9322   18.3468 C   0  0  0  0  0  0  0  0  0  0  0  0
   -1.0871  -12.2214   17.8851 C   0  0  0  0  0  0  0  0  0  0  0  0
   -2.2706   -8.9669   19.0691 C   0  0  0  0  0  0  0  0  0  0  0  0
    3.0279   -5.3073   26.8197 C   0  0  0  0  0  0  0  0  0  0  0  0
    7.3282   -3.8948   29.1186 C   0  0  0  0  0  0  0  0  0  0  0  0
  1  3  4  0
  1  7  4  0
  2  3  1  0
  2  6  4  0
  2 16  4  0
  3 22  4  0
  4  9  4  0
  4 10  1  0
  4 20  4  0
  5 16  4  0
  5 23  4  0
  6 15  4  0
  7 12  4  0
  8 13  4  0
  8 14  4  0
  9 11  4  0
 11 14  4  0
 11 19  4  0
 12 18  4  0
 13 21  4  0
 15 23  4  0
 17 19  4  0
 17 20  4  0
 18 22  4  0
 19 21  4  0
M  END
$$$$

 Created by Python create_sdf_string function

 23 25  0  0  0  0  0  0  0  0999 V2000
    2.4610   -5.3070   29.1240 C   0  0  0  0  0  0  0  0  0  0  0  0
    4.7710   -4.6952   28.4803 C   0  0  0  0  0  0  0  0  0  0  0  0
    3.4047   -5.1087   28.1314 C   0  0  0  0  0  0  0  0  0  0  0  0
   -0.2234  -11.8615   16.8874 C   0  0  0  0  0  0  0  0  0  0  0  0
    6.4491   -4.1532   30.1213 C   0  0  0  0  0  0  0  0  0  0  0  0
    5.7060   -4.4340   27.4975 C   0  0  0  0  0  0  0  0  0  0  0  0
    1.1818   -5.6612   28.8399 C   0  0  0  0  0  0  0  0  0  0  0  0
   -1.2067   -7.3287   17.7772 C   0  0  0  0  0  0  0  0  0  0  0  0
   -0.0206  -10.5585   16.6210 C   0  0  0  0  0  0  0  0  0  0  0  0
    0.3696  -12.7626   16.2169 O   0  0  0  0  0  0  0  0  0  0  0  0
   -0.6895   -9.5676   17.3297 C   0  0  0  0  0  0  0  0  0  0  0  0
    0.8388   -5.8417   27.5264 C   0  0  0  0  0  0  0  0  0  0  0  0
   -2.0709   -7.6637   18.7817 C   0  0  0  0  0  0  0  0  0  0  0  0
   -0.5279   -8.2168   17.0717 C   0  0  0  0  0  0  0  0  0  0  0  0
    6.9694   -4.0191   27.8190 C   0  0  0  0  0  0  0  0  0  0  0  0
    5.1733   -4.5469   29.8123 C   0  0  0  0  0  0  0  0  0  0  0  0
   -1.7508  -11.3016   18.6072 C   0  0  0  0  0  0  0  0  0  0  0  0
    1.7497   -5.6771   26.4971 C   0  0  0  0  0  0  0  0  0  0  0  0
   -1.5799   -9.9322   18.3468 C   0  0  0  0  0  0  0  0  0  0  0  0
   -1.0871  -12.2214   17.8851 C   0  0  0  0  0  0  0  0  0  0  0  0
   -2.2706   -8.9669   19.0691 C   0  0  0  0  0  0  0  0  0  0  0  0
    3.0279   -5.3073   26.8197 C   0  0  0  0  0  0  0  0  0  0  0  0
    7.3282   -3.8948   29.1186 C   0  0  0  0  0  0  0  0  0  0  0  0
  1  3  4  0
  1  7  4  0
  2  3  1  0
  2  6  4  0
  2 16  4  0
  3 22  4  0
  4  9  4  0
  4 10  1  0
  4 20  4  0
  5 16  4  0
  5 23  4  0
  6 15  4  0
  7 12  4  0
  8 13  4  0
  8 14  4  0
  9 11  4  0
 11 14  4  0
 11 19  4  0
 12 18  4  0
 13 21  4  0
 15 23  4  0
 17 19  4  0
 17 20  4  0
 18 22  4  0
 19 21  4  0
M  END
$$$$

 Created by Python create_sdf_string function

 23 25  0  0  0  0  0  0  0  0999 V2000
    2.4610   -5.3070   29.1240 C   0  0  0  0  0  0  0  0  0  0  0  0
    4.7710   -4.6952   28.4803 C   0  0  0  0  0  0  0  0  0  0  0  0
    3.4047   -5.1087   28.1314 C   0  0  0  0  0  0  0  0  0  0  0  0
   -0.2234  -11.8615   16.8874 C   0  0  0  0  0  0  0  0  0  0  0  0
    6.4491   -4.1532   30.1213 C   0  0  0  0  0  0  0  0  0  0  0  0
    5.7060   -4.4340   27.4975 C   0  0  0  0  0  0  0  0  0  0  0  0
    1.1818   -5.6612   28.8399 C   0  0  0  0  0  0  0  0  0  0  0  0
   -1.2067   -7.3287   17.7772 C   0  0  0  0  0  0  0  0  0  0  0  0
   -0.0206  -10.5585   16.6210 C   0  0  0  0  0  0  0  0  0  0  0  0
    0.3696  -12.7626   16.2169 O   0  0  0  0  0  0  0  0  0  0  0  0
   -0.6895   -9.5676   17.3297 C   0  0  0  0  0  0  0  0  0  0  0  0
    0.8388   -5.8417   27.5264 C   0  0  0  0  0  0  0  0  0  0  0  0
   -2.0709   -7.6637   18.7817 C   0  0  0  0  0  0  0  0  0  0  0  0
   -0.5279   -8.2168   17.0717 C   0  0  0  0  0  0  0  0  0  0  0  0
    6.9694   -4.0191   27.8190 C   0  0  0  0  0  0  0  0  0  0  0  0
    5.1733   -4.5469   29.8123 C   0  0  0  0  0  0  0  0  0  0  0  0
   -1.7508  -11.3016   18.6072 C   0  0  0  0  0  0  0  0  0  0  0  0
    1.7497   -5.6771   26.4971 C   0  0  0  0  0  0  0  0  0  0  0  0
   -1.5799   -9.9322   18.3468 C   0  0  0  0  0  0  0  0  0  0  0  0
   -1.0871  -12.2214   17.8851 C   0  0  0  0  0  0  0  0  0  0  0  0
   -2.2706   -8.9669   19.0691 C   0  0  0  0  0  0  0  0  0  0  0  0
    3.0279   -5.3073   26.8197 C   0  0  0  0  0  0  0  0  0  0  0  0
    7.3282   -3.8948   29.1186 C   0  0  0  0  0  0  0  0  0  0  0  0
  1  3  4  0
  1  7  4  0
  2  3  1  0
  2  6  4  0
  2 16  4  0
  3 22  4  0
  4  9  4  0
  4 10  1  0
  4 20  4  0
  5 16  4  0
  5 23  4  0
  6 15  4  0
  7 12  4  0
  8 13  4  0
  8 14  4  0
  9 11  4  0
 11 14  4  0
 11 19  4  0
 12 18  4  0
 13 21  4  0
 15 23  4  0
 17 19  4  0
 17 20  4  0
 18 22  4  0
 19 21  4  0
M  END
$$$$

 Created by Python create_sdf_string function

 23 25  0  0  0  0  0  0  0  0999 V2000
    2.4610   -5.3070   29.1240 C   0  0  0  0  0  0  0  0  0  0  0  0
    4.7710   -4.6952   28.4803 C   0  0  0  0  0  0  0  0  0  0  0  0
    3.4047   -5.1087   28.1314 C   0  0  0  0  0  0  0  0  0  0  0  0
   -0.2234  -11.8615   16.8874 C   0  0  0  0  0  0  0  0  0  0  0  0
    6.4491   -4.1532   30.1213 C   0  0  0  0  0  0  0  0  0  0  0  0
    5.7060   -4.4340   27.4975 C   0  0  0  0  0  0  0  0  0  0  0  0
    1.1818   -5.6612   28.8399 C   0  0  0  0  0  0  0  0  0  0  0  0
   -1.2067   -7.3287   17.7772 C   0  0  0  0  0  0  0  0  0  0  0  0
   -0.0206  -10.5585   16.6210 C   0  0  0  0  0  0  0  0  0  0  0  0
    0.3696  -12.7626   16.2169 O   0  0  0  0  0  0  0  0  0  0  0  0
   -0.6895   -9.5676   17.3297 C   0  0  0  0  0  0  0  0  0  0  0  0
    0.8388   -5.8417   27.5264 C   0  0  0  0  0  0  0  0  0  0  0  0
   -2.0709   -7.6637   18.7817 C   0  0  0  0  0  0  0  0  0  0  0  0
   -0.5279   -8.2168   17.0717 C   0  0  0  0  0  0  0  0  0  0  0  0
    6.9694   -4.0191   27.8190 C   0  0  0  0  0  0  0  0  0  0  0  0
    5.1733   -4.5469   29.8123 C   0  0  0  0  0  0  0  0  0  0  0  0
   -1.7508  -11.3016   18.6072 C   0  0  0  0  0  0  0  0  0  0  0  0
    1.7497   -5.6771   26.4971 C   0  0  0  0  0  0  0  0  0  0  0  0
   -1.5799   -9.9322   18.3468 C   0  0  0  0  0  0  0  0  0  0  0  0
   -1.0871  -12.2214   17.8851 C   0  0  0  0  0  0  0  0  0  0  0  0
   -2.2706   -8.9669   19.0691 C   0  0  0  0  0  0  0  0  0  0  0  0
    3.0279   -5.3073   26.8197 C   0  0  0  0  0  0  0  0  0  0  0  0
    7.3282   -3.8948   29.1186 C   0  0  0  0  0  0  0  0  0  0  0  0
  1  3  4  0
  1  7  4  0
  2  3  1  0
  2  6  4  0
  2 16  4  0
  3 22  4  0
  4  9  4  0
  4 10  1  0
  4 20  4  0
  5 16  4  0
  5 23  4  0
  6 15  4  0
  7 12  4  0
  8 13  4  0
  8 14  4  0
  9 11  4  0
 11 14  4  0
 11 19  4  0
 12 18  4  0
 13 21  4  0
 15 23  4  0
 17 19  4  0
 17 20  4  0
 18 22  4  0
 19 21  4  0
M  END
$$$$

 Created by Python create_sdf_string function

 23 25  0  0  0  0  0  0  0  0999 V2000
    2.4610   -5.3070   29.1240 C   0  0  0  0  0  0  0  0  0  0  0  0
    4.7710   -4.6952   28.4803 C   0  0  0  0  0  0  0  0  0  0  0  0
    3.4047   -5.1087   28.1314 C   0  0  0  0  0  0  0  0  0  0  0  0
   -0.2234  -11.8615   16.8874 C   0  0  0  0  0  0  0  0  0  0  0  0
    6.4491   -4.1532   30.1213 C   0  0  0  0  0  0  0  0  0  0  0  0
    5.7060   -4.4340   27.4975 C   0  0  0  0  0  0  0  0  0  0  0  0
    1.1818   -5.6612   28.8399 C   0  0  0  0  0  0  0  0  0  0  0  0
   -1.2067   -7.3287   17.7772 C   0  0  0  0  0  0  0  0  0  0  0  0
   -0.0206  -10.5585   16.6210 C   0  0  0  0  0  0  0  0  0  0  0  0
    0.3696  -12.7626   16.2169 O   0  0  0  0  0  0  0  0  0  0  0  0
   -0.6895   -9.5676   17.3297 C   0  0  0  0  0  0  0  0  0  0  0  0
    0.8388   -5.8417   27.5264 C   0  0  0  0  0  0  0  0  0  0  0  0
   -2.0709   -7.6637   18.7817 C   0  0  0  0  0  0  0  0  0  0  0  0
   -0.5279   -8.2168   17.0717 C   0  0  0  0  0  0  0  0  0  0  0  0
    6.9694   -4.0191   27.8190 C   0  0  0  0  0  0  0  0  0  0  0  0
    5.1733   -4.5469   29.8123 C   0  0  0  0  0  0  0  0  0  0  0  0
   -1.7508  -11.3016   18.6072 C   0  0  0  0  0  0  0  0  0  0  0  0
    1.7497   -5.6771   26.4971 C   0  0  0  0  0  0  0  0  0  0  0  0
   -1.5799   -9.9322   18.3468 C   0  0  0  0  0  0  0  0  0  0  0  0
   -1.0871  -12.2214   17.8851 C   0  0  0  0  0  0  0  0  0  0  0  0
   -2.2706   -8.9669   19.0691 C   0  0  0  0  0  0  0  0  0  0  0  0
    3.0279   -5.3073   26.8197 C   0  0  0  0  0  0  0  0  0  0  0  0
    7.3282   -3.8948   29.1186 C   0  0  0  0  0  0  0  0  0  0  0  0
  1  3  4  0
  1  7  4  0
  2  3  1  0
  2  6  4  0
  2 16  4  0
  3 22  4  0
  4  9  4  0
  4 10  1  0
  4 20  4  0
  5 16  4  0
  5 23  4  0
  6 15  4  0
  7 12  4  0
  8 13  4  0
  8 14  4  0
  9 11  4  0
 11 14  4  0
 11 19  4  0
 12 18  4  0
 13 21  4  0
 15 23  4  0
 17 19  4  0
 17 20  4  0
 18 22  4  0
 19 21  4  0
M  END
$$$$

 Created by Python create_sdf_string function

 23 25  0  0  0  0  0  0  0  0999 V2000
    2.4610   -5.3070   29.1240 C   0  0  0  0  0  0  0  0  0  0  0  0
    4.7710   -4.6952   28.4803 C   0  0  0  0  0  0  0  0  0  0  0  0
    3.4047   -5.1087   28.1314 C   0  0  0  0  0  0  0  0  0  0  0  0
   -0.2234  -11.8615   16.8874 C   0  0  0  0  0  0  0  0  0  0  0  0
    6.4491   -4.1532   30.1213 C   0  0  0  0  0  0  0  0  0  0  0  0
    5.7060   -4.4340   27.4975 C   0  0  0  0  0  0  0  0  0  0  0  0
    1.1818   -5.6612   28.8399 C   0  0  0  0  0  0  0  0  0  0  0  0
   -1.2067   -7.3287   17.7772 C   0  0  0  0  0  0  0  0  0  0  0  0
   -0.0206  -10.5585   16.6210 C   0  0  0  0  0  0  0  0  0  0  0  0
    0.3696  -12.7626   16.2169 O   0  0  0  0  0  0  0  0  0  0  0  0
   -0.6895   -9.5676   17.3297 C   0  0  0  0  0  0  0  0  0  0  0  0
    0.8388   -5.8417   27.5264 C   0  0  0  0  0  0  0  0  0  0  0  0
   -2.0709   -7.6637   18.7817 C   0  0  0  0  0  0  0  0  0  0  0  0
   -0.5279   -8.2168   17.0717 C   0  0  0  0  0  0  0  0  0  0  0  0
    6.9694   -4.0191   27.8190 C   0  0  0  0  0  0  0  0  0  0  0  0
    5.1733   -4.5469   29.8123 C   0  0  0  0  0  0  0  0  0  0  0  0
   -1.7508  -11.3016   18.6072 C   0  0  0  0  0  0  0  0  0  0  0  0
    1.7497   -5.6771   26.4971 C   0  0  0  0  0  0  0  0  0  0  0  0
   -1.5799   -9.9322   18.3468 C   0  0  0  0  0  0  0  0  0  0  0  0
   -1.0871  -12.2214   17.8851 C   0  0  0  0  0  0  0  0  0  0  0  0
   -2.2706   -8.9669   19.0691 C   0  0  0  0  0  0  0  0  0  0  0  0
    3.0279   -5.3073   26.8197 C   0  0  0  0  0  0  0  0  0  0  0  0
    7.3282   -3.8948   29.1186 C   0  0  0  0  0  0  0  0  0  0  0  0
  1  3  4  0
  1  7  4  0
  2  3  1  0
  2  6  4  0
  2 16  4  0
  3 22  4  0
  4  9  4  0
  4 10  1  0
  4 20  4  0
  5 16  4  0
  5 23  4  0
  6 15  4  0
  7 12  4  0
  8 13  4  0
  8 14  4  0
  9 11  4  0
 11 14  4  0
 11 19  4  0
 12 18  4  0
 13 21  4  0
 15 23  4  0
 17 19  4  0
 17 20  4  0
 18 22  4  0
 19 21  4  0
M  END
$$$$

 Created by Python create_sdf_string function

 23 25  0  0  0  0  0  0  0  0999 V2000
    2.4610   -5.3070   29.1240 C   0  0  0  0  0  0  0  0  0  0  0  0
    4.7710   -4.6952   28.4803 C   0  0  0  0  0  0  0  0  0  0  0  0
    3.4047   -5.1087   28.1314 C   0  0  0  0  0  0  0  0  0  0  0  0
   -0.2234  -11.8615   16.8874 C   0  0  0  0  0  0  0  0  0  0  0  0
    6.4491   -4.1532   30.1213 C   0  0  0  0  0  0  0  0  0  0  0  0
    5.7060   -4.4340   27.4975 C   0  0  0  0  0  0  0  0  0  0  0  0
    1.1818   -5.6612   28.8399 C   0  0  0  0  0  0  0  0  0  0  0  0
   -1.2067   -7.3287   17.7772 C   0  0  0  0  0  0  0  0  0  0  0  0
   -0.0206  -10.5585   16.6210 C   0  0  0  0  0  0  0  0  0  0  0  0
    0.3696  -12.7626   16.2169 O   0  0  0  0  0  0  0  0  0  0  0  0
   -0.6895   -9.5676   17.3297 C   0  0  0  0  0  0  0  0  0  0  0  0
    0.8388   -5.8417   27.5264 C   0  0  0  0  0  0  0  0  0  0  0  0
   -2.0709   -7.6637   18.7817 C   0  0  0  0  0  0  0  0  0  0  0  0
   -0.5279   -8.2168   17.0717 C   0  0  0  0  0  0  0  0  0  0  0  0
    6.9694   -4.0191   27.8190 C   0  0  0  0  0  0  0  0  0  0  0  0
    5.1733   -4.5469   29.8123 C   0  0  0  0  0  0  0  0  0  0  0  0
   -1.7508  -11.3016   18.6072 C   0  0  0  0  0  0  0  0  0  0  0  0
    1.7497   -5.6771   26.4971 C   0  0  0  0  0  0  0  0  0  0  0  0
   -1.5799   -9.9322   18.3468 C   0  0  0  0  0  0  0  0  0  0  0  0
   -1.0871  -12.2214   17.8851 C   0  0  0  0  0  0  0  0  0  0  0  0
   -2.2706   -8.9669   19.0691 C   0  0  0  0  0  0  0  0  0  0  0  0
    3.0279   -5.3073   26.8197 C   0  0  0  0  0  0  0  0  0  0  0  0
    7.3282   -3.8948   29.1186 C   0  0  0  0  0  0  0  0  0  0  0  0
  1  3  4  0
  1  7  4  0
  2  3  1  0
  2  6  4  0
  2 16  4  0
  3 22  4  0
  4  9  4  0
  4 10  1  0
  4 20  4  0
  5 16  4  0
  5 23  4  0
  6 15  4  0
  7 12  4  0
  8 13  4  0
  8 14  4  0
  9 11  4  0
 11 14  4  0
 11 19  4  0
 12 18  4  0
 13 21  4  0
 15 23  4  0
 17 19  4  0
 17 20  4  0
 18 22  4  0
 19 21  4  0
M  END
$$$$

 Created by Python create_sdf_string function

 23 25  0  0  0  0  0  0  0  0999 V2000
    2.4610   -5.3070   29.1240 C   0  0  0  0  0  0  0  0  0  0  0  0
    4.7710   -4.6952   28.4803 C   0  0  0  0  0  0  0  0  0  0  0  0
    3.4047   -5.1087   28.1314 C   0  0  0  0  0  0  0  0  0  0  0  0
   -0.2234  -11.8615   16.8874 C   0  0  0  0  0  0  0  0  0  0  0  0
    6.4491   -4.1532   30.1213 C   0  0  0  0  0  0  0  0  0  0  0  0
    5.7060   -4.4340   27.4975 C   0  0  0  0  0  0  0  0  0  0  0  0
    1.1818   -5.6612   28.8399 C   0  0  0  0  0  0  0  0  0  0  0  0
   -1.2067   -7.3287   17.7772 C   0  0  0  0  0  0  0  0  0  0  0  0
   -0.0206  -10.5585   16.6210 C   0  0  0  0  0  0  0  0  0  0  0  0
    0.3696  -12.7626   16.2169 O   0  0  0  0  0  0  0  0  0  0  0  0
   -0.6895   -9.5676   17.3297 C   0  0  0  0  0  0  0  0  0  0  0  0
    0.8388   -5.8417   27.5264 C   0  0  0  0  0  0  0  0  0  0  0  0
   -2.0709   -7.6637   18.7817 C   0  0  0  0  0  0  0  0  0  0  0  0
   -0.5279   -8.2168   17.0717 C   0  0  0  0  0  0  0  0  0  0  0  0
    6.9694   -4.0191   27.8190 C   0  0  0  0  0  0  0  0  0  0  0  0
    5.1733   -4.5469   29.8123 C   0  0  0  0  0  0  0  0  0  0  0  0
   -1.7508  -11.3016   18.6072 C   0  0  0  0  0  0  0  0  0  0  0  0
    1.7497   -5.6771   26.4971 C   0  0  0  0  0  0  0  0  0  0  0  0
   -1.5799   -9.9322   18.3468 C   0  0  0  0  0  0  0  0  0  0  0  0
   -1.0871  -12.2214   17.8851 C   0  0  0  0  0  0  0  0  0  0  0  0
   -2.2706   -8.9669   19.0691 C   0  0  0  0  0  0  0  0  0  0  0  0
    3.0279   -5.3073   26.8197 C   0  0  0  0  0  0  0  0  0  0  0  0
    7.3282   -3.8948   29.1186 C   0  0  0  0  0  0  0  0  0  0  0  0
  1  3  4  0
  1  7  4  0
  2  3  1  0
  2  6  4  0
  2 16  4  0
  3 22  4  0
  4  9  4  0
  4 10  1  0
  4 20  4  0
  5 16  4  0
  5 23  4  0
  6 15  4  0
  7 12  4  0
  8 13  4  0
  8 14  4  0
  9 11  4  0
 11 14  4  0
 11 19  4  0
 12 18  4  0
 13 21  4  0
 15 23  4  0
 17 19  4  0
 17 20  4  0
 18 22  4  0
 19 21  4  0
M  END
$$$$

 Created by Python create_sdf_string function

 23 25  0  0  0  0  0  0  0  0999 V2000
    2.4610   -5.3070   29.1240 C   0  0  0  0  0  0  0  0  0  0  0  0
    4.7710   -4.6952   28.4803 C   0  0  0  0  0  0  0  0  0  0  0  0
    3.4047   -5.1087   28.1314 C   0  0  0  0  0  0  0  0  0  0  0  0
   -0.2234  -11.8615   16.8874 C   0  0  0  0  0  0  0  0  0  0  0  0
    6.4491   -4.1532   30.1213 C   0  0  0  0  0  0  0  0  0  0  0  0
    5.7060   -4.4340   27.4975 C   0  0  0  0  0  0  0  0  0  0  0  0
    1.1818   -5.6612   28.8399 C   0  0  0  0  0  0  0  0  0  0  0  0
   -1.2067   -7.3287   17.7772 C   0  0  0  0  0  0  0  0  0  0  0  0
   -0.0206  -10.5585   16.6210 C   0  0  0  0  0  0  0  0  0  0  0  0
    0.3696  -12.7626   16.2169 O   0  0  0  0  0  0  0  0  0  0  0  0
   -0.6895   -9.5676   17.3297 C   0  0  0  0  0  0  0  0  0  0  0  0
    0.8388   -5.8417   27.5264 C   0  0  0  0  0  0  0  0  0  0  0  0
   -2.0709   -7.6637   18.7817 C   0  0  0  0  0  0  0  0  0  0  0  0
   -0.5279   -8.2168   17.0717 C   0  0  0  0  0  0  0  0  0  0  0  0
    6.9694   -4.0191   27.8190 C   0  0  0  0  0  0  0  0  0  0  0  0
    5.1733   -4.5469   29.8123 C   0  0  0  0  0  0  0  0  0  0  0  0
   -1.7508  -11.3016   18.6072 C   0  0  0  0  0  0  0  0  0  0  0  0
    1.7497   -5.6771   26.4971 C   0  0  0  0  0  0  0  0  0  0  0  0
   -1.5799   -9.9322   18.3468 C   0  0  0  0  0  0  0  0  0  0  0  0
   -1.0871  -12.2214   17.8851 C   0  0  0  0  0  0  0  0  0  0  0  0
   -2.2706   -8.9669   19.0691 C   0  0  0  0  0  0  0  0  0  0  0  0
    3.0279   -5.3073   26.8197 C   0  0  0  0  0  0  0  0  0  0  0  0
    7.3282   -3.8948   29.1186 C   0  0  0  0  0  0  0  0  0  0  0  0
  1  3  4  0
  1  7  4  0
  2  3  1  0
  2  6  4  0
  2 16  4  0
  3 22  4  0
  4  9  4  0
  4 10  1  0
  4 20  4  0
  5 16  4  0
  5 23  4  0
  6 15  4  0
  7 12  4  0
  8 13  4  0
  8 14  4  0
  9 11  4  0
 11 14  4  0
 11 19  4  0
 12 18  4  0
 13 21  4  0
 15 23  4  0
 17 19  4  0
 17 20  4  0
 18 22  4  0
 19 21  4  0
M  END
$$$$

 Created by Python create_sdf_string function

 23 25  0  0  0  0  0  0  0  0999 V2000
    2.4610   -5.3070   29.1240 C   0  0  0  0  0  0  0  0  0  0  0  0
    4.7710   -4.6952   28.4803 C   0  0  0  0  0  0  0  0  0  0  0  0
    3.4047   -5.1087   28.1314 C   0  0  0  0  0  0  0  0  0  0  0  0
   -0.2234  -11.8615   16.8874 C   0  0  0  0  0  0  0  0  0  0  0  0
    6.4491   -4.1532   30.1213 C   0  0  0  0  0  0  0  0  0  0  0  0
    5.7060   -4.4340   27.4975 C   0  0  0  0  0  0  0  0  0  0  0  0
    1.1818   -5.6612   28.8399 C   0  0  0  0  0  0  0  0  0  0  0  0
   -1.2067   -7.3287   17.7772 C   0  0  0  0  0  0  0  0  0  0  0  0
   -0.0206  -10.5585   16.6210 C   0  0  0  0  0  0  0  0  0  0  0  0
    0.3696  -12.7626   16.2169 O   0  0  0  0  0  0  0  0  0  0  0  0
   -0.6895   -9.5676   17.3297 C   0  0  0  0  0  0  0  0  0  0  0  0
    0.8388   -5.8417   27.5264 C   0  0  0  0  0  0  0  0  0  0  0  0
   -2.0709   -7.6637   18.7817 C   0  0  0  0  0  0  0  0  0  0  0  0
   -0.5279   -8.2168   17.0717 C   0  0  0  0  0  0  0  0  0  0  0  0
    6.9694   -4.0191   27.8190 C   0  0  0  0  0  0  0  0  0  0  0  0
    5.1733   -4.5469   29.8123 C   0  0  0  0  0  0  0  0  0  0  0  0
   -1.7508  -11.3016   18.6072 C   0  0  0  0  0  0  0  0  0  0  0  0
    1.7497   -5.6771   26.4971 C   0  0  0  0  0  0  0  0  0  0  0  0
   -1.5799   -9.9322   18.3468 C   0  0  0  0  0  0  0  0  0  0  0  0
   -1.0871  -12.2214   17.8851 C   0  0  0  0  0  0  0  0  0  0  0  0
   -2.2706   -8.9669   19.0691 C   0  0  0  0  0  0  0  0  0  0  0  0
    3.0279   -5.3073   26.8197 C   0  0  0  0  0  0  0  0  0  0  0  0
    7.3282   -3.8948   29.1186 C   0  0  0  0  0  0  0  0  0  0  0  0
  1  3  4  0
  1  7  4  0
  2  3  1  0
  2  6  4  0
  2 16  4  0
  3 22  4  0
  4  9  4  0
  4 10  1  0
  4 20  4  0
  5 16  4  0
  5 23  4  0
  6 15  4  0
  7 12  4  0
  8 13  4  0
  8 14  4  0
  9 11  4  0
 11 14  4  0
 11 19  4  0
 12 18  4  0
 13 21  4  0
 15 23  4  0
 17 19  4  0
 17 20  4  0
 18 22  4  0
 19 21  4  0
M  END
$$$$

 Created by Python create_sdf_string function

 23 25  0  0  0  0  0  0  0  0999 V2000
    2.4610   -5.3070   29.1240 C   0  0  0  0  0  0  0  0  0  0  0  0
    4.7710   -4.6952   28.4803 C   0  0  0  0  0  0  0  0  0  0  0  0
    3.4047   -5.1087   28.1314 C   0  0  0  0  0  0  0  0  0  0  0  0
   -0.2234  -11.8615   16.8874 C   0  0  0  0  0  0  0  0  0  0  0  0
    6.4491   -4.1532   30.1213 C   0  0  0  0  0  0  0  0  0  0  0  0
    5.7060   -4.4340   27.4975 C   0  0  0  0  0  0  0  0  0  0  0  0
    1.1818   -5.6612   28.8399 C   0  0  0  0  0  0  0  0  0  0  0  0
   -1.2067   -7.3287   17.7772 C   0  0  0  0  0  0  0  0  0  0  0  0
   -0.0206  -10.5585   16.6210 C   0  0  0  0  0  0  0  0  0  0  0  0
    0.3696  -12.7626   16.2169 O   0  0  0  0  0  0  0  0  0  0  0  0
   -0.6895   -9.5676   17.3297 C   0  0  0  0  0  0  0  0  0  0  0  0
    0.8388   -5.8417   27.5264 C   0  0  0  0  0  0  0  0  0  0  0  0
   -2.0709   -7.6637   18.7817 C   0  0  0  0  0  0  0  0  0  0  0  0
   -0.5279   -8.2168   17.0717 C   0  0  0  0  0  0  0  0  0  0  0  0
    6.9694   -4.0191   27.8190 C   0  0  0  0  0  0  0  0  0  0  0  0
    5.1733   -4.5469   29.8123 C   0  0  0  0  0  0  0  0  0  0  0  0
   -1.7508  -11.3016   18.6072 C   0  0  0  0  0  0  0  0  0  0  0  0
    1.7497   -5.6771   26.4971 C   0  0  0  0  0  0  0  0  0  0  0  0
   -1.5799   -9.9322   18.3468 C   0  0  0  0  0  0  0  0  0  0  0  0
   -1.0871  -12.2214   17.8851 C   0  0  0  0  0  0  0  0  0  0  0  0
   -2.2706   -8.9669   19.0691 C   0  0  0  0  0  0  0  0  0  0  0  0
    3.0279   -5.3073   26.8197 C   0  0  0  0  0  0  0  0  0  0  0  0
    7.3282   -3.8948   29.1186 C   0  0  0  0  0  0  0  0  0  0  0  0
  1  3  4  0
  1  7  4  0
  2  3  1  0
  2  6  4  0
  2 16  4  0
  3 22  4  0
  4  9  4  0
  4 10  1  0
  4 20  4  0
  5 16  4  0
  5 23  4  0
  6 15  4  0
  7 12  4  0
  8 13  4  0
  8 14  4  0
  9 11  4  0
 11 14  4  0
 11 19  4  0
 12 18  4  0
 13 21  4  0
 15 23  4  0
 17 19  4  0
 17 20  4  0
 18 22  4  0
 19 21  4  0
M  END
$$$$

 Created by Python create_sdf_string function

 23 25  0  0  0  0  0  0  0  0999 V2000
    2.4610   -5.3070   29.1240 C   0  0  0  0  0  0  0  0  0  0  0  0
    4.7710   -4.6952   28.4803 C   0  0  0  0  0  0  0  0  0  0  0  0
    3.4047   -5.1087   28.1314 C   0  0  0  0  0  0  0  0  0  0  0  0
   -0.2234  -11.8615   16.8874 C   0  0  0  0  0  0  0  0  0  0  0  0
    6.4491   -4.1532   30.1213 C   0  0  0  0  0  0  0  0  0  0  0  0
    5.7060   -4.4340   27.4975 C   0  0  0  0  0  0  0  0  0  0  0  0
    1.1818   -5.6612   28.8399 C   0  0  0  0  0  0  0  0  0  0  0  0
   -1.2067   -7.3287   17.7772 C   0  0  0  0  0  0  0  0  0  0  0  0
   -0.0206  -10.5585   16.6210 C   0  0  0  0  0  0  0  0  0  0  0  0
    0.3696  -12.7626   16.2169 O   0  0  0  0  0  0  0  0  0  0  0  0
   -0.6895   -9.5676   17.3297 C   0  0  0  0  0  0  0  0  0  0  0  0
    0.8388   -5.8417   27.5264 C   0  0  0  0  0  0  0  0  0  0  0  0
   -2.0709   -7.6637   18.7817 C   0  0  0  0  0  0  0  0  0  0  0  0
   -0.5279   -8.2168   17.0717 C   0  0  0  0  0  0  0  0  0  0  0  0
    6.9694   -4.0191   27.8190 C   0  0  0  0  0  0  0  0  0  0  0  0
    5.1733   -4.5469   29.8123 C   0  0  0  0  0  0  0  0  0  0  0  0
   -1.7508  -11.3016   18.6072 C   0  0  0  0  0  0  0  0  0  0  0  0
    1.7497   -5.6771   26.4971 C   0  0  0  0  0  0  0  0  0  0  0  0
   -1.5799   -9.9322   18.3468 C   0  0  0  0  0  0  0  0  0  0  0  0
   -1.0871  -12.2214   17.8851 C   0  0  0  0  0  0  0  0  0  0  0  0
   -2.2706   -8.9669   19.0691 C   0  0  0  0  0  0  0  0  0  0  0  0
    3.0279   -5.3073   26.8197 C   0  0  0  0  0  0  0  0  0  0  0  0
    7.3282   -3.8948   29.1186 C   0  0  0  0  0  0  0  0  0  0  0  0
  1  3  4  0
  1  7  4  0
  2  3  1  0
  2  6  4  0
  2 16  4  0
  3 22  4  0
  4  9  4  0
  4 10  1  0
  4 20  4  0
  5 16  4  0
  5 23  4  0
  6 15  4  0
  7 12  4  0
  8 13  4  0
  8 14  4  0
  9 11  4  0
 11 14  4  0
 11 19  4  0
 12 18  4  0
 13 21  4  0
 15 23  4  0
 17 19  4  0
 17 20  4  0
 18 22  4  0
 19 21  4  0
M  END
$$$$

 Created by Python create_sdf_string function

 23 25  0  0  0  0  0  0  0  0999 V2000
    2.4610   -5.3070   29.1240 C   0  0  0  0  0  0  0  0  0  0  0  0
    4.7710   -4.6952   28.4803 C   0  0  0  0  0  0  0  0  0  0  0  0
    3.4047   -5.1087   28.1314 C   0  0  0  0  0  0  0  0  0  0  0  0
   -0.2234  -11.8615   16.8874 C   0  0  0  0  0  0  0  0  0  0  0  0
    6.4491   -4.1532   30.1213 C   0  0  0  0  0  0  0  0  0  0  0  0
    5.7060   -4.4340   27.4975 C   0  0  0  0  0  0  0  0  0  0  0  0
    1.1818   -5.6612   28.8399 C   0  0  0  0  0  0  0  0  0  0  0  0
   -1.2067   -7.3287   17.7772 C   0  0  0  0  0  0  0  0  0  0  0  0
   -0.0206  -10.5585   16.6210 C   0  0  0  0  0  0  0  0  0  0  0  0
    0.3696  -12.7626   16.2169 O   0  0  0  0  0  0  0  0  0  0  0  0
   -0.6895   -9.5676   17.3297 C   0  0  0  0  0  0  0  0  0  0  0  0
    0.8388   -5.8417   27.5264 C   0  0  0  0  0  0  0  0  0  0  0  0
   -2.0709   -7.6637   18.7817 C   0  0  0  0  0  0  0  0  0  0  0  0
   -0.5279   -8.2168   17.0717 C   0  0  0  0  0  0  0  0  0  0  0  0
    6.9694   -4.0191   27.8190 C   0  0  0  0  0  0  0  0  0  0  0  0
    5.1733   -4.5469   29.8123 C   0  0  0  0  0  0  0  0  0  0  0  0
   -1.7508  -11.3016   18.6072 C   0  0  0  0  0  0  0  0  0  0  0  0
    1.7497   -5.6771   26.4971 C   0  0  0  0  0  0  0  0  0  0  0  0
   -1.5799   -9.9322   18.3468 C   0  0  0  0  0  0  0  0  0  0  0  0
   -1.0871  -12.2214   17.8851 C   0  0  0  0  0  0  0  0  0  0  0  0
   -2.2706   -8.9669   19.0691 C   0  0  0  0  0  0  0  0  0  0  0  0
    3.0279   -5.3073   26.8197 C   0  0  0  0  0  0  0  0  0  0  0  0
    7.3282   -3.8948   29.1186 C   0  0  0  0  0  0  0  0  0  0  0  0
  1  3  4  0
  1  7  4  0
  2  3  1  0
  2  6  4  0
  2 16  4  0
  3 22  4  0
  4  9  4  0
  4 10  1  0
  4 20  4  0
  5 16  4  0
  5 23  4  0
  6 15  4  0
  7 12  4  0
  8 13  4  0
  8 14  4  0
  9 11  4  0
 11 14  4  0
 11 19  4  0
 12 18  4  0
 13 21  4  0
 15 23  4  0
 17 19  4  0
 17 20  4  0
 18 22  4  0
 19 21  4  0
M  END
$$$$

 Created by Python create_sdf_string function

 23 25  0  0  0  0  0  0  0  0999 V2000
    2.4610   -5.3070   29.1240 C   0  0  0  0  0  0  0  0  0  0  0  0
    4.7710   -4.6952   28.4803 C   0  0  0  0  0  0  0  0  0  0  0  0
    3.4047   -5.1087   28.1314 C   0  0  0  0  0  0  0  0  0  0  0  0
   -0.2234  -11.8615   16.8874 C   0  0  0  0  0  0  0  0  0  0  0  0
    6.4491   -4.1532   30.1213 C   0  0  0  0  0  0  0  0  0  0  0  0
    5.7060   -4.4340   27.4975 C   0  0  0  0  0  0  0  0  0  0  0  0
    1.1818   -5.6612   28.8399 C   0  0  0  0  0  0  0  0  0  0  0  0
   -1.2067   -7.3287   17.7772 C   0  0  0  0  0  0  0  0  0  0  0  0
   -0.0206  -10.5585   16.6210 C   0  0  0  0  0  0  0  0  0  0  0  0
    0.3696  -12.7626   16.2169 O   0  0  0  0  0  0  0  0  0  0  0  0
   -0.6895   -9.5676   17.3297 C   0  0  0  0  0  0  0  0  0  0  0  0
    0.8388   -5.8417   27.5264 C   0  0  0  0  0  0  0  0  0  0  0  0
   -2.0709   -7.6637   18.7817 C   0  0  0  0  0  0  0  0  0  0  0  0
   -0.5279   -8.2168   17.0717 C   0  0  0  0  0  0  0  0  0  0  0  0
    6.9694   -4.0191   27.8190 C   0  0  0  0  0  0  0  0  0  0  0  0
    5.1733   -4.5469   29.8123 C   0  0  0  0  0  0  0  0  0  0  0  0
   -1.7508  -11.3016   18.6072 C   0  0  0  0  0  0  0  0  0  0  0  0
    1.7497   -5.6771   26.4971 C   0  0  0  0  0  0  0  0  0  0  0  0
   -1.5799   -9.9322   18.3468 C   0  0  0  0  0  0  0  0  0  0  0  0
   -1.0871  -12.2214   17.8851 C   0  0  0  0  0  0  0  0  0  0  0  0
   -2.2706   -8.9669   19.0691 C   0  0  0  0  0  0  0  0  0  0  0  0
    3.0279   -5.3073   26.8197 C   0  0  0  0  0  0  0  0  0  0  0  0
    7.3282   -3.8948   29.1186 C   0  0  0  0  0  0  0  0  0  0  0  0
  1  3  4  0
  1  7  4  0
  2  3  1  0
  2  6  4  0
  2 16  4  0
  3 22  4  0
  4  9  4  0
  4 10  1  0
  4 20  4  0
  5 16  4  0
  5 23  4  0
  6 15  4  0
  7 12  4  0
  8 13  4  0
  8 14  4  0
  9 11  4  0
 11 14  4  0
 11 19  4  0
 12 18  4  0
 13 21  4  0
 15 23  4  0
 17 19  4  0
 17 20  4  0
 18 22  4  0
 19 21  4  0
M  END
$$$$

 Created by Python create_sdf_string function

 23 25  0  0  0  0  0  0  0  0999 V2000
    2.4610   -5.3070   29.1240 C   0  0  0  0  0  0  0  0  0  0  0  0
    4.7710   -4.6952   28.4803 C   0  0  0  0  0  0  0  0  0  0  0  0
    3.4047   -5.1087   28.1314 C   0  0  0  0  0  0  0  0  0  0  0  0
   -0.2234  -11.8615   16.8874 C   0  0  0  0  0  0  0  0  0  0  0  0
    6.4491   -4.1532   30.1213 C   0  0  0  0  0  0  0  0  0  0  0  0
    5.7060   -4.4340   27.4975 C   0  0  0  0  0  0  0  0  0  0  0  0
    1.1818   -5.6612   28.8399 C   0  0  0  0  0  0  0  0  0  0  0  0
   -1.2067   -7.3287   17.7772 C   0  0  0  0  0  0  0  0  0  0  0  0
   -0.0206  -10.5585   16.6210 C   0  0  0  0  0  0  0  0  0  0  0  0
    0.3696  -12.7626   16.2169 O   0  0  0  0  0  0  0  0  0  0  0  0
   -0.6895   -9.5676   17.3297 C   0  0  0  0  0  0  0  0  0  0  0  0
    0.8388   -5.8417   27.5264 C   0  0  0  0  0  0  0  0  0  0  0  0
   -2.0709   -7.6637   18.7817 C   0  0  0  0  0  0  0  0  0  0  0  0
   -0.5279   -8.2168   17.0717 C   0  0  0  0  0  0  0  0  0  0  0  0
    6.9694   -4.0191   27.8190 C   0  0  0  0  0  0  0  0  0  0  0  0
    5.1733   -4.5469   29.8123 C   0  0  0  0  0  0  0  0  0  0  0  0
   -1.7508  -11.3016   18.6072 C   0  0  0  0  0  0  0  0  0  0  0  0
    1.7497   -5.6771   26.4971 C   0  0  0  0  0  0  0  0  0  0  0  0
   -1.5799   -9.9322   18.3468 C   0  0  0  0  0  0  0  0  0  0  0  0
   -1.0871  -12.2214   17.8851 C   0  0  0  0  0  0  0  0  0  0  0  0
   -2.2706   -8.9669   19.0691 C   0  0  0  0  0  0  0  0  0  0  0  0
    3.0279   -5.3073   26.8197 C   0  0  0  0  0  0  0  0  0  0  0  0
    7.3282   -3.8948   29.1186 C   0  0  0  0  0  0  0  0  0  0  0  0
  1  3  4  0
  1  7  4  0
  2  3  1  0
  2  6  4  0
  2 16  4  0
  3 22  4  0
  4  9  4  0
  4 10  1  0
  4 20  4  0
  5 16  4  0
  5 23  4  0
  6 15  4  0
  7 12  4  0
  8 13  4  0
  8 14  4  0
  9 11  4  0
 11 14  4  0
 11 19  4  0
 12 18  4  0
 13 21  4  0
 15 23  4  0
 17 19  4  0
 17 20  4  0
 18 22  4  0
 19 21  4  0
M  END
$$$$

 Created by Python create_sdf_string function

 23 25  0  0  0  0  0  0  0  0999 V2000
    2.4610   -5.3070   29.1240 C   0  0  0  0  0  0  0  0  0  0  0  0
    4.7710   -4.6952   28.4803 C   0  0  0  0  0  0  0  0  0  0  0  0
    3.4047   -5.1087   28.1314 C   0  0  0  0  0  0  0  0  0  0  0  0
   -0.2234  -11.8615   16.8874 C   0  0  0  0  0  0  0  0  0  0  0  0
    6.4491   -4.1532   30.1213 C   0  0  0  0  0  0  0  0  0  0  0  0
    5.7060   -4.4340   27.4975 C   0  0  0  0  0  0  0  0  0  0  0  0
    1.1818   -5.6612   28.8399 C   0  0  0  0  0  0  0  0  0  0  0  0
   -1.2067   -7.3287   17.7772 C   0  0  0  0  0  0  0  0  0  0  0  0
   -0.0206  -10.5585   16.6210 C   0  0  0  0  0  0  0  0  0  0  0  0
    0.3696  -12.7626   16.2169 O   0  0  0  0  0  0  0  0  0  0  0  0
   -0.6895   -9.5676   17.3297 C   0  0  0  0  0  0  0  0  0  0  0  0
    0.8388   -5.8417   27.5264 C   0  0  0  0  0  0  0  0  0  0  0  0
   -2.0709   -7.6637   18.7817 C   0  0  0  0  0  0  0  0  0  0  0  0
   -0.5279   -8.2168   17.0717 C   0  0  0  0  0  0  0  0  0  0  0  0
    6.9694   -4.0191   27.8190 C   0  0  0  0  0  0  0  0  0  0  0  0
    5.1733   -4.5469   29.8123 C   0  0  0  0  0  0  0  0  0  0  0  0
   -1.7508  -11.3016   18.6072 C   0  0  0  0  0  0  0  0  0  0  0  0
    1.7497   -5.6771   26.4971 C   0  0  0  0  0  0  0  0  0  0  0  0
   -1.5799   -9.9322   18.3468 C   0  0  0  0  0  0  0  0  0  0  0  0
   -1.0871  -12.2214   17.8851 C   0  0  0  0  0  0  0  0  0  0  0  0
   -2.2706   -8.9669   19.0691 C   0  0  0  0  0  0  0  0  0  0  0  0
    3.0279   -5.3073   26.8197 C   0  0  0  0  0  0  0  0  0  0  0  0
    7.3282   -3.8948   29.1186 C   0  0  0  0  0  0  0  0  0  0  0  0
  1  3  4  0
  1  7  4  0
  2  3  1  0
  2  6  4  0
  2 16  4  0
  3 22  4  0
  4  9  4  0
  4 10  1  0
  4 20  4  0
  5 16  4  0
  5 23  4  0
  6 15  4  0
  7 12  4  0
  8 13  4  0
  8 14  4  0
  9 11  4  0
 11 14  4  0
 11 19  4  0
 12 18  4  0
 13 21  4  0
 15 23  4  0
 17 19  4  0
 17 20  4  0
 18 22  4  0
 19 21  4  0
M  END
$$$$

 Created by Python create_sdf_string function

 23 25  0  0  0  0  0  0  0  0999 V2000
    2.4610   -5.3070   29.1240 C   0  0  0  0  0  0  0  0  0  0  0  0
    4.7710   -4.6952   28.4803 C   0  0  0  0  0  0  0  0  0  0  0  0
    3.4047   -5.1087   28.1314 C   0  0  0  0  0  0  0  0  0  0  0  0
   -0.2234  -11.8615   16.8874 C   0  0  0  0  0  0  0  0  0  0  0  0
    6.4491   -4.1532   30.1213 C   0  0  0  0  0  0  0  0  0  0  0  0
    5.7060   -4.4340   27.4975 C   0  0  0  0  0  0  0  0  0  0  0  0
    1.1818   -5.6612   28.8399 C   0  0  0  0  0  0  0  0  0  0  0  0
   -1.2067   -7.3287   17.7772 C   0  0  0  0  0  0  0  0  0  0  0  0
   -0.0206  -10.5585   16.6210 C   0  0  0  0  0  0  0  0  0  0  0  0
    0.3696  -12.7626   16.2169 O   0  0  0  0  0  0  0  0  0  0  0  0
   -0.6895   -9.5676   17.3297 C   0  0  0  0  0  0  0  0  0  0  0  0
    0.8388   -5.8417   27.5264 C   0  0  0  0  0  0  0  0  0  0  0  0
   -2.0709   -7.6637   18.7817 C   0  0  0  0  0  0  0  0  0  0  0  0
   -0.5279   -8.2168   17.0717 C   0  0  0  0  0  0  0  0  0  0  0  0
    6.9694   -4.0191   27.8190 C   0  0  0  0  0  0  0  0  0  0  0  0
    5.1733   -4.5469   29.8123 C   0  0  0  0  0  0  0  0  0  0  0  0
   -1.7508  -11.3016   18.6072 C   0  0  0  0  0  0  0  0  0  0  0  0
    1.7497   -5.6771   26.4971 C   0  0  0  0  0  0  0  0  0  0  0  0
   -1.5799   -9.9322   18.3468 C   0  0  0  0  0  0  0  0  0  0  0  0
   -1.0871  -12.2214   17.8851 C   0  0  0  0  0  0  0  0  0  0  0  0
   -2.2706   -8.9669   19.0691 C   0  0  0  0  0  0  0  0  0  0  0  0
    3.0279   -5.3073   26.8197 C   0  0  0  0  0  0  0  0  0  0  0  0
    7.3282   -3.8948   29.1186 C   0  0  0  0  0  0  0  0  0  0  0  0
  1  3  4  0
  1  7  4  0
  2  3  1  0
  2  6  4  0
  2 16  4  0
  3 22  4  0
  4  9  4  0
  4 10  1  0
  4 20  4  0
  5 16  4  0
  5 23  4  0
  6 15  4  0
  7 12  4  0
  8 13  4  0
  8 14  4  0
  9 11  4  0
 11 14  4  0
 11 19  4  0
 12 18  4  0
 13 21  4  0
 15 23  4  0
 17 19  4  0
 17 20  4  0
 18 22  4  0
 19 21  4  0
M  END
$$$$

 Created by Python create_sdf_string function

 23 25  0  0  0  0  0  0  0  0999 V2000
    2.4610   -5.3070   29.1240 C   0  0  0  0  0  0  0  0  0  0  0  0
    4.7710   -4.6952   28.4803 C   0  0  0  0  0  0  0  0  0  0  0  0
    3.4047   -5.1087   28.1314 C   0  0  0  0  0  0  0  0  0  0  0  0
   -0.2234  -11.8615   16.8874 C   0  0  0  0  0  0  0  0  0  0  0  0
    6.4491   -4.1532   30.1213 C   0  0  0  0  0  0  0  0  0  0  0  0
    5.7060   -4.4340   27.4975 C   0  0  0  0  0  0  0  0  0  0  0  0
    1.1818   -5.6612   28.8399 C   0  0  0  0  0  0  0  0  0  0  0  0
   -1.2067   -7.3287   17.7772 C   0  0  0  0  0  0  0  0  0  0  0  0
   -0.0206  -10.5585   16.6210 C   0  0  0  0  0  0  0  0  0  0  0  0
    0.3696  -12.7626   16.2169 O   0  0  0  0  0  0  0  0  0  0  0  0
   -0.6895   -9.5676   17.3297 C   0  0  0  0  0  0  0  0  0  0  0  0
    0.8388   -5.8417   27.5264 C   0  0  0  0  0  0  0  0  0  0  0  0
   -2.0709   -7.6637   18.7817 C   0  0  0  0  0  0  0  0  0  0  0  0
   -0.5279   -8.2168   17.0717 C   0  0  0  0  0  0  0  0  0  0  0  0
    6.9694   -4.0191   27.8190 C   0  0  0  0  0  0  0  0  0  0  0  0
    5.1733   -4.5469   29.8123 C   0  0  0  0  0  0  0  0  0  0  0  0
   -1.7508  -11.3016   18.6072 C   0  0  0  0  0  0  0  0  0  0  0  0
    1.7497   -5.6771   26.4971 C   0  0  0  0  0  0  0  0  0  0  0  0
   -1.5799   -9.9322   18.3468 C   0  0  0  0  0  0  0  0  0  0  0  0
   -1.0871  -12.2214   17.8851 C   0  0  0  0  0  0  0  0  0  0  0  0
   -2.2706   -8.9669   19.0691 C   0  0  0  0  0  0  0  0  0  0  0  0
    3.0279   -5.3073   26.8197 C   0  0  0  0  0  0  0  0  0  0  0  0
    7.3282   -3.8948   29.1186 C   0  0  0  0  0  0  0  0  0  0  0  0
  1  3  4  0
  1  7  4  0
  2  3  1  0
  2  6  4  0
  2 16  4  0
  3 22  4  0
  4  9  4  0
  4 10  1  0
  4 20  4  0
  5 16  4  0
  5 23  4  0
  6 15  4  0
  7 12  4  0
  8 13  4  0
  8 14  4  0
  9 11  4  0
 11 14  4  0
 11 19  4  0
 12 18  4  0
 13 21  4  0
 15 23  4  0
 17 19  4  0
 17 20  4  0
 18 22  4  0
 19 21  4  0
M  END
$$$$

 Created by Python create_sdf_string function

 23 25  0  0  0  0  0  0  0  0999 V2000
    2.4610   -5.3070   29.1240 C   0  0  0  0  0  0  0  0  0  0  0  0
    4.7710   -4.6952   28.4803 C   0  0  0  0  0  0  0  0  0  0  0  0
    3.4047   -5.1087   28.1314 C   0  0  0  0  0  0  0  0  0  0  0  0
   -0.2234  -11.8615   16.8874 C   0  0  0  0  0  0  0  0  0  0  0  0
    6.4491   -4.1532   30.1213 C   0  0  0  0  0  0  0  0  0  0  0  0
    5.7060   -4.4340   27.4975 C   0  0  0  0  0  0  0  0  0  0  0  0
    1.1818   -5.6612   28.8399 C   0  0  0  0  0  0  0  0  0  0  0  0
   -1.2067   -7.3287   17.7772 C   0  0  0  0  0  0  0  0  0  0  0  0
   -0.0206  -10.5585   16.6210 C   0  0  0  0  0  0  0  0  0  0  0  0
    0.3696  -12.7626   16.2169 O   0  0  0  0  0  0  0  0  0  0  0  0
   -0.6895   -9.5676   17.3297 C   0  0  0  0  0  0  0  0  0  0  0  0
    0.8388   -5.8417   27.5264 C   0  0  0  0  0  0  0  0  0  0  0  0
   -2.0709   -7.6637   18.7817 C   0  0  0  0  0  0  0  0  0  0  0  0
   -0.5279   -8.2168   17.0717 C   0  0  0  0  0  0  0  0  0  0  0  0
    6.9694   -4.0191   27.8190 C   0  0  0  0  0  0  0  0  0  0  0  0
    5.1733   -4.5469   29.8123 C   0  0  0  0  0  0  0  0  0  0  0  0
   -1.7508  -11.3016   18.6072 C   0  0  0  0  0  0  0  0  0  0  0  0
    1.7497   -5.6771   26.4971 C   0  0  0  0  0  0  0  0  0  0  0  0
   -1.5799   -9.9322   18.3468 C   0  0  0  0  0  0  0  0  0  0  0  0
   -1.0871  -12.2214   17.8851 C   0  0  0  0  0  0  0  0  0  0  0  0
   -2.2706   -8.9669   19.0691 C   0  0  0  0  0  0  0  0  0  0  0  0
    3.0279   -5.3073   26.8197 C   0  0  0  0  0  0  0  0  0  0  0  0
    7.3282   -3.8948   29.1186 C   0  0  0  0  0  0  0  0  0  0  0  0
  1  3  4  0
  1  7  4  0
  2  3  1  0
  2  6  4  0
  2 16  4  0
  3 22  4  0
  4  9  4  0
  4 10  1  0
  4 20  4  0
  5 16  4  0
  5 23  4  0
  6 15  4  0
  7 12  4  0
  8 13  4  0
  8 14  4  0
  9 11  4  0
 11 14  4  0
 11 19  4  0
 12 18  4  0
 13 21  4  0
 15 23  4  0
 17 19  4  0
 17 20  4  0
 18 22  4  0
 19 21  4  0
M  END
$$$$

 Created by Python create_sdf_string function

 23 25  0  0  0  0  0  0  0  0999 V2000
    2.4610   -5.3070   29.1240 C   0  0  0  0  0  0  0  0  0  0  0  0
    4.7710   -4.6952   28.4803 C   0  0  0  0  0  0  0  0  0  0  0  0
    3.4047   -5.1087   28.1314 C   0  0  0  0  0  0  0  0  0  0  0  0
   -0.2234  -11.8615   16.8874 C   0  0  0  0  0  0  0  0  0  0  0  0
    6.4491   -4.1532   30.1213 C   0  0  0  0  0  0  0  0  0  0  0  0
    5.7060   -4.4340   27.4975 C   0  0  0  0  0  0  0  0  0  0  0  0
    1.1818   -5.6612   28.8399 C   0  0  0  0  0  0  0  0  0  0  0  0
   -1.2067   -7.3287   17.7772 C   0  0  0  0  0  0  0  0  0  0  0  0
   -0.0206  -10.5585   16.6210 C   0  0  0  0  0  0  0  0  0  0  0  0
    0.3696  -12.7626   16.2169 O   0  0  0  0  0  0  0  0  0  0  0  0
   -0.6895   -9.5676   17.3297 C   0  0  0  0  0  0  0  0  0  0  0  0
    0.8388   -5.8417   27.5264 C   0  0  0  0  0  0  0  0  0  0  0  0
   -2.0709   -7.6637   18.7817 C   0  0  0  0  0  0  0  0  0  0  0  0
   -0.5279   -8.2168   17.0717 C   0  0  0  0  0  0  0  0  0  0  0  0
    6.9694   -4.0191   27.8190 C   0  0  0  0  0  0  0  0  0  0  0  0
    5.1733   -4.5469   29.8123 C   0  0  0  0  0  0  0  0  0  0  0  0
   -1.7508  -11.3016   18.6072 C   0  0  0  0  0  0  0  0  0  0  0  0
    1.7497   -5.6771   26.4971 C   0  0  0  0  0  0  0  0  0  0  0  0
   -1.5799   -9.9322   18.3468 C   0  0  0  0  0  0  0  0  0  0  0  0
   -1.0871  -12.2214   17.8851 C   0  0  0  0  0  0  0  0  0  0  0  0
   -2.2706   -8.9669   19.0691 C   0  0  0  0  0  0  0  0  0  0  0  0
    3.0279   -5.3073   26.8197 C   0  0  0  0  0  0  0  0  0  0  0  0
    7.3282   -3.8948   29.1186 C   0  0  0  0  0  0  0  0  0  0  0  0
  1  3  4  0
  1  7  4  0
  2  3  1  0
  2  6  4  0
  2 16  4  0
  3 22  4  0
  4  9  4  0
  4 10  1  0
  4 20  4  0
  5 16  4  0
  5 23  4  0
  6 15  4  0
  7 12  4  0
  8 13  4  0
  8 14  4  0
  9 11  4  0
 11 14  4  0
 11 19  4  0
 12 18  4  0
 13 21  4  0
 15 23  4  0
 17 19  4  0
 17 20  4  0
 18 22  4  0
 19 21  4  0
M  END
$$$$

 Created by Python create_sdf_string function

 23 25  0  0  0  0  0  0  0  0999 V2000
    2.4610   -5.3070   29.1240 C   0  0  0  0  0  0  0  0  0  0  0  0
    4.7710   -4.6952   28.4803 C   0  0  0  0  0  0  0  0  0  0  0  0
    3.4047   -5.1087   28.1314 C   0  0  0  0  0  0  0  0  0  0  0  0
   -0.2234  -11.8615   16.8874 C   0  0  0  0  0  0  0  0  0  0  0  0
    6.4491   -4.1532   30.1213 C   0  0  0  0  0  0  0  0  0  0  0  0
    5.7060   -4.4340   27.4975 C   0  0  0  0  0  0  0  0  0  0  0  0
    1.1818   -5.6612   28.8399 C   0  0  0  0  0  0  0  0  0  0  0  0
   -1.2067   -7.3287   17.7772 C   0  0  0  0  0  0  0  0  0  0  0  0
   -0.0206  -10.5585   16.6210 C   0  0  0  0  0  0  0  0  0  0  0  0
    0.3696  -12.7626   16.2169 O   0  0  0  0  0  0  0  0  0  0  0  0
   -0.6895   -9.5676   17.3297 C   0  0  0  0  0  0  0  0  0  0  0  0
    0.8388   -5.8417   27.5264 C   0  0  0  0  0  0  0  0  0  0  0  0
   -2.0709   -7.6637   18.7817 C   0  0  0  0  0  0  0  0  0  0  0  0
   -0.5279   -8.2168   17.0717 C   0  0  0  0  0  0  0  0  0  0  0  0
    6.9694   -4.0191   27.8190 C   0  0  0  0  0  0  0  0  0  0  0  0
    5.1733   -4.5469   29.8123 C   0  0  0  0  0  0  0  0  0  0  0  0
   -1.7508  -11.3016   18.6072 C   0  0  0  0  0  0  0  0  0  0  0  0
    1.7497   -5.6771   26.4971 C   0  0  0  0  0  0  0  0  0  0  0  0
   -1.5799   -9.9322   18.3468 C   0  0  0  0  0  0  0  0  0  0  0  0
   -1.0871  -12.2214   17.8851 C   0  0  0  0  0  0  0  0  0  0  0  0
   -2.2706   -8.9669   19.0691 C   0  0  0  0  0  0  0  0  0  0  0  0
    3.0279   -5.3073   26.8197 C   0  0  0  0  0  0  0  0  0  0  0  0
    7.3282   -3.8948   29.1186 C   0  0  0  0  0  0  0  0  0  0  0  0
  1  3  4  0
  1  7  4  0
  2  3  1  0
  2  6  4  0
  2 16  4  0
  3 22  4  0
  4  9  4  0
  4 10  1  0
  4 20  4  0
  5 16  4  0
  5 23  4  0
  6 15  4  0
  7 12  4  0
  8 13  4  0
  8 14  4  0
  9 11  4  0
 11 14  4  0
 11 19  4  0
 12 18  4  0
 13 21  4  0
 15 23  4  0
 17 19  4  0
 17 20  4  0
 18 22  4  0
 19 21  4  0
M  END
$$$$

 Created by Python create_sdf_string function

 23 25  0  0  0  0  0  0  0  0999 V2000
    2.4610   -5.3070   29.1240 C   0  0  0  0  0  0  0  0  0  0  0  0
    4.7710   -4.6952   28.4803 C   0  0  0  0  0  0  0  0  0  0  0  0
    3.4047   -5.1087   28.1314 C   0  0  0  0  0  0  0  0  0  0  0  0
   -0.2234  -11.8615   16.8874 C   0  0  0  0  0  0  0  0  0  0  0  0
    6.4491   -4.1532   30.1213 C   0  0  0  0  0  0  0  0  0  0  0  0
    5.7060   -4.4340   27.4975 C   0  0  0  0  0  0  0  0  0  0  0  0
    1.1818   -5.6612   28.8399 C   0  0  0  0  0  0  0  0  0  0  0  0
   -1.2067   -7.3287   17.7772 C   0  0  0  0  0  0  0  0  0  0  0  0
   -0.0206  -10.5585   16.6210 C   0  0  0  0  0  0  0  0  0  0  0  0
    0.3696  -12.7626   16.2169 O   0  0  0  0  0  0  0  0  0  0  0  0
   -0.6895   -9.5676   17.3297 C   0  0  0  0  0  0  0  0  0  0  0  0
    0.8388   -5.8417   27.5264 C   0  0  0  0  0  0  0  0  0  0  0  0
   -2.0709   -7.6637   18.7817 C   0  0  0  0  0  0  0  0  0  0  0  0
   -0.5279   -8.2168   17.0717 C   0  0  0  0  0  0  0  0  0  0  0  0
    6.9694   -4.0191   27.8190 C   0  0  0  0  0  0  0  0  0  0  0  0
    5.1733   -4.5469   29.8123 C   0  0  0  0  0  0  0  0  0  0  0  0
   -1.7508  -11.3016   18.6072 C   0  0  0  0  0  0  0  0  0  0  0  0
    1.7497   -5.6771   26.4971 C   0  0  0  0  0  0  0  0  0  0  0  0
   -1.5799   -9.9322   18.3468 C   0  0  0  0  0  0  0  0  0  0  0  0
   -1.0871  -12.2214   17.8851 C   0  0  0  0  0  0  0  0  0  0  0  0
   -2.2706   -8.9669   19.0691 C   0  0  0  0  0  0  0  0  0  0  0  0
    3.0279   -5.3073   26.8197 C   0  0  0  0  0  0  0  0  0  0  0  0
    7.3282   -3.8948   29.1186 C   0  0  0  0  0  0  0  0  0  0  0  0
  1  3  4  0
  1  7  4  0
  2  3  1  0
  2  6  4  0
  2 16  4  0
  3 22  4  0
  4  9  4  0
  4 10  1  0
  4 20  4  0
  5 16  4  0
  5 23  4  0
  6 15  4  0
  7 12  4  0
  8 13  4  0
  8 14  4  0
  9 11  4  0
 11 14  4  0
 11 19  4  0
 12 18  4  0
 13 21  4  0
 15 23  4  0
 17 19  4  0
 17 20  4  0
 18 22  4  0
 19 21  4  0
M  END
$$$$

 Created by Python create_sdf_string function

 23 25  0  0  0  0  0  0  0  0999 V2000
    2.4610   -5.3070   29.1240 C   0  0  0  0  0  0  0  0  0  0  0  0
    4.7710   -4.6952   28.4803 C   0  0  0  0  0  0  0  0  0  0  0  0
    3.4047   -5.1087   28.1314 C   0  0  0  0  0  0  0  0  0  0  0  0
   -0.2234  -11.8615   16.8874 C   0  0  0  0  0  0  0  0  0  0  0  0
    6.4491   -4.1532   30.1213 C   0  0  0  0  0  0  0  0  0  0  0  0
    5.7060   -4.4340   27.4975 C   0  0  0  0  0  0  0  0  0  0  0  0
    1.1818   -5.6612   28.8399 C   0  0  0  0  0  0  0  0  0  0  0  0
   -1.2067   -7.3287   17.7772 C   0  0  0  0  0  0  0  0  0  0  0  0
   -0.0206  -10.5585   16.6210 C   0  0  0  0  0  0  0  0  0  0  0  0
    0.3696  -12.7626   16.2169 O   0  0  0  0  0  0  0  0  0  0  0  0
   -0.6895   -9.5676   17.3297 C   0  0  0  0  0  0  0  0  0  0  0  0
    0.8388   -5.8417   27.5264 C   0  0  0  0  0  0  0  0  0  0  0  0
   -2.0709   -7.6637   18.7817 C   0  0  0  0  0  0  0  0  0  0  0  0
   -0.5279   -8.2168   17.0717 C   0  0  0  0  0  0  0  0  0  0  0  0
    6.9694   -4.0191   27.8190 C   0  0  0  0  0  0  0  0  0  0  0  0
    5.1733   -4.5469   29.8123 C   0  0  0  0  0  0  0  0  0  0  0  0
   -1.7508  -11.3016   18.6072 C   0  0  0  0  0  0  0  0  0  0  0  0
    1.7497   -5.6771   26.4971 C   0  0  0  0  0  0  0  0  0  0  0  0
   -1.5799   -9.9322   18.3468 C   0  0  0  0  0  0  0  0  0  0  0  0
   -1.0871  -12.2214   17.8851 C   0  0  0  0  0  0  0  0  0  0  0  0
   -2.2706   -8.9669   19.0691 C   0  0  0  0  0  0  0  0  0  0  0  0
    3.0279   -5.3073   26.8197 C   0  0  0  0  0  0  0  0  0  0  0  0
    7.3282   -3.8948   29.1186 C   0  0  0  0  0  0  0  0  0  0  0  0
  1  3  4  0
  1  7  4  0
  2  3  1  0
  2  6  4  0
  2 16  4  0
  3 22  4  0
  4  9  4  0
  4 10  1  0
  4 20  4  0
  5 16  4  0
  5 23  4  0
  6 15  4  0
  7 12  4  0
  8 13  4  0
  8 14  4  0
  9 11  4  0
 11 14  4  0
 11 19  4  0
 12 18  4  0
 13 21  4  0
 15 23  4  0
 17 19  4  0
 17 20  4  0
 18 22  4  0
 19 21  4  0
M  END
$$$$

 Created by Python create_sdf_string function

 23 25  0  0  0  0  0  0  0  0999 V2000
    2.4610   -5.3070   29.1240 C   0  0  0  0  0  0  0  0  0  0  0  0
    4.7710   -4.6952   28.4803 C   0  0  0  0  0  0  0  0  0  0  0  0
    3.4047   -5.1087   28.1314 C   0  0  0  0  0  0  0  0  0  0  0  0
   -0.2234  -11.8615   16.8874 C   0  0  0  0  0  0  0  0  0  0  0  0
    6.4491   -4.1532   30.1213 C   0  0  0  0  0  0  0  0  0  0  0  0
    5.7060   -4.4340   27.4975 C   0  0  0  0  0  0  0  0  0  0  0  0
    1.1818   -5.6612   28.8399 C   0  0  0  0  0  0  0  0  0  0  0  0
   -1.2067   -7.3287   17.7772 C   0  0  0  0  0  0  0  0  0  0  0  0
   -0.0206  -10.5585   16.6210 C   0  0  0  0  0  0  0  0  0  0  0  0
    0.3696  -12.7626   16.2169 O   0  0  0  0  0  0  0  0  0  0  0  0
   -0.6895   -9.5676   17.3297 C   0  0  0  0  0  0  0  0  0  0  0  0
    0.8388   -5.8417   27.5264 C   0  0  0  0  0  0  0  0  0  0  0  0
   -2.0709   -7.6637   18.7817 C   0  0  0  0  0  0  0  0  0  0  0  0
   -0.5279   -8.2168   17.0717 C   0  0  0  0  0  0  0  0  0  0  0  0
    6.9694   -4.0191   27.8190 C   0  0  0  0  0  0  0  0  0  0  0  0
    5.1733   -4.5469   29.8123 C   0  0  0  0  0  0  0  0  0  0  0  0
   -1.7508  -11.3016   18.6072 C   0  0  0  0  0  0  0  0  0  0  0  0
    1.7497   -5.6771   26.4971 C   0  0  0  0  0  0  0  0  0  0  0  0
   -1.5799   -9.9322   18.3468 C   0  0  0  0  0  0  0  0  0  0  0  0
   -1.0871  -12.2214   17.8851 C   0  0  0  0  0  0  0  0  0  0  0  0
   -2.2706   -8.9669   19.0691 C   0  0  0  0  0  0  0  0  0  0  0  0
    3.0279   -5.3073   26.8197 C   0  0  0  0  0  0  0  0  0  0  0  0
    7.3282   -3.8948   29.1186 C   0  0  0  0  0  0  0  0  0  0  0  0
  1  3  4  0
  1  7  4  0
  2  3  1  0
  2  6  4  0
  2 16  4  0
  3 22  4  0
  4  9  4  0
  4 10  1  0
  4 20  4  0
  5 16  4  0
  5 23  4  0
  6 15  4  0
  7 12  4  0
  8 13  4  0
  8 14  4  0
  9 11  4  0
 11 14  4  0
 11 19  4  0
 12 18  4  0
 13 21  4  0
 15 23  4  0
 17 19  4  0
 17 20  4  0
 18 22  4  0
 19 21  4  0
M  END
$$$$

 Created by Python create_sdf_string function

 23 25  0  0  0  0  0  0  0  0999 V2000
    2.4610   -5.3070   29.1240 C   0  0  0  0  0  0  0  0  0  0  0  0
    4.7710   -4.6952   28.4803 C   0  0  0  0  0  0  0  0  0  0  0  0
    3.4047   -5.1087   28.1314 C   0  0  0  0  0  0  0  0  0  0  0  0
   -0.2234  -11.8615   16.8874 C   0  0  0  0  0  0  0  0  0  0  0  0
    6.4491   -4.1532   30.1213 C   0  0  0  0  0  0  0  0  0  0  0  0
    5.7060   -4.4340   27.4975 C   0  0  0  0  0  0  0  0  0  0  0  0
    1.1818   -5.6612   28.8399 C   0  0  0  0  0  0  0  0  0  0  0  0
   -1.2067   -7.3287   17.7772 C   0  0  0  0  0  0  0  0  0  0  0  0
   -0.0206  -10.5585   16.6210 C   0  0  0  0  0  0  0  0  0  0  0  0
    0.3696  -12.7626   16.2169 O   0  0  0  0  0  0  0  0  0  0  0  0
   -0.6895   -9.5676   17.3297 C   0  0  0  0  0  0  0  0  0  0  0  0
    0.8388   -5.8417   27.5264 C   0  0  0  0  0  0  0  0  0  0  0  0
   -2.0709   -7.6637   18.7817 C   0  0  0  0  0  0  0  0  0  0  0  0
   -0.5279   -8.2168   17.0717 C   0  0  0  0  0  0  0  0  0  0  0  0
    6.9694   -4.0191   27.8190 C   0  0  0  0  0  0  0  0  0  0  0  0
    5.1733   -4.5469   29.8123 C   0  0  0  0  0  0  0  0  0  0  0  0
   -1.7508  -11.3016   18.6072 C   0  0  0  0  0  0  0  0  0  0  0  0
    1.7497   -5.6771   26.4971 C   0  0  0  0  0  0  0  0  0  0  0  0
   -1.5799   -9.9322   18.3468 C   0  0  0  0  0  0  0  0  0  0  0  0
   -1.0871  -12.2214   17.8851 C   0  0  0  0  0  0  0  0  0  0  0  0
   -2.2706   -8.9669   19.0691 C   0  0  0  0  0  0  0  0  0  0  0  0
    3.0279   -5.3073   26.8197 C   0  0  0  0  0  0  0  0  0  0  0  0
    7.3282   -3.8948   29.1186 C   0  0  0  0  0  0  0  0  0  0  0  0
  1  3  4  0
  1  7  4  0
  2  3  1  0
  2  6  4  0
  2 16  4  0
  3 22  4  0
  4  9  4  0
  4 10  1  0
  4 20  4  0
  5 16  4  0
  5 23  4  0
  6 15  4  0
  7 12  4  0
  8 13  4  0
  8 14  4  0
  9 11  4  0
 11 14  4  0
 11 19  4  0
 12 18  4  0
 13 21  4  0
 15 23  4  0
 17 19  4  0
 17 20  4  0
 18 22  4  0
 19 21  4  0
M  END
$$$$

 Created by Python create_sdf_string function

 23 25  0  0  0  0  0  0  0  0999 V2000
    2.4610   -5.3070   29.1240 C   0  0  0  0  0  0  0  0  0  0  0  0
    4.7710   -4.6952   28.4803 C   0  0  0  0  0  0  0  0  0  0  0  0
    3.4047   -5.1087   28.1314 C   0  0  0  0  0  0  0  0  0  0  0  0
   -0.2234  -11.8615   16.8874 C   0  0  0  0  0  0  0  0  0  0  0  0
    6.4491   -4.1532   30.1213 C   0  0  0  0  0  0  0  0  0  0  0  0
    5.7060   -4.4340   27.4975 C   0  0  0  0  0  0  0  0  0  0  0  0
    1.1818   -5.6612   28.8399 C   0  0  0  0  0  0  0  0  0  0  0  0
   -1.2067   -7.3287   17.7772 C   0  0  0  0  0  0  0  0  0  0  0  0
   -0.0206  -10.5585   16.6210 C   0  0  0  0  0  0  0  0  0  0  0  0
    0.3696  -12.7626   16.2169 O   0  0  0  0  0  0  0  0  0  0  0  0
   -0.6895   -9.5676   17.3297 C   0  0  0  0  0  0  0  0  0  0  0  0
    0.8388   -5.8417   27.5264 C   0  0  0  0  0  0  0  0  0  0  0  0
   -2.0709   -7.6637   18.7817 C   0  0  0  0  0  0  0  0  0  0  0  0
   -0.5279   -8.2168   17.0717 C   0  0  0  0  0  0  0  0  0  0  0  0
    6.9694   -4.0191   27.8190 C   0  0  0  0  0  0  0  0  0  0  0  0
    5.1733   -4.5469   29.8123 C   0  0  0  0  0  0  0  0  0  0  0  0
   -1.7508  -11.3016   18.6072 C   0  0  0  0  0  0  0  0  0  0  0  0
    1.7497   -5.6771   26.4971 C   0  0  0  0  0  0  0  0  0  0  0  0
   -1.5799   -9.9322   18.3468 C   0  0  0  0  0  0  0  0  0  0  0  0
   -1.0871  -12.2214   17.8851 C   0  0  0  0  0  0  0  0  0  0  0  0
   -2.2706   -8.9669   19.0691 C   0  0  0  0  0  0  0  0  0  0  0  0
    3.0279   -5.3073   26.8197 C   0  0  0  0  0  0  0  0  0  0  0  0
    7.3282   -3.8948   29.1186 C   0  0  0  0  0  0  0  0  0  0  0  0
  1  3  4  0
  1  7  4  0
  2  3  1  0
  2  6  4  0
  2 16  4  0
  3 22  4  0
  4  9  4  0
  4 10  1  0
  4 20  4  0
  5 16  4  0
  5 23  4  0
  6 15  4  0
  7 12  4  0
  8 13  4  0
  8 14  4  0
  9 11  4  0
 11 14  4  0
 11 19  4  0
 12 18  4  0
 13 21  4  0
 15 23  4  0
 17 19  4  0
 17 20  4  0
 18 22  4  0
 19 21  4  0
M  END
$$$$

 Created by Python create_sdf_string function

 23 25  0  0  0  0  0  0  0  0999 V2000
    2.4610   -5.3070   29.1240 C   0  0  0  0  0  0  0  0  0  0  0  0
    4.7710   -4.6952   28.4803 C   0  0  0  0  0  0  0  0  0  0  0  0
    3.4047   -5.1087   28.1314 C   0  0  0  0  0  0  0  0  0  0  0  0
   -0.2234  -11.8615   16.8874 C   0  0  0  0  0  0  0  0  0  0  0  0
    6.4491   -4.1532   30.1213 C   0  0  0  0  0  0  0  0  0  0  0  0
    5.7060   -4.4340   27.4975 C   0  0  0  0  0  0  0  0  0  0  0  0
    1.1818   -5.6612   28.8399 C   0  0  0  0  0  0  0  0  0  0  0  0
   -1.2067   -7.3287   17.7772 C   0  0  0  0  0  0  0  0  0  0  0  0
   -0.0206  -10.5585   16.6210 C   0  0  0  0  0  0  0  0  0  0  0  0
    0.3696  -12.7626   16.2169 O   0  0  0  0  0  0  0  0  0  0  0  0
   -0.6895   -9.5676   17.3297 C   0  0  0  0  0  0  0  0  0  0  0  0
    0.8388   -5.8417   27.5264 C   0  0  0  0  0  0  0  0  0  0  0  0
   -2.0709   -7.6637   18.7817 C   0  0  0  0  0  0  0  0  0  0  0  0
   -0.5279   -8.2168   17.0717 C   0  0  0  0  0  0  0  0  0  0  0  0
    6.9694   -4.0191   27.8190 C   0  0  0  0  0  0  0  0  0  0  0  0
    5.1733   -4.5469   29.8123 C   0  0  0  0  0  0  0  0  0  0  0  0
   -1.7508  -11.3016   18.6072 C   0  0  0  0  0  0  0  0  0  0  0  0
    1.7497   -5.6771   26.4971 C   0  0  0  0  0  0  0  0  0  0  0  0
   -1.5799   -9.9322   18.3468 C   0  0  0  0  0  0  0  0  0  0  0  0
   -1.0871  -12.2214   17.8851 C   0  0  0  0  0  0  0  0  0  0  0  0
   -2.2706   -8.9669   19.0691 C   0  0  0  0  0  0  0  0  0  0  0  0
    3.0279   -5.3073   26.8197 C   0  0  0  0  0  0  0  0  0  0  0  0
    7.3282   -3.8948   29.1186 C   0  0  0  0  0  0  0  0  0  0  0  0
  1  3  4  0
  1  7  4  0
  2  3  1  0
  2  6  4  0
  2 16  4  0
  3 22  4  0
  4  9  4  0
  4 10  1  0
  4 20  4  0
  5 16  4  0
  5 23  4  0
  6 15  4  0
  7 12  4  0
  8 13  4  0
  8 14  4  0
  9 11  4  0
 11 14  4  0
 11 19  4  0
 12 18  4  0
 13 21  4  0
 15 23  4  0
 17 19  4  0
 17 20  4  0
 18 22  4  0
 19 21  4  0
M  END
$$$$

 Created by Python create_sdf_string function

 23 25  0  0  0  0  0  0  0  0999 V2000
    2.4610   -5.3070   29.1240 C   0  0  0  0  0  0  0  0  0  0  0  0
    4.7710   -4.6952   28.4803 C   0  0  0  0  0  0  0  0  0  0  0  0
    3.4047   -5.1087   28.1314 C   0  0  0  0  0  0  0  0  0  0  0  0
   -0.2234  -11.8615   16.8874 C   0  0  0  0  0  0  0  0  0  0  0  0
    6.4491   -4.1532   30.1213 C   0  0  0  0  0  0  0  0  0  0  0  0
    5.7060   -4.4340   27.4975 C   0  0  0  0  0  0  0  0  0  0  0  0
    1.1818   -5.6612   28.8399 C   0  0  0  0  0  0  0  0  0  0  0  0
   -1.2067   -7.3287   17.7772 C   0  0  0  0  0  0  0  0  0  0  0  0
   -0.0206  -10.5585   16.6210 C   0  0  0  0  0  0  0  0  0  0  0  0
    0.3696  -12.7626   16.2169 O   0  0  0  0  0  0  0  0  0  0  0  0
   -0.6895   -9.5676   17.3297 C   0  0  0  0  0  0  0  0  0  0  0  0
    0.8388   -5.8417   27.5264 C   0  0  0  0  0  0  0  0  0  0  0  0
   -2.0709   -7.6637   18.7817 C   0  0  0  0  0  0  0  0  0  0  0  0
   -0.5279   -8.2168   17.0717 C   0  0  0  0  0  0  0  0  0  0  0  0
    6.9694   -4.0191   27.8190 C   0  0  0  0  0  0  0  0  0  0  0  0
    5.1733   -4.5469   29.8123 C   0  0  0  0  0  0  0  0  0  0  0  0
   -1.7508  -11.3016   18.6072 C   0  0  0  0  0  0  0  0  0  0  0  0
    1.7497   -5.6771   26.4971 C   0  0  0  0  0  0  0  0  0  0  0  0
   -1.5799   -9.9322   18.3468 C   0  0  0  0  0  0  0  0  0  0  0  0
   -1.0871  -12.2214   17.8851 C   0  0  0  0  0  0  0  0  0  0  0  0
   -2.2706   -8.9669   19.0691 C   0  0  0  0  0  0  0  0  0  0  0  0
    3.0279   -5.3073   26.8197 C   0  0  0  0  0  0  0  0  0  0  0  0
    7.3282   -3.8948   29.1186 C   0  0  0  0  0  0  0  0  0  0  0  0
  1  3  4  0
  1  7  4  0
  2  3  1  0
  2  6  4  0
  2 16  4  0
  3 22  4  0
  4  9  4  0
  4 10  1  0
  4 20  4  0
  5 16  4  0
  5 23  4  0
  6 15  4  0
  7 12  4  0
  8 13  4  0
  8 14  4  0
  9 11  4  0
 11 14  4  0
 11 19  4  0
 12 18  4  0
 13 21  4  0
 15 23  4  0
 17 19  4  0
 17 20  4  0
 18 22  4  0
 19 21  4  0
M  END
$$$$

 Created by Python create_sdf_string function

 23 25  0  0  0  0  0  0  0  0999 V2000
    2.4610   -5.3070   29.1240 C   0  0  0  0  0  0  0  0  0  0  0  0
    4.7710   -4.6952   28.4803 C   0  0  0  0  0  0  0  0  0  0  0  0
    3.4047   -5.1087   28.1314 C   0  0  0  0  0  0  0  0  0  0  0  0
   -0.2234  -11.8615   16.8874 C   0  0  0  0  0  0  0  0  0  0  0  0
    6.4491   -4.1532   30.1213 C   0  0  0  0  0  0  0  0  0  0  0  0
    5.7060   -4.4340   27.4975 C   0  0  0  0  0  0  0  0  0  0  0  0
    1.1818   -5.6612   28.8399 C   0  0  0  0  0  0  0  0  0  0  0  0
   -1.2067   -7.3287   17.7772 C   0  0  0  0  0  0  0  0  0  0  0  0
   -0.0206  -10.5585   16.6210 C   0  0  0  0  0  0  0  0  0  0  0  0
    0.3696  -12.7626   16.2169 O   0  0  0  0  0  0  0  0  0  0  0  0
   -0.6895   -9.5676   17.3297 C   0  0  0  0  0  0  0  0  0  0  0  0
    0.8388   -5.8417   27.5264 C   0  0  0  0  0  0  0  0  0  0  0  0
   -2.0709   -7.6637   18.7817 C   0  0  0  0  0  0  0  0  0  0  0  0
   -0.5279   -8.2168   17.0717 C   0  0  0  0  0  0  0  0  0  0  0  0
    6.9694   -4.0191   27.8190 C   0  0  0  0  0  0  0  0  0  0  0  0
    5.1733   -4.5469   29.8123 C   0  0  0  0  0  0  0  0  0  0  0  0
   -1.7508  -11.3016   18.6072 C   0  0  0  0  0  0  0  0  0  0  0  0
    1.7497   -5.6771   26.4971 C   0  0  0  0  0  0  0  0  0  0  0  0
   -1.5799   -9.9322   18.3468 C   0  0  0  0  0  0  0  0  0  0  0  0
   -1.0871  -12.2214   17.8851 C   0  0  0  0  0  0  0  0  0  0  0  0
   -2.2706   -8.9669   19.0691 C   0  0  0  0  0  0  0  0  0  0  0  0
    3.0279   -5.3073   26.8197 C   0  0  0  0  0  0  0  0  0  0  0  0
    7.3282   -3.8948   29.1186 C   0  0  0  0  0  0  0  0  0  0  0  0
  1  3  4  0
  1  7  4  0
  2  3  1  0
  2  6  4  0
  2 16  4  0
  3 22  4  0
  4  9  4  0
  4 10  1  0
  4 20  4  0
  5 16  4  0
  5 23  4  0
  6 15  4  0
  7 12  4  0
  8 13  4  0
  8 14  4  0
  9 11  4  0
 11 14  4  0
 11 19  4  0
 12 18  4  0
 13 21  4  0
 15 23  4  0
 17 19  4  0
 17 20  4  0
 18 22  4  0
 19 21  4  0
M  END
$$$$

 Created by Python create_sdf_string function

 23 25  0  0  0  0  0  0  0  0999 V2000
    2.4610   -5.3070   29.1240 C   0  0  0  0  0  0  0  0  0  0  0  0
    4.7710   -4.6952   28.4803 C   0  0  0  0  0  0  0  0  0  0  0  0
    3.4047   -5.1087   28.1314 C   0  0  0  0  0  0  0  0  0  0  0  0
   -0.2234  -11.8615   16.8874 C   0  0  0  0  0  0  0  0  0  0  0  0
    6.4491   -4.1532   30.1213 C   0  0  0  0  0  0  0  0  0  0  0  0
    5.7060   -4.4340   27.4975 C   0  0  0  0  0  0  0  0  0  0  0  0
    1.1818   -5.6612   28.8399 C   0  0  0  0  0  0  0  0  0  0  0  0
   -1.2067   -7.3287   17.7772 C   0  0  0  0  0  0  0  0  0  0  0  0
   -0.0206  -10.5585   16.6210 C   0  0  0  0  0  0  0  0  0  0  0  0
    0.3696  -12.7626   16.2169 O   0  0  0  0  0  0  0  0  0  0  0  0
   -0.6895   -9.5676   17.3297 C   0  0  0  0  0  0  0  0  0  0  0  0
    0.8388   -5.8417   27.5264 C   0  0  0  0  0  0  0  0  0  0  0  0
   -2.0709   -7.6637   18.7817 C   0  0  0  0  0  0  0  0  0  0  0  0
   -0.5279   -8.2168   17.0717 C   0  0  0  0  0  0  0  0  0  0  0  0
    6.9694   -4.0191   27.8190 C   0  0  0  0  0  0  0  0  0  0  0  0
    5.1733   -4.5469   29.8123 C   0  0  0  0  0  0  0  0  0  0  0  0
   -1.7508  -11.3016   18.6072 C   0  0  0  0  0  0  0  0  0  0  0  0
    1.7497   -5.6771   26.4971 C   0  0  0  0  0  0  0  0  0  0  0  0
   -1.5799   -9.9322   18.3468 C   0  0  0  0  0  0  0  0  0  0  0  0
   -1.0871  -12.2214   17.8851 C   0  0  0  0  0  0  0  0  0  0  0  0
   -2.2706   -8.9669   19.0691 C   0  0  0  0  0  0  0  0  0  0  0  0
    3.0279   -5.3073   26.8197 C   0  0  0  0  0  0  0  0  0  0  0  0
    7.3282   -3.8948   29.1186 C   0  0  0  0  0  0  0  0  0  0  0  0
  1  3  4  0
  1  7  4  0
  2  3  1  0
  2  6  4  0
  2 16  4  0
  3 22  4  0
  4  9  4  0
  4 10  1  0
  4 20  4  0
  5 16  4  0
  5 23  4  0
  6 15  4  0
  7 12  4  0
  8 13  4  0
  8 14  4  0
  9 11  4  0
 11 14  4  0
 11 19  4  0
 12 18  4  0
 13 21  4  0
 15 23  4  0
 17 19  4  0
 17 20  4  0
 18 22  4  0
 19 21  4  0
M  END
$$$$

 Created by Python create_sdf_string function

 23 25  0  0  0  0  0  0  0  0999 V2000
    2.4610   -5.3070   29.1240 C   0  0  0  0  0  0  0  0  0  0  0  0
    4.7710   -4.6952   28.4803 C   0  0  0  0  0  0  0  0  0  0  0  0
    3.4047   -5.1087   28.1314 C   0  0  0  0  0  0  0  0  0  0  0  0
   -0.2234  -11.8615   16.8874 C   0  0  0  0  0  0  0  0  0  0  0  0
    6.4491   -4.1532   30.1213 C   0  0  0  0  0  0  0  0  0  0  0  0
    5.7060   -4.4340   27.4975 C   0  0  0  0  0  0  0  0  0  0  0  0
    1.1818   -5.6612   28.8399 C   0  0  0  0  0  0  0  0  0  0  0  0
   -1.2067   -7.3287   17.7772 C   0  0  0  0  0  0  0  0  0  0  0  0
   -0.0206  -10.5585   16.6210 C   0  0  0  0  0  0  0  0  0  0  0  0
    0.3696  -12.7626   16.2169 O   0  0  0  0  0  0  0  0  0  0  0  0
   -0.6895   -9.5676   17.3297 C   0  0  0  0  0  0  0  0  0  0  0  0
    0.8388   -5.8417   27.5264 C   0  0  0  0  0  0  0  0  0  0  0  0
   -2.0709   -7.6637   18.7817 C   0  0  0  0  0  0  0  0  0  0  0  0
   -0.5279   -8.2168   17.0717 C   0  0  0  0  0  0  0  0  0  0  0  0
    6.9694   -4.0191   27.8190 C   0  0  0  0  0  0  0  0  0  0  0  0
    5.1733   -4.5469   29.8123 C   0  0  0  0  0  0  0  0  0  0  0  0
   -1.7508  -11.3016   18.6072 C   0  0  0  0  0  0  0  0  0  0  0  0
    1.7497   -5.6771   26.4971 C   0  0  0  0  0  0  0  0  0  0  0  0
   -1.5799   -9.9322   18.3468 C   0  0  0  0  0  0  0  0  0  0  0  0
   -1.0871  -12.2214   17.8851 C   0  0  0  0  0  0  0  0  0  0  0  0
   -2.2706   -8.9669   19.0691 C   0  0  0  0  0  0  0  0  0  0  0  0
    3.0279   -5.3073   26.8197 C   0  0  0  0  0  0  0  0  0  0  0  0
    7.3282   -3.8948   29.1186 C   0  0  0  0  0  0  0  0  0  0  0  0
  1  3  4  0
  1  7  4  0
  2  3  1  0
  2  6  4  0
  2 16  4  0
  3 22  4  0
  4  9  4  0
  4 10  1  0
  4 20  4  0
  5 16  4  0
  5 23  4  0
  6 15  4  0
  7 12  4  0
  8 13  4  0
  8 14  4  0
  9 11  4  0
 11 14  4  0
 11 19  4  0
 12 18  4  0
 13 21  4  0
 15 23  4  0
 17 19  4  0
 17 20  4  0
 18 22  4  0
 19 21  4  0
M  END
$$$$

 Created by Python create_sdf_string function

 23 25  0  0  0  0  0  0  0  0999 V2000
    2.4610   -5.3070   29.1240 C   0  0  0  0  0  0  0  0  0  0  0  0
    4.7710   -4.6952   28.4803 C   0  0  0  0  0  0  0  0  0  0  0  0
    3.4047   -5.1087   28.1314 C   0  0  0  0  0  0  0  0  0  0  0  0
   -0.2234  -11.8615   16.8874 C   0  0  0  0  0  0  0  0  0  0  0  0
    6.4491   -4.1532   30.1213 C   0  0  0  0  0  0  0  0  0  0  0  0
    5.7060   -4.4340   27.4975 C   0  0  0  0  0  0  0  0  0  0  0  0
    1.1818   -5.6612   28.8399 C   0  0  0  0  0  0  0  0  0  0  0  0
   -1.2067   -7.3287   17.7772 C   0  0  0  0  0  0  0  0  0  0  0  0
   -0.0206  -10.5585   16.6210 C   0  0  0  0  0  0  0  0  0  0  0  0
    0.3696  -12.7626   16.2169 O   0  0  0  0  0  0  0  0  0  0  0  0
   -0.6895   -9.5676   17.3297 C   0  0  0  0  0  0  0  0  0  0  0  0
    0.8388   -5.8417   27.5264 C   0  0  0  0  0  0  0  0  0  0  0  0
   -2.0709   -7.6637   18.7817 C   0  0  0  0  0  0  0  0  0  0  0  0
   -0.5279   -8.2168   17.0717 C   0  0  0  0  0  0  0  0  0  0  0  0
    6.9694   -4.0191   27.8190 C   0  0  0  0  0  0  0  0  0  0  0  0
    5.1733   -4.5469   29.8123 C   0  0  0  0  0  0  0  0  0  0  0  0
   -1.7508  -11.3016   18.6072 C   0  0  0  0  0  0  0  0  0  0  0  0
    1.7497   -5.6771   26.4971 C   0  0  0  0  0  0  0  0  0  0  0  0
   -1.5799   -9.9322   18.3468 C   0  0  0  0  0  0  0  0  0  0  0  0
   -1.0871  -12.2214   17.8851 C   0  0  0  0  0  0  0  0  0  0  0  0
   -2.2706   -8.9669   19.0691 C   0  0  0  0  0  0  0  0  0  0  0  0
    3.0279   -5.3073   26.8197 C   0  0  0  0  0  0  0  0  0  0  0  0
    7.3282   -3.8948   29.1186 C   0  0  0  0  0  0  0  0  0  0  0  0
  1  3  4  0
  1  7  4  0
  2  3  1  0
  2  6  4  0
  2 16  4  0
  3 22  4  0
  4  9  4  0
  4 10  1  0
  4 20  4  0
  5 16  4  0
  5 23  4  0
  6 15  4  0
  7 12  4  0
  8 13  4  0
  8 14  4  0
  9 11  4  0
 11 14  4  0
 11 19  4  0
 12 18  4  0
 13 21  4  0
 15 23  4  0
 17 19  4  0
 17 20  4  0
 18 22  4  0
 19 21  4  0
M  END
$$$$

 Created by Python create_sdf_string function

 23 25  0  0  0  0  0  0  0  0999 V2000
    2.4610   -5.3070   29.1240 C   0  0  0  0  0  0  0  0  0  0  0  0
    4.7710   -4.6952   28.4803 C   0  0  0  0  0  0  0  0  0  0  0  0
    3.4047   -5.1087   28.1314 C   0  0  0  0  0  0  0  0  0  0  0  0
   -0.2234  -11.8615   16.8874 C   0  0  0  0  0  0  0  0  0  0  0  0
    6.4491   -4.1532   30.1213 C   0  0  0  0  0  0  0  0  0  0  0  0
    5.7060   -4.4340   27.4975 C   0  0  0  0  0  0  0  0  0  0  0  0
    1.1818   -5.6612   28.8399 C   0  0  0  0  0  0  0  0  0  0  0  0
   -1.2067   -7.3287   17.7772 C   0  0  0  0  0  0  0  0  0  0  0  0
   -0.0206  -10.5585   16.6210 C   0  0  0  0  0  0  0  0  0  0  0  0
    0.3696  -12.7626   16.2169 O   0  0  0  0  0  0  0  0  0  0  0  0
   -0.6895   -9.5676   17.3297 C   0  0  0  0  0  0  0  0  0  0  0  0
    0.8388   -5.8417   27.5264 C   0  0  0  0  0  0  0  0  0  0  0  0
   -2.0709   -7.6637   18.7817 C   0  0  0  0  0  0  0  0  0  0  0  0
   -0.5279   -8.2168   17.0717 C   0  0  0  0  0  0  0  0  0  0  0  0
    6.9694   -4.0191   27.8190 C   0  0  0  0  0  0  0  0  0  0  0  0
    5.1733   -4.5469   29.8123 C   0  0  0  0  0  0  0  0  0  0  0  0
   -1.7508  -11.3016   18.6072 C   0  0  0  0  0  0  0  0  0  0  0  0
    1.7497   -5.6771   26.4971 C   0  0  0  0  0  0  0  0  0  0  0  0
   -1.5799   -9.9322   18.3468 C   0  0  0  0  0  0  0  0  0  0  0  0
   -1.0871  -12.2214   17.8851 C   0  0  0  0  0  0  0  0  0  0  0  0
   -2.2706   -8.9669   19.0691 C   0  0  0  0  0  0  0  0  0  0  0  0
    3.0279   -5.3073   26.8197 C   0  0  0  0  0  0  0  0  0  0  0  0
    7.3282   -3.8948   29.1186 C   0  0  0  0  0  0  0  0  0  0  0  0
  1  3  4  0
  1  7  4  0
  2  3  1  0
  2  6  4  0
  2 16  4  0
  3 22  4  0
  4  9  4  0
  4 10  1  0
  4 20  4  0
  5 16  4  0
  5 23  4  0
  6 15  4  0
  7 12  4  0
  8 13  4  0
  8 14  4  0
  9 11  4  0
 11 14  4  0
 11 19  4  0
 12 18  4  0
 13 21  4  0
 15 23  4  0
 17 19  4  0
 17 20  4  0
 18 22  4  0
 19 21  4  0
M  END
$$$$

 Created by Python create_sdf_string function

 23 25  0  0  0  0  0  0  0  0999 V2000
    2.4610   -5.3070   29.1240 C   0  0  0  0  0  0  0  0  0  0  0  0
    4.7710   -4.6952   28.4803 C   0  0  0  0  0  0  0  0  0  0  0  0
    3.4047   -5.1087   28.1314 C   0  0  0  0  0  0  0  0  0  0  0  0
   -0.2234  -11.8615   16.8874 C   0  0  0  0  0  0  0  0  0  0  0  0
    6.4491   -4.1532   30.1213 C   0  0  0  0  0  0  0  0  0  0  0  0
    5.7060   -4.4340   27.4975 C   0  0  0  0  0  0  0  0  0  0  0  0
    1.1818   -5.6612   28.8399 C   0  0  0  0  0  0  0  0  0  0  0  0
   -1.2067   -7.3287   17.7772 C   0  0  0  0  0  0  0  0  0  0  0  0
   -0.0206  -10.5585   16.6210 C   0  0  0  0  0  0  0  0  0  0  0  0
    0.3696  -12.7626   16.2169 O   0  0  0  0  0  0  0  0  0  0  0  0
   -0.6895   -9.5676   17.3297 C   0  0  0  0  0  0  0  0  0  0  0  0
    0.8388   -5.8417   27.5264 C   0  0  0  0  0  0  0  0  0  0  0  0
   -2.0709   -7.6637   18.7817 C   0  0  0  0  0  0  0  0  0  0  0  0
   -0.5279   -8.2168   17.0717 C   0  0  0  0  0  0  0  0  0  0  0  0
    6.9694   -4.0191   27.8190 C   0  0  0  0  0  0  0  0  0  0  0  0
    5.1733   -4.5469   29.8123 C   0  0  0  0  0  0  0  0  0  0  0  0
   -1.7508  -11.3016   18.6072 C   0  0  0  0  0  0  0  0  0  0  0  0
    1.7497   -5.6771   26.4971 C   0  0  0  0  0  0  0  0  0  0  0  0
   -1.5799   -9.9322   18.3468 C   0  0  0  0  0  0  0  0  0  0  0  0
   -1.0871  -12.2214   17.8851 C   0  0  0  0  0  0  0  0  0  0  0  0
   -2.2706   -8.9669   19.0691 C   0  0  0  0  0  0  0  0  0  0  0  0
    3.0279   -5.3073   26.8197 C   0  0  0  0  0  0  0  0  0  0  0  0
    7.3282   -3.8948   29.1186 C   0  0  0  0  0  0  0  0  0  0  0  0
  1  3  4  0
  1  7  4  0
  2  3  1  0
  2  6  4  0
  2 16  4  0
  3 22  4  0
  4  9  4  0
  4 10  1  0
  4 20  4  0
  5 16  4  0
  5 23  4  0
  6 15  4  0
  7 12  4  0
  8 13  4  0
  8 14  4  0
  9 11  4  0
 11 14  4  0
 11 19  4  0
 12 18  4  0
 13 21  4  0
 15 23  4  0
 17 19  4  0
 17 20  4  0
 18 22  4  0
 19 21  4  0
M  END
$$$$

 Created by Python create_sdf_string function

 23 25  0  0  0  0  0  0  0  0999 V2000
    2.4610   -5.3070   29.1240 C   0  0  0  0  0  0  0  0  0  0  0  0
    4.7710   -4.6952   28.4803 C   0  0  0  0  0  0  0  0  0  0  0  0
    3.4047   -5.1087   28.1314 C   0  0  0  0  0  0  0  0  0  0  0  0
   -0.2234  -11.8615   16.8874 C   0  0  0  0  0  0  0  0  0  0  0  0
    6.4491   -4.1532   30.1213 C   0  0  0  0  0  0  0  0  0  0  0  0
    5.7060   -4.4340   27.4975 C   0  0  0  0  0  0  0  0  0  0  0  0
    1.1818   -5.6612   28.8399 C   0  0  0  0  0  0  0  0  0  0  0  0
   -1.2067   -7.3287   17.7772 C   0  0  0  0  0  0  0  0  0  0  0  0
   -0.0206  -10.5585   16.6210 C   0  0  0  0  0  0  0  0  0  0  0  0
    0.3696  -12.7626   16.2169 O   0  0  0  0  0  0  0  0  0  0  0  0
   -0.6895   -9.5676   17.3297 C   0  0  0  0  0  0  0  0  0  0  0  0
    0.8388   -5.8417   27.5264 C   0  0  0  0  0  0  0  0  0  0  0  0
   -2.0709   -7.6637   18.7817 C   0  0  0  0  0  0  0  0  0  0  0  0
   -0.5279   -8.2168   17.0717 C   0  0  0  0  0  0  0  0  0  0  0  0
    6.9694   -4.0191   27.8190 C   0  0  0  0  0  0  0  0  0  0  0  0
    5.1733   -4.5469   29.8123 C   0  0  0  0  0  0  0  0  0  0  0  0
   -1.7508  -11.3016   18.6072 C   0  0  0  0  0  0  0  0  0  0  0  0
    1.7497   -5.6771   26.4971 C   0  0  0  0  0  0  0  0  0  0  0  0
   -1.5799   -9.9322   18.3468 C   0  0  0  0  0  0  0  0  0  0  0  0
   -1.0871  -12.2214   17.8851 C   0  0  0  0  0  0  0  0  0  0  0  0
   -2.2706   -8.9669   19.0691 C   0  0  0  0  0  0  0  0  0  0  0  0
    3.0279   -5.3073   26.8197 C   0  0  0  0  0  0  0  0  0  0  0  0
    7.3282   -3.8948   29.1186 C   0  0  0  0  0  0  0  0  0  0  0  0
  1  3  4  0
  1  7  4  0
  2  3  1  0
  2  6  4  0
  2 16  4  0
  3 22  4  0
  4  9  4  0
  4 10  1  0
  4 20  4  0
  5 16  4  0
  5 23  4  0
  6 15  4  0
  7 12  4  0
  8 13  4  0
  8 14  4  0
  9 11  4  0
 11 14  4  0
 11 19  4  0
 12 18  4  0
 13 21  4  0
 15 23  4  0
 17 19  4  0
 17 20  4  0
 18 22  4  0
 19 21  4  0
M  END
$$$$

 Created by Python create_sdf_string function

 23 25  0  0  0  0  0  0  0  0999 V2000
    2.4610   -5.3070   29.1240 C   0  0  0  0  0  0  0  0  0  0  0  0
    4.7710   -4.6952   28.4803 C   0  0  0  0  0  0  0  0  0  0  0  0
    3.4047   -5.1087   28.1314 C   0  0  0  0  0  0  0  0  0  0  0  0
   -0.2234  -11.8615   16.8874 C   0  0  0  0  0  0  0  0  0  0  0  0
    6.4491   -4.1532   30.1213 C   0  0  0  0  0  0  0  0  0  0  0  0
    5.7060   -4.4340   27.4975 C   0  0  0  0  0  0  0  0  0  0  0  0
    1.1818   -5.6612   28.8399 C   0  0  0  0  0  0  0  0  0  0  0  0
   -1.2067   -7.3287   17.7772 C   0  0  0  0  0  0  0  0  0  0  0  0
   -0.0206  -10.5585   16.6210 C   0  0  0  0  0  0  0  0  0  0  0  0
    0.3696  -12.7626   16.2169 O   0  0  0  0  0  0  0  0  0  0  0  0
   -0.6895   -9.5676   17.3297 C   0  0  0  0  0  0  0  0  0  0  0  0
    0.8388   -5.8417   27.5264 C   0  0  0  0  0  0  0  0  0  0  0  0
   -2.0709   -7.6637   18.7817 C   0  0  0  0  0  0  0  0  0  0  0  0
   -0.5279   -8.2168   17.0717 C   0  0  0  0  0  0  0  0  0  0  0  0
    6.9694   -4.0191   27.8190 C   0  0  0  0  0  0  0  0  0  0  0  0
    5.1733   -4.5469   29.8123 C   0  0  0  0  0  0  0  0  0  0  0  0
   -1.7508  -11.3016   18.6072 C   0  0  0  0  0  0  0  0  0  0  0  0
    1.7497   -5.6771   26.4971 C   0  0  0  0  0  0  0  0  0  0  0  0
   -1.5799   -9.9322   18.3468 C   0  0  0  0  0  0  0  0  0  0  0  0
   -1.0871  -12.2214   17.8851 C   0  0  0  0  0  0  0  0  0  0  0  0
   -2.2706   -8.9669   19.0691 C   0  0  0  0  0  0  0  0  0  0  0  0
    3.0279   -5.3073   26.8197 C   0  0  0  0  0  0  0  0  0  0  0  0
    7.3282   -3.8948   29.1186 C   0  0  0  0  0  0  0  0  0  0  0  0
  1  3  4  0
  1  7  4  0
  2  3  1  0
  2  6  4  0
  2 16  4  0
  3 22  4  0
  4  9  4  0
  4 10  1  0
  4 20  4  0
  5 16  4  0
  5 23  4  0
  6 15  4  0
  7 12  4  0
  8 13  4  0
  8 14  4  0
  9 11  4  0
 11 14  4  0
 11 19  4  0
 12 18  4  0
 13 21  4  0
 15 23  4  0
 17 19  4  0
 17 20  4  0
 18 22  4  0
 19 21  4  0
M  END
$$$$

 Created by Python create_sdf_string function

 23 25  0  0  0  0  0  0  0  0999 V2000
    2.4610   -5.3070   29.1240 C   0  0  0  0  0  0  0  0  0  0  0  0
    4.7710   -4.6952   28.4803 C   0  0  0  0  0  0  0  0  0  0  0  0
    3.4047   -5.1087   28.1314 C   0  0  0  0  0  0  0  0  0  0  0  0
   -0.2234  -11.8615   16.8874 C   0  0  0  0  0  0  0  0  0  0  0  0
    6.4491   -4.1532   30.1213 C   0  0  0  0  0  0  0  0  0  0  0  0
    5.7060   -4.4340   27.4975 C   0  0  0  0  0  0  0  0  0  0  0  0
    1.1818   -5.6612   28.8399 C   0  0  0  0  0  0  0  0  0  0  0  0
   -1.2067   -7.3287   17.7772 C   0  0  0  0  0  0  0  0  0  0  0  0
   -0.0206  -10.5585   16.6210 C   0  0  0  0  0  0  0  0  0  0  0  0
    0.3696  -12.7626   16.2169 O   0  0  0  0  0  0  0  0  0  0  0  0
   -0.6895   -9.5676   17.3297 C   0  0  0  0  0  0  0  0  0  0  0  0
    0.8388   -5.8417   27.5264 C   0  0  0  0  0  0  0  0  0  0  0  0
   -2.0709   -7.6637   18.7817 C   0  0  0  0  0  0  0  0  0  0  0  0
   -0.5279   -8.2168   17.0717 C   0  0  0  0  0  0  0  0  0  0  0  0
    6.9694   -4.0191   27.8190 C   0  0  0  0  0  0  0  0  0  0  0  0
    5.1733   -4.5469   29.8123 C   0  0  0  0  0  0  0  0  0  0  0  0
   -1.7508  -11.3016   18.6072 C   0  0  0  0  0  0  0  0  0  0  0  0
    1.7497   -5.6771   26.4971 C   0  0  0  0  0  0  0  0  0  0  0  0
   -1.5799   -9.9322   18.3468 C   0  0  0  0  0  0  0  0  0  0  0  0
   -1.0871  -12.2214   17.8851 C   0  0  0  0  0  0  0  0  0  0  0  0
   -2.2706   -8.9669   19.0691 C   0  0  0  0  0  0  0  0  0  0  0  0
    3.0279   -5.3073   26.8197 C   0  0  0  0  0  0  0  0  0  0  0  0
    7.3282   -3.8948   29.1186 C   0  0  0  0  0  0  0  0  0  0  0  0
  1  3  4  0
  1  7  4  0
  2  3  1  0
  2  6  4  0
  2 16  4  0
  3 22  4  0
  4  9  4  0
  4 10  1  0
  4 20  4  0
  5 16  4  0
  5 23  4  0
  6 15  4  0
  7 12  4  0
  8 13  4  0
  8 14  4  0
  9 11  4  0
 11 14  4  0
 11 19  4  0
 12 18  4  0
 13 21  4  0
 15 23  4  0
 17 19  4  0
 17 20  4  0
 18 22  4  0
 19 21  4  0
M  END
$$$$

 Created by Python create_sdf_string function

 23 25  0  0  0  0  0  0  0  0999 V2000
    2.4610   -5.3070   29.1240 C   0  0  0  0  0  0  0  0  0  0  0  0
    4.7710   -4.6952   28.4803 C   0  0  0  0  0  0  0  0  0  0  0  0
    3.4047   -5.1087   28.1314 C   0  0  0  0  0  0  0  0  0  0  0  0
   -0.2234  -11.8615   16.8874 C   0  0  0  0  0  0  0  0  0  0  0  0
    6.4491   -4.1532   30.1213 C   0  0  0  0  0  0  0  0  0  0  0  0
    5.7060   -4.4340   27.4975 C   0  0  0  0  0  0  0  0  0  0  0  0
    1.1818   -5.6612   28.8399 C   0  0  0  0  0  0  0  0  0  0  0  0
   -1.2067   -7.3287   17.7772 C   0  0  0  0  0  0  0  0  0  0  0  0
   -0.0206  -10.5585   16.6210 C   0  0  0  0  0  0  0  0  0  0  0  0
    0.3696  -12.7626   16.2169 O   0  0  0  0  0  0  0  0  0  0  0  0
   -0.6895   -9.5676   17.3297 C   0  0  0  0  0  0  0  0  0  0  0  0
    0.8388   -5.8417   27.5264 C   0  0  0  0  0  0  0  0  0  0  0  0
   -2.0709   -7.6637   18.7817 C   0  0  0  0  0  0  0  0  0  0  0  0
   -0.5279   -8.2168   17.0717 C   0  0  0  0  0  0  0  0  0  0  0  0
    6.9694   -4.0191   27.8190 C   0  0  0  0  0  0  0  0  0  0  0  0
    5.1733   -4.5469   29.8123 C   0  0  0  0  0  0  0  0  0  0  0  0
   -1.7508  -11.3016   18.6072 C   0  0  0  0  0  0  0  0  0  0  0  0
    1.7497   -5.6771   26.4971 C   0  0  0  0  0  0  0  0  0  0  0  0
   -1.5799   -9.9322   18.3468 C   0  0  0  0  0  0  0  0  0  0  0  0
   -1.0871  -12.2214   17.8851 C   0  0  0  0  0  0  0  0  0  0  0  0
   -2.2706   -8.9669   19.0691 C   0  0  0  0  0  0  0  0  0  0  0  0
    3.0279   -5.3073   26.8197 C   0  0  0  0  0  0  0  0  0  0  0  0
    7.3282   -3.8948   29.1186 C   0  0  0  0  0  0  0  0  0  0  0  0
  1  3  4  0
  1  7  4  0
  2  3  1  0
  2  6  4  0
  2 16  4  0
  3 22  4  0
  4  9  4  0
  4 10  1  0
  4 20  4  0
  5 16  4  0
  5 23  4  0
  6 15  4  0
  7 12  4  0
  8 13  4  0
  8 14  4  0
  9 11  4  0
 11 14  4  0
 11 19  4  0
 12 18  4  0
 13 21  4  0
 15 23  4  0
 17 19  4  0
 17 20  4  0
 18 22  4  0
 19 21  4  0
M  END
$$$$

 Created by Python create_sdf_string function

 23 25  0  0  0  0  0  0  0  0999 V2000
    2.4610   -5.3070   29.1240 C   0  0  0  0  0  0  0  0  0  0  0  0
    4.7710   -4.6952   28.4803 C   0  0  0  0  0  0  0  0  0  0  0  0
    3.4047   -5.1087   28.1314 C   0  0  0  0  0  0  0  0  0  0  0  0
   -0.2234  -11.8615   16.8874 C   0  0  0  0  0  0  0  0  0  0  0  0
    6.4491   -4.1532   30.1213 C   0  0  0  0  0  0  0  0  0  0  0  0
    5.7060   -4.4340   27.4975 C   0  0  0  0  0  0  0  0  0  0  0  0
    1.1818   -5.6612   28.8399 C   0  0  0  0  0  0  0  0  0  0  0  0
   -1.2067   -7.3287   17.7772 C   0  0  0  0  0  0  0  0  0  0  0  0
   -0.0206  -10.5585   16.6210 C   0  0  0  0  0  0  0  0  0  0  0  0
    0.3696  -12.7626   16.2169 O   0  0  0  0  0  0  0  0  0  0  0  0
   -0.6895   -9.5676   17.3297 C   0  0  0  0  0  0  0  0  0  0  0  0
    0.8388   -5.8417   27.5264 C   0  0  0  0  0  0  0  0  0  0  0  0
   -2.0709   -7.6637   18.7817 C   0  0  0  0  0  0  0  0  0  0  0  0
   -0.5279   -8.2168   17.0717 C   0  0  0  0  0  0  0  0  0  0  0  0
    6.9694   -4.0191   27.8190 C   0  0  0  0  0  0  0  0  0  0  0  0
    5.1733   -4.5469   29.8123 C   0  0  0  0  0  0  0  0  0  0  0  0
   -1.7508  -11.3016   18.6072 C   0  0  0  0  0  0  0  0  0  0  0  0
    1.7497   -5.6771   26.4971 C   0  0  0  0  0  0  0  0  0  0  0  0
   -1.5799   -9.9322   18.3468 C   0  0  0  0  0  0  0  0  0  0  0  0
   -1.0871  -12.2214   17.8851 C   0  0  0  0  0  0  0  0  0  0  0  0
   -2.2706   -8.9669   19.0691 C   0  0  0  0  0  0  0  0  0  0  0  0
    3.0279   -5.3073   26.8197 C   0  0  0  0  0  0  0  0  0  0  0  0
    7.3282   -3.8948   29.1186 C   0  0  0  0  0  0  0  0  0  0  0  0
  1  3  4  0
  1  7  4  0
  2  3  1  0
  2  6  4  0
  2 16  4  0
  3 22  4  0
  4  9  4  0
  4 10  1  0
  4 20  4  0
  5 16  4  0
  5 23  4  0
  6 15  4  0
  7 12  4  0
  8 13  4  0
  8 14  4  0
  9 11  4  0
 11 14  4  0
 11 19  4  0
 12 18  4  0
 13 21  4  0
 15 23  4  0
 17 19  4  0
 17 20  4  0
 18 22  4  0
 19 21  4  0
M  END
$$$$

 Created by Python create_sdf_string function

 23 25  0  0  0  0  0  0  0  0999 V2000
    2.4610   -5.3070   29.1240 C   0  0  0  0  0  0  0  0  0  0  0  0
    4.7710   -4.6952   28.4803 C   0  0  0  0  0  0  0  0  0  0  0  0
    3.4047   -5.1087   28.1314 C   0  0  0  0  0  0  0  0  0  0  0  0
   -0.2234  -11.8615   16.8874 C   0  0  0  0  0  0  0  0  0  0  0  0
    6.4491   -4.1532   30.1213 C   0  0  0  0  0  0  0  0  0  0  0  0
    5.7060   -4.4340   27.4975 C   0  0  0  0  0  0  0  0  0  0  0  0
    1.1818   -5.6612   28.8399 C   0  0  0  0  0  0  0  0  0  0  0  0
   -1.2067   -7.3287   17.7772 C   0  0  0  0  0  0  0  0  0  0  0  0
   -0.0206  -10.5585   16.6210 C   0  0  0  0  0  0  0  0  0  0  0  0
    0.3696  -12.7626   16.2169 O   0  0  0  0  0  0  0  0  0  0  0  0
   -0.6895   -9.5676   17.3297 C   0  0  0  0  0  0  0  0  0  0  0  0
    0.8388   -5.8417   27.5264 C   0  0  0  0  0  0  0  0  0  0  0  0
   -2.0709   -7.6637   18.7817 C   0  0  0  0  0  0  0  0  0  0  0  0
   -0.5279   -8.2168   17.0717 C   0  0  0  0  0  0  0  0  0  0  0  0
    6.9694   -4.0191   27.8190 C   0  0  0  0  0  0  0  0  0  0  0  0
    5.1733   -4.5469   29.8123 C   0  0  0  0  0  0  0  0  0  0  0  0
   -1.7508  -11.3016   18.6072 C   0  0  0  0  0  0  0  0  0  0  0  0
    1.7497   -5.6771   26.4971 C   0  0  0  0  0  0  0  0  0  0  0  0
   -1.5799   -9.9322   18.3468 C   0  0  0  0  0  0  0  0  0  0  0  0
   -1.0871  -12.2214   17.8851 C   0  0  0  0  0  0  0  0  0  0  0  0
   -2.2706   -8.9669   19.0691 C   0  0  0  0  0  0  0  0  0  0  0  0
    3.0279   -5.3073   26.8197 C   0  0  0  0  0  0  0  0  0  0  0  0
    7.3282   -3.8948   29.1186 C   0  0  0  0  0  0  0  0  0  0  0  0
  1  3  4  0
  1  7  4  0
  2  3  1  0
  2  6  4  0
  2 16  4  0
  3 22  4  0
  4  9  4  0
  4 10  1  0
  4 20  4  0
  5 16  4  0
  5 23  4  0
  6 15  4  0
  7 12  4  0
  8 13  4  0
  8 14  4  0
  9 11  4  0
 11 14  4  0
 11 19  4  0
 12 18  4  0
 13 21  4  0
 15 23  4  0
 17 19  4  0
 17 20  4  0
 18 22  4  0
 19 21  4  0
M  END
$$$$

 Created by Python create_sdf_string function

 23 25  0  0  0  0  0  0  0  0999 V2000
    2.4610   -5.3070   29.1240 C   0  0  0  0  0  0  0  0  0  0  0  0
    4.7710   -4.6952   28.4803 C   0  0  0  0  0  0  0  0  0  0  0  0
    3.4047   -5.1087   28.1314 C   0  0  0  0  0  0  0  0  0  0  0  0
   -0.2234  -11.8615   16.8874 C   0  0  0  0  0  0  0  0  0  0  0  0
    6.4491   -4.1532   30.1213 C   0  0  0  0  0  0  0  0  0  0  0  0
    5.7060   -4.4340   27.4975 C   0  0  0  0  0  0  0  0  0  0  0  0
    1.1818   -5.6612   28.8399 C   0  0  0  0  0  0  0  0  0  0  0  0
   -1.2067   -7.3287   17.7772 C   0  0  0  0  0  0  0  0  0  0  0  0
   -0.0206  -10.5585   16.6210 C   0  0  0  0  0  0  0  0  0  0  0  0
    0.3696  -12.7626   16.2169 O   0  0  0  0  0  0  0  0  0  0  0  0
   -0.6895   -9.5676   17.3297 C   0  0  0  0  0  0  0  0  0  0  0  0
    0.8388   -5.8417   27.5264 C   0  0  0  0  0  0  0  0  0  0  0  0
   -2.0709   -7.6637   18.7817 C   0  0  0  0  0  0  0  0  0  0  0  0
   -0.5279   -8.2168   17.0717 C   0  0  0  0  0  0  0  0  0  0  0  0
    6.9694   -4.0191   27.8190 C   0  0  0  0  0  0  0  0  0  0  0  0
    5.1733   -4.5469   29.8123 C   0  0  0  0  0  0  0  0  0  0  0  0
   -1.7508  -11.3016   18.6072 C   0  0  0  0  0  0  0  0  0  0  0  0
    1.7497   -5.6771   26.4971 C   0  0  0  0  0  0  0  0  0  0  0  0
   -1.5799   -9.9322   18.3468 C   0  0  0  0  0  0  0  0  0  0  0  0
   -1.0871  -12.2214   17.8851 C   0  0  0  0  0  0  0  0  0  0  0  0
   -2.2706   -8.9669   19.0691 C   0  0  0  0  0  0  0  0  0  0  0  0
    3.0279   -5.3073   26.8197 C   0  0  0  0  0  0  0  0  0  0  0  0
    7.3282   -3.8948   29.1186 C   0  0  0  0  0  0  0  0  0  0  0  0
  1  3  4  0
  1  7  4  0
  2  3  1  0
  2  6  4  0
  2 16  4  0
  3 22  4  0
  4  9  4  0
  4 10  1  0
  4 20  4  0
  5 16  4  0
  5 23  4  0
  6 15  4  0
  7 12  4  0
  8 13  4  0
  8 14  4  0
  9 11  4  0
 11 14  4  0
 11 19  4  0
 12 18  4  0
 13 21  4  0
 15 23  4  0
 17 19  4  0
 17 20  4  0
 18 22  4  0
 19 21  4  0
M  END
$$$$

 Created by Python create_sdf_string function

 23 25  0  0  0  0  0  0  0  0999 V2000
    2.4610   -5.3070   29.1240 C   0  0  0  0  0  0  0  0  0  0  0  0
    4.7710   -4.6952   28.4803 C   0  0  0  0  0  0  0  0  0  0  0  0
    3.4047   -5.1087   28.1314 C   0  0  0  0  0  0  0  0  0  0  0  0
   -0.2234  -11.8615   16.8874 C   0  0  0  0  0  0  0  0  0  0  0  0
    6.4491   -4.1532   30.1213 C   0  0  0  0  0  0  0  0  0  0  0  0
    5.7060   -4.4340   27.4975 C   0  0  0  0  0  0  0  0  0  0  0  0
    1.1818   -5.6612   28.8399 C   0  0  0  0  0  0  0  0  0  0  0  0
   -1.2067   -7.3287   17.7772 C   0  0  0  0  0  0  0  0  0  0  0  0
   -0.0206  -10.5585   16.6210 C   0  0  0  0  0  0  0  0  0  0  0  0
    0.3696  -12.7626   16.2169 O   0  0  0  0  0  0  0  0  0  0  0  0
   -0.6895   -9.5676   17.3297 C   0  0  0  0  0  0  0  0  0  0  0  0
    0.8388   -5.8417   27.5264 C   0  0  0  0  0  0  0  0  0  0  0  0
   -2.0709   -7.6637   18.7817 C   0  0  0  0  0  0  0  0  0  0  0  0
   -0.5279   -8.2168   17.0717 C   0  0  0  0  0  0  0  0  0  0  0  0
    6.9694   -4.0191   27.8190 C   0  0  0  0  0  0  0  0  0  0  0  0
    5.1733   -4.5469   29.8123 C   0  0  0  0  0  0  0  0  0  0  0  0
   -1.7508  -11.3016   18.6072 C   0  0  0  0  0  0  0  0  0  0  0  0
    1.7497   -5.6771   26.4971 C   0  0  0  0  0  0  0  0  0  0  0  0
   -1.5799   -9.9322   18.3468 C   0  0  0  0  0  0  0  0  0  0  0  0
   -1.0871  -12.2214   17.8851 C   0  0  0  0  0  0  0  0  0  0  0  0
   -2.2706   -8.9669   19.0691 C   0  0  0  0  0  0  0  0  0  0  0  0
    3.0279   -5.3073   26.8197 C   0  0  0  0  0  0  0  0  0  0  0  0
    7.3282   -3.8948   29.1186 C   0  0  0  0  0  0  0  0  0  0  0  0
  1  3  4  0
  1  7  4  0
  2  3  1  0
  2  6  4  0
  2 16  4  0
  3 22  4  0
  4  9  4  0
  4 10  1  0
  4 20  4  0
  5 16  4  0
  5 23  4  0
  6 15  4  0
  7 12  4  0
  8 13  4  0
  8 14  4  0
  9 11  4  0
 11 14  4  0
 11 19  4  0
 12 18  4  0
 13 21  4  0
 15 23  4  0
 17 19  4  0
 17 20  4  0
 18 22  4  0
 19 21  4  0
M  END
$$$$

 Created by Python create_sdf_string function

 23 25  0  0  0  0  0  0  0  0999 V2000
    2.4610   -5.3070   29.1240 C   0  0  0  0  0  0  0  0  0  0  0  0
    4.7710   -4.6952   28.4803 C   0  0  0  0  0  0  0  0  0  0  0  0
    3.4047   -5.1087   28.1314 C   0  0  0  0  0  0  0  0  0  0  0  0
   -0.2234  -11.8615   16.8874 C   0  0  0  0  0  0  0  0  0  0  0  0
    6.4491   -4.1532   30.1213 C   0  0  0  0  0  0  0  0  0  0  0  0
    5.7060   -4.4340   27.4975 C   0  0  0  0  0  0  0  0  0  0  0  0
    1.1818   -5.6612   28.8399 C   0  0  0  0  0  0  0  0  0  0  0  0
   -1.2067   -7.3287   17.7772 C   0  0  0  0  0  0  0  0  0  0  0  0
   -0.0206  -10.5585   16.6210 C   0  0  0  0  0  0  0  0  0  0  0  0
    0.3696  -12.7626   16.2169 O   0  0  0  0  0  0  0  0  0  0  0  0
   -0.6895   -9.5676   17.3297 C   0  0  0  0  0  0  0  0  0  0  0  0
    0.8388   -5.8417   27.5264 C   0  0  0  0  0  0  0  0  0  0  0  0
   -2.0709   -7.6637   18.7817 C   0  0  0  0  0  0  0  0  0  0  0  0
   -0.5279   -8.2168   17.0717 C   0  0  0  0  0  0  0  0  0  0  0  0
    6.9694   -4.0191   27.8190 C   0  0  0  0  0  0  0  0  0  0  0  0
    5.1733   -4.5469   29.8123 C   0  0  0  0  0  0  0  0  0  0  0  0
   -1.7508  -11.3016   18.6072 C   0  0  0  0  0  0  0  0  0  0  0  0
    1.7497   -5.6771   26.4971 C   0  0  0  0  0  0  0  0  0  0  0  0
   -1.5799   -9.9322   18.3468 C   0  0  0  0  0  0  0  0  0  0  0  0
   -1.0871  -12.2214   17.8851 C   0  0  0  0  0  0  0  0  0  0  0  0
   -2.2706   -8.9669   19.0691 C   0  0  0  0  0  0  0  0  0  0  0  0
    3.0279   -5.3073   26.8197 C   0  0  0  0  0  0  0  0  0  0  0  0
    7.3282   -3.8948   29.1186 C   0  0  0  0  0  0  0  0  0  0  0  0
  1  3  4  0
  1  7  4  0
  2  3  1  0
  2  6  4  0
  2 16  4  0
  3 22  4  0
  4  9  4  0
  4 10  1  0
  4 20  4  0
  5 16  4  0
  5 23  4  0
  6 15  4  0
  7 12  4  0
  8 13  4  0
  8 14  4  0
  9 11  4  0
 11 14  4  0
 11 19  4  0
 12 18  4  0
 13 21  4  0
 15 23  4  0
 17 19  4  0
 17 20  4  0
 18 22  4  0
 19 21  4  0
M  END
$$$$

 Created by Python create_sdf_string function

 23 25  0  0  0  0  0  0  0  0999 V2000
    2.4610   -5.3070   29.1240 C   0  0  0  0  0  0  0  0  0  0  0  0
    4.7710   -4.6952   28.4803 C   0  0  0  0  0  0  0  0  0  0  0  0
    3.4047   -5.1087   28.1314 C   0  0  0  0  0  0  0  0  0  0  0  0
   -0.2234  -11.8615   16.8874 C   0  0  0  0  0  0  0  0  0  0  0  0
    6.4491   -4.1532   30.1213 C   0  0  0  0  0  0  0  0  0  0  0  0
    5.7060   -4.4340   27.4975 C   0  0  0  0  0  0  0  0  0  0  0  0
    1.1818   -5.6612   28.8399 C   0  0  0  0  0  0  0  0  0  0  0  0
   -1.2067   -7.3287   17.7772 C   0  0  0  0  0  0  0  0  0  0  0  0
   -0.0206  -10.5585   16.6210 C   0  0  0  0  0  0  0  0  0  0  0  0
    0.3696  -12.7626   16.2169 O   0  0  0  0  0  0  0  0  0  0  0  0
   -0.6895   -9.5676   17.3297 C   0  0  0  0  0  0  0  0  0  0  0  0
    0.8388   -5.8417   27.5264 C   0  0  0  0  0  0  0  0  0  0  0  0
   -2.0709   -7.6637   18.7817 C   0  0  0  0  0  0  0  0  0  0  0  0
   -0.5279   -8.2168   17.0717 C   0  0  0  0  0  0  0  0  0  0  0  0
    6.9694   -4.0191   27.8190 C   0  0  0  0  0  0  0  0  0  0  0  0
    5.1733   -4.5469   29.8123 C   0  0  0  0  0  0  0  0  0  0  0  0
   -1.7508  -11.3016   18.6072 C   0  0  0  0  0  0  0  0  0  0  0  0
    1.7497   -5.6771   26.4971 C   0  0  0  0  0  0  0  0  0  0  0  0
   -1.5799   -9.9322   18.3468 C   0  0  0  0  0  0  0  0  0  0  0  0
   -1.0871  -12.2214   17.8851 C   0  0  0  0  0  0  0  0  0  0  0  0
   -2.2706   -8.9669   19.0691 C   0  0  0  0  0  0  0  0  0  0  0  0
    3.0279   -5.3073   26.8197 C   0  0  0  0  0  0  0  0  0  0  0  0
    7.3282   -3.8948   29.1186 C   0  0  0  0  0  0  0  0  0  0  0  0
  1  3  4  0
  1  7  4  0
  2  3  1  0
  2  6  4  0
  2 16  4  0
  3 22  4  0
  4  9  4  0
  4 10  1  0
  4 20  4  0
  5 16  4  0
  5 23  4  0
  6 15  4  0
  7 12  4  0
  8 13  4  0
  8 14  4  0
  9 11  4  0
 11 14  4  0
 11 19  4  0
 12 18  4  0
 13 21  4  0
 15 23  4  0
 17 19  4  0
 17 20  4  0
 18 22  4  0
 19 21  4  0
M  END
$$$$

 Created by Python create_sdf_string function

 23 25  0  0  0  0  0  0  0  0999 V2000
    2.4610   -5.3070   29.1240 C   0  0  0  0  0  0  0  0  0  0  0  0
    4.7710   -4.6952   28.4803 C   0  0  0  0  0  0  0  0  0  0  0  0
    3.4047   -5.1087   28.1314 C   0  0  0  0  0  0  0  0  0  0  0  0
   -0.2234  -11.8615   16.8874 C   0  0  0  0  0  0  0  0  0  0  0  0
    6.4491   -4.1532   30.1213 C   0  0  0  0  0  0  0  0  0  0  0  0
    5.7060   -4.4340   27.4975 C   0  0  0  0  0  0  0  0  0  0  0  0
    1.1818   -5.6612   28.8399 C   0  0  0  0  0  0  0  0  0  0  0  0
   -1.2067   -7.3287   17.7772 C   0  0  0  0  0  0  0  0  0  0  0  0
   -0.0206  -10.5585   16.6210 C   0  0  0  0  0  0  0  0  0  0  0  0
    0.3696  -12.7626   16.2169 O   0  0  0  0  0  0  0  0  0  0  0  0
   -0.6895   -9.5676   17.3297 C   0  0  0  0  0  0  0  0  0  0  0  0
    0.8388   -5.8417   27.5264 C   0  0  0  0  0  0  0  0  0  0  0  0
   -2.0709   -7.6637   18.7817 C   0  0  0  0  0  0  0  0  0  0  0  0
   -0.5279   -8.2168   17.0717 C   0  0  0  0  0  0  0  0  0  0  0  0
    6.9694   -4.0191   27.8190 C   0  0  0  0  0  0  0  0  0  0  0  0
    5.1733   -4.5469   29.8123 C   0  0  0  0  0  0  0  0  0  0  0  0
   -1.7508  -11.3016   18.6072 C   0  0  0  0  0  0  0  0  0  0  0  0
    1.7497   -5.6771   26.4971 C   0  0  0  0  0  0  0  0  0  0  0  0
   -1.5799   -9.9322   18.3468 C   0  0  0  0  0  0  0  0  0  0  0  0
   -1.0871  -12.2214   17.8851 C   0  0  0  0  0  0  0  0  0  0  0  0
   -2.2706   -8.9669   19.0691 C   0  0  0  0  0  0  0  0  0  0  0  0
    3.0279   -5.3073   26.8197 C   0  0  0  0  0  0  0  0  0  0  0  0
    7.3282   -3.8948   29.1186 C   0  0  0  0  0  0  0  0  0  0  0  0
  1  3  4  0
  1  7  4  0
  2  3  1  0
  2  6  4  0
  2 16  4  0
  3 22  4  0
  4  9  4  0
  4 10  1  0
  4 20  4  0
  5 16  4  0
  5 23  4  0
  6 15  4  0
  7 12  4  0
  8 13  4  0
  8 14  4  0
  9 11  4  0
 11 14  4  0
 11 19  4  0
 12 18  4  0
 13 21  4  0
 15 23  4  0
 17 19  4  0
 17 20  4  0
 18 22  4  0
 19 21  4  0
M  END
$$$$

 Created by Python create_sdf_string function

 23 25  0  0  0  0  0  0  0  0999 V2000
    2.4610   -5.3070   29.1240 C   0  0  0  0  0  0  0  0  0  0  0  0
    4.7710   -4.6952   28.4803 C   0  0  0  0  0  0  0  0  0  0  0  0
    3.4047   -5.1087   28.1314 C   0  0  0  0  0  0  0  0  0  0  0  0
   -0.2234  -11.8615   16.8874 C   0  0  0  0  0  0  0  0  0  0  0  0
    6.4491   -4.1532   30.1213 C   0  0  0  0  0  0  0  0  0  0  0  0
    5.7060   -4.4340   27.4975 C   0  0  0  0  0  0  0  0  0  0  0  0
    1.1818   -5.6612   28.8399 C   0  0  0  0  0  0  0  0  0  0  0  0
   -1.2067   -7.3287   17.7772 C   0  0  0  0  0  0  0  0  0  0  0  0
   -0.0206  -10.5585   16.6210 C   0  0  0  0  0  0  0  0  0  0  0  0
    0.3696  -12.7626   16.2169 O   0  0  0  0  0  0  0  0  0  0  0  0
   -0.6895   -9.5676   17.3297 C   0  0  0  0  0  0  0  0  0  0  0  0
    0.8388   -5.8417   27.5264 C   0  0  0  0  0  0  0  0  0  0  0  0
   -2.0709   -7.6637   18.7817 C   0  0  0  0  0  0  0  0  0  0  0  0
   -0.5279   -8.2168   17.0717 C   0  0  0  0  0  0  0  0  0  0  0  0
    6.9694   -4.0191   27.8190 C   0  0  0  0  0  0  0  0  0  0  0  0
    5.1733   -4.5469   29.8123 C   0  0  0  0  0  0  0  0  0  0  0  0
   -1.7508  -11.3016   18.6072 C   0  0  0  0  0  0  0  0  0  0  0  0
    1.7497   -5.6771   26.4971 C   0  0  0  0  0  0  0  0  0  0  0  0
   -1.5799   -9.9322   18.3468 C   0  0  0  0  0  0  0  0  0  0  0  0
   -1.0871  -12.2214   17.8851 C   0  0  0  0  0  0  0  0  0  0  0  0
   -2.2706   -8.9669   19.0691 C   0  0  0  0  0  0  0  0  0  0  0  0
    3.0279   -5.3073   26.8197 C   0  0  0  0  0  0  0  0  0  0  0  0
    7.3282   -3.8948   29.1186 C   0  0  0  0  0  0  0  0  0  0  0  0
  1  3  4  0
  1  7  4  0
  2  3  1  0
  2  6  4  0
  2 16  4  0
  3 22  4  0
  4  9  4  0
  4 10  1  0
  4 20  4  0
  5 16  4  0
  5 23  4  0
  6 15  4  0
  7 12  4  0
  8 13  4  0
  8 14  4  0
  9 11  4  0
 11 14  4  0
 11 19  4  0
 12 18  4  0
 13 21  4  0
 15 23  4  0
 17 19  4  0
 17 20  4  0
 18 22  4  0
 19 21  4  0
M  END
$$$$

 Created by Python create_sdf_string function

 23 25  0  0  0  0  0  0  0  0999 V2000
    2.4610   -5.3070   29.1240 C   0  0  0  0  0  0  0  0  0  0  0  0
    4.7710   -4.6952   28.4803 C   0  0  0  0  0  0  0  0  0  0  0  0
    3.4047   -5.1087   28.1314 C   0  0  0  0  0  0  0  0  0  0  0  0
   -0.2234  -11.8615   16.8874 C   0  0  0  0  0  0  0  0  0  0  0  0
    6.4491   -4.1532   30.1213 C   0  0  0  0  0  0  0  0  0  0  0  0
    5.7060   -4.4340   27.4975 C   0  0  0  0  0  0  0  0  0  0  0  0
    1.1818   -5.6612   28.8399 C   0  0  0  0  0  0  0  0  0  0  0  0
   -1.2067   -7.3287   17.7772 C   0  0  0  0  0  0  0  0  0  0  0  0
   -0.0206  -10.5585   16.6210 C   0  0  0  0  0  0  0  0  0  0  0  0
    0.3696  -12.7626   16.2169 O   0  0  0  0  0  0  0  0  0  0  0  0
   -0.6895   -9.5676   17.3297 C   0  0  0  0  0  0  0  0  0  0  0  0
    0.8388   -5.8417   27.5264 C   0  0  0  0  0  0  0  0  0  0  0  0
   -2.0709   -7.6637   18.7817 C   0  0  0  0  0  0  0  0  0  0  0  0
   -0.5279   -8.2168   17.0717 C   0  0  0  0  0  0  0  0  0  0  0  0
    6.9694   -4.0191   27.8190 C   0  0  0  0  0  0  0  0  0  0  0  0
    5.1733   -4.5469   29.8123 C   0  0  0  0  0  0  0  0  0  0  0  0
   -1.7508  -11.3016   18.6072 C   0  0  0  0  0  0  0  0  0  0  0  0
    1.7497   -5.6771   26.4971 C   0  0  0  0  0  0  0  0  0  0  0  0
   -1.5799   -9.9322   18.3468 C   0  0  0  0  0  0  0  0  0  0  0  0
   -1.0871  -12.2214   17.8851 C   0  0  0  0  0  0  0  0  0  0  0  0
   -2.2706   -8.9669   19.0691 C   0  0  0  0  0  0  0  0  0  0  0  0
    3.0279   -5.3073   26.8197 C   0  0  0  0  0  0  0  0  0  0  0  0
    7.3282   -3.8948   29.1186 C   0  0  0  0  0  0  0  0  0  0  0  0
  1  3  4  0
  1  7  4  0
  2  3  1  0
  2  6  4  0
  2 16  4  0
  3 22  4  0
  4  9  4  0
  4 10  1  0
  4 20  4  0
  5 16  4  0
  5 23  4  0
  6 15  4  0
  7 12  4  0
  8 13  4  0
  8 14  4  0
  9 11  4  0
 11 14  4  0
 11 19  4  0
 12 18  4  0
 13 21  4  0
 15 23  4  0
 17 19  4  0
 17 20  4  0
 18 22  4  0
 19 21  4  0
M  END
$$$$

 Created by Python create_sdf_string function

 23 25  0  0  0  0  0  0  0  0999 V2000
    2.4610   -5.3070   29.1240 C   0  0  0  0  0  0  0  0  0  0  0  0
    4.7710   -4.6952   28.4803 C   0  0  0  0  0  0  0  0  0  0  0  0
    3.4047   -5.1087   28.1314 C   0  0  0  0  0  0  0  0  0  0  0  0
   -0.2234  -11.8615   16.8874 C   0  0  0  0  0  0  0  0  0  0  0  0
    6.4491   -4.1532   30.1213 C   0  0  0  0  0  0  0  0  0  0  0  0
    5.7060   -4.4340   27.4975 C   0  0  0  0  0  0  0  0  0  0  0  0
    1.1818   -5.6612   28.8399 C   0  0  0  0  0  0  0  0  0  0  0  0
   -1.2067   -7.3287   17.7772 C   0  0  0  0  0  0  0  0  0  0  0  0
   -0.0206  -10.5585   16.6210 C   0  0  0  0  0  0  0  0  0  0  0  0
    0.3696  -12.7626   16.2169 O   0  0  0  0  0  0  0  0  0  0  0  0
   -0.6895   -9.5676   17.3297 C   0  0  0  0  0  0  0  0  0  0  0  0
    0.8388   -5.8417   27.5264 C   0  0  0  0  0  0  0  0  0  0  0  0
   -2.0709   -7.6637   18.7817 C   0  0  0  0  0  0  0  0  0  0  0  0
   -0.5279   -8.2168   17.0717 C   0  0  0  0  0  0  0  0  0  0  0  0
    6.9694   -4.0191   27.8190 C   0  0  0  0  0  0  0  0  0  0  0  0
    5.1733   -4.5469   29.8123 C   0  0  0  0  0  0  0  0  0  0  0  0
   -1.7508  -11.3016   18.6072 C   0  0  0  0  0  0  0  0  0  0  0  0
    1.7497   -5.6771   26.4971 C   0  0  0  0  0  0  0  0  0  0  0  0
   -1.5799   -9.9322   18.3468 C   0  0  0  0  0  0  0  0  0  0  0  0
   -1.0871  -12.2214   17.8851 C   0  0  0  0  0  0  0  0  0  0  0  0
   -2.2706   -8.9669   19.0691 C   0  0  0  0  0  0  0  0  0  0  0  0
    3.0279   -5.3073   26.8197 C   0  0  0  0  0  0  0  0  0  0  0  0
    7.3282   -3.8948   29.1186 C   0  0  0  0  0  0  0  0  0  0  0  0
  1  3  4  0
  1  7  4  0
  2  3  1  0
  2  6  4  0
  2 16  4  0
  3 22  4  0
  4  9  4  0
  4 10  1  0
  4 20  4  0
  5 16  4  0
  5 23  4  0
  6 15  4  0
  7 12  4  0
  8 13  4  0
  8 14  4  0
  9 11  4  0
 11 14  4  0
 11 19  4  0
 12 18  4  0
 13 21  4  0
 15 23  4  0
 17 19  4  0
 17 20  4  0
 18 22  4  0
 19 21  4  0
M  END
$$$$

 Created by Python create_sdf_string function

 23 25  0  0  0  0  0  0  0  0999 V2000
    2.4610   -5.3070   29.1240 C   0  0  0  0  0  0  0  0  0  0  0  0
    4.7710   -4.6952   28.4803 C   0  0  0  0  0  0  0  0  0  0  0  0
    3.4047   -5.1087   28.1314 C   0  0  0  0  0  0  0  0  0  0  0  0
   -0.2234  -11.8615   16.8874 C   0  0  0  0  0  0  0  0  0  0  0  0
    6.4491   -4.1532   30.1213 C   0  0  0  0  0  0  0  0  0  0  0  0
    5.7060   -4.4340   27.4975 C   0  0  0  0  0  0  0  0  0  0  0  0
    1.1818   -5.6612   28.8399 C   0  0  0  0  0  0  0  0  0  0  0  0
   -1.2067   -7.3287   17.7772 C   0  0  0  0  0  0  0  0  0  0  0  0
   -0.0206  -10.5585   16.6210 C   0  0  0  0  0  0  0  0  0  0  0  0
    0.3696  -12.7626   16.2169 O   0  0  0  0  0  0  0  0  0  0  0  0
   -0.6895   -9.5676   17.3297 C   0  0  0  0  0  0  0  0  0  0  0  0
    0.8388   -5.8417   27.5264 C   0  0  0  0  0  0  0  0  0  0  0  0
   -2.0709   -7.6637   18.7817 C   0  0  0  0  0  0  0  0  0  0  0  0
   -0.5279   -8.2168   17.0717 C   0  0  0  0  0  0  0  0  0  0  0  0
    6.9694   -4.0191   27.8190 C   0  0  0  0  0  0  0  0  0  0  0  0
    5.1733   -4.5469   29.8123 C   0  0  0  0  0  0  0  0  0  0  0  0
   -1.7508  -11.3016   18.6072 C   0  0  0  0  0  0  0  0  0  0  0  0
    1.7497   -5.6771   26.4971 C   0  0  0  0  0  0  0  0  0  0  0  0
   -1.5799   -9.9322   18.3468 C   0  0  0  0  0  0  0  0  0  0  0  0
   -1.0871  -12.2214   17.8851 C   0  0  0  0  0  0  0  0  0  0  0  0
   -2.2706   -8.9669   19.0691 C   0  0  0  0  0  0  0  0  0  0  0  0
    3.0279   -5.3073   26.8197 C   0  0  0  0  0  0  0  0  0  0  0  0
    7.3282   -3.8948   29.1186 C   0  0  0  0  0  0  0  0  0  0  0  0
  1  3  4  0
  1  7  4  0
  2  3  1  0
  2  6  4  0
  2 16  4  0
  3 22  4  0
  4  9  4  0
  4 10  1  0
  4 20  4  0
  5 16  4  0
  5 23  4  0
  6 15  4  0
  7 12  4  0
  8 13  4  0
  8 14  4  0
  9 11  4  0
 11 14  4  0
 11 19  4  0
 12 18  4  0
 13 21  4  0
 15 23  4  0
 17 19  4  0
 17 20  4  0
 18 22  4  0
 19 21  4  0
M  END
$$$$

 Created by Python create_sdf_string function

 23 25  0  0  0  0  0  0  0  0999 V2000
    2.4610   -5.3070   29.1240 C   0  0  0  0  0  0  0  0  0  0  0  0
    4.7710   -4.6952   28.4803 C   0  0  0  0  0  0  0  0  0  0  0  0
    3.4047   -5.1087   28.1314 C   0  0  0  0  0  0  0  0  0  0  0  0
   -0.2234  -11.8615   16.8874 C   0  0  0  0  0  0  0  0  0  0  0  0
    6.4491   -4.1532   30.1213 C   0  0  0  0  0  0  0  0  0  0  0  0
    5.7060   -4.4340   27.4975 C   0  0  0  0  0  0  0  0  0  0  0  0
    1.1818   -5.6612   28.8399 C   0  0  0  0  0  0  0  0  0  0  0  0
   -1.2067   -7.3287   17.7772 C   0  0  0  0  0  0  0  0  0  0  0  0
   -0.0206  -10.5585   16.6210 C   0  0  0  0  0  0  0  0  0  0  0  0
    0.3696  -12.7626   16.2169 O   0  0  0  0  0  0  0  0  0  0  0  0
   -0.6895   -9.5676   17.3297 C   0  0  0  0  0  0  0  0  0  0  0  0
    0.8388   -5.8417   27.5264 C   0  0  0  0  0  0  0  0  0  0  0  0
   -2.0709   -7.6637   18.7817 C   0  0  0  0  0  0  0  0  0  0  0  0
   -0.5279   -8.2168   17.0717 C   0  0  0  0  0  0  0  0  0  0  0  0
    6.9694   -4.0191   27.8190 C   0  0  0  0  0  0  0  0  0  0  0  0
    5.1733   -4.5469   29.8123 C   0  0  0  0  0  0  0  0  0  0  0  0
   -1.7508  -11.3016   18.6072 C   0  0  0  0  0  0  0  0  0  0  0  0
    1.7497   -5.6771   26.4971 C   0  0  0  0  0  0  0  0  0  0  0  0
   -1.5799   -9.9322   18.3468 C   0  0  0  0  0  0  0  0  0  0  0  0
   -1.0871  -12.2214   17.8851 C   0  0  0  0  0  0  0  0  0  0  0  0
   -2.2706   -8.9669   19.0691 C   0  0  0  0  0  0  0  0  0  0  0  0
    3.0279   -5.3073   26.8197 C   0  0  0  0  0  0  0  0  0  0  0  0
    7.3282   -3.8948   29.1186 C   0  0  0  0  0  0  0  0  0  0  0  0
  1  3  4  0
  1  7  4  0
  2  3  1  0
  2  6  4  0
  2 16  4  0
  3 22  4  0
  4  9  4  0
  4 10  1  0
  4 20  4  0
  5 16  4  0
  5 23  4  0
  6 15  4  0
  7 12  4  0
  8 13  4  0
  8 14  4  0
  9 11  4  0
 11 14  4  0
 11 19  4  0
 12 18  4  0
 13 21  4  0
 15 23  4  0
 17 19  4  0
 17 20  4  0
 18 22  4  0
 19 21  4  0
M  END
$$$$

 Created by Python create_sdf_string function

 23 25  0  0  0  0  0  0  0  0999 V2000
    2.4610   -5.3070   29.1240 C   0  0  0  0  0  0  0  0  0  0  0  0
    4.7710   -4.6952   28.4803 C   0  0  0  0  0  0  0  0  0  0  0  0
    3.4047   -5.1087   28.1314 C   0  0  0  0  0  0  0  0  0  0  0  0
   -0.2234  -11.8615   16.8874 C   0  0  0  0  0  0  0  0  0  0  0  0
    6.4491   -4.1532   30.1213 C   0  0  0  0  0  0  0  0  0  0  0  0
    5.7060   -4.4340   27.4975 C   0  0  0  0  0  0  0  0  0  0  0  0
    1.1818   -5.6612   28.8399 C   0  0  0  0  0  0  0  0  0  0  0  0
   -1.2067   -7.3287   17.7772 C   0  0  0  0  0  0  0  0  0  0  0  0
   -0.0206  -10.5585   16.6210 C   0  0  0  0  0  0  0  0  0  0  0  0
    0.3696  -12.7626   16.2169 O   0  0  0  0  0  0  0  0  0  0  0  0
   -0.6895   -9.5676   17.3297 C   0  0  0  0  0  0  0  0  0  0  0  0
    0.8388   -5.8417   27.5264 C   0  0  0  0  0  0  0  0  0  0  0  0
   -2.0709   -7.6637   18.7817 C   0  0  0  0  0  0  0  0  0  0  0  0
   -0.5279   -8.2168   17.0717 C   0  0  0  0  0  0  0  0  0  0  0  0
    6.9694   -4.0191   27.8190 C   0  0  0  0  0  0  0  0  0  0  0  0
    5.1733   -4.5469   29.8123 C   0  0  0  0  0  0  0  0  0  0  0  0
   -1.7508  -11.3016   18.6072 C   0  0  0  0  0  0  0  0  0  0  0  0
    1.7497   -5.6771   26.4971 C   0  0  0  0  0  0  0  0  0  0  0  0
   -1.5799   -9.9322   18.3468 C   0  0  0  0  0  0  0  0  0  0  0  0
   -1.0871  -12.2214   17.8851 C   0  0  0  0  0  0  0  0  0  0  0  0
   -2.2706   -8.9669   19.0691 C   0  0  0  0  0  0  0  0  0  0  0  0
    3.0279   -5.3073   26.8197 C   0  0  0  0  0  0  0  0  0  0  0  0
    7.3282   -3.8948   29.1186 C   0  0  0  0  0  0  0  0  0  0  0  0
  1  3  4  0
  1  7  4  0
  2  3  1  0
  2  6  4  0
  2 16  4  0
  3 22  4  0
  4  9  4  0
  4 10  1  0
  4 20  4  0
  5 16  4  0
  5 23  4  0
  6 15  4  0
  7 12  4  0
  8 13  4  0
  8 14  4  0
  9 11  4  0
 11 14  4  0
 11 19  4  0
 12 18  4  0
 13 21  4  0
 15 23  4  0
 17 19  4  0
 17 20  4  0
 18 22  4  0
 19 21  4  0
M  END
$$$$

 Created by Python create_sdf_string function

 23 25  0  0  0  0  0  0  0  0999 V2000
    2.4610   -5.3070   29.1240 C   0  0  0  0  0  0  0  0  0  0  0  0
    4.7710   -4.6952   28.4803 C   0  0  0  0  0  0  0  0  0  0  0  0
    3.4047   -5.1087   28.1314 C   0  0  0  0  0  0  0  0  0  0  0  0
   -0.2234  -11.8615   16.8874 C   0  0  0  0  0  0  0  0  0  0  0  0
    6.4491   -4.1532   30.1213 C   0  0  0  0  0  0  0  0  0  0  0  0
    5.7060   -4.4340   27.4975 C   0  0  0  0  0  0  0  0  0  0  0  0
    1.1818   -5.6612   28.8399 C   0  0  0  0  0  0  0  0  0  0  0  0
   -1.2067   -7.3287   17.7772 C   0  0  0  0  0  0  0  0  0  0  0  0
   -0.0206  -10.5585   16.6210 C   0  0  0  0  0  0  0  0  0  0  0  0
    0.3696  -12.7626   16.2169 O   0  0  0  0  0  0  0  0  0  0  0  0
   -0.6895   -9.5676   17.3297 C   0  0  0  0  0  0  0  0  0  0  0  0
    0.8388   -5.8417   27.5264 C   0  0  0  0  0  0  0  0  0  0  0  0
   -2.0709   -7.6637   18.7817 C   0  0  0  0  0  0  0  0  0  0  0  0
   -0.5279   -8.2168   17.0717 C   0  0  0  0  0  0  0  0  0  0  0  0
    6.9694   -4.0191   27.8190 C   0  0  0  0  0  0  0  0  0  0  0  0
    5.1733   -4.5469   29.8123 C   0  0  0  0  0  0  0  0  0  0  0  0
   -1.7508  -11.3016   18.6072 C   0  0  0  0  0  0  0  0  0  0  0  0
    1.7497   -5.6771   26.4971 C   0  0  0  0  0  0  0  0  0  0  0  0
   -1.5799   -9.9322   18.3468 C   0  0  0  0  0  0  0  0  0  0  0  0
   -1.0871  -12.2214   17.8851 C   0  0  0  0  0  0  0  0  0  0  0  0
   -2.2706   -8.9669   19.0691 C   0  0  0  0  0  0  0  0  0  0  0  0
    3.0279   -5.3073   26.8197 C   0  0  0  0  0  0  0  0  0  0  0  0
    7.3282   -3.8948   29.1186 C   0  0  0  0  0  0  0  0  0  0  0  0
  1  3  4  0
  1  7  4  0
  2  3  1  0
  2  6  4  0
  2 16  4  0
  3 22  4  0
  4  9  4  0
  4 10  1  0
  4 20  4  0
  5 16  4  0
  5 23  4  0
  6 15  4  0
  7 12  4  0
  8 13  4  0
  8 14  4  0
  9 11  4  0
 11 14  4  0
 11 19  4  0
 12 18  4  0
 13 21  4  0
 15 23  4  0
 17 19  4  0
 17 20  4  0
 18 22  4  0
 19 21  4  0
M  END
$$$$

 Created by Python create_sdf_string function

 23 25  0  0  0  0  0  0  0  0999 V2000
    2.4610   -5.3070   29.1240 C   0  0  0  0  0  0  0  0  0  0  0  0
    4.7710   -4.6952   28.4803 C   0  0  0  0  0  0  0  0  0  0  0  0
    3.4047   -5.1087   28.1314 C   0  0  0  0  0  0  0  0  0  0  0  0
   -0.2234  -11.8615   16.8874 C   0  0  0  0  0  0  0  0  0  0  0  0
    6.4491   -4.1532   30.1213 C   0  0  0  0  0  0  0  0  0  0  0  0
    5.7060   -4.4340   27.4975 C   0  0  0  0  0  0  0  0  0  0  0  0
    1.1818   -5.6612   28.8399 C   0  0  0  0  0  0  0  0  0  0  0  0
   -1.2067   -7.3287   17.7772 C   0  0  0  0  0  0  0  0  0  0  0  0
   -0.0206  -10.5585   16.6210 C   0  0  0  0  0  0  0  0  0  0  0  0
    0.3696  -12.7626   16.2169 O   0  0  0  0  0  0  0  0  0  0  0  0
   -0.6895   -9.5676   17.3297 C   0  0  0  0  0  0  0  0  0  0  0  0
    0.8388   -5.8417   27.5264 C   0  0  0  0  0  0  0  0  0  0  0  0
   -2.0709   -7.6637   18.7817 C   0  0  0  0  0  0  0  0  0  0  0  0
   -0.5279   -8.2168   17.0717 C   0  0  0  0  0  0  0  0  0  0  0  0
    6.9694   -4.0191   27.8190 C   0  0  0  0  0  0  0  0  0  0  0  0
    5.1733   -4.5469   29.8123 C   0  0  0  0  0  0  0  0  0  0  0  0
   -1.7508  -11.3016   18.6072 C   0  0  0  0  0  0  0  0  0  0  0  0
    1.7497   -5.6771   26.4971 C   0  0  0  0  0  0  0  0  0  0  0  0
   -1.5799   -9.9322   18.3468 C   0  0  0  0  0  0  0  0  0  0  0  0
   -1.0871  -12.2214   17.8851 C   0  0  0  0  0  0  0  0  0  0  0  0
   -2.2706   -8.9669   19.0691 C   0  0  0  0  0  0  0  0  0  0  0  0
    3.0279   -5.3073   26.8197 C   0  0  0  0  0  0  0  0  0  0  0  0
    7.3282   -3.8948   29.1186 C   0  0  0  0  0  0  0  0  0  0  0  0
  1  3  4  0
  1  7  4  0
  2  3  1  0
  2  6  4  0
  2 16  4  0
  3 22  4  0
  4  9  4  0
  4 10  1  0
  4 20  4  0
  5 16  4  0
  5 23  4  0
  6 15  4  0
  7 12  4  0
  8 13  4  0
  8 14  4  0
  9 11  4  0
 11 14  4  0
 11 19  4  0
 12 18  4  0
 13 21  4  0
 15 23  4  0
 17 19  4  0
 17 20  4  0
 18 22  4  0
 19 21  4  0
M  END
$$$$

 Created by Python create_sdf_string function

 23 25  0  0  0  0  0  0  0  0999 V2000
    2.4610   -5.3070   29.1240 C   0  0  0  0  0  0  0  0  0  0  0  0
    4.7710   -4.6952   28.4803 C   0  0  0  0  0  0  0  0  0  0  0  0
    3.4047   -5.1087   28.1314 C   0  0  0  0  0  0  0  0  0  0  0  0
   -0.2234  -11.8615   16.8874 C   0  0  0  0  0  0  0  0  0  0  0  0
    6.4491   -4.1532   30.1213 C   0  0  0  0  0  0  0  0  0  0  0  0
    5.7060   -4.4340   27.4975 C   0  0  0  0  0  0  0  0  0  0  0  0
    1.1818   -5.6612   28.8399 C   0  0  0  0  0  0  0  0  0  0  0  0
   -1.2067   -7.3287   17.7772 C   0  0  0  0  0  0  0  0  0  0  0  0
   -0.0206  -10.5585   16.6210 C   0  0  0  0  0  0  0  0  0  0  0  0
    0.3696  -12.7626   16.2169 O   0  0  0  0  0  0  0  0  0  0  0  0
   -0.6895   -9.5676   17.3297 C   0  0  0  0  0  0  0  0  0  0  0  0
    0.8388   -5.8417   27.5264 C   0  0  0  0  0  0  0  0  0  0  0  0
   -2.0709   -7.6637   18.7817 C   0  0  0  0  0  0  0  0  0  0  0  0
   -0.5279   -8.2168   17.0717 C   0  0  0  0  0  0  0  0  0  0  0  0
    6.9694   -4.0191   27.8190 C   0  0  0  0  0  0  0  0  0  0  0  0
    5.1733   -4.5469   29.8123 C   0  0  0  0  0  0  0  0  0  0  0  0
   -1.7508  -11.3016   18.6072 C   0  0  0  0  0  0  0  0  0  0  0  0
    1.7497   -5.6771   26.4971 C   0  0  0  0  0  0  0  0  0  0  0  0
   -1.5799   -9.9322   18.3468 C   0  0  0  0  0  0  0  0  0  0  0  0
   -1.0871  -12.2214   17.8851 C   0  0  0  0  0  0  0  0  0  0  0  0
   -2.2706   -8.9669   19.0691 C   0  0  0  0  0  0  0  0  0  0  0  0
    3.0279   -5.3073   26.8197 C   0  0  0  0  0  0  0  0  0  0  0  0
    7.3282   -3.8948   29.1186 C   0  0  0  0  0  0  0  0  0  0  0  0
  1  3  4  0
  1  7  4  0
  2  3  1  0
  2  6  4  0
  2 16  4  0
  3 22  4  0
  4  9  4  0
  4 10  1  0
  4 20  4  0
  5 16  4  0
  5 23  4  0
  6 15  4  0
  7 12  4  0
  8 13  4  0
  8 14  4  0
  9 11  4  0
 11 14  4  0
 11 19  4  0
 12 18  4  0
 13 21  4  0
 15 23  4  0
 17 19  4  0
 17 20  4  0
 18 22  4  0
 19 21  4  0
M  END
$$$$

 Created by Python create_sdf_string function

 23 25  0  0  0  0  0  0  0  0999 V2000
    2.4610   -5.3070   29.1240 C   0  0  0  0  0  0  0  0  0  0  0  0
    4.7710   -4.6952   28.4803 C   0  0  0  0  0  0  0  0  0  0  0  0
    3.4047   -5.1087   28.1314 C   0  0  0  0  0  0  0  0  0  0  0  0
   -0.2234  -11.8615   16.8874 C   0  0  0  0  0  0  0  0  0  0  0  0
    6.4491   -4.1532   30.1213 C   0  0  0  0  0  0  0  0  0  0  0  0
    5.7060   -4.4340   27.4975 C   0  0  0  0  0  0  0  0  0  0  0  0
    1.1818   -5.6612   28.8399 C   0  0  0  0  0  0  0  0  0  0  0  0
   -1.2067   -7.3287   17.7772 C   0  0  0  0  0  0  0  0  0  0  0  0
   -0.0206  -10.5585   16.6210 C   0  0  0  0  0  0  0  0  0  0  0  0
    0.3696  -12.7626   16.2169 O   0  0  0  0  0  0  0  0  0  0  0  0
   -0.6895   -9.5676   17.3297 C   0  0  0  0  0  0  0  0  0  0  0  0
    0.8388   -5.8417   27.5264 C   0  0  0  0  0  0  0  0  0  0  0  0
   -2.0709   -7.6637   18.7817 C   0  0  0  0  0  0  0  0  0  0  0  0
   -0.5279   -8.2168   17.0717 C   0  0  0  0  0  0  0  0  0  0  0  0
    6.9694   -4.0191   27.8190 C   0  0  0  0  0  0  0  0  0  0  0  0
    5.1733   -4.5469   29.8123 C   0  0  0  0  0  0  0  0  0  0  0  0
   -1.7508  -11.3016   18.6072 C   0  0  0  0  0  0  0  0  0  0  0  0
    1.7497   -5.6771   26.4971 C   0  0  0  0  0  0  0  0  0  0  0  0
   -1.5799   -9.9322   18.3468 C   0  0  0  0  0  0  0  0  0  0  0  0
   -1.0871  -12.2214   17.8851 C   0  0  0  0  0  0  0  0  0  0  0  0
   -2.2706   -8.9669   19.0691 C   0  0  0  0  0  0  0  0  0  0  0  0
    3.0279   -5.3073   26.8197 C   0  0  0  0  0  0  0  0  0  0  0  0
    7.3282   -3.8948   29.1186 C   0  0  0  0  0  0  0  0  0  0  0  0
  1  3  4  0
  1  7  4  0
  2  3  1  0
  2  6  4  0
  2 16  4  0
  3 22  4  0
  4  9  4  0
  4 10  1  0
  4 20  4  0
  5 16  4  0
  5 23  4  0
  6 15  4  0
  7 12  4  0
  8 13  4  0
  8 14  4  0
  9 11  4  0
 11 14  4  0
 11 19  4  0
 12 18  4  0
 13 21  4  0
 15 23  4  0
 17 19  4  0
 17 20  4  0
 18 22  4  0
 19 21  4  0
M  END
$$$$

 Created by Python create_sdf_string function

 23 25  0  0  0  0  0  0  0  0999 V2000
    2.4610   -5.3070   29.1240 C   0  0  0  0  0  0  0  0  0  0  0  0
    4.7710   -4.6952   28.4803 C   0  0  0  0  0  0  0  0  0  0  0  0
    3.4047   -5.1087   28.1314 C   0  0  0  0  0  0  0  0  0  0  0  0
   -0.2234  -11.8615   16.8874 C   0  0  0  0  0  0  0  0  0  0  0  0
    6.4491   -4.1532   30.1213 C   0  0  0  0  0  0  0  0  0  0  0  0
    5.7060   -4.4340   27.4975 C   0  0  0  0  0  0  0  0  0  0  0  0
    1.1818   -5.6612   28.8399 C   0  0  0  0  0  0  0  0  0  0  0  0
   -1.2067   -7.3287   17.7772 C   0  0  0  0  0  0  0  0  0  0  0  0
   -0.0206  -10.5585   16.6210 C   0  0  0  0  0  0  0  0  0  0  0  0
    0.3696  -12.7626   16.2169 O   0  0  0  0  0  0  0  0  0  0  0  0
   -0.6895   -9.5676   17.3297 C   0  0  0  0  0  0  0  0  0  0  0  0
    0.8388   -5.8417   27.5264 C   0  0  0  0  0  0  0  0  0  0  0  0
   -2.0709   -7.6637   18.7817 C   0  0  0  0  0  0  0  0  0  0  0  0
   -0.5279   -8.2168   17.0717 C   0  0  0  0  0  0  0  0  0  0  0  0
    6.9694   -4.0191   27.8190 C   0  0  0  0  0  0  0  0  0  0  0  0
    5.1733   -4.5469   29.8123 C   0  0  0  0  0  0  0  0  0  0  0  0
   -1.7508  -11.3016   18.6072 C   0  0  0  0  0  0  0  0  0  0  0  0
    1.7497   -5.6771   26.4971 C   0  0  0  0  0  0  0  0  0  0  0  0
   -1.5799   -9.9322   18.3468 C   0  0  0  0  0  0  0  0  0  0  0  0
   -1.0871  -12.2214   17.8851 C   0  0  0  0  0  0  0  0  0  0  0  0
   -2.2706   -8.9669   19.0691 C   0  0  0  0  0  0  0  0  0  0  0  0
    3.0279   -5.3073   26.8197 C   0  0  0  0  0  0  0  0  0  0  0  0
    7.3282   -3.8948   29.1186 C   0  0  0  0  0  0  0  0  0  0  0  0
  1  3  4  0
  1  7  4  0
  2  3  1  0
  2  6  4  0
  2 16  4  0
  3 22  4  0
  4  9  4  0
  4 10  1  0
  4 20  4  0
  5 16  4  0
  5 23  4  0
  6 15  4  0
  7 12  4  0
  8 13  4  0
  8 14  4  0
  9 11  4  0
 11 14  4  0
 11 19  4  0
 12 18  4  0
 13 21  4  0
 15 23  4  0
 17 19  4  0
 17 20  4  0
 18 22  4  0
 19 21  4  0
M  END
$$$$

 Created by Python create_sdf_string function

 23 25  0  0  0  0  0  0  0  0999 V2000
    2.4610   -5.3070   29.1240 C   0  0  0  0  0  0  0  0  0  0  0  0
    4.7710   -4.6952   28.4803 C   0  0  0  0  0  0  0  0  0  0  0  0
    3.4047   -5.1087   28.1314 C   0  0  0  0  0  0  0  0  0  0  0  0
   -0.2234  -11.8615   16.8874 C   0  0  0  0  0  0  0  0  0  0  0  0
    6.4491   -4.1532   30.1213 C   0  0  0  0  0  0  0  0  0  0  0  0
    5.7060   -4.4340   27.4975 C   0  0  0  0  0  0  0  0  0  0  0  0
    1.1818   -5.6612   28.8399 C   0  0  0  0  0  0  0  0  0  0  0  0
   -1.2067   -7.3287   17.7772 C   0  0  0  0  0  0  0  0  0  0  0  0
   -0.0206  -10.5585   16.6210 C   0  0  0  0  0  0  0  0  0  0  0  0
    0.3696  -12.7626   16.2169 O   0  0  0  0  0  0  0  0  0  0  0  0
   -0.6895   -9.5676   17.3297 C   0  0  0  0  0  0  0  0  0  0  0  0
    0.8388   -5.8417   27.5264 C   0  0  0  0  0  0  0  0  0  0  0  0
   -2.0709   -7.6637   18.7817 C   0  0  0  0  0  0  0  0  0  0  0  0
   -0.5279   -8.2168   17.0717 C   0  0  0  0  0  0  0  0  0  0  0  0
    6.9694   -4.0191   27.8190 C   0  0  0  0  0  0  0  0  0  0  0  0
    5.1733   -4.5469   29.8123 C   0  0  0  0  0  0  0  0  0  0  0  0
   -1.7508  -11.3016   18.6072 C   0  0  0  0  0  0  0  0  0  0  0  0
    1.7497   -5.6771   26.4971 C   0  0  0  0  0  0  0  0  0  0  0  0
   -1.5799   -9.9322   18.3468 C   0  0  0  0  0  0  0  0  0  0  0  0
   -1.0871  -12.2214   17.8851 C   0  0  0  0  0  0  0  0  0  0  0  0
   -2.2706   -8.9669   19.0691 C   0  0  0  0  0  0  0  0  0  0  0  0
    3.0279   -5.3073   26.8197 C   0  0  0  0  0  0  0  0  0  0  0  0
    7.3282   -3.8948   29.1186 C   0  0  0  0  0  0  0  0  0  0  0  0
  1  3  4  0
  1  7  4  0
  2  3  1  0
  2  6  4  0
  2 16  4  0
  3 22  4  0
  4  9  4  0
  4 10  1  0
  4 20  4  0
  5 16  4  0
  5 23  4  0
  6 15  4  0
  7 12  4  0
  8 13  4  0
  8 14  4  0
  9 11  4  0
 11 14  4  0
 11 19  4  0
 12 18  4  0
 13 21  4  0
 15 23  4  0
 17 19  4  0
 17 20  4  0
 18 22  4  0
 19 21  4  0
M  END
$$$$

 Created by Python create_sdf_string function

 23 25  0  0  0  0  0  0  0  0999 V2000
    2.4610   -5.3070   29.1240 C   0  0  0  0  0  0  0  0  0  0  0  0
    4.7710   -4.6952   28.4803 C   0  0  0  0  0  0  0  0  0  0  0  0
    3.4047   -5.1087   28.1314 C   0  0  0  0  0  0  0  0  0  0  0  0
   -0.2234  -11.8615   16.8874 C   0  0  0  0  0  0  0  0  0  0  0  0
    6.4491   -4.1532   30.1213 C   0  0  0  0  0  0  0  0  0  0  0  0
    5.7060   -4.4340   27.4975 C   0  0  0  0  0  0  0  0  0  0  0  0
    1.1818   -5.6612   28.8399 C   0  0  0  0  0  0  0  0  0  0  0  0
   -1.2067   -7.3287   17.7772 C   0  0  0  0  0  0  0  0  0  0  0  0
   -0.0206  -10.5585   16.6210 C   0  0  0  0  0  0  0  0  0  0  0  0
    0.3696  -12.7626   16.2169 O   0  0  0  0  0  0  0  0  0  0  0  0
   -0.6895   -9.5676   17.3297 C   0  0  0  0  0  0  0  0  0  0  0  0
    0.8388   -5.8417   27.5264 C   0  0  0  0  0  0  0  0  0  0  0  0
   -2.0709   -7.6637   18.7817 C   0  0  0  0  0  0  0  0  0  0  0  0
   -0.5279   -8.2168   17.0717 C   0  0  0  0  0  0  0  0  0  0  0  0
    6.9694   -4.0191   27.8190 C   0  0  0  0  0  0  0  0  0  0  0  0
    5.1733   -4.5469   29.8123 C   0  0  0  0  0  0  0  0  0  0  0  0
   -1.7508  -11.3016   18.6072 C   0  0  0  0  0  0  0  0  0  0  0  0
    1.7497   -5.6771   26.4971 C   0  0  0  0  0  0  0  0  0  0  0  0
   -1.5799   -9.9322   18.3468 C   0  0  0  0  0  0  0  0  0  0  0  0
   -1.0871  -12.2214   17.8851 C   0  0  0  0  0  0  0  0  0  0  0  0
   -2.2706   -8.9669   19.0691 C   0  0  0  0  0  0  0  0  0  0  0  0
    3.0279   -5.3073   26.8197 C   0  0  0  0  0  0  0  0  0  0  0  0
    7.3282   -3.8948   29.1186 C   0  0  0  0  0  0  0  0  0  0  0  0
  1  3  4  0
  1  7  4  0
  2  3  1  0
  2  6  4  0
  2 16  4  0
  3 22  4  0
  4  9  4  0
  4 10  1  0
  4 20  4  0
  5 16  4  0
  5 23  4  0
  6 15  4  0
  7 12  4  0
  8 13  4  0
  8 14  4  0
  9 11  4  0
 11 14  4  0
 11 19  4  0
 12 18  4  0
 13 21  4  0
 15 23  4  0
 17 19  4  0
 17 20  4  0
 18 22  4  0
 19 21  4  0
M  END
$$$$

 Created by Python create_sdf_string function

 23 25  0  0  0  0  0  0  0  0999 V2000
    2.4610   -5.3070   29.1240 C   0  0  0  0  0  0  0  0  0  0  0  0
    4.7710   -4.6952   28.4803 C   0  0  0  0  0  0  0  0  0  0  0  0
    3.4047   -5.1087   28.1314 C   0  0  0  0  0  0  0  0  0  0  0  0
   -0.2234  -11.8615   16.8874 C   0  0  0  0  0  0  0  0  0  0  0  0
    6.4491   -4.1532   30.1213 C   0  0  0  0  0  0  0  0  0  0  0  0
    5.7060   -4.4340   27.4975 C   0  0  0  0  0  0  0  0  0  0  0  0
    1.1818   -5.6612   28.8399 C   0  0  0  0  0  0  0  0  0  0  0  0
   -1.2067   -7.3287   17.7772 C   0  0  0  0  0  0  0  0  0  0  0  0
   -0.0206  -10.5585   16.6210 C   0  0  0  0  0  0  0  0  0  0  0  0
    0.3696  -12.7626   16.2169 O   0  0  0  0  0  0  0  0  0  0  0  0
   -0.6895   -9.5676   17.3297 C   0  0  0  0  0  0  0  0  0  0  0  0
    0.8388   -5.8417   27.5264 C   0  0  0  0  0  0  0  0  0  0  0  0
   -2.0709   -7.6637   18.7817 C   0  0  0  0  0  0  0  0  0  0  0  0
   -0.5279   -8.2168   17.0717 C   0  0  0  0  0  0  0  0  0  0  0  0
    6.9694   -4.0191   27.8190 C   0  0  0  0  0  0  0  0  0  0  0  0
    5.1733   -4.5469   29.8123 C   0  0  0  0  0  0  0  0  0  0  0  0
   -1.7508  -11.3016   18.6072 C   0  0  0  0  0  0  0  0  0  0  0  0
    1.7497   -5.6771   26.4971 C   0  0  0  0  0  0  0  0  0  0  0  0
   -1.5799   -9.9322   18.3468 C   0  0  0  0  0  0  0  0  0  0  0  0
   -1.0871  -12.2214   17.8851 C   0  0  0  0  0  0  0  0  0  0  0  0
   -2.2706   -8.9669   19.0691 C   0  0  0  0  0  0  0  0  0  0  0  0
    3.0279   -5.3073   26.8197 C   0  0  0  0  0  0  0  0  0  0  0  0
    7.3282   -3.8948   29.1186 C   0  0  0  0  0  0  0  0  0  0  0  0
  1  3  4  0
  1  7  4  0
  2  3  1  0
  2  6  4  0
  2 16  4  0
  3 22  4  0
  4  9  4  0
  4 10  1  0
  4 20  4  0
  5 16  4  0
  5 23  4  0
  6 15  4  0
  7 12  4  0
  8 13  4  0
  8 14  4  0
  9 11  4  0
 11 14  4  0
 11 19  4  0
 12 18  4  0
 13 21  4  0
 15 23  4  0
 17 19  4  0
 17 20  4  0
 18 22  4  0
 19 21  4  0
M  END
$$$$

 Created by Python create_sdf_string function

 23 25  0  0  0  0  0  0  0  0999 V2000
    2.4610   -5.3070   29.1240 C   0  0  0  0  0  0  0  0  0  0  0  0
    4.7710   -4.6952   28.4803 C   0  0  0  0  0  0  0  0  0  0  0  0
    3.4047   -5.1087   28.1314 C   0  0  0  0  0  0  0  0  0  0  0  0
   -0.2234  -11.8615   16.8874 C   0  0  0  0  0  0  0  0  0  0  0  0
    6.4491   -4.1532   30.1213 C   0  0  0  0  0  0  0  0  0  0  0  0
    5.7060   -4.4340   27.4975 C   0  0  0  0  0  0  0  0  0  0  0  0
    1.1818   -5.6612   28.8399 C   0  0  0  0  0  0  0  0  0  0  0  0
   -1.2067   -7.3287   17.7772 C   0  0  0  0  0  0  0  0  0  0  0  0
   -0.0206  -10.5585   16.6210 C   0  0  0  0  0  0  0  0  0  0  0  0
    0.3696  -12.7626   16.2169 O   0  0  0  0  0  0  0  0  0  0  0  0
   -0.6895   -9.5676   17.3297 C   0  0  0  0  0  0  0  0  0  0  0  0
    0.8388   -5.8417   27.5264 C   0  0  0  0  0  0  0  0  0  0  0  0
   -2.0709   -7.6637   18.7817 C   0  0  0  0  0  0  0  0  0  0  0  0
   -0.5279   -8.2168   17.0717 C   0  0  0  0  0  0  0  0  0  0  0  0
    6.9694   -4.0191   27.8190 C   0  0  0  0  0  0  0  0  0  0  0  0
    5.1733   -4.5469   29.8123 C   0  0  0  0  0  0  0  0  0  0  0  0
   -1.7508  -11.3016   18.6072 C   0  0  0  0  0  0  0  0  0  0  0  0
    1.7497   -5.6771   26.4971 C   0  0  0  0  0  0  0  0  0  0  0  0
   -1.5799   -9.9322   18.3468 C   0  0  0  0  0  0  0  0  0  0  0  0
   -1.0871  -12.2214   17.8851 C   0  0  0  0  0  0  0  0  0  0  0  0
   -2.2706   -8.9669   19.0691 C   0  0  0  0  0  0  0  0  0  0  0  0
    3.0279   -5.3073   26.8197 C   0  0  0  0  0  0  0  0  0  0  0  0
    7.3282   -3.8948   29.1186 C   0  0  0  0  0  0  0  0  0  0  0  0
  1  3  4  0
  1  7  4  0
  2  3  1  0
  2  6  4  0
  2 16  4  0
  3 22  4  0
  4  9  4  0
  4 10  1  0
  4 20  4  0
  5 16  4  0
  5 23  4  0
  6 15  4  0
  7 12  4  0
  8 13  4  0
  8 14  4  0
  9 11  4  0
 11 14  4  0
 11 19  4  0
 12 18  4  0
 13 21  4  0
 15 23  4  0
 17 19  4  0
 17 20  4  0
 18 22  4  0
 19 21  4  0
M  END
$$$$

 Created by Python create_sdf_string function

 23 25  0  0  0  0  0  0  0  0999 V2000
    2.4610   -5.3070   29.1240 C   0  0  0  0  0  0  0  0  0  0  0  0
    4.7710   -4.6952   28.4803 C   0  0  0  0  0  0  0  0  0  0  0  0
    3.4047   -5.1087   28.1314 C   0  0  0  0  0  0  0  0  0  0  0  0
   -0.2234  -11.8615   16.8874 C   0  0  0  0  0  0  0  0  0  0  0  0
    6.4491   -4.1532   30.1213 C   0  0  0  0  0  0  0  0  0  0  0  0
    5.7060   -4.4340   27.4975 C   0  0  0  0  0  0  0  0  0  0  0  0
    1.1818   -5.6612   28.8399 C   0  0  0  0  0  0  0  0  0  0  0  0
   -1.2067   -7.3287   17.7772 C   0  0  0  0  0  0  0  0  0  0  0  0
   -0.0206  -10.5585   16.6210 C   0  0  0  0  0  0  0  0  0  0  0  0
    0.3696  -12.7626   16.2169 O   0  0  0  0  0  0  0  0  0  0  0  0
   -0.6895   -9.5676   17.3297 C   0  0  0  0  0  0  0  0  0  0  0  0
    0.8388   -5.8417   27.5264 C   0  0  0  0  0  0  0  0  0  0  0  0
   -2.0709   -7.6637   18.7817 C   0  0  0  0  0  0  0  0  0  0  0  0
   -0.5279   -8.2168   17.0717 C   0  0  0  0  0  0  0  0  0  0  0  0
    6.9694   -4.0191   27.8190 C   0  0  0  0  0  0  0  0  0  0  0  0
    5.1733   -4.5469   29.8123 C   0  0  0  0  0  0  0  0  0  0  0  0
   -1.7508  -11.3016   18.6072 C   0  0  0  0  0  0  0  0  0  0  0  0
    1.7497   -5.6771   26.4971 C   0  0  0  0  0  0  0  0  0  0  0  0
   -1.5799   -9.9322   18.3468 C   0  0  0  0  0  0  0  0  0  0  0  0
   -1.0871  -12.2214   17.8851 C   0  0  0  0  0  0  0  0  0  0  0  0
   -2.2706   -8.9669   19.0691 C   0  0  0  0  0  0  0  0  0  0  0  0
    3.0279   -5.3073   26.8197 C   0  0  0  0  0  0  0  0  0  0  0  0
    7.3282   -3.8948   29.1186 C   0  0  0  0  0  0  0  0  0  0  0  0
  1  3  4  0
  1  7  4  0
  2  3  1  0
  2  6  4  0
  2 16  4  0
  3 22  4  0
  4  9  4  0
  4 10  1  0
  4 20  4  0
  5 16  4  0
  5 23  4  0
  6 15  4  0
  7 12  4  0
  8 13  4  0
  8 14  4  0
  9 11  4  0
 11 14  4  0
 11 19  4  0
 12 18  4  0
 13 21  4  0
 15 23  4  0
 17 19  4  0
 17 20  4  0
 18 22  4  0
 19 21  4  0
M  END
$$$$

 Created by Python create_sdf_string function

 23 25  0  0  0  0  0  0  0  0999 V2000
    2.4610   -5.3070   29.1240 C   0  0  0  0  0  0  0  0  0  0  0  0
    4.7710   -4.6952   28.4803 C   0  0  0  0  0  0  0  0  0  0  0  0
    3.4047   -5.1087   28.1314 C   0  0  0  0  0  0  0  0  0  0  0  0
   -0.2234  -11.8615   16.8874 C   0  0  0  0  0  0  0  0  0  0  0  0
    6.4491   -4.1532   30.1213 C   0  0  0  0  0  0  0  0  0  0  0  0
    5.7060   -4.4340   27.4975 C   0  0  0  0  0  0  0  0  0  0  0  0
    1.1818   -5.6612   28.8399 C   0  0  0  0  0  0  0  0  0  0  0  0
   -1.2067   -7.3287   17.7772 C   0  0  0  0  0  0  0  0  0  0  0  0
   -0.0206  -10.5585   16.6210 C   0  0  0  0  0  0  0  0  0  0  0  0
    0.3696  -12.7626   16.2169 O   0  0  0  0  0  0  0  0  0  0  0  0
   -0.6895   -9.5676   17.3297 C   0  0  0  0  0  0  0  0  0  0  0  0
    0.8388   -5.8417   27.5264 C   0  0  0  0  0  0  0  0  0  0  0  0
   -2.0709   -7.6637   18.7817 C   0  0  0  0  0  0  0  0  0  0  0  0
   -0.5279   -8.2168   17.0717 C   0  0  0  0  0  0  0  0  0  0  0  0
    6.9694   -4.0191   27.8190 C   0  0  0  0  0  0  0  0  0  0  0  0
    5.1733   -4.5469   29.8123 C   0  0  0  0  0  0  0  0  0  0  0  0
   -1.7508  -11.3016   18.6072 C   0  0  0  0  0  0  0  0  0  0  0  0
    1.7497   -5.6771   26.4971 C   0  0  0  0  0  0  0  0  0  0  0  0
   -1.5799   -9.9322   18.3468 C   0  0  0  0  0  0  0  0  0  0  0  0
   -1.0871  -12.2214   17.8851 C   0  0  0  0  0  0  0  0  0  0  0  0
   -2.2706   -8.9669   19.0691 C   0  0  0  0  0  0  0  0  0  0  0  0
    3.0279   -5.3073   26.8197 C   0  0  0  0  0  0  0  0  0  0  0  0
    7.3282   -3.8948   29.1186 C   0  0  0  0  0  0  0  0  0  0  0  0
  1  3  4  0
  1  7  4  0
  2  3  1  0
  2  6  4  0
  2 16  4  0
  3 22  4  0
  4  9  4  0
  4 10  1  0
  4 20  4  0
  5 16  4  0
  5 23  4  0
  6 15  4  0
  7 12  4  0
  8 13  4  0
  8 14  4  0
  9 11  4  0
 11 14  4  0
 11 19  4  0
 12 18  4  0
 13 21  4  0
 15 23  4  0
 17 19  4  0
 17 20  4  0
 18 22  4  0
 19 21  4  0
M  END
$$$$

 Created by Python create_sdf_string function

 23 25  0  0  0  0  0  0  0  0999 V2000
    2.4610   -5.3070   29.1240 C   0  0  0  0  0  0  0  0  0  0  0  0
    4.7710   -4.6952   28.4803 C   0  0  0  0  0  0  0  0  0  0  0  0
    3.4047   -5.1087   28.1314 C   0  0  0  0  0  0  0  0  0  0  0  0
   -0.2234  -11.8615   16.8874 C   0  0  0  0  0  0  0  0  0  0  0  0
    6.4491   -4.1532   30.1213 C   0  0  0  0  0  0  0  0  0  0  0  0
    5.7060   -4.4340   27.4975 C   0  0  0  0  0  0  0  0  0  0  0  0
    1.1818   -5.6612   28.8399 C   0  0  0  0  0  0  0  0  0  0  0  0
   -1.2067   -7.3287   17.7772 C   0  0  0  0  0  0  0  0  0  0  0  0
   -0.0206  -10.5585   16.6210 C   0  0  0  0  0  0  0  0  0  0  0  0
    0.3696  -12.7626   16.2169 O   0  0  0  0  0  0  0  0  0  0  0  0
   -0.6895   -9.5676   17.3297 C   0  0  0  0  0  0  0  0  0  0  0  0
    0.8388   -5.8417   27.5264 C   0  0  0  0  0  0  0  0  0  0  0  0
   -2.0709   -7.6637   18.7817 C   0  0  0  0  0  0  0  0  0  0  0  0
   -0.5279   -8.2168   17.0717 C   0  0  0  0  0  0  0  0  0  0  0  0
    6.9694   -4.0191   27.8190 C   0  0  0  0  0  0  0  0  0  0  0  0
    5.1733   -4.5469   29.8123 C   0  0  0  0  0  0  0  0  0  0  0  0
   -1.7508  -11.3016   18.6072 C   0  0  0  0  0  0  0  0  0  0  0  0
    1.7497   -5.6771   26.4971 C   0  0  0  0  0  0  0  0  0  0  0  0
   -1.5799   -9.9322   18.3468 C   0  0  0  0  0  0  0  0  0  0  0  0
   -1.0871  -12.2214   17.8851 C   0  0  0  0  0  0  0  0  0  0  0  0
   -2.2706   -8.9669   19.0691 C   0  0  0  0  0  0  0  0  0  0  0  0
    3.0279   -5.3073   26.8197 C   0  0  0  0  0  0  0  0  0  0  0  0
    7.3282   -3.8948   29.1186 C   0  0  0  0  0  0  0  0  0  0  0  0
  1  3  4  0
  1  7  4  0
  2  3  1  0
  2  6  4  0
  2 16  4  0
  3 22  4  0
  4  9  4  0
  4 10  1  0
  4 20  4  0
  5 16  4  0
  5 23  4  0
  6 15  4  0
  7 12  4  0
  8 13  4  0
  8 14  4  0
  9 11  4  0
 11 14  4  0
 11 19  4  0
 12 18  4  0
 13 21  4  0
 15 23  4  0
 17 19  4  0
 17 20  4  0
 18 22  4  0
 19 21  4  0
M  END
$$$$

 Created by Python create_sdf_string function

 23 25  0  0  0  0  0  0  0  0999 V2000
    2.4610   -5.3070   29.1240 C   0  0  0  0  0  0  0  0  0  0  0  0
    4.7710   -4.6952   28.4803 C   0  0  0  0  0  0  0  0  0  0  0  0
    3.4047   -5.1087   28.1314 C   0  0  0  0  0  0  0  0  0  0  0  0
   -0.2234  -11.8615   16.8874 C   0  0  0  0  0  0  0  0  0  0  0  0
    6.4491   -4.1532   30.1213 C   0  0  0  0  0  0  0  0  0  0  0  0
    5.7060   -4.4340   27.4975 C   0  0  0  0  0  0  0  0  0  0  0  0
    1.1818   -5.6612   28.8399 C   0  0  0  0  0  0  0  0  0  0  0  0
   -1.2067   -7.3287   17.7772 C   0  0  0  0  0  0  0  0  0  0  0  0
   -0.0206  -10.5585   16.6210 C   0  0  0  0  0  0  0  0  0  0  0  0
    0.3696  -12.7626   16.2169 O   0  0  0  0  0  0  0  0  0  0  0  0
   -0.6895   -9.5676   17.3297 C   0  0  0  0  0  0  0  0  0  0  0  0
    0.8388   -5.8417   27.5264 C   0  0  0  0  0  0  0  0  0  0  0  0
   -2.0709   -7.6637   18.7817 C   0  0  0  0  0  0  0  0  0  0  0  0
   -0.5279   -8.2168   17.0717 C   0  0  0  0  0  0  0  0  0  0  0  0
    6.9694   -4.0191   27.8190 C   0  0  0  0  0  0  0  0  0  0  0  0
    5.1733   -4.5469   29.8123 C   0  0  0  0  0  0  0  0  0  0  0  0
   -1.7508  -11.3016   18.6072 C   0  0  0  0  0  0  0  0  0  0  0  0
    1.7497   -5.6771   26.4971 C   0  0  0  0  0  0  0  0  0  0  0  0
   -1.5799   -9.9322   18.3468 C   0  0  0  0  0  0  0  0  0  0  0  0
   -1.0871  -12.2214   17.8851 C   0  0  0  0  0  0  0  0  0  0  0  0
   -2.2706   -8.9669   19.0691 C   0  0  0  0  0  0  0  0  0  0  0  0
    3.0279   -5.3073   26.8197 C   0  0  0  0  0  0  0  0  0  0  0  0
    7.3282   -3.8948   29.1186 C   0  0  0  0  0  0  0  0  0  0  0  0
  1  3  4  0
  1  7  4  0
  2  3  1  0
  2  6  4  0
  2 16  4  0
  3 22  4  0
  4  9  4  0
  4 10  1  0
  4 20  4  0
  5 16  4  0
  5 23  4  0
  6 15  4  0
  7 12  4  0
  8 13  4  0
  8 14  4  0
  9 11  4  0
 11 14  4  0
 11 19  4  0
 12 18  4  0
 13 21  4  0
 15 23  4  0
 17 19  4  0
 17 20  4  0
 18 22  4  0
 19 21  4  0
M  END
$$$$

 Created by Python create_sdf_string function

 23 25  0  0  0  0  0  0  0  0999 V2000
    2.4610   -5.3070   29.1240 C   0  0  0  0  0  0  0  0  0  0  0  0
    4.7710   -4.6952   28.4803 C   0  0  0  0  0  0  0  0  0  0  0  0
    3.4047   -5.1087   28.1314 C   0  0  0  0  0  0  0  0  0  0  0  0
   -0.2234  -11.8615   16.8874 C   0  0  0  0  0  0  0  0  0  0  0  0
    6.4491   -4.1532   30.1213 C   0  0  0  0  0  0  0  0  0  0  0  0
    5.7060   -4.4340   27.4975 C   0  0  0  0  0  0  0  0  0  0  0  0
    1.1818   -5.6612   28.8399 C   0  0  0  0  0  0  0  0  0  0  0  0
   -1.2067   -7.3287   17.7772 C   0  0  0  0  0  0  0  0  0  0  0  0
   -0.0206  -10.5585   16.6210 C   0  0  0  0  0  0  0  0  0  0  0  0
    0.3696  -12.7626   16.2169 O   0  0  0  0  0  0  0  0  0  0  0  0
   -0.6895   -9.5676   17.3297 C   0  0  0  0  0  0  0  0  0  0  0  0
    0.8388   -5.8417   27.5264 C   0  0  0  0  0  0  0  0  0  0  0  0
   -2.0709   -7.6637   18.7817 C   0  0  0  0  0  0  0  0  0  0  0  0
   -0.5279   -8.2168   17.0717 C   0  0  0  0  0  0  0  0  0  0  0  0
    6.9694   -4.0191   27.8190 C   0  0  0  0  0  0  0  0  0  0  0  0
    5.1733   -4.5469   29.8123 C   0  0  0  0  0  0  0  0  0  0  0  0
   -1.7508  -11.3016   18.6072 C   0  0  0  0  0  0  0  0  0  0  0  0
    1.7497   -5.6771   26.4971 C   0  0  0  0  0  0  0  0  0  0  0  0
   -1.5799   -9.9322   18.3468 C   0  0  0  0  0  0  0  0  0  0  0  0
   -1.0871  -12.2214   17.8851 C   0  0  0  0  0  0  0  0  0  0  0  0
   -2.2706   -8.9669   19.0691 C   0  0  0  0  0  0  0  0  0  0  0  0
    3.0279   -5.3073   26.8197 C   0  0  0  0  0  0  0  0  0  0  0  0
    7.3282   -3.8948   29.1186 C   0  0  0  0  0  0  0  0  0  0  0  0
  1  3  4  0
  1  7  4  0
  2  3  1  0
  2  6  4  0
  2 16  4  0
  3 22  4  0
  4  9  4  0
  4 10  1  0
  4 20  4  0
  5 16  4  0
  5 23  4  0
  6 15  4  0
  7 12  4  0
  8 13  4  0
  8 14  4  0
  9 11  4  0
 11 14  4  0
 11 19  4  0
 12 18  4  0
 13 21  4  0
 15 23  4  0
 17 19  4  0
 17 20  4  0
 18 22  4  0
 19 21  4  0
M  END
$$$$

 Created by Python create_sdf_string function

 23 25  0  0  0  0  0  0  0  0999 V2000
    2.4610   -5.3070   29.1240 C   0  0  0  0  0  0  0  0  0  0  0  0
    4.7710   -4.6952   28.4803 C   0  0  0  0  0  0  0  0  0  0  0  0
    3.4047   -5.1087   28.1314 C   0  0  0  0  0  0  0  0  0  0  0  0
   -0.2234  -11.8615   16.8874 C   0  0  0  0  0  0  0  0  0  0  0  0
    6.4491   -4.1532   30.1213 C   0  0  0  0  0  0  0  0  0  0  0  0
    5.7060   -4.4340   27.4975 C   0  0  0  0  0  0  0  0  0  0  0  0
    1.1818   -5.6612   28.8399 C   0  0  0  0  0  0  0  0  0  0  0  0
   -1.2067   -7.3287   17.7772 C   0  0  0  0  0  0  0  0  0  0  0  0
   -0.0206  -10.5585   16.6210 C   0  0  0  0  0  0  0  0  0  0  0  0
    0.3696  -12.7626   16.2169 O   0  0  0  0  0  0  0  0  0  0  0  0
   -0.6895   -9.5676   17.3297 C   0  0  0  0  0  0  0  0  0  0  0  0
    0.8388   -5.8417   27.5264 C   0  0  0  0  0  0  0  0  0  0  0  0
   -2.0709   -7.6637   18.7817 C   0  0  0  0  0  0  0  0  0  0  0  0
   -0.5279   -8.2168   17.0717 C   0  0  0  0  0  0  0  0  0  0  0  0
    6.9694   -4.0191   27.8190 C   0  0  0  0  0  0  0  0  0  0  0  0
    5.1733   -4.5469   29.8123 C   0  0  0  0  0  0  0  0  0  0  0  0
   -1.7508  -11.3016   18.6072 C   0  0  0  0  0  0  0  0  0  0  0  0
    1.7497   -5.6771   26.4971 C   0  0  0  0  0  0  0  0  0  0  0  0
   -1.5799   -9.9322   18.3468 C   0  0  0  0  0  0  0  0  0  0  0  0
   -1.0871  -12.2214   17.8851 C   0  0  0  0  0  0  0  0  0  0  0  0
   -2.2706   -8.9669   19.0691 C   0  0  0  0  0  0  0  0  0  0  0  0
    3.0279   -5.3073   26.8197 C   0  0  0  0  0  0  0  0  0  0  0  0
    7.3282   -3.8948   29.1186 C   0  0  0  0  0  0  0  0  0  0  0  0
  1  3  4  0
  1  7  4  0
  2  3  1  0
  2  6  4  0
  2 16  4  0
  3 22  4  0
  4  9  4  0
  4 10  1  0
  4 20  4  0
  5 16  4  0
  5 23  4  0
  6 15  4  0
  7 12  4  0
  8 13  4  0
  8 14  4  0
  9 11  4  0
 11 14  4  0
 11 19  4  0
 12 18  4  0
 13 21  4  0
 15 23  4  0
 17 19  4  0
 17 20  4  0
 18 22  4  0
 19 21  4  0
M  END
$$$$

 Created by Python create_sdf_string function

 23 25  0  0  0  0  0  0  0  0999 V2000
    2.4610   -5.3070   29.1240 C   0  0  0  0  0  0  0  0  0  0  0  0
    4.7710   -4.6952   28.4803 C   0  0  0  0  0  0  0  0  0  0  0  0
    3.4047   -5.1087   28.1314 C   0  0  0  0  0  0  0  0  0  0  0  0
   -0.2234  -11.8615   16.8874 C   0  0  0  0  0  0  0  0  0  0  0  0
    6.4491   -4.1532   30.1213 C   0  0  0  0  0  0  0  0  0  0  0  0
    5.7060   -4.4340   27.4975 C   0  0  0  0  0  0  0  0  0  0  0  0
    1.1818   -5.6612   28.8399 C   0  0  0  0  0  0  0  0  0  0  0  0
   -1.2067   -7.3287   17.7772 C   0  0  0  0  0  0  0  0  0  0  0  0
   -0.0206  -10.5585   16.6210 C   0  0  0  0  0  0  0  0  0  0  0  0
    0.3696  -12.7626   16.2169 O   0  0  0  0  0  0  0  0  0  0  0  0
   -0.6895   -9.5676   17.3297 C   0  0  0  0  0  0  0  0  0  0  0  0
    0.8388   -5.8417   27.5264 C   0  0  0  0  0  0  0  0  0  0  0  0
   -2.0709   -7.6637   18.7817 C   0  0  0  0  0  0  0  0  0  0  0  0
   -0.5279   -8.2168   17.0717 C   0  0  0  0  0  0  0  0  0  0  0  0
    6.9694   -4.0191   27.8190 C   0  0  0  0  0  0  0  0  0  0  0  0
    5.1733   -4.5469   29.8123 C   0  0  0  0  0  0  0  0  0  0  0  0
   -1.7508  -11.3016   18.6072 C   0  0  0  0  0  0  0  0  0  0  0  0
    1.7497   -5.6771   26.4971 C   0  0  0  0  0  0  0  0  0  0  0  0
   -1.5799   -9.9322   18.3468 C   0  0  0  0  0  0  0  0  0  0  0  0
   -1.0871  -12.2214   17.8851 C   0  0  0  0  0  0  0  0  0  0  0  0
   -2.2706   -8.9669   19.0691 C   0  0  0  0  0  0  0  0  0  0  0  0
    3.0279   -5.3073   26.8197 C   0  0  0  0  0  0  0  0  0  0  0  0
    7.3282   -3.8948   29.1186 C   0  0  0  0  0  0  0  0  0  0  0  0
  1  3  4  0
  1  7  4  0
  2  3  1  0
  2  6  4  0
  2 16  4  0
  3 22  4  0
  4  9  4  0
  4 10  1  0
  4 20  4  0
  5 16  4  0
  5 23  4  0
  6 15  4  0
  7 12  4  0
  8 13  4  0
  8 14  4  0
  9 11  4  0
 11 14  4  0
 11 19  4  0
 12 18  4  0
 13 21  4  0
 15 23  4  0
 17 19  4  0
 17 20  4  0
 18 22  4  0
 19 21  4  0
M  END
$$$$

 Created by Python create_sdf_string function

 23 25  0  0  0  0  0  0  0  0999 V2000
    2.4610   -5.3070   29.1240 C   0  0  0  0  0  0  0  0  0  0  0  0
    4.7710   -4.6952   28.4803 C   0  0  0  0  0  0  0  0  0  0  0  0
    3.4047   -5.1087   28.1314 C   0  0  0  0  0  0  0  0  0  0  0  0
   -0.2234  -11.8615   16.8874 C   0  0  0  0  0  0  0  0  0  0  0  0
    6.4491   -4.1532   30.1213 C   0  0  0  0  0  0  0  0  0  0  0  0
    5.7060   -4.4340   27.4975 C   0  0  0  0  0  0  0  0  0  0  0  0
    1.1818   -5.6612   28.8399 C   0  0  0  0  0  0  0  0  0  0  0  0
   -1.2067   -7.3287   17.7772 C   0  0  0  0  0  0  0  0  0  0  0  0
   -0.0206  -10.5585   16.6210 C   0  0  0  0  0  0  0  0  0  0  0  0
    0.3696  -12.7626   16.2169 O   0  0  0  0  0  0  0  0  0  0  0  0
   -0.6895   -9.5676   17.3297 C   0  0  0  0  0  0  0  0  0  0  0  0
    0.8388   -5.8417   27.5264 C   0  0  0  0  0  0  0  0  0  0  0  0
   -2.0709   -7.6637   18.7817 C   0  0  0  0  0  0  0  0  0  0  0  0
   -0.5279   -8.2168   17.0717 C   0  0  0  0  0  0  0  0  0  0  0  0
    6.9694   -4.0191   27.8190 C   0  0  0  0  0  0  0  0  0  0  0  0
    5.1733   -4.5469   29.8123 C   0  0  0  0  0  0  0  0  0  0  0  0
   -1.7508  -11.3016   18.6072 C   0  0  0  0  0  0  0  0  0  0  0  0
    1.7497   -5.6771   26.4971 C   0  0  0  0  0  0  0  0  0  0  0  0
   -1.5799   -9.9322   18.3468 C   0  0  0  0  0  0  0  0  0  0  0  0
   -1.0871  -12.2214   17.8851 C   0  0  0  0  0  0  0  0  0  0  0  0
   -2.2706   -8.9669   19.0691 C   0  0  0  0  0  0  0  0  0  0  0  0
    3.0279   -5.3073   26.8197 C   0  0  0  0  0  0  0  0  0  0  0  0
    7.3282   -3.8948   29.1186 C   0  0  0  0  0  0  0  0  0  0  0  0
  1  3  4  0
  1  7  4  0
  2  3  1  0
  2  6  4  0
  2 16  4  0
  3 22  4  0
  4  9  4  0
  4 10  1  0
  4 20  4  0
  5 16  4  0
  5 23  4  0
  6 15  4  0
  7 12  4  0
  8 13  4  0
  8 14  4  0
  9 11  4  0
 11 14  4  0
 11 19  4  0
 12 18  4  0
 13 21  4  0
 15 23  4  0
 17 19  4  0
 17 20  4  0
 18 22  4  0
 19 21  4  0
M  END
$$$$

 Created by Python create_sdf_string function

 23 25  0  0  0  0  0  0  0  0999 V2000
    2.4610   -5.3070   29.1240 C   0  0  0  0  0  0  0  0  0  0  0  0
    4.7710   -4.6952   28.4803 C   0  0  0  0  0  0  0  0  0  0  0  0
    3.4047   -5.1087   28.1314 C   0  0  0  0  0  0  0  0  0  0  0  0
   -0.2234  -11.8615   16.8874 C   0  0  0  0  0  0  0  0  0  0  0  0
    6.4491   -4.1532   30.1213 C   0  0  0  0  0  0  0  0  0  0  0  0
    5.7060   -4.4340   27.4975 C   0  0  0  0  0  0  0  0  0  0  0  0
    1.1818   -5.6612   28.8399 C   0  0  0  0  0  0  0  0  0  0  0  0
   -1.2067   -7.3287   17.7772 C   0  0  0  0  0  0  0  0  0  0  0  0
   -0.0206  -10.5585   16.6210 C   0  0  0  0  0  0  0  0  0  0  0  0
    0.3696  -12.7626   16.2169 O   0  0  0  0  0  0  0  0  0  0  0  0
   -0.6895   -9.5676   17.3297 C   0  0  0  0  0  0  0  0  0  0  0  0
    0.8388   -5.8417   27.5264 C   0  0  0  0  0  0  0  0  0  0  0  0
   -2.0709   -7.6637   18.7817 C   0  0  0  0  0  0  0  0  0  0  0  0
   -0.5279   -8.2168   17.0717 C   0  0  0  0  0  0  0  0  0  0  0  0
    6.9694   -4.0191   27.8190 C   0  0  0  0  0  0  0  0  0  0  0  0
    5.1733   -4.5469   29.8123 C   0  0  0  0  0  0  0  0  0  0  0  0
   -1.7508  -11.3016   18.6072 C   0  0  0  0  0  0  0  0  0  0  0  0
    1.7497   -5.6771   26.4971 C   0  0  0  0  0  0  0  0  0  0  0  0
   -1.5799   -9.9322   18.3468 C   0  0  0  0  0  0  0  0  0  0  0  0
   -1.0871  -12.2214   17.8851 C   0  0  0  0  0  0  0  0  0  0  0  0
   -2.2706   -8.9669   19.0691 C   0  0  0  0  0  0  0  0  0  0  0  0
    3.0279   -5.3073   26.8197 C   0  0  0  0  0  0  0  0  0  0  0  0
    7.3282   -3.8948   29.1186 C   0  0  0  0  0  0  0  0  0  0  0  0
  1  3  4  0
  1  7  4  0
  2  3  1  0
  2  6  4  0
  2 16  4  0
  3 22  4  0
  4  9  4  0
  4 10  1  0
  4 20  4  0
  5 16  4  0
  5 23  4  0
  6 15  4  0
  7 12  4  0
  8 13  4  0
  8 14  4  0
  9 11  4  0
 11 14  4  0
 11 19  4  0
 12 18  4  0
 13 21  4  0
 15 23  4  0
 17 19  4  0
 17 20  4  0
 18 22  4  0
 19 21  4  0
M  END
$$$$

 Created by Python create_sdf_string function

 23 25  0  0  0  0  0  0  0  0999 V2000
    2.4610   -5.3070   29.1240 C   0  0  0  0  0  0  0  0  0  0  0  0
    4.7710   -4.6952   28.4803 C   0  0  0  0  0  0  0  0  0  0  0  0
    3.4047   -5.1087   28.1314 C   0  0  0  0  0  0  0  0  0  0  0  0
   -0.2234  -11.8615   16.8874 C   0  0  0  0  0  0  0  0  0  0  0  0
    6.4491   -4.1532   30.1213 C   0  0  0  0  0  0  0  0  0  0  0  0
    5.7060   -4.4340   27.4975 C   0  0  0  0  0  0  0  0  0  0  0  0
    1.1818   -5.6612   28.8399 C   0  0  0  0  0  0  0  0  0  0  0  0
   -1.2067   -7.3287   17.7772 C   0  0  0  0  0  0  0  0  0  0  0  0
   -0.0206  -10.5585   16.6210 C   0  0  0  0  0  0  0  0  0  0  0  0
    0.3696  -12.7626   16.2169 O   0  0  0  0  0  0  0  0  0  0  0  0
   -0.6895   -9.5676   17.3297 C   0  0  0  0  0  0  0  0  0  0  0  0
    0.8388   -5.8417   27.5264 C   0  0  0  0  0  0  0  0  0  0  0  0
   -2.0709   -7.6637   18.7817 C   0  0  0  0  0  0  0  0  0  0  0  0
   -0.5279   -8.2168   17.0717 C   0  0  0  0  0  0  0  0  0  0  0  0
    6.9694   -4.0191   27.8190 C   0  0  0  0  0  0  0  0  0  0  0  0
    5.1733   -4.5469   29.8123 C   0  0  0  0  0  0  0  0  0  0  0  0
   -1.7508  -11.3016   18.6072 C   0  0  0  0  0  0  0  0  0  0  0  0
    1.7497   -5.6771   26.4971 C   0  0  0  0  0  0  0  0  0  0  0  0
   -1.5799   -9.9322   18.3468 C   0  0  0  0  0  0  0  0  0  0  0  0
   -1.0871  -12.2214   17.8851 C   0  0  0  0  0  0  0  0  0  0  0  0
   -2.2706   -8.9669   19.0691 C   0  0  0  0  0  0  0  0  0  0  0  0
    3.0279   -5.3073   26.8197 C   0  0  0  0  0  0  0  0  0  0  0  0
    7.3282   -3.8948   29.1186 C   0  0  0  0  0  0  0  0  0  0  0  0
  1  3  4  0
  1  7  4  0
  2  3  1  0
  2  6  4  0
  2 16  4  0
  3 22  4  0
  4  9  4  0
  4 10  1  0
  4 20  4  0
  5 16  4  0
  5 23  4  0
  6 15  4  0
  7 12  4  0
  8 13  4  0
  8 14  4  0
  9 11  4  0
 11 14  4  0
 11 19  4  0
 12 18  4  0
 13 21  4  0
 15 23  4  0
 17 19  4  0
 17 20  4  0
 18 22  4  0
 19 21  4  0
M  END
$$$$

 Created by Python create_sdf_string function

 23 25  0  0  0  0  0  0  0  0999 V2000
    2.4610   -5.3070   29.1240 C   0  0  0  0  0  0  0  0  0  0  0  0
    4.7710   -4.6952   28.4803 C   0  0  0  0  0  0  0  0  0  0  0  0
    3.4047   -5.1087   28.1314 C   0  0  0  0  0  0  0  0  0  0  0  0
   -0.2234  -11.8615   16.8874 C   0  0  0  0  0  0  0  0  0  0  0  0
    6.4491   -4.1532   30.1213 C   0  0  0  0  0  0  0  0  0  0  0  0
    5.7060   -4.4340   27.4975 C   0  0  0  0  0  0  0  0  0  0  0  0
    1.1818   -5.6612   28.8399 C   0  0  0  0  0  0  0  0  0  0  0  0
   -1.2067   -7.3287   17.7772 C   0  0  0  0  0  0  0  0  0  0  0  0
   -0.0206  -10.5585   16.6210 C   0  0  0  0  0  0  0  0  0  0  0  0
    0.3696  -12.7626   16.2169 O   0  0  0  0  0  0  0  0  0  0  0  0
   -0.6895   -9.5676   17.3297 C   0  0  0  0  0  0  0  0  0  0  0  0
    0.8388   -5.8417   27.5264 C   0  0  0  0  0  0  0  0  0  0  0  0
   -2.0709   -7.6637   18.7817 C   0  0  0  0  0  0  0  0  0  0  0  0
   -0.5279   -8.2168   17.0717 C   0  0  0  0  0  0  0  0  0  0  0  0
    6.9694   -4.0191   27.8190 C   0  0  0  0  0  0  0  0  0  0  0  0
    5.1733   -4.5469   29.8123 C   0  0  0  0  0  0  0  0  0  0  0  0
   -1.7508  -11.3016   18.6072 C   0  0  0  0  0  0  0  0  0  0  0  0
    1.7497   -5.6771   26.4971 C   0  0  0  0  0  0  0  0  0  0  0  0
   -1.5799   -9.9322   18.3468 C   0  0  0  0  0  0  0  0  0  0  0  0
   -1.0871  -12.2214   17.8851 C   0  0  0  0  0  0  0  0  0  0  0  0
   -2.2706   -8.9669   19.0691 C   0  0  0  0  0  0  0  0  0  0  0  0
    3.0279   -5.3073   26.8197 C   0  0  0  0  0  0  0  0  0  0  0  0
    7.3282   -3.8948   29.1186 C   0  0  0  0  0  0  0  0  0  0  0  0
  1  3  4  0
  1  7  4  0
  2  3  1  0
  2  6  4  0
  2 16  4  0
  3 22  4  0
  4  9  4  0
  4 10  1  0
  4 20  4  0
  5 16  4  0
  5 23  4  0
  6 15  4  0
  7 12  4  0
  8 13  4  0
  8 14  4  0
  9 11  4  0
 11 14  4  0
 11 19  4  0
 12 18  4  0
 13 21  4  0
 15 23  4  0
 17 19  4  0
 17 20  4  0
 18 22  4  0
 19 21  4  0
M  END
$$$$

 Created by Python create_sdf_string function

 23 25  0  0  0  0  0  0  0  0999 V2000
    2.4610   -5.3070   29.1240 C   0  0  0  0  0  0  0  0  0  0  0  0
    4.7710   -4.6952   28.4803 C   0  0  0  0  0  0  0  0  0  0  0  0
    3.4047   -5.1087   28.1314 C   0  0  0  0  0  0  0  0  0  0  0  0
   -0.2234  -11.8615   16.8874 C   0  0  0  0  0  0  0  0  0  0  0  0
    6.4491   -4.1532   30.1213 C   0  0  0  0  0  0  0  0  0  0  0  0
    5.7060   -4.4340   27.4975 C   0  0  0  0  0  0  0  0  0  0  0  0
    1.1818   -5.6612   28.8399 C   0  0  0  0  0  0  0  0  0  0  0  0
   -1.2067   -7.3287   17.7772 C   0  0  0  0  0  0  0  0  0  0  0  0
   -0.0206  -10.5585   16.6210 C   0  0  0  0  0  0  0  0  0  0  0  0
    0.3696  -12.7626   16.2169 O   0  0  0  0  0  0  0  0  0  0  0  0
   -0.6895   -9.5676   17.3297 C   0  0  0  0  0  0  0  0  0  0  0  0
    0.8388   -5.8417   27.5264 C   0  0  0  0  0  0  0  0  0  0  0  0
   -2.0709   -7.6637   18.7817 C   0  0  0  0  0  0  0  0  0  0  0  0
   -0.5279   -8.2168   17.0717 C   0  0  0  0  0  0  0  0  0  0  0  0
    6.9694   -4.0191   27.8190 C   0  0  0  0  0  0  0  0  0  0  0  0
    5.1733   -4.5469   29.8123 C   0  0  0  0  0  0  0  0  0  0  0  0
   -1.7508  -11.3016   18.6072 C   0  0  0  0  0  0  0  0  0  0  0  0
    1.7497   -5.6771   26.4971 C   0  0  0  0  0  0  0  0  0  0  0  0
   -1.5799   -9.9322   18.3468 C   0  0  0  0  0  0  0  0  0  0  0  0
   -1.0871  -12.2214   17.8851 C   0  0  0  0  0  0  0  0  0  0  0  0
   -2.2706   -8.9669   19.0691 C   0  0  0  0  0  0  0  0  0  0  0  0
    3.0279   -5.3073   26.8197 C   0  0  0  0  0  0  0  0  0  0  0  0
    7.3282   -3.8948   29.1186 C   0  0  0  0  0  0  0  0  0  0  0  0
  1  3  4  0
  1  7  4  0
  2  3  1  0
  2  6  4  0
  2 16  4  0
  3 22  4  0
  4  9  4  0
  4 10  1  0
  4 20  4  0
  5 16  4  0
  5 23  4  0
  6 15  4  0
  7 12  4  0
  8 13  4  0
  8 14  4  0
  9 11  4  0
 11 14  4  0
 11 19  4  0
 12 18  4  0
 13 21  4  0
 15 23  4  0
 17 19  4  0
 17 20  4  0
 18 22  4  0
 19 21  4  0
M  END
$$$$

 Created by Python create_sdf_string function

 23 25  0  0  0  0  0  0  0  0999 V2000
    2.4610   -5.3070   29.1240 C   0  0  0  0  0  0  0  0  0  0  0  0
    4.7710   -4.6952   28.4803 C   0  0  0  0  0  0  0  0  0  0  0  0
    3.4047   -5.1087   28.1314 C   0  0  0  0  0  0  0  0  0  0  0  0
   -0.2234  -11.8615   16.8874 C   0  0  0  0  0  0  0  0  0  0  0  0
    6.4491   -4.1532   30.1213 C   0  0  0  0  0  0  0  0  0  0  0  0
    5.7060   -4.4340   27.4975 C   0  0  0  0  0  0  0  0  0  0  0  0
    1.1818   -5.6612   28.8399 C   0  0  0  0  0  0  0  0  0  0  0  0
   -1.2067   -7.3287   17.7772 C   0  0  0  0  0  0  0  0  0  0  0  0
   -0.0206  -10.5585   16.6210 C   0  0  0  0  0  0  0  0  0  0  0  0
    0.3696  -12.7626   16.2169 O   0  0  0  0  0  0  0  0  0  0  0  0
   -0.6895   -9.5676   17.3297 C   0  0  0  0  0  0  0  0  0  0  0  0
    0.8388   -5.8417   27.5264 C   0  0  0  0  0  0  0  0  0  0  0  0
   -2.0709   -7.6637   18.7817 C   0  0  0  0  0  0  0  0  0  0  0  0
   -0.5279   -8.2168   17.0717 C   0  0  0  0  0  0  0  0  0  0  0  0
    6.9694   -4.0191   27.8190 C   0  0  0  0  0  0  0  0  0  0  0  0
    5.1733   -4.5469   29.8123 C   0  0  0  0  0  0  0  0  0  0  0  0
   -1.7508  -11.3016   18.6072 C   0  0  0  0  0  0  0  0  0  0  0  0
    1.7497   -5.6771   26.4971 C   0  0  0  0  0  0  0  0  0  0  0  0
   -1.5799   -9.9322   18.3468 C   0  0  0  0  0  0  0  0  0  0  0  0
   -1.0871  -12.2214   17.8851 C   0  0  0  0  0  0  0  0  0  0  0  0
   -2.2706   -8.9669   19.0691 C   0  0  0  0  0  0  0  0  0  0  0  0
    3.0279   -5.3073   26.8197 C   0  0  0  0  0  0  0  0  0  0  0  0
    7.3282   -3.8948   29.1186 C   0  0  0  0  0  0  0  0  0  0  0  0
  1  3  4  0
  1  7  4  0
  2  3  1  0
  2  6  4  0
  2 16  4  0
  3 22  4  0
  4  9  4  0
  4 10  1  0
  4 20  4  0
  5 16  4  0
  5 23  4  0
  6 15  4  0
  7 12  4  0
  8 13  4  0
  8 14  4  0
  9 11  4  0
 11 14  4  0
 11 19  4  0
 12 18  4  0
 13 21  4  0
 15 23  4  0
 17 19  4  0
 17 20  4  0
 18 22  4  0
 19 21  4  0
M  END
$$$$

 Created by Python create_sdf_string function

 23 25  0  0  0  0  0  0  0  0999 V2000
    2.4610   -5.3070   29.1240 C   0  0  0  0  0  0  0  0  0  0  0  0
    4.7710   -4.6952   28.4803 C   0  0  0  0  0  0  0  0  0  0  0  0
    3.4047   -5.1087   28.1314 C   0  0  0  0  0  0  0  0  0  0  0  0
   -0.2234  -11.8615   16.8874 C   0  0  0  0  0  0  0  0  0  0  0  0
    6.4491   -4.1532   30.1213 C   0  0  0  0  0  0  0  0  0  0  0  0
    5.7060   -4.4340   27.4975 C   0  0  0  0  0  0  0  0  0  0  0  0
    1.1818   -5.6612   28.8399 C   0  0  0  0  0  0  0  0  0  0  0  0
   -1.2067   -7.3287   17.7772 C   0  0  0  0  0  0  0  0  0  0  0  0
   -0.0206  -10.5585   16.6210 C   0  0  0  0  0  0  0  0  0  0  0  0
    0.3696  -12.7626   16.2169 O   0  0  0  0  0  0  0  0  0  0  0  0
   -0.6895   -9.5676   17.3297 C   0  0  0  0  0  0  0  0  0  0  0  0
    0.8388   -5.8417   27.5264 C   0  0  0  0  0  0  0  0  0  0  0  0
   -2.0709   -7.6637   18.7817 C   0  0  0  0  0  0  0  0  0  0  0  0
   -0.5279   -8.2168   17.0717 C   0  0  0  0  0  0  0  0  0  0  0  0
    6.9694   -4.0191   27.8190 C   0  0  0  0  0  0  0  0  0  0  0  0
    5.1733   -4.5469   29.8123 C   0  0  0  0  0  0  0  0  0  0  0  0
   -1.7508  -11.3016   18.6072 C   0  0  0  0  0  0  0  0  0  0  0  0
    1.7497   -5.6771   26.4971 C   0  0  0  0  0  0  0  0  0  0  0  0
   -1.5799   -9.9322   18.3468 C   0  0  0  0  0  0  0  0  0  0  0  0
   -1.0871  -12.2214   17.8851 C   0  0  0  0  0  0  0  0  0  0  0  0
   -2.2706   -8.9669   19.0691 C   0  0  0  0  0  0  0  0  0  0  0  0
    3.0279   -5.3073   26.8197 C   0  0  0  0  0  0  0  0  0  0  0  0
    7.3282   -3.8948   29.1186 C   0  0  0  0  0  0  0  0  0  0  0  0
  1  3  4  0
  1  7  4  0
  2  3  1  0
  2  6  4  0
  2 16  4  0
  3 22  4  0
  4  9  4  0
  4 10  1  0
  4 20  4  0
  5 16  4  0
  5 23  4  0
  6 15  4  0
  7 12  4  0
  8 13  4  0
  8 14  4  0
  9 11  4  0
 11 14  4  0
 11 19  4  0
 12 18  4  0
 13 21  4  0
 15 23  4  0
 17 19  4  0
 17 20  4  0
 18 22  4  0
 19 21  4  0
M  END
$$$$

 Created by Python create_sdf_string function

 23 25  0  0  0  0  0  0  0  0999 V2000
    2.4610   -5.3070   29.1240 C   0  0  0  0  0  0  0  0  0  0  0  0
    4.7710   -4.6952   28.4803 C   0  0  0  0  0  0  0  0  0  0  0  0
    3.4047   -5.1087   28.1314 C   0  0  0  0  0  0  0  0  0  0  0  0
   -0.2234  -11.8615   16.8874 C   0  0  0  0  0  0  0  0  0  0  0  0
    6.4491   -4.1532   30.1213 C   0  0  0  0  0  0  0  0  0  0  0  0
    5.7060   -4.4340   27.4975 C   0  0  0  0  0  0  0  0  0  0  0  0
    1.1818   -5.6612   28.8399 C   0  0  0  0  0  0  0  0  0  0  0  0
   -1.2067   -7.3287   17.7772 C   0  0  0  0  0  0  0  0  0  0  0  0
   -0.0206  -10.5585   16.6210 C   0  0  0  0  0  0  0  0  0  0  0  0
    0.3696  -12.7626   16.2169 O   0  0  0  0  0  0  0  0  0  0  0  0
   -0.6895   -9.5676   17.3297 C   0  0  0  0  0  0  0  0  0  0  0  0
    0.8388   -5.8417   27.5264 C   0  0  0  0  0  0  0  0  0  0  0  0
   -2.0709   -7.6637   18.7817 C   0  0  0  0  0  0  0  0  0  0  0  0
   -0.5279   -8.2168   17.0717 C   0  0  0  0  0  0  0  0  0  0  0  0
    6.9694   -4.0191   27.8190 C   0  0  0  0  0  0  0  0  0  0  0  0
    5.1733   -4.5469   29.8123 C   0  0  0  0  0  0  0  0  0  0  0  0
   -1.7508  -11.3016   18.6072 C   0  0  0  0  0  0  0  0  0  0  0  0
    1.7497   -5.6771   26.4971 C   0  0  0  0  0  0  0  0  0  0  0  0
   -1.5799   -9.9322   18.3468 C   0  0  0  0  0  0  0  0  0  0  0  0
   -1.0871  -12.2214   17.8851 C   0  0  0  0  0  0  0  0  0  0  0  0
   -2.2706   -8.9669   19.0691 C   0  0  0  0  0  0  0  0  0  0  0  0
    3.0279   -5.3073   26.8197 C   0  0  0  0  0  0  0  0  0  0  0  0
    7.3282   -3.8948   29.1186 C   0  0  0  0  0  0  0  0  0  0  0  0
  1  3  4  0
  1  7  4  0
  2  3  1  0
  2  6  4  0
  2 16  4  0
  3 22  4  0
  4  9  4  0
  4 10  1  0
  4 20  4  0
  5 16  4  0
  5 23  4  0
  6 15  4  0
  7 12  4  0
  8 13  4  0
  8 14  4  0
  9 11  4  0
 11 14  4  0
 11 19  4  0
 12 18  4  0
 13 21  4  0
 15 23  4  0
 17 19  4  0
 17 20  4  0
 18 22  4  0
 19 21  4  0
M  END
$$$$

 Created by Python create_sdf_string function

 23 25  0  0  0  0  0  0  0  0999 V2000
    2.4610   -5.3070   29.1240 C   0  0  0  0  0  0  0  0  0  0  0  0
    4.7710   -4.6952   28.4803 C   0  0  0  0  0  0  0  0  0  0  0  0
    3.4047   -5.1087   28.1314 C   0  0  0  0  0  0  0  0  0  0  0  0
   -0.2234  -11.8615   16.8874 C   0  0  0  0  0  0  0  0  0  0  0  0
    6.4491   -4.1532   30.1213 C   0  0  0  0  0  0  0  0  0  0  0  0
    5.7060   -4.4340   27.4975 C   0  0  0  0  0  0  0  0  0  0  0  0
    1.1818   -5.6612   28.8399 C   0  0  0  0  0  0  0  0  0  0  0  0
   -1.2067   -7.3287   17.7772 C   0  0  0  0  0  0  0  0  0  0  0  0
   -0.0206  -10.5585   16.6210 C   0  0  0  0  0  0  0  0  0  0  0  0
    0.3696  -12.7626   16.2169 O   0  0  0  0  0  0  0  0  0  0  0  0
   -0.6895   -9.5676   17.3297 C   0  0  0  0  0  0  0  0  0  0  0  0
    0.8388   -5.8417   27.5264 C   0  0  0  0  0  0  0  0  0  0  0  0
   -2.0709   -7.6637   18.7817 C   0  0  0  0  0  0  0  0  0  0  0  0
   -0.5279   -8.2168   17.0717 C   0  0  0  0  0  0  0  0  0  0  0  0
    6.9694   -4.0191   27.8190 C   0  0  0  0  0  0  0  0  0  0  0  0
    5.1733   -4.5469   29.8123 C   0  0  0  0  0  0  0  0  0  0  0  0
   -1.7508  -11.3016   18.6072 C   0  0  0  0  0  0  0  0  0  0  0  0
    1.7497   -5.6771   26.4971 C   0  0  0  0  0  0  0  0  0  0  0  0
   -1.5799   -9.9322   18.3468 C   0  0  0  0  0  0  0  0  0  0  0  0
   -1.0871  -12.2214   17.8851 C   0  0  0  0  0  0  0  0  0  0  0  0
   -2.2706   -8.9669   19.0691 C   0  0  0  0  0  0  0  0  0  0  0  0
    3.0279   -5.3073   26.8197 C   0  0  0  0  0  0  0  0  0  0  0  0
    7.3282   -3.8948   29.1186 C   0  0  0  0  0  0  0  0  0  0  0  0
  1  3  4  0
  1  7  4  0
  2  3  1  0
  2  6  4  0
  2 16  4  0
  3 22  4  0
  4  9  4  0
  4 10  1  0
  4 20  4  0
  5 16  4  0
  5 23  4  0
  6 15  4  0
  7 12  4  0
  8 13  4  0
  8 14  4  0
  9 11  4  0
 11 14  4  0
 11 19  4  0
 12 18  4  0
 13 21  4  0
 15 23  4  0
 17 19  4  0
 17 20  4  0
 18 22  4  0
 19 21  4  0
M  END
$$$$

 Created by Python create_sdf_string function

 23 25  0  0  0  0  0  0  0  0999 V2000
    2.4610   -5.3070   29.1240 C   0  0  0  0  0  0  0  0  0  0  0  0
    4.7710   -4.6952   28.4803 C   0  0  0  0  0  0  0  0  0  0  0  0
    3.4047   -5.1087   28.1314 C   0  0  0  0  0  0  0  0  0  0  0  0
   -0.2234  -11.8615   16.8874 C   0  0  0  0  0  0  0  0  0  0  0  0
    6.4491   -4.1532   30.1213 C   0  0  0  0  0  0  0  0  0  0  0  0
    5.7060   -4.4340   27.4975 C   0  0  0  0  0  0  0  0  0  0  0  0
    1.1818   -5.6612   28.8399 C   0  0  0  0  0  0  0  0  0  0  0  0
   -1.2067   -7.3287   17.7772 C   0  0  0  0  0  0  0  0  0  0  0  0
   -0.0206  -10.5585   16.6210 C   0  0  0  0  0  0  0  0  0  0  0  0
    0.3696  -12.7626   16.2169 O   0  0  0  0  0  0  0  0  0  0  0  0
   -0.6895   -9.5676   17.3297 C   0  0  0  0  0  0  0  0  0  0  0  0
    0.8388   -5.8417   27.5264 C   0  0  0  0  0  0  0  0  0  0  0  0
   -2.0709   -7.6637   18.7817 C   0  0  0  0  0  0  0  0  0  0  0  0
   -0.5279   -8.2168   17.0717 C   0  0  0  0  0  0  0  0  0  0  0  0
    6.9694   -4.0191   27.8190 C   0  0  0  0  0  0  0  0  0  0  0  0
    5.1733   -4.5469   29.8123 C   0  0  0  0  0  0  0  0  0  0  0  0
   -1.7508  -11.3016   18.6072 C   0  0  0  0  0  0  0  0  0  0  0  0
    1.7497   -5.6771   26.4971 C   0  0  0  0  0  0  0  0  0  0  0  0
   -1.5799   -9.9322   18.3468 C   0  0  0  0  0  0  0  0  0  0  0  0
   -1.0871  -12.2214   17.8851 C   0  0  0  0  0  0  0  0  0  0  0  0
   -2.2706   -8.9669   19.0691 C   0  0  0  0  0  0  0  0  0  0  0  0
    3.0279   -5.3073   26.8197 C   0  0  0  0  0  0  0  0  0  0  0  0
    7.3282   -3.8948   29.1186 C   0  0  0  0  0  0  0  0  0  0  0  0
  1  3  4  0
  1  7  4  0
  2  3  1  0
  2  6  4  0
  2 16  4  0
  3 22  4  0
  4  9  4  0
  4 10  1  0
  4 20  4  0
  5 16  4  0
  5 23  4  0
  6 15  4  0
  7 12  4  0
  8 13  4  0
  8 14  4  0
  9 11  4  0
 11 14  4  0
 11 19  4  0
 12 18  4  0
 13 21  4  0
 15 23  4  0
 17 19  4  0
 17 20  4  0
 18 22  4  0
 19 21  4  0
M  END
$$$$

 Created by Python create_sdf_string function

 23 25  0  0  0  0  0  0  0  0999 V2000
    2.4610   -5.3070   29.1240 C   0  0  0  0  0  0  0  0  0  0  0  0
    4.7710   -4.6952   28.4803 C   0  0  0  0  0  0  0  0  0  0  0  0
    3.4047   -5.1087   28.1314 C   0  0  0  0  0  0  0  0  0  0  0  0
   -0.2234  -11.8615   16.8874 C   0  0  0  0  0  0  0  0  0  0  0  0
    6.4491   -4.1532   30.1213 C   0  0  0  0  0  0  0  0  0  0  0  0
    5.7060   -4.4340   27.4975 C   0  0  0  0  0  0  0  0  0  0  0  0
    1.1818   -5.6612   28.8399 C   0  0  0  0  0  0  0  0  0  0  0  0
   -1.2067   -7.3287   17.7772 C   0  0  0  0  0  0  0  0  0  0  0  0
   -0.0206  -10.5585   16.6210 C   0  0  0  0  0  0  0  0  0  0  0  0
    0.3696  -12.7626   16.2169 O   0  0  0  0  0  0  0  0  0  0  0  0
   -0.6895   -9.5676   17.3297 C   0  0  0  0  0  0  0  0  0  0  0  0
    0.8388   -5.8417   27.5264 C   0  0  0  0  0  0  0  0  0  0  0  0
   -2.0709   -7.6637   18.7817 C   0  0  0  0  0  0  0  0  0  0  0  0
   -0.5279   -8.2168   17.0717 C   0  0  0  0  0  0  0  0  0  0  0  0
    6.9694   -4.0191   27.8190 C   0  0  0  0  0  0  0  0  0  0  0  0
    5.1733   -4.5469   29.8123 C   0  0  0  0  0  0  0  0  0  0  0  0
   -1.7508  -11.3016   18.6072 C   0  0  0  0  0  0  0  0  0  0  0  0
    1.7497   -5.6771   26.4971 C   0  0  0  0  0  0  0  0  0  0  0  0
   -1.5799   -9.9322   18.3468 C   0  0  0  0  0  0  0  0  0  0  0  0
   -1.0871  -12.2214   17.8851 C   0  0  0  0  0  0  0  0  0  0  0  0
   -2.2706   -8.9669   19.0691 C   0  0  0  0  0  0  0  0  0  0  0  0
    3.0279   -5.3073   26.8197 C   0  0  0  0  0  0  0  0  0  0  0  0
    7.3282   -3.8948   29.1186 C   0  0  0  0  0  0  0  0  0  0  0  0
  1  3  4  0
  1  7  4  0
  2  3  1  0
  2  6  4  0
  2 16  4  0
  3 22  4  0
  4  9  4  0
  4 10  1  0
  4 20  4  0
  5 16  4  0
  5 23  4  0
  6 15  4  0
  7 12  4  0
  8 13  4  0
  8 14  4  0
  9 11  4  0
 11 14  4  0
 11 19  4  0
 12 18  4  0
 13 21  4  0
 15 23  4  0
 17 19  4  0
 17 20  4  0
 18 22  4  0
 19 21  4  0
M  END
$$$$

 Created by Python create_sdf_string function

 23 25  0  0  0  0  0  0  0  0999 V2000
    2.4610   -5.3070   29.1240 C   0  0  0  0  0  0  0  0  0  0  0  0
    4.7710   -4.6952   28.4803 C   0  0  0  0  0  0  0  0  0  0  0  0
    3.4047   -5.1087   28.1314 C   0  0  0  0  0  0  0  0  0  0  0  0
   -0.2234  -11.8615   16.8874 C   0  0  0  0  0  0  0  0  0  0  0  0
    6.4491   -4.1532   30.1213 C   0  0  0  0  0  0  0  0  0  0  0  0
    5.7060   -4.4340   27.4975 C   0  0  0  0  0  0  0  0  0  0  0  0
    1.1818   -5.6612   28.8399 C   0  0  0  0  0  0  0  0  0  0  0  0
   -1.2067   -7.3287   17.7772 C   0  0  0  0  0  0  0  0  0  0  0  0
   -0.0206  -10.5585   16.6210 C   0  0  0  0  0  0  0  0  0  0  0  0
    0.3696  -12.7626   16.2169 O   0  0  0  0  0  0  0  0  0  0  0  0
   -0.6895   -9.5676   17.3297 C   0  0  0  0  0  0  0  0  0  0  0  0
    0.8388   -5.8417   27.5264 C   0  0  0  0  0  0  0  0  0  0  0  0
   -2.0709   -7.6637   18.7817 C   0  0  0  0  0  0  0  0  0  0  0  0
   -0.5279   -8.2168   17.0717 C   0  0  0  0  0  0  0  0  0  0  0  0
    6.9694   -4.0191   27.8190 C   0  0  0  0  0  0  0  0  0  0  0  0
    5.1733   -4.5469   29.8123 C   0  0  0  0  0  0  0  0  0  0  0  0
   -1.7508  -11.3016   18.6072 C   0  0  0  0  0  0  0  0  0  0  0  0
    1.7497   -5.6771   26.4971 C   0  0  0  0  0  0  0  0  0  0  0  0
   -1.5799   -9.9322   18.3468 C   0  0  0  0  0  0  0  0  0  0  0  0
   -1.0871  -12.2214   17.8851 C   0  0  0  0  0  0  0  0  0  0  0  0
   -2.2706   -8.9669   19.0691 C   0  0  0  0  0  0  0  0  0  0  0  0
    3.0279   -5.3073   26.8197 C   0  0  0  0  0  0  0  0  0  0  0  0
    7.3282   -3.8948   29.1186 C   0  0  0  0  0  0  0  0  0  0  0  0
  1  3  4  0
  1  7  4  0
  2  3  1  0
  2  6  4  0
  2 16  4  0
  3 22  4  0
  4  9  4  0
  4 10  1  0
  4 20  4  0
  5 16  4  0
  5 23  4  0
  6 15  4  0
  7 12  4  0
  8 13  4  0
  8 14  4  0
  9 11  4  0
 11 14  4  0
 11 19  4  0
 12 18  4  0
 13 21  4  0
 15 23  4  0
 17 19  4  0
 17 20  4  0
 18 22  4  0
 19 21  4  0
M  END
$$$$

 Created by Python create_sdf_string function

 23 25  0  0  0  0  0  0  0  0999 V2000
    2.4610   -5.3070   29.1240 C   0  0  0  0  0  0  0  0  0  0  0  0
    4.7710   -4.6952   28.4803 C   0  0  0  0  0  0  0  0  0  0  0  0
    3.4047   -5.1087   28.1314 C   0  0  0  0  0  0  0  0  0  0  0  0
   -0.2234  -11.8615   16.8874 C   0  0  0  0  0  0  0  0  0  0  0  0
    6.4491   -4.1532   30.1213 C   0  0  0  0  0  0  0  0  0  0  0  0
    5.7060   -4.4340   27.4975 C   0  0  0  0  0  0  0  0  0  0  0  0
    1.1818   -5.6612   28.8399 C   0  0  0  0  0  0  0  0  0  0  0  0
   -1.2067   -7.3287   17.7772 C   0  0  0  0  0  0  0  0  0  0  0  0
   -0.0206  -10.5585   16.6210 C   0  0  0  0  0  0  0  0  0  0  0  0
    0.3696  -12.7626   16.2169 O   0  0  0  0  0  0  0  0  0  0  0  0
   -0.6895   -9.5676   17.3297 C   0  0  0  0  0  0  0  0  0  0  0  0
    0.8388   -5.8417   27.5264 C   0  0  0  0  0  0  0  0  0  0  0  0
   -2.0709   -7.6637   18.7817 C   0  0  0  0  0  0  0  0  0  0  0  0
   -0.5279   -8.2168   17.0717 C   0  0  0  0  0  0  0  0  0  0  0  0
    6.9694   -4.0191   27.8190 C   0  0  0  0  0  0  0  0  0  0  0  0
    5.1733   -4.5469   29.8123 C   0  0  0  0  0  0  0  0  0  0  0  0
   -1.7508  -11.3016   18.6072 C   0  0  0  0  0  0  0  0  0  0  0  0
    1.7497   -5.6771   26.4971 C   0  0  0  0  0  0  0  0  0  0  0  0
   -1.5799   -9.9322   18.3468 C   0  0  0  0  0  0  0  0  0  0  0  0
   -1.0871  -12.2214   17.8851 C   0  0  0  0  0  0  0  0  0  0  0  0
   -2.2706   -8.9669   19.0691 C   0  0  0  0  0  0  0  0  0  0  0  0
    3.0279   -5.3073   26.8197 C   0  0  0  0  0  0  0  0  0  0  0  0
    7.3282   -3.8948   29.1186 C   0  0  0  0  0  0  0  0  0  0  0  0
  1  3  4  0
  1  7  4  0
  2  3  1  0
  2  6  4  0
  2 16  4  0
  3 22  4  0
  4  9  4  0
  4 10  1  0
  4 20  4  0
  5 16  4  0
  5 23  4  0
  6 15  4  0
  7 12  4  0
  8 13  4  0
  8 14  4  0
  9 11  4  0
 11 14  4  0
 11 19  4  0
 12 18  4  0
 13 21  4  0
 15 23  4  0
 17 19  4  0
 17 20  4  0
 18 22  4  0
 19 21  4  0
M  END
$$$$

 Created by Python create_sdf_string function

 23 25  0  0  0  0  0  0  0  0999 V2000
    2.4610   -5.3070   29.1240 C   0  0  0  0  0  0  0  0  0  0  0  0
    4.7710   -4.6952   28.4803 C   0  0  0  0  0  0  0  0  0  0  0  0
    3.4047   -5.1087   28.1314 C   0  0  0  0  0  0  0  0  0  0  0  0
   -0.2234  -11.8615   16.8874 C   0  0  0  0  0  0  0  0  0  0  0  0
    6.4491   -4.1532   30.1213 C   0  0  0  0  0  0  0  0  0  0  0  0
    5.7060   -4.4340   27.4975 C   0  0  0  0  0  0  0  0  0  0  0  0
    1.1818   -5.6612   28.8399 C   0  0  0  0  0  0  0  0  0  0  0  0
   -1.2067   -7.3287   17.7772 C   0  0  0  0  0  0  0  0  0  0  0  0
   -0.0206  -10.5585   16.6210 C   0  0  0  0  0  0  0  0  0  0  0  0
    0.3696  -12.7626   16.2169 O   0  0  0  0  0  0  0  0  0  0  0  0
   -0.6895   -9.5676   17.3297 C   0  0  0  0  0  0  0  0  0  0  0  0
    0.8388   -5.8417   27.5264 C   0  0  0  0  0  0  0  0  0  0  0  0
   -2.0709   -7.6637   18.7817 C   0  0  0  0  0  0  0  0  0  0  0  0
   -0.5279   -8.2168   17.0717 C   0  0  0  0  0  0  0  0  0  0  0  0
    6.9694   -4.0191   27.8190 C   0  0  0  0  0  0  0  0  0  0  0  0
    5.1733   -4.5469   29.8123 C   0  0  0  0  0  0  0  0  0  0  0  0
   -1.7508  -11.3016   18.6072 C   0  0  0  0  0  0  0  0  0  0  0  0
    1.7497   -5.6771   26.4971 C   0  0  0  0  0  0  0  0  0  0  0  0
   -1.5799   -9.9322   18.3468 C   0  0  0  0  0  0  0  0  0  0  0  0
   -1.0871  -12.2214   17.8851 C   0  0  0  0  0  0  0  0  0  0  0  0
   -2.2706   -8.9669   19.0691 C   0  0  0  0  0  0  0  0  0  0  0  0
    3.0279   -5.3073   26.8197 C   0  0  0  0  0  0  0  0  0  0  0  0
    7.3282   -3.8948   29.1186 C   0  0  0  0  0  0  0  0  0  0  0  0
  1  3  4  0
  1  7  4  0
  2  3  1  0
  2  6  4  0
  2 16  4  0
  3 22  4  0
  4  9  4  0
  4 10  1  0
  4 20  4  0
  5 16  4  0
  5 23  4  0
  6 15  4  0
  7 12  4  0
  8 13  4  0
  8 14  4  0
  9 11  4  0
 11 14  4  0
 11 19  4  0
 12 18  4  0
 13 21  4  0
 15 23  4  0
 17 19  4  0
 17 20  4  0
 18 22  4  0
 19 21  4  0
M  END
$$$$

 Created by Python create_sdf_string function

 23 25  0  0  0  0  0  0  0  0999 V2000
    2.4610   -5.3070   29.1240 C   0  0  0  0  0  0  0  0  0  0  0  0
    4.7710   -4.6952   28.4803 C   0  0  0  0  0  0  0  0  0  0  0  0
    3.4047   -5.1087   28.1314 C   0  0  0  0  0  0  0  0  0  0  0  0
   -0.2234  -11.8615   16.8874 C   0  0  0  0  0  0  0  0  0  0  0  0
    6.4491   -4.1532   30.1213 C   0  0  0  0  0  0  0  0  0  0  0  0
    5.7060   -4.4340   27.4975 C   0  0  0  0  0  0  0  0  0  0  0  0
    1.1818   -5.6612   28.8399 C   0  0  0  0  0  0  0  0  0  0  0  0
   -1.2067   -7.3287   17.7772 C   0  0  0  0  0  0  0  0  0  0  0  0
   -0.0206  -10.5585   16.6210 C   0  0  0  0  0  0  0  0  0  0  0  0
    0.3696  -12.7626   16.2169 O   0  0  0  0  0  0  0  0  0  0  0  0
   -0.6895   -9.5676   17.3297 C   0  0  0  0  0  0  0  0  0  0  0  0
    0.8388   -5.8417   27.5264 C   0  0  0  0  0  0  0  0  0  0  0  0
   -2.0709   -7.6637   18.7817 C   0  0  0  0  0  0  0  0  0  0  0  0
   -0.5279   -8.2168   17.0717 C   0  0  0  0  0  0  0  0  0  0  0  0
    6.9694   -4.0191   27.8190 C   0  0  0  0  0  0  0  0  0  0  0  0
    5.1733   -4.5469   29.8123 C   0  0  0  0  0  0  0  0  0  0  0  0
   -1.7508  -11.3016   18.6072 C   0  0  0  0  0  0  0  0  0  0  0  0
    1.7497   -5.6771   26.4971 C   0  0  0  0  0  0  0  0  0  0  0  0
   -1.5799   -9.9322   18.3468 C   0  0  0  0  0  0  0  0  0  0  0  0
   -1.0871  -12.2214   17.8851 C   0  0  0  0  0  0  0  0  0  0  0  0
   -2.2706   -8.9669   19.0691 C   0  0  0  0  0  0  0  0  0  0  0  0
    3.0279   -5.3073   26.8197 C   0  0  0  0  0  0  0  0  0  0  0  0
    7.3282   -3.8948   29.1186 C   0  0  0  0  0  0  0  0  0  0  0  0
  1  3  4  0
  1  7  4  0
  2  3  1  0
  2  6  4  0
  2 16  4  0
  3 22  4  0
  4  9  4  0
  4 10  1  0
  4 20  4  0
  5 16  4  0
  5 23  4  0
  6 15  4  0
  7 12  4  0
  8 13  4  0
  8 14  4  0
  9 11  4  0
 11 14  4  0
 11 19  4  0
 12 18  4  0
 13 21  4  0
 15 23  4  0
 17 19  4  0
 17 20  4  0
 18 22  4  0
 19 21  4  0
M  END
$$$$

 Created by Python create_sdf_string function

 23 25  0  0  0  0  0  0  0  0999 V2000
    2.4610   -5.3070   29.1240 C   0  0  0  0  0  0  0  0  0  0  0  0
    4.7710   -4.6952   28.4803 C   0  0  0  0  0  0  0  0  0  0  0  0
    3.4047   -5.1087   28.1314 C   0  0  0  0  0  0  0  0  0  0  0  0
   -0.2234  -11.8615   16.8874 C   0  0  0  0  0  0  0  0  0  0  0  0
    6.4491   -4.1532   30.1213 C   0  0  0  0  0  0  0  0  0  0  0  0
    5.7060   -4.4340   27.4975 C   0  0  0  0  0  0  0  0  0  0  0  0
    1.1818   -5.6612   28.8399 C   0  0  0  0  0  0  0  0  0  0  0  0
   -1.2067   -7.3287   17.7772 C   0  0  0  0  0  0  0  0  0  0  0  0
   -0.0206  -10.5585   16.6210 C   0  0  0  0  0  0  0  0  0  0  0  0
    0.3696  -12.7626   16.2169 O   0  0  0  0  0  0  0  0  0  0  0  0
   -0.6895   -9.5676   17.3297 C   0  0  0  0  0  0  0  0  0  0  0  0
    0.8388   -5.8417   27.5264 C   0  0  0  0  0  0  0  0  0  0  0  0
   -2.0709   -7.6637   18.7817 C   0  0  0  0  0  0  0  0  0  0  0  0
   -0.5279   -8.2168   17.0717 C   0  0  0  0  0  0  0  0  0  0  0  0
    6.9694   -4.0191   27.8190 C   0  0  0  0  0  0  0  0  0  0  0  0
    5.1733   -4.5469   29.8123 C   0  0  0  0  0  0  0  0  0  0  0  0
   -1.7508  -11.3016   18.6072 C   0  0  0  0  0  0  0  0  0  0  0  0
    1.7497   -5.6771   26.4971 C   0  0  0  0  0  0  0  0  0  0  0  0
   -1.5799   -9.9322   18.3468 C   0  0  0  0  0  0  0  0  0  0  0  0
   -1.0871  -12.2214   17.8851 C   0  0  0  0  0  0  0  0  0  0  0  0
   -2.2706   -8.9669   19.0691 C   0  0  0  0  0  0  0  0  0  0  0  0
    3.0279   -5.3073   26.8197 C   0  0  0  0  0  0  0  0  0  0  0  0
    7.3282   -3.8948   29.1186 C   0  0  0  0  0  0  0  0  0  0  0  0
  1  3  4  0
  1  7  4  0
  2  3  1  0
  2  6  4  0
  2 16  4  0
  3 22  4  0
  4  9  4  0
  4 10  1  0
  4 20  4  0
  5 16  4  0
  5 23  4  0
  6 15  4  0
  7 12  4  0
  8 13  4  0
  8 14  4  0
  9 11  4  0
 11 14  4  0
 11 19  4  0
 12 18  4  0
 13 21  4  0
 15 23  4  0
 17 19  4  0
 17 20  4  0
 18 22  4  0
 19 21  4  0
M  END
$$$$

 Created by Python create_sdf_string function

 23 25  0  0  0  0  0  0  0  0999 V2000
    2.4610   -5.3070   29.1240 C   0  0  0  0  0  0  0  0  0  0  0  0
    4.7710   -4.6952   28.4803 C   0  0  0  0  0  0  0  0  0  0  0  0
    3.4047   -5.1087   28.1314 C   0  0  0  0  0  0  0  0  0  0  0  0
   -0.2234  -11.8615   16.8874 C   0  0  0  0  0  0  0  0  0  0  0  0
    6.4491   -4.1532   30.1213 C   0  0  0  0  0  0  0  0  0  0  0  0
    5.7060   -4.4340   27.4975 C   0  0  0  0  0  0  0  0  0  0  0  0
    1.1818   -5.6612   28.8399 C   0  0  0  0  0  0  0  0  0  0  0  0
   -1.2067   -7.3287   17.7772 C   0  0  0  0  0  0  0  0  0  0  0  0
   -0.0206  -10.5585   16.6210 C   0  0  0  0  0  0  0  0  0  0  0  0
    0.3696  -12.7626   16.2169 O   0  0  0  0  0  0  0  0  0  0  0  0
   -0.6895   -9.5676   17.3297 C   0  0  0  0  0  0  0  0  0  0  0  0
    0.8388   -5.8417   27.5264 C   0  0  0  0  0  0  0  0  0  0  0  0
   -2.0709   -7.6637   18.7817 C   0  0  0  0  0  0  0  0  0  0  0  0
   -0.5279   -8.2168   17.0717 C   0  0  0  0  0  0  0  0  0  0  0  0
    6.9694   -4.0191   27.8190 C   0  0  0  0  0  0  0  0  0  0  0  0
    5.1733   -4.5469   29.8123 C   0  0  0  0  0  0  0  0  0  0  0  0
   -1.7508  -11.3016   18.6072 C   0  0  0  0  0  0  0  0  0  0  0  0
    1.7497   -5.6771   26.4971 C   0  0  0  0  0  0  0  0  0  0  0  0
   -1.5799   -9.9322   18.3468 C   0  0  0  0  0  0  0  0  0  0  0  0
   -1.0871  -12.2214   17.8851 C   0  0  0  0  0  0  0  0  0  0  0  0
   -2.2706   -8.9669   19.0691 C   0  0  0  0  0  0  0  0  0  0  0  0
    3.0279   -5.3073   26.8197 C   0  0  0  0  0  0  0  0  0  0  0  0
    7.3282   -3.8948   29.1186 C   0  0  0  0  0  0  0  0  0  0  0  0
  1  3  4  0
  1  7  4  0
  2  3  1  0
  2  6  4  0
  2 16  4  0
  3 22  4  0
  4  9  4  0
  4 10  1  0
  4 20  4  0
  5 16  4  0
  5 23  4  0
  6 15  4  0
  7 12  4  0
  8 13  4  0
  8 14  4  0
  9 11  4  0
 11 14  4  0
 11 19  4  0
 12 18  4  0
 13 21  4  0
 15 23  4  0
 17 19  4  0
 17 20  4  0
 18 22  4  0
 19 21  4  0
M  END
$$$$

 Created by Python create_sdf_string function

 23 25  0  0  0  0  0  0  0  0999 V2000
    2.4610   -5.3070   29.1240 C   0  0  0  0  0  0  0  0  0  0  0  0
    4.7710   -4.6952   28.4803 C   0  0  0  0  0  0  0  0  0  0  0  0
    3.4047   -5.1087   28.1314 C   0  0  0  0  0  0  0  0  0  0  0  0
   -0.2234  -11.8615   16.8874 C   0  0  0  0  0  0  0  0  0  0  0  0
    6.4491   -4.1532   30.1213 C   0  0  0  0  0  0  0  0  0  0  0  0
    5.7060   -4.4340   27.4975 C   0  0  0  0  0  0  0  0  0  0  0  0
    1.1818   -5.6612   28.8399 C   0  0  0  0  0  0  0  0  0  0  0  0
   -1.2067   -7.3287   17.7772 C   0  0  0  0  0  0  0  0  0  0  0  0
   -0.0206  -10.5585   16.6210 C   0  0  0  0  0  0  0  0  0  0  0  0
    0.3696  -12.7626   16.2169 O   0  0  0  0  0  0  0  0  0  0  0  0
   -0.6895   -9.5676   17.3297 C   0  0  0  0  0  0  0  0  0  0  0  0
    0.8388   -5.8417   27.5264 C   0  0  0  0  0  0  0  0  0  0  0  0
   -2.0709   -7.6637   18.7817 C   0  0  0  0  0  0  0  0  0  0  0  0
   -0.5279   -8.2168   17.0717 C   0  0  0  0  0  0  0  0  0  0  0  0
    6.9694   -4.0191   27.8190 C   0  0  0  0  0  0  0  0  0  0  0  0
    5.1733   -4.5469   29.8123 C   0  0  0  0  0  0  0  0  0  0  0  0
   -1.7508  -11.3016   18.6072 C   0  0  0  0  0  0  0  0  0  0  0  0
    1.7497   -5.6771   26.4971 C   0  0  0  0  0  0  0  0  0  0  0  0
   -1.5799   -9.9322   18.3468 C   0  0  0  0  0  0  0  0  0  0  0  0
   -1.0871  -12.2214   17.8851 C   0  0  0  0  0  0  0  0  0  0  0  0
   -2.2706   -8.9669   19.0691 C   0  0  0  0  0  0  0  0  0  0  0  0
    3.0279   -5.3073   26.8197 C   0  0  0  0  0  0  0  0  0  0  0  0
    7.3282   -3.8948   29.1186 C   0  0  0  0  0  0  0  0  0  0  0  0
  1  3  4  0
  1  7  4  0
  2  3  1  0
  2  6  4  0
  2 16  4  0
  3 22  4  0
  4  9  4  0
  4 10  1  0
  4 20  4  0
  5 16  4  0
  5 23  4  0
  6 15  4  0
  7 12  4  0
  8 13  4  0
  8 14  4  0
  9 11  4  0
 11 14  4  0
 11 19  4  0
 12 18  4  0
 13 21  4  0
 15 23  4  0
 17 19  4  0
 17 20  4  0
 18 22  4  0
 19 21  4  0
M  END
$$$$

 Created by Python create_sdf_string function

 23 25  0  0  0  0  0  0  0  0999 V2000
    2.4610   -5.3070   29.1240 C   0  0  0  0  0  0  0  0  0  0  0  0
    4.7710   -4.6952   28.4803 C   0  0  0  0  0  0  0  0  0  0  0  0
    3.4047   -5.1087   28.1314 C   0  0  0  0  0  0  0  0  0  0  0  0
   -0.2234  -11.8615   16.8874 C   0  0  0  0  0  0  0  0  0  0  0  0
    6.4491   -4.1532   30.1213 C   0  0  0  0  0  0  0  0  0  0  0  0
    5.7060   -4.4340   27.4975 C   0  0  0  0  0  0  0  0  0  0  0  0
    1.1818   -5.6612   28.8399 C   0  0  0  0  0  0  0  0  0  0  0  0
   -1.2067   -7.3287   17.7772 C   0  0  0  0  0  0  0  0  0  0  0  0
   -0.0206  -10.5585   16.6210 C   0  0  0  0  0  0  0  0  0  0  0  0
    0.3696  -12.7626   16.2169 O   0  0  0  0  0  0  0  0  0  0  0  0
   -0.6895   -9.5676   17.3297 C   0  0  0  0  0  0  0  0  0  0  0  0
    0.8388   -5.8417   27.5264 C   0  0  0  0  0  0  0  0  0  0  0  0
   -2.0709   -7.6637   18.7817 C   0  0  0  0  0  0  0  0  0  0  0  0
   -0.5279   -8.2168   17.0717 C   0  0  0  0  0  0  0  0  0  0  0  0
    6.9694   -4.0191   27.8190 C   0  0  0  0  0  0  0  0  0  0  0  0
    5.1733   -4.5469   29.8123 C   0  0  0  0  0  0  0  0  0  0  0  0
   -1.7508  -11.3016   18.6072 C   0  0  0  0  0  0  0  0  0  0  0  0
    1.7497   -5.6771   26.4971 C   0  0  0  0  0  0  0  0  0  0  0  0
   -1.5799   -9.9322   18.3468 C   0  0  0  0  0  0  0  0  0  0  0  0
   -1.0871  -12.2214   17.8851 C   0  0  0  0  0  0  0  0  0  0  0  0
   -2.2706   -8.9669   19.0691 C   0  0  0  0  0  0  0  0  0  0  0  0
    3.0279   -5.3073   26.8197 C   0  0  0  0  0  0  0  0  0  0  0  0
    7.3282   -3.8948   29.1186 C   0  0  0  0  0  0  0  0  0  0  0  0
  1  3  4  0
  1  7  4  0
  2  3  1  0
  2  6  4  0
  2 16  4  0
  3 22  4  0
  4  9  4  0
  4 10  1  0
  4 20  4  0
  5 16  4  0
  5 23  4  0
  6 15  4  0
  7 12  4  0
  8 13  4  0
  8 14  4  0
  9 11  4  0
 11 14  4  0
 11 19  4  0
 12 18  4  0
 13 21  4  0
 15 23  4  0
 17 19  4  0
 17 20  4  0
 18 22  4  0
 19 21  4  0
M  END
$$$$

 Created by Python create_sdf_string function

 23 25  0  0  0  0  0  0  0  0999 V2000
    2.4610   -5.3070   29.1240 C   0  0  0  0  0  0  0  0  0  0  0  0
    4.7710   -4.6952   28.4803 C   0  0  0  0  0  0  0  0  0  0  0  0
    3.4047   -5.1087   28.1314 C   0  0  0  0  0  0  0  0  0  0  0  0
   -0.2234  -11.8615   16.8874 C   0  0  0  0  0  0  0  0  0  0  0  0
    6.4491   -4.1532   30.1213 C   0  0  0  0  0  0  0  0  0  0  0  0
    5.7060   -4.4340   27.4975 C   0  0  0  0  0  0  0  0  0  0  0  0
    1.1818   -5.6612   28.8399 C   0  0  0  0  0  0  0  0  0  0  0  0
   -1.2067   -7.3287   17.7772 C   0  0  0  0  0  0  0  0  0  0  0  0
   -0.0206  -10.5585   16.6210 C   0  0  0  0  0  0  0  0  0  0  0  0
    0.3696  -12.7626   16.2169 O   0  0  0  0  0  0  0  0  0  0  0  0
   -0.6895   -9.5676   17.3297 C   0  0  0  0  0  0  0  0  0  0  0  0
    0.8388   -5.8417   27.5264 C   0  0  0  0  0  0  0  0  0  0  0  0
   -2.0709   -7.6637   18.7817 C   0  0  0  0  0  0  0  0  0  0  0  0
   -0.5279   -8.2168   17.0717 C   0  0  0  0  0  0  0  0  0  0  0  0
    6.9694   -4.0191   27.8190 C   0  0  0  0  0  0  0  0  0  0  0  0
    5.1733   -4.5469   29.8123 C   0  0  0  0  0  0  0  0  0  0  0  0
   -1.7508  -11.3016   18.6072 C   0  0  0  0  0  0  0  0  0  0  0  0
    1.7497   -5.6771   26.4971 C   0  0  0  0  0  0  0  0  0  0  0  0
   -1.5799   -9.9322   18.3468 C   0  0  0  0  0  0  0  0  0  0  0  0
   -1.0871  -12.2214   17.8851 C   0  0  0  0  0  0  0  0  0  0  0  0
   -2.2706   -8.9669   19.0691 C   0  0  0  0  0  0  0  0  0  0  0  0
    3.0279   -5.3073   26.8197 C   0  0  0  0  0  0  0  0  0  0  0  0
    7.3282   -3.8948   29.1186 C   0  0  0  0  0  0  0  0  0  0  0  0
  1  3  4  0
  1  7  4  0
  2  3  1  0
  2  6  4  0
  2 16  4  0
  3 22  4  0
  4  9  4  0
  4 10  1  0
  4 20  4  0
  5 16  4  0
  5 23  4  0
  6 15  4  0
  7 12  4  0
  8 13  4  0
  8 14  4  0
  9 11  4  0
 11 14  4  0
 11 19  4  0
 12 18  4  0
 13 21  4  0
 15 23  4  0
 17 19  4  0
 17 20  4  0
 18 22  4  0
 19 21  4  0
M  END
$$$$

 Created by Python create_sdf_string function

 23 25  0  0  0  0  0  0  0  0999 V2000
    2.4610   -5.3070   29.1240 C   0  0  0  0  0  0  0  0  0  0  0  0
    4.7710   -4.6952   28.4803 C   0  0  0  0  0  0  0  0  0  0  0  0
    3.4047   -5.1087   28.1314 C   0  0  0  0  0  0  0  0  0  0  0  0
   -0.2234  -11.8615   16.8874 C   0  0  0  0  0  0  0  0  0  0  0  0
    6.4491   -4.1532   30.1213 C   0  0  0  0  0  0  0  0  0  0  0  0
    5.7060   -4.4340   27.4975 C   0  0  0  0  0  0  0  0  0  0  0  0
    1.1818   -5.6612   28.8399 C   0  0  0  0  0  0  0  0  0  0  0  0
   -1.2067   -7.3287   17.7772 C   0  0  0  0  0  0  0  0  0  0  0  0
   -0.0206  -10.5585   16.6210 C   0  0  0  0  0  0  0  0  0  0  0  0
    0.3696  -12.7626   16.2169 O   0  0  0  0  0  0  0  0  0  0  0  0
   -0.6895   -9.5676   17.3297 C   0  0  0  0  0  0  0  0  0  0  0  0
    0.8388   -5.8417   27.5264 C   0  0  0  0  0  0  0  0  0  0  0  0
   -2.0709   -7.6637   18.7817 C   0  0  0  0  0  0  0  0  0  0  0  0
   -0.5279   -8.2168   17.0717 C   0  0  0  0  0  0  0  0  0  0  0  0
    6.9694   -4.0191   27.8190 C   0  0  0  0  0  0  0  0  0  0  0  0
    5.1733   -4.5469   29.8123 C   0  0  0  0  0  0  0  0  0  0  0  0
   -1.7508  -11.3016   18.6072 C   0  0  0  0  0  0  0  0  0  0  0  0
    1.7497   -5.6771   26.4971 C   0  0  0  0  0  0  0  0  0  0  0  0
   -1.5799   -9.9322   18.3468 C   0  0  0  0  0  0  0  0  0  0  0  0
   -1.0871  -12.2214   17.8851 C   0  0  0  0  0  0  0  0  0  0  0  0
   -2.2706   -8.9669   19.0691 C   0  0  0  0  0  0  0  0  0  0  0  0
    3.0279   -5.3073   26.8197 C   0  0  0  0  0  0  0  0  0  0  0  0
    7.3282   -3.8948   29.1186 C   0  0  0  0  0  0  0  0  0  0  0  0
  1  3  4  0
  1  7  4  0
  2  3  1  0
  2  6  4  0
  2 16  4  0
  3 22  4  0
  4  9  4  0
  4 10  1  0
  4 20  4  0
  5 16  4  0
  5 23  4  0
  6 15  4  0
  7 12  4  0
  8 13  4  0
  8 14  4  0
  9 11  4  0
 11 14  4  0
 11 19  4  0
 12 18  4  0
 13 21  4  0
 15 23  4  0
 17 19  4  0
 17 20  4  0
 18 22  4  0
 19 21  4  0
M  END
$$$$

 Created by Python create_sdf_string function

 23 25  0  0  0  0  0  0  0  0999 V2000
    2.4610   -5.3070   29.1240 C   0  0  0  0  0  0  0  0  0  0  0  0
    4.7710   -4.6952   28.4803 C   0  0  0  0  0  0  0  0  0  0  0  0
    3.4047   -5.1087   28.1314 C   0  0  0  0  0  0  0  0  0  0  0  0
   -0.2234  -11.8615   16.8874 C   0  0  0  0  0  0  0  0  0  0  0  0
    6.4491   -4.1532   30.1213 C   0  0  0  0  0  0  0  0  0  0  0  0
    5.7060   -4.4340   27.4975 C   0  0  0  0  0  0  0  0  0  0  0  0
    1.1818   -5.6612   28.8399 C   0  0  0  0  0  0  0  0  0  0  0  0
   -1.2067   -7.3287   17.7772 C   0  0  0  0  0  0  0  0  0  0  0  0
   -0.0206  -10.5585   16.6210 C   0  0  0  0  0  0  0  0  0  0  0  0
    0.3696  -12.7626   16.2169 O   0  0  0  0  0  0  0  0  0  0  0  0
   -0.6895   -9.5676   17.3297 C   0  0  0  0  0  0  0  0  0  0  0  0
    0.8388   -5.8417   27.5264 C   0  0  0  0  0  0  0  0  0  0  0  0
   -2.0709   -7.6637   18.7817 C   0  0  0  0  0  0  0  0  0  0  0  0
   -0.5279   -8.2168   17.0717 C   0  0  0  0  0  0  0  0  0  0  0  0
    6.9694   -4.0191   27.8190 C   0  0  0  0  0  0  0  0  0  0  0  0
    5.1733   -4.5469   29.8123 C   0  0  0  0  0  0  0  0  0  0  0  0
   -1.7508  -11.3016   18.6072 C   0  0  0  0  0  0  0  0  0  0  0  0
    1.7497   -5.6771   26.4971 C   0  0  0  0  0  0  0  0  0  0  0  0
   -1.5799   -9.9322   18.3468 C   0  0  0  0  0  0  0  0  0  0  0  0
   -1.0871  -12.2214   17.8851 C   0  0  0  0  0  0  0  0  0  0  0  0
   -2.2706   -8.9669   19.0691 C   0  0  0  0  0  0  0  0  0  0  0  0
    3.0279   -5.3073   26.8197 C   0  0  0  0  0  0  0  0  0  0  0  0
    7.3282   -3.8948   29.1186 C   0  0  0  0  0  0  0  0  0  0  0  0
  1  3  4  0
  1  7  4  0
  2  3  1  0
  2  6  4  0
  2 16  4  0
  3 22  4  0
  4  9  4  0
  4 10  1  0
  4 20  4  0
  5 16  4  0
  5 23  4  0
  6 15  4  0
  7 12  4  0
  8 13  4  0
  8 14  4  0
  9 11  4  0
 11 14  4  0
 11 19  4  0
 12 18  4  0
 13 21  4  0
 15 23  4  0
 17 19  4  0
 17 20  4  0
 18 22  4  0
 19 21  4  0
M  END
$$$$

 Created by Python create_sdf_string function

 23 25  0  0  0  0  0  0  0  0999 V2000
    2.4610   -5.3070   29.1240 C   0  0  0  0  0  0  0  0  0  0  0  0
    4.7710   -4.6952   28.4803 C   0  0  0  0  0  0  0  0  0  0  0  0
    3.4047   -5.1087   28.1314 C   0  0  0  0  0  0  0  0  0  0  0  0
   -0.2234  -11.8615   16.8874 C   0  0  0  0  0  0  0  0  0  0  0  0
    6.4491   -4.1532   30.1213 C   0  0  0  0  0  0  0  0  0  0  0  0
    5.7060   -4.4340   27.4975 C   0  0  0  0  0  0  0  0  0  0  0  0
    1.1818   -5.6612   28.8399 C   0  0  0  0  0  0  0  0  0  0  0  0
   -1.2067   -7.3287   17.7772 C   0  0  0  0  0  0  0  0  0  0  0  0
   -0.0206  -10.5585   16.6210 C   0  0  0  0  0  0  0  0  0  0  0  0
    0.3696  -12.7626   16.2169 O   0  0  0  0  0  0  0  0  0  0  0  0
   -0.6895   -9.5676   17.3297 C   0  0  0  0  0  0  0  0  0  0  0  0
    0.8388   -5.8417   27.5264 C   0  0  0  0  0  0  0  0  0  0  0  0
   -2.0709   -7.6637   18.7817 C   0  0  0  0  0  0  0  0  0  0  0  0
   -0.5279   -8.2168   17.0717 C   0  0  0  0  0  0  0  0  0  0  0  0
    6.9694   -4.0191   27.8190 C   0  0  0  0  0  0  0  0  0  0  0  0
    5.1733   -4.5469   29.8123 C   0  0  0  0  0  0  0  0  0  0  0  0
   -1.7508  -11.3016   18.6072 C   0  0  0  0  0  0  0  0  0  0  0  0
    1.7497   -5.6771   26.4971 C   0  0  0  0  0  0  0  0  0  0  0  0
   -1.5799   -9.9322   18.3468 C   0  0  0  0  0  0  0  0  0  0  0  0
   -1.0871  -12.2214   17.8851 C   0  0  0  0  0  0  0  0  0  0  0  0
   -2.2706   -8.9669   19.0691 C   0  0  0  0  0  0  0  0  0  0  0  0
    3.0279   -5.3073   26.8197 C   0  0  0  0  0  0  0  0  0  0  0  0
    7.3282   -3.8948   29.1186 C   0  0  0  0  0  0  0  0  0  0  0  0
  1  3  4  0
  1  7  4  0
  2  3  1  0
  2  6  4  0
  2 16  4  0
  3 22  4  0
  4  9  4  0
  4 10  1  0
  4 20  4  0
  5 16  4  0
  5 23  4  0
  6 15  4  0
  7 12  4  0
  8 13  4  0
  8 14  4  0
  9 11  4  0
 11 14  4  0
 11 19  4  0
 12 18  4  0
 13 21  4  0
 15 23  4  0
 17 19  4  0
 17 20  4  0
 18 22  4  0
 19 21  4  0
M  END
$$$$

 Created by Python create_sdf_string function

 23 25  0  0  0  0  0  0  0  0999 V2000
    2.4610   -5.3070   29.1240 C   0  0  0  0  0  0  0  0  0  0  0  0
    4.7710   -4.6952   28.4803 C   0  0  0  0  0  0  0  0  0  0  0  0
    3.4047   -5.1087   28.1314 C   0  0  0  0  0  0  0  0  0  0  0  0
   -0.2234  -11.8615   16.8874 C   0  0  0  0  0  0  0  0  0  0  0  0
    6.4491   -4.1532   30.1213 C   0  0  0  0  0  0  0  0  0  0  0  0
    5.7060   -4.4340   27.4975 C   0  0  0  0  0  0  0  0  0  0  0  0
    1.1818   -5.6612   28.8399 C   0  0  0  0  0  0  0  0  0  0  0  0
   -1.2067   -7.3287   17.7772 C   0  0  0  0  0  0  0  0  0  0  0  0
   -0.0206  -10.5585   16.6210 C   0  0  0  0  0  0  0  0  0  0  0  0
    0.3696  -12.7626   16.2169 O   0  0  0  0  0  0  0  0  0  0  0  0
   -0.6895   -9.5676   17.3297 C   0  0  0  0  0  0  0  0  0  0  0  0
    0.8388   -5.8417   27.5264 C   0  0  0  0  0  0  0  0  0  0  0  0
   -2.0709   -7.6637   18.7817 C   0  0  0  0  0  0  0  0  0  0  0  0
   -0.5279   -8.2168   17.0717 C   0  0  0  0  0  0  0  0  0  0  0  0
    6.9694   -4.0191   27.8190 C   0  0  0  0  0  0  0  0  0  0  0  0
    5.1733   -4.5469   29.8123 C   0  0  0  0  0  0  0  0  0  0  0  0
   -1.7508  -11.3016   18.6072 C   0  0  0  0  0  0  0  0  0  0  0  0
    1.7497   -5.6771   26.4971 C   0  0  0  0  0  0  0  0  0  0  0  0
   -1.5799   -9.9322   18.3468 C   0  0  0  0  0  0  0  0  0  0  0  0
   -1.0871  -12.2214   17.8851 C   0  0  0  0  0  0  0  0  0  0  0  0
   -2.2706   -8.9669   19.0691 C   0  0  0  0  0  0  0  0  0  0  0  0
    3.0279   -5.3073   26.8197 C   0  0  0  0  0  0  0  0  0  0  0  0
    7.3282   -3.8948   29.1186 C   0  0  0  0  0  0  0  0  0  0  0  0
  1  3  4  0
  1  7  4  0
  2  3  1  0
  2  6  4  0
  2 16  4  0
  3 22  4  0
  4  9  4  0
  4 10  1  0
  4 20  4  0
  5 16  4  0
  5 23  4  0
  6 15  4  0
  7 12  4  0
  8 13  4  0
  8 14  4  0
  9 11  4  0
 11 14  4  0
 11 19  4  0
 12 18  4  0
 13 21  4  0
 15 23  4  0
 17 19  4  0
 17 20  4  0
 18 22  4  0
 19 21  4  0
M  END
$$$$

 Created by Python create_sdf_string function

 23 25  0  0  0  0  0  0  0  0999 V2000
    2.4610   -5.3070   29.1240 C   0  0  0  0  0  0  0  0  0  0  0  0
    4.7710   -4.6952   28.4803 C   0  0  0  0  0  0  0  0  0  0  0  0
    3.4047   -5.1087   28.1314 C   0  0  0  0  0  0  0  0  0  0  0  0
   -0.2234  -11.8615   16.8874 C   0  0  0  0  0  0  0  0  0  0  0  0
    6.4491   -4.1532   30.1213 C   0  0  0  0  0  0  0  0  0  0  0  0
    5.7060   -4.4340   27.4975 C   0  0  0  0  0  0  0  0  0  0  0  0
    1.1818   -5.6612   28.8399 C   0  0  0  0  0  0  0  0  0  0  0  0
   -1.2067   -7.3287   17.7772 C   0  0  0  0  0  0  0  0  0  0  0  0
   -0.0206  -10.5585   16.6210 C   0  0  0  0  0  0  0  0  0  0  0  0
    0.3696  -12.7626   16.2169 O   0  0  0  0  0  0  0  0  0  0  0  0
   -0.6895   -9.5676   17.3297 C   0  0  0  0  0  0  0  0  0  0  0  0
    0.8388   -5.8417   27.5264 C   0  0  0  0  0  0  0  0  0  0  0  0
   -2.0709   -7.6637   18.7817 C   0  0  0  0  0  0  0  0  0  0  0  0
   -0.5279   -8.2168   17.0717 C   0  0  0  0  0  0  0  0  0  0  0  0
    6.9694   -4.0191   27.8190 C   0  0  0  0  0  0  0  0  0  0  0  0
    5.1733   -4.5469   29.8123 C   0  0  0  0  0  0  0  0  0  0  0  0
   -1.7508  -11.3016   18.6072 C   0  0  0  0  0  0  0  0  0  0  0  0
    1.7497   -5.6771   26.4971 C   0  0  0  0  0  0  0  0  0  0  0  0
   -1.5799   -9.9322   18.3468 C   0  0  0  0  0  0  0  0  0  0  0  0
   -1.0871  -12.2214   17.8851 C   0  0  0  0  0  0  0  0  0  0  0  0
   -2.2706   -8.9669   19.0691 C   0  0  0  0  0  0  0  0  0  0  0  0
    3.0279   -5.3073   26.8197 C   0  0  0  0  0  0  0  0  0  0  0  0
    7.3282   -3.8948   29.1186 C   0  0  0  0  0  0  0  0  0  0  0  0
  1  3  4  0
  1  7  4  0
  2  3  1  0
  2  6  4  0
  2 16  4  0
  3 22  4  0
  4  9  4  0
  4 10  1  0
  4 20  4  0
  5 16  4  0
  5 23  4  0
  6 15  4  0
  7 12  4  0
  8 13  4  0
  8 14  4  0
  9 11  4  0
 11 14  4  0
 11 19  4  0
 12 18  4  0
 13 21  4  0
 15 23  4  0
 17 19  4  0
 17 20  4  0
 18 22  4  0
 19 21  4  0
M  END
$$$$

 Created by Python create_sdf_string function

 23 25  0  0  0  0  0  0  0  0999 V2000
    2.4610   -5.3070   29.1240 C   0  0  0  0  0  0  0  0  0  0  0  0
    4.7710   -4.6952   28.4803 C   0  0  0  0  0  0  0  0  0  0  0  0
    3.4047   -5.1087   28.1314 C   0  0  0  0  0  0  0  0  0  0  0  0
   -0.2234  -11.8615   16.8874 C   0  0  0  0  0  0  0  0  0  0  0  0
    6.4491   -4.1532   30.1213 C   0  0  0  0  0  0  0  0  0  0  0  0
    5.7060   -4.4340   27.4975 C   0  0  0  0  0  0  0  0  0  0  0  0
    1.1818   -5.6612   28.8399 C   0  0  0  0  0  0  0  0  0  0  0  0
   -1.2067   -7.3287   17.7772 C   0  0  0  0  0  0  0  0  0  0  0  0
   -0.0206  -10.5585   16.6210 C   0  0  0  0  0  0  0  0  0  0  0  0
    0.3696  -12.7626   16.2169 O   0  0  0  0  0  0  0  0  0  0  0  0
   -0.6895   -9.5676   17.3297 C   0  0  0  0  0  0  0  0  0  0  0  0
    0.8388   -5.8417   27.5264 C   0  0  0  0  0  0  0  0  0  0  0  0
   -2.0709   -7.6637   18.7817 C   0  0  0  0  0  0  0  0  0  0  0  0
   -0.5279   -8.2168   17.0717 C   0  0  0  0  0  0  0  0  0  0  0  0
    6.9694   -4.0191   27.8190 C   0  0  0  0  0  0  0  0  0  0  0  0
    5.1733   -4.5469   29.8123 C   0  0  0  0  0  0  0  0  0  0  0  0
   -1.7508  -11.3016   18.6072 C   0  0  0  0  0  0  0  0  0  0  0  0
    1.7497   -5.6771   26.4971 C   0  0  0  0  0  0  0  0  0  0  0  0
   -1.5799   -9.9322   18.3468 C   0  0  0  0  0  0  0  0  0  0  0  0
   -1.0871  -12.2214   17.8851 C   0  0  0  0  0  0  0  0  0  0  0  0
   -2.2706   -8.9669   19.0691 C   0  0  0  0  0  0  0  0  0  0  0  0
    3.0279   -5.3073   26.8197 C   0  0  0  0  0  0  0  0  0  0  0  0
    7.3282   -3.8948   29.1186 C   0  0  0  0  0  0  0  0  0  0  0  0
  1  3  4  0
  1  7  4  0
  2  3  1  0
  2  6  4  0
  2 16  4  0
  3 22  4  0
  4  9  4  0
  4 10  1  0
  4 20  4  0
  5 16  4  0
  5 23  4  0
  6 15  4  0
  7 12  4  0
  8 13  4  0
  8 14  4  0
  9 11  4  0
 11 14  4  0
 11 19  4  0
 12 18  4  0
 13 21  4  0
 15 23  4  0
 17 19  4  0
 17 20  4  0
 18 22  4  0
 19 21  4  0
M  END
$$$$

 Created by Python create_sdf_string function

 23 25  0  0  0  0  0  0  0  0999 V2000
    2.4610   -5.3070   29.1240 C   0  0  0  0  0  0  0  0  0  0  0  0
    4.7710   -4.6952   28.4803 C   0  0  0  0  0  0  0  0  0  0  0  0
    3.4047   -5.1087   28.1314 C   0  0  0  0  0  0  0  0  0  0  0  0
   -0.2234  -11.8615   16.8874 C   0  0  0  0  0  0  0  0  0  0  0  0
    6.4491   -4.1532   30.1213 C   0  0  0  0  0  0  0  0  0  0  0  0
    5.7060   -4.4340   27.4975 C   0  0  0  0  0  0  0  0  0  0  0  0
    1.1818   -5.6612   28.8399 C   0  0  0  0  0  0  0  0  0  0  0  0
   -1.2067   -7.3287   17.7772 C   0  0  0  0  0  0  0  0  0  0  0  0
   -0.0206  -10.5585   16.6210 C   0  0  0  0  0  0  0  0  0  0  0  0
    0.3696  -12.7626   16.2169 O   0  0  0  0  0  0  0  0  0  0  0  0
   -0.6895   -9.5676   17.3297 C   0  0  0  0  0  0  0  0  0  0  0  0
    0.8388   -5.8417   27.5264 C   0  0  0  0  0  0  0  0  0  0  0  0
   -2.0709   -7.6637   18.7817 C   0  0  0  0  0  0  0  0  0  0  0  0
   -0.5279   -8.2168   17.0717 C   0  0  0  0  0  0  0  0  0  0  0  0
    6.9694   -4.0191   27.8190 C   0  0  0  0  0  0  0  0  0  0  0  0
    5.1733   -4.5469   29.8123 C   0  0  0  0  0  0  0  0  0  0  0  0
   -1.7508  -11.3016   18.6072 C   0  0  0  0  0  0  0  0  0  0  0  0
    1.7497   -5.6771   26.4971 C   0  0  0  0  0  0  0  0  0  0  0  0
   -1.5799   -9.9322   18.3468 C   0  0  0  0  0  0  0  0  0  0  0  0
   -1.0871  -12.2214   17.8851 C   0  0  0  0  0  0  0  0  0  0  0  0
   -2.2706   -8.9669   19.0691 C   0  0  0  0  0  0  0  0  0  0  0  0
    3.0279   -5.3073   26.8197 C   0  0  0  0  0  0  0  0  0  0  0  0
    7.3282   -3.8948   29.1186 C   0  0  0  0  0  0  0  0  0  0  0  0
  1  3  4  0
  1  7  4  0
  2  3  1  0
  2  6  4  0
  2 16  4  0
  3 22  4  0
  4  9  4  0
  4 10  1  0
  4 20  4  0
  5 16  4  0
  5 23  4  0
  6 15  4  0
  7 12  4  0
  8 13  4  0
  8 14  4  0
  9 11  4  0
 11 14  4  0
 11 19  4  0
 12 18  4  0
 13 21  4  0
 15 23  4  0
 17 19  4  0
 17 20  4  0
 18 22  4  0
 19 21  4  0
M  END
$$$$

 Created by Python create_sdf_string function

 23 25  0  0  0  0  0  0  0  0999 V2000
    2.4610   -5.3070   29.1240 C   0  0  0  0  0  0  0  0  0  0  0  0
    4.7710   -4.6952   28.4803 C   0  0  0  0  0  0  0  0  0  0  0  0
    3.4047   -5.1087   28.1314 C   0  0  0  0  0  0  0  0  0  0  0  0
   -0.2234  -11.8615   16.8874 C   0  0  0  0  0  0  0  0  0  0  0  0
    6.4491   -4.1532   30.1213 C   0  0  0  0  0  0  0  0  0  0  0  0
    5.7060   -4.4340   27.4975 C   0  0  0  0  0  0  0  0  0  0  0  0
    1.1818   -5.6612   28.8399 C   0  0  0  0  0  0  0  0  0  0  0  0
   -1.2067   -7.3287   17.7772 C   0  0  0  0  0  0  0  0  0  0  0  0
   -0.0206  -10.5585   16.6210 C   0  0  0  0  0  0  0  0  0  0  0  0
    0.3696  -12.7626   16.2169 O   0  0  0  0  0  0  0  0  0  0  0  0
   -0.6895   -9.5676   17.3297 C   0  0  0  0  0  0  0  0  0  0  0  0
    0.8388   -5.8417   27.5264 C   0  0  0  0  0  0  0  0  0  0  0  0
   -2.0709   -7.6637   18.7817 C   0  0  0  0  0  0  0  0  0  0  0  0
   -0.5279   -8.2168   17.0717 C   0  0  0  0  0  0  0  0  0  0  0  0
    6.9694   -4.0191   27.8190 C   0  0  0  0  0  0  0  0  0  0  0  0
    5.1733   -4.5469   29.8123 C   0  0  0  0  0  0  0  0  0  0  0  0
   -1.7508  -11.3016   18.6072 C   0  0  0  0  0  0  0  0  0  0  0  0
    1.7497   -5.6771   26.4971 C   0  0  0  0  0  0  0  0  0  0  0  0
   -1.5799   -9.9322   18.3468 C   0  0  0  0  0  0  0  0  0  0  0  0
   -1.0871  -12.2214   17.8851 C   0  0  0  0  0  0  0  0  0  0  0  0
   -2.2706   -8.9669   19.0691 C   0  0  0  0  0  0  0  0  0  0  0  0
    3.0279   -5.3073   26.8197 C   0  0  0  0  0  0  0  0  0  0  0  0
    7.3282   -3.8948   29.1186 C   0  0  0  0  0  0  0  0  0  0  0  0
  1  3  4  0
  1  7  4  0
  2  3  1  0
  2  6  4  0
  2 16  4  0
  3 22  4  0
  4  9  4  0
  4 10  1  0
  4 20  4  0
  5 16  4  0
  5 23  4  0
  6 15  4  0
  7 12  4  0
  8 13  4  0
  8 14  4  0
  9 11  4  0
 11 14  4  0
 11 19  4  0
 12 18  4  0
 13 21  4  0
 15 23  4  0
 17 19  4  0
 17 20  4  0
 18 22  4  0
 19 21  4  0
M  END
$$$$

 Created by Python create_sdf_string function

 23 25  0  0  0  0  0  0  0  0999 V2000
    2.4610   -5.3070   29.1240 C   0  0  0  0  0  0  0  0  0  0  0  0
    4.7710   -4.6952   28.4803 C   0  0  0  0  0  0  0  0  0  0  0  0
    3.4047   -5.1087   28.1314 C   0  0  0  0  0  0  0  0  0  0  0  0
   -0.2234  -11.8615   16.8874 C   0  0  0  0  0  0  0  0  0  0  0  0
    6.4491   -4.1532   30.1213 C   0  0  0  0  0  0  0  0  0  0  0  0
    5.7060   -4.4340   27.4975 C   0  0  0  0  0  0  0  0  0  0  0  0
    1.1818   -5.6612   28.8399 C   0  0  0  0  0  0  0  0  0  0  0  0
   -1.2067   -7.3287   17.7772 C   0  0  0  0  0  0  0  0  0  0  0  0
   -0.0206  -10.5585   16.6210 C   0  0  0  0  0  0  0  0  0  0  0  0
    0.3696  -12.7626   16.2169 O   0  0  0  0  0  0  0  0  0  0  0  0
   -0.6895   -9.5676   17.3297 C   0  0  0  0  0  0  0  0  0  0  0  0
    0.8388   -5.8417   27.5264 C   0  0  0  0  0  0  0  0  0  0  0  0
   -2.0709   -7.6637   18.7817 C   0  0  0  0  0  0  0  0  0  0  0  0
   -0.5279   -8.2168   17.0717 C   0  0  0  0  0  0  0  0  0  0  0  0
    6.9694   -4.0191   27.8190 C   0  0  0  0  0  0  0  0  0  0  0  0
    5.1733   -4.5469   29.8123 C   0  0  0  0  0  0  0  0  0  0  0  0
   -1.7508  -11.3016   18.6072 C   0  0  0  0  0  0  0  0  0  0  0  0
    1.7497   -5.6771   26.4971 C   0  0  0  0  0  0  0  0  0  0  0  0
   -1.5799   -9.9322   18.3468 C   0  0  0  0  0  0  0  0  0  0  0  0
   -1.0871  -12.2214   17.8851 C   0  0  0  0  0  0  0  0  0  0  0  0
   -2.2706   -8.9669   19.0691 C   0  0  0  0  0  0  0  0  0  0  0  0
    3.0279   -5.3073   26.8197 C   0  0  0  0  0  0  0  0  0  0  0  0
    7.3282   -3.8948   29.1186 C   0  0  0  0  0  0  0  0  0  0  0  0
  1  3  4  0
  1  7  4  0
  2  3  1  0
  2  6  4  0
  2 16  4  0
  3 22  4  0
  4  9  4  0
  4 10  1  0
  4 20  4  0
  5 16  4  0
  5 23  4  0
  6 15  4  0
  7 12  4  0
  8 13  4  0
  8 14  4  0
  9 11  4  0
 11 14  4  0
 11 19  4  0
 12 18  4  0
 13 21  4  0
 15 23  4  0
 17 19  4  0
 17 20  4  0
 18 22  4  0
 19 21  4  0
M  END
$$$$

 Created by Python create_sdf_string function

 23 25  0  0  0  0  0  0  0  0999 V2000
    2.4610   -5.3070   29.1240 C   0  0  0  0  0  0  0  0  0  0  0  0
    4.7710   -4.6952   28.4803 C   0  0  0  0  0  0  0  0  0  0  0  0
    3.4047   -5.1087   28.1314 C   0  0  0  0  0  0  0  0  0  0  0  0
   -0.2234  -11.8615   16.8874 C   0  0  0  0  0  0  0  0  0  0  0  0
    6.4491   -4.1532   30.1213 C   0  0  0  0  0  0  0  0  0  0  0  0
    5.7060   -4.4340   27.4975 C   0  0  0  0  0  0  0  0  0  0  0  0
    1.1818   -5.6612   28.8399 C   0  0  0  0  0  0  0  0  0  0  0  0
   -1.2067   -7.3287   17.7772 C   0  0  0  0  0  0  0  0  0  0  0  0
   -0.0206  -10.5585   16.6210 C   0  0  0  0  0  0  0  0  0  0  0  0
    0.3696  -12.7626   16.2169 O   0  0  0  0  0  0  0  0  0  0  0  0
   -0.6895   -9.5676   17.3297 C   0  0  0  0  0  0  0  0  0  0  0  0
    0.8388   -5.8417   27.5264 C   0  0  0  0  0  0  0  0  0  0  0  0
   -2.0709   -7.6637   18.7817 C   0  0  0  0  0  0  0  0  0  0  0  0
   -0.5279   -8.2168   17.0717 C   0  0  0  0  0  0  0  0  0  0  0  0
    6.9694   -4.0191   27.8190 C   0  0  0  0  0  0  0  0  0  0  0  0
    5.1733   -4.5469   29.8123 C   0  0  0  0  0  0  0  0  0  0  0  0
   -1.7508  -11.3016   18.6072 C   0  0  0  0  0  0  0  0  0  0  0  0
    1.7497   -5.6771   26.4971 C   0  0  0  0  0  0  0  0  0  0  0  0
   -1.5799   -9.9322   18.3468 C   0  0  0  0  0  0  0  0  0  0  0  0
   -1.0871  -12.2214   17.8851 C   0  0  0  0  0  0  0  0  0  0  0  0
   -2.2706   -8.9669   19.0691 C   0  0  0  0  0  0  0  0  0  0  0  0
    3.0279   -5.3073   26.8197 C   0  0  0  0  0  0  0  0  0  0  0  0
    7.3282   -3.8948   29.1186 C   0  0  0  0  0  0  0  0  0  0  0  0
  1  3  4  0
  1  7  4  0
  2  3  1  0
  2  6  4  0
  2 16  4  0
  3 22  4  0
  4  9  4  0
  4 10  1  0
  4 20  4  0
  5 16  4  0
  5 23  4  0
  6 15  4  0
  7 12  4  0
  8 13  4  0
  8 14  4  0
  9 11  4  0
 11 14  4  0
 11 19  4  0
 12 18  4  0
 13 21  4  0
 15 23  4  0
 17 19  4  0
 17 20  4  0
 18 22  4  0
 19 21  4  0
M  END
$$$$

 Created by Python create_sdf_string function

 23 25  0  0  0  0  0  0  0  0999 V2000
    2.4610   -5.3070   29.1240 C   0  0  0  0  0  0  0  0  0  0  0  0
    4.7710   -4.6952   28.4803 C   0  0  0  0  0  0  0  0  0  0  0  0
    3.4047   -5.1087   28.1314 C   0  0  0  0  0  0  0  0  0  0  0  0
   -0.2234  -11.8615   16.8874 C   0  0  0  0  0  0  0  0  0  0  0  0
    6.4491   -4.1532   30.1213 C   0  0  0  0  0  0  0  0  0  0  0  0
    5.7060   -4.4340   27.4975 C   0  0  0  0  0  0  0  0  0  0  0  0
    1.1818   -5.6612   28.8399 C   0  0  0  0  0  0  0  0  0  0  0  0
   -1.2067   -7.3287   17.7772 C   0  0  0  0  0  0  0  0  0  0  0  0
   -0.0206  -10.5585   16.6210 C   0  0  0  0  0  0  0  0  0  0  0  0
    0.3696  -12.7626   16.2169 O   0  0  0  0  0  0  0  0  0  0  0  0
   -0.6895   -9.5676   17.3297 C   0  0  0  0  0  0  0  0  0  0  0  0
    0.8388   -5.8417   27.5264 C   0  0  0  0  0  0  0  0  0  0  0  0
   -2.0709   -7.6637   18.7817 C   0  0  0  0  0  0  0  0  0  0  0  0
   -0.5279   -8.2168   17.0717 C   0  0  0  0  0  0  0  0  0  0  0  0
    6.9694   -4.0191   27.8190 C   0  0  0  0  0  0  0  0  0  0  0  0
    5.1733   -4.5469   29.8123 C   0  0  0  0  0  0  0  0  0  0  0  0
   -1.7508  -11.3016   18.6072 C   0  0  0  0  0  0  0  0  0  0  0  0
    1.7497   -5.6771   26.4971 C   0  0  0  0  0  0  0  0  0  0  0  0
   -1.5799   -9.9322   18.3468 C   0  0  0  0  0  0  0  0  0  0  0  0
   -1.0871  -12.2214   17.8851 C   0  0  0  0  0  0  0  0  0  0  0  0
   -2.2706   -8.9669   19.0691 C   0  0  0  0  0  0  0  0  0  0  0  0
    3.0279   -5.3073   26.8197 C   0  0  0  0  0  0  0  0  0  0  0  0
    7.3282   -3.8948   29.1186 C   0  0  0  0  0  0  0  0  0  0  0  0
  1  3  4  0
  1  7  4  0
  2  3  1  0
  2  6  4  0
  2 16  4  0
  3 22  4  0
  4  9  4  0
  4 10  1  0
  4 20  4  0
  5 16  4  0
  5 23  4  0
  6 15  4  0
  7 12  4  0
  8 13  4  0
  8 14  4  0
  9 11  4  0
 11 14  4  0
 11 19  4  0
 12 18  4  0
 13 21  4  0
 15 23  4  0
 17 19  4  0
 17 20  4  0
 18 22  4  0
 19 21  4  0
M  END
$$$$

 Created by Python create_sdf_string function

 23 25  0  0  0  0  0  0  0  0999 V2000
    2.4610   -5.3070   29.1240 C   0  0  0  0  0  0  0  0  0  0  0  0
    4.7710   -4.6952   28.4803 C   0  0  0  0  0  0  0  0  0  0  0  0
    3.4047   -5.1087   28.1314 C   0  0  0  0  0  0  0  0  0  0  0  0
   -0.2234  -11.8615   16.8874 C   0  0  0  0  0  0  0  0  0  0  0  0
    6.4491   -4.1532   30.1213 C   0  0  0  0  0  0  0  0  0  0  0  0
    5.7060   -4.4340   27.4975 C   0  0  0  0  0  0  0  0  0  0  0  0
    1.1818   -5.6612   28.8399 C   0  0  0  0  0  0  0  0  0  0  0  0
   -1.2067   -7.3287   17.7772 C   0  0  0  0  0  0  0  0  0  0  0  0
   -0.0206  -10.5585   16.6210 C   0  0  0  0  0  0  0  0  0  0  0  0
    0.3696  -12.7626   16.2169 O   0  0  0  0  0  0  0  0  0  0  0  0
   -0.6895   -9.5676   17.3297 C   0  0  0  0  0  0  0  0  0  0  0  0
    0.8388   -5.8417   27.5264 C   0  0  0  0  0  0  0  0  0  0  0  0
   -2.0709   -7.6637   18.7817 C   0  0  0  0  0  0  0  0  0  0  0  0
   -0.5279   -8.2168   17.0717 C   0  0  0  0  0  0  0  0  0  0  0  0
    6.9694   -4.0191   27.8190 C   0  0  0  0  0  0  0  0  0  0  0  0
    5.1733   -4.5469   29.8123 C   0  0  0  0  0  0  0  0  0  0  0  0
   -1.7508  -11.3016   18.6072 C   0  0  0  0  0  0  0  0  0  0  0  0
    1.7497   -5.6771   26.4971 C   0  0  0  0  0  0  0  0  0  0  0  0
   -1.5799   -9.9322   18.3468 C   0  0  0  0  0  0  0  0  0  0  0  0
   -1.0871  -12.2214   17.8851 C   0  0  0  0  0  0  0  0  0  0  0  0
   -2.2706   -8.9669   19.0691 C   0  0  0  0  0  0  0  0  0  0  0  0
    3.0279   -5.3073   26.8197 C   0  0  0  0  0  0  0  0  0  0  0  0
    7.3282   -3.8948   29.1186 C   0  0  0  0  0  0  0  0  0  0  0  0
  1  3  4  0
  1  7  4  0
  2  3  1  0
  2  6  4  0
  2 16  4  0
  3 22  4  0
  4  9  4  0
  4 10  1  0
  4 20  4  0
  5 16  4  0
  5 23  4  0
  6 15  4  0
  7 12  4  0
  8 13  4  0
  8 14  4  0
  9 11  4  0
 11 14  4  0
 11 19  4  0
 12 18  4  0
 13 21  4  0
 15 23  4  0
 17 19  4  0
 17 20  4  0
 18 22  4  0
 19 21  4  0
M  END
$$$$

 Created by Python create_sdf_string function

 23 25  0  0  0  0  0  0  0  0999 V2000
    2.4610   -5.3070   29.1240 C   0  0  0  0  0  0  0  0  0  0  0  0
    4.7710   -4.6952   28.4803 C   0  0  0  0  0  0  0  0  0  0  0  0
    3.4047   -5.1087   28.1314 C   0  0  0  0  0  0  0  0  0  0  0  0
   -0.2234  -11.8615   16.8874 C   0  0  0  0  0  0  0  0  0  0  0  0
    6.4491   -4.1532   30.1213 C   0  0  0  0  0  0  0  0  0  0  0  0
    5.7060   -4.4340   27.4975 C   0  0  0  0  0  0  0  0  0  0  0  0
    1.1818   -5.6612   28.8399 C   0  0  0  0  0  0  0  0  0  0  0  0
   -1.2067   -7.3287   17.7772 C   0  0  0  0  0  0  0  0  0  0  0  0
   -0.0206  -10.5585   16.6210 C   0  0  0  0  0  0  0  0  0  0  0  0
    0.3696  -12.7626   16.2169 O   0  0  0  0  0  0  0  0  0  0  0  0
   -0.6895   -9.5676   17.3297 C   0  0  0  0  0  0  0  0  0  0  0  0
    0.8388   -5.8417   27.5264 C   0  0  0  0  0  0  0  0  0  0  0  0
   -2.0709   -7.6637   18.7817 C   0  0  0  0  0  0  0  0  0  0  0  0
   -0.5279   -8.2168   17.0717 C   0  0  0  0  0  0  0  0  0  0  0  0
    6.9694   -4.0191   27.8190 C   0  0  0  0  0  0  0  0  0  0  0  0
    5.1733   -4.5469   29.8123 C   0  0  0  0  0  0  0  0  0  0  0  0
   -1.7508  -11.3016   18.6072 C   0  0  0  0  0  0  0  0  0  0  0  0
    1.7497   -5.6771   26.4971 C   0  0  0  0  0  0  0  0  0  0  0  0
   -1.5799   -9.9322   18.3468 C   0  0  0  0  0  0  0  0  0  0  0  0
   -1.0871  -12.2214   17.8851 C   0  0  0  0  0  0  0  0  0  0  0  0
   -2.2706   -8.9669   19.0691 C   0  0  0  0  0  0  0  0  0  0  0  0
    3.0279   -5.3073   26.8197 C   0  0  0  0  0  0  0  0  0  0  0  0
    7.3282   -3.8948   29.1186 C   0  0  0  0  0  0  0  0  0  0  0  0
  1  3  4  0
  1  7  4  0
  2  3  1  0
  2  6  4  0
  2 16  4  0
  3 22  4  0
  4  9  4  0
  4 10  1  0
  4 20  4  0
  5 16  4  0
  5 23  4  0
  6 15  4  0
  7 12  4  0
  8 13  4  0
  8 14  4  0
  9 11  4  0
 11 14  4  0
 11 19  4  0
 12 18  4  0
 13 21  4  0
 15 23  4  0
 17 19  4  0
 17 20  4  0
 18 22  4  0
 19 21  4  0
M  END
$$$$

 Created by Python create_sdf_string function

 23 25  0  0  0  0  0  0  0  0999 V2000
    2.4610   -5.3070   29.1240 C   0  0  0  0  0  0  0  0  0  0  0  0
    4.7710   -4.6952   28.4803 C   0  0  0  0  0  0  0  0  0  0  0  0
    3.4047   -5.1087   28.1314 C   0  0  0  0  0  0  0  0  0  0  0  0
   -0.2234  -11.8615   16.8874 C   0  0  0  0  0  0  0  0  0  0  0  0
    6.4491   -4.1532   30.1213 C   0  0  0  0  0  0  0  0  0  0  0  0
    5.7060   -4.4340   27.4975 C   0  0  0  0  0  0  0  0  0  0  0  0
    1.1818   -5.6612   28.8399 C   0  0  0  0  0  0  0  0  0  0  0  0
   -1.2067   -7.3287   17.7772 C   0  0  0  0  0  0  0  0  0  0  0  0
   -0.0206  -10.5585   16.6210 C   0  0  0  0  0  0  0  0  0  0  0  0
    0.3696  -12.7626   16.2169 O   0  0  0  0  0  0  0  0  0  0  0  0
   -0.6895   -9.5676   17.3297 C   0  0  0  0  0  0  0  0  0  0  0  0
    0.8388   -5.8417   27.5264 C   0  0  0  0  0  0  0  0  0  0  0  0
   -2.0709   -7.6637   18.7817 C   0  0  0  0  0  0  0  0  0  0  0  0
   -0.5279   -8.2168   17.0717 C   0  0  0  0  0  0  0  0  0  0  0  0
    6.9694   -4.0191   27.8190 C   0  0  0  0  0  0  0  0  0  0  0  0
    5.1733   -4.5469   29.8123 C   0  0  0  0  0  0  0  0  0  0  0  0
   -1.7508  -11.3016   18.6072 C   0  0  0  0  0  0  0  0  0  0  0  0
    1.7497   -5.6771   26.4971 C   0  0  0  0  0  0  0  0  0  0  0  0
   -1.5799   -9.9322   18.3468 C   0  0  0  0  0  0  0  0  0  0  0  0
   -1.0871  -12.2214   17.8851 C   0  0  0  0  0  0  0  0  0  0  0  0
   -2.2706   -8.9669   19.0691 C   0  0  0  0  0  0  0  0  0  0  0  0
    3.0279   -5.3073   26.8197 C   0  0  0  0  0  0  0  0  0  0  0  0
    7.3282   -3.8948   29.1186 C   0  0  0  0  0  0  0  0  0  0  0  0
  1  3  4  0
  1  7  4  0
  2  3  1  0
  2  6  4  0
  2 16  4  0
  3 22  4  0
  4  9  4  0
  4 10  1  0
  4 20  4  0
  5 16  4  0
  5 23  4  0
  6 15  4  0
  7 12  4  0
  8 13  4  0
  8 14  4  0
  9 11  4  0
 11 14  4  0
 11 19  4  0
 12 18  4  0
 13 21  4  0
 15 23  4  0
 17 19  4  0
 17 20  4  0
 18 22  4  0
 19 21  4  0
M  END
$$$$

 Created by Python create_sdf_string function

 23 25  0  0  0  0  0  0  0  0999 V2000
    2.4610   -5.3070   29.1240 C   0  0  0  0  0  0  0  0  0  0  0  0
    4.7710   -4.6952   28.4803 C   0  0  0  0  0  0  0  0  0  0  0  0
    3.4047   -5.1087   28.1314 C   0  0  0  0  0  0  0  0  0  0  0  0
   -0.2234  -11.8615   16.8874 C   0  0  0  0  0  0  0  0  0  0  0  0
    6.4491   -4.1532   30.1213 C   0  0  0  0  0  0  0  0  0  0  0  0
    5.7060   -4.4340   27.4975 C   0  0  0  0  0  0  0  0  0  0  0  0
    1.1818   -5.6612   28.8399 C   0  0  0  0  0  0  0  0  0  0  0  0
   -1.2067   -7.3287   17.7772 C   0  0  0  0  0  0  0  0  0  0  0  0
   -0.0206  -10.5585   16.6210 C   0  0  0  0  0  0  0  0  0  0  0  0
    0.3696  -12.7626   16.2169 O   0  0  0  0  0  0  0  0  0  0  0  0
   -0.6895   -9.5676   17.3297 C   0  0  0  0  0  0  0  0  0  0  0  0
    0.8388   -5.8417   27.5264 C   0  0  0  0  0  0  0  0  0  0  0  0
   -2.0709   -7.6637   18.7817 C   0  0  0  0  0  0  0  0  0  0  0  0
   -0.5279   -8.2168   17.0717 C   0  0  0  0  0  0  0  0  0  0  0  0
    6.9694   -4.0191   27.8190 C   0  0  0  0  0  0  0  0  0  0  0  0
    5.1733   -4.5469   29.8123 C   0  0  0  0  0  0  0  0  0  0  0  0
   -1.7508  -11.3016   18.6072 C   0  0  0  0  0  0  0  0  0  0  0  0
    1.7497   -5.6771   26.4971 C   0  0  0  0  0  0  0  0  0  0  0  0
   -1.5799   -9.9322   18.3468 C   0  0  0  0  0  0  0  0  0  0  0  0
   -1.0871  -12.2214   17.8851 C   0  0  0  0  0  0  0  0  0  0  0  0
   -2.2706   -8.9669   19.0691 C   0  0  0  0  0  0  0  0  0  0  0  0
    3.0279   -5.3073   26.8197 C   0  0  0  0  0  0  0  0  0  0  0  0
    7.3282   -3.8948   29.1186 C   0  0  0  0  0  0  0  0  0  0  0  0
  1  3  4  0
  1  7  4  0
  2  3  1  0
  2  6  4  0
  2 16  4  0
  3 22  4  0
  4  9  4  0
  4 10  1  0
  4 20  4  0
  5 16  4  0
  5 23  4  0
  6 15  4  0
  7 12  4  0
  8 13  4  0
  8 14  4  0
  9 11  4  0
 11 14  4  0
 11 19  4  0
 12 18  4  0
 13 21  4  0
 15 23  4  0
 17 19  4  0
 17 20  4  0
 18 22  4  0
 19 21  4  0
M  END
$$$$

 Created by Python create_sdf_string function

 23 25  0  0  0  0  0  0  0  0999 V2000
    2.4610   -5.3070   29.1240 C   0  0  0  0  0  0  0  0  0  0  0  0
    4.7710   -4.6952   28.4803 C   0  0  0  0  0  0  0  0  0  0  0  0
    3.4047   -5.1087   28.1314 C   0  0  0  0  0  0  0  0  0  0  0  0
   -0.2234  -11.8615   16.8874 C   0  0  0  0  0  0  0  0  0  0  0  0
    6.4491   -4.1532   30.1213 C   0  0  0  0  0  0  0  0  0  0  0  0
    5.7060   -4.4340   27.4975 C   0  0  0  0  0  0  0  0  0  0  0  0
    1.1818   -5.6612   28.8399 C   0  0  0  0  0  0  0  0  0  0  0  0
   -1.2067   -7.3287   17.7772 C   0  0  0  0  0  0  0  0  0  0  0  0
   -0.0206  -10.5585   16.6210 C   0  0  0  0  0  0  0  0  0  0  0  0
    0.3696  -12.7626   16.2169 O   0  0  0  0  0  0  0  0  0  0  0  0
   -0.6895   -9.5676   17.3297 C   0  0  0  0  0  0  0  0  0  0  0  0
    0.8388   -5.8417   27.5264 C   0  0  0  0  0  0  0  0  0  0  0  0
   -2.0709   -7.6637   18.7817 C   0  0  0  0  0  0  0  0  0  0  0  0
   -0.5279   -8.2168   17.0717 C   0  0  0  0  0  0  0  0  0  0  0  0
    6.9694   -4.0191   27.8190 C   0  0  0  0  0  0  0  0  0  0  0  0
    5.1733   -4.5469   29.8123 C   0  0  0  0  0  0  0  0  0  0  0  0
   -1.7508  -11.3016   18.6072 C   0  0  0  0  0  0  0  0  0  0  0  0
    1.7497   -5.6771   26.4971 C   0  0  0  0  0  0  0  0  0  0  0  0
   -1.5799   -9.9322   18.3468 C   0  0  0  0  0  0  0  0  0  0  0  0
   -1.0871  -12.2214   17.8851 C   0  0  0  0  0  0  0  0  0  0  0  0
   -2.2706   -8.9669   19.0691 C   0  0  0  0  0  0  0  0  0  0  0  0
    3.0279   -5.3073   26.8197 C   0  0  0  0  0  0  0  0  0  0  0  0
    7.3282   -3.8948   29.1186 C   0  0  0  0  0  0  0  0  0  0  0  0
  1  3  4  0
  1  7  4  0
  2  3  1  0
  2  6  4  0
  2 16  4  0
  3 22  4  0
  4  9  4  0
  4 10  1  0
  4 20  4  0
  5 16  4  0
  5 23  4  0
  6 15  4  0
  7 12  4  0
  8 13  4  0
  8 14  4  0
  9 11  4  0
 11 14  4  0
 11 19  4  0
 12 18  4  0
 13 21  4  0
 15 23  4  0
 17 19  4  0
 17 20  4  0
 18 22  4  0
 19 21  4  0
M  END
$$$$

 Created by Python create_sdf_string function

 23 25  0  0  0  0  0  0  0  0999 V2000
    2.4610   -5.3070   29.1240 C   0  0  0  0  0  0  0  0  0  0  0  0
    4.7710   -4.6952   28.4803 C   0  0  0  0  0  0  0  0  0  0  0  0
    3.4047   -5.1087   28.1314 C   0  0  0  0  0  0  0  0  0  0  0  0
   -0.2234  -11.8615   16.8874 C   0  0  0  0  0  0  0  0  0  0  0  0
    6.4491   -4.1532   30.1213 C   0  0  0  0  0  0  0  0  0  0  0  0
    5.7060   -4.4340   27.4975 C   0  0  0  0  0  0  0  0  0  0  0  0
    1.1818   -5.6612   28.8399 C   0  0  0  0  0  0  0  0  0  0  0  0
   -1.2067   -7.3287   17.7772 C   0  0  0  0  0  0  0  0  0  0  0  0
   -0.0206  -10.5585   16.6210 C   0  0  0  0  0  0  0  0  0  0  0  0
    0.3696  -12.7626   16.2169 O   0  0  0  0  0  0  0  0  0  0  0  0
   -0.6895   -9.5676   17.3297 C   0  0  0  0  0  0  0  0  0  0  0  0
    0.8388   -5.8417   27.5264 C   0  0  0  0  0  0  0  0  0  0  0  0
   -2.0709   -7.6637   18.7817 C   0  0  0  0  0  0  0  0  0  0  0  0
   -0.5279   -8.2168   17.0717 C   0  0  0  0  0  0  0  0  0  0  0  0
    6.9694   -4.0191   27.8190 C   0  0  0  0  0  0  0  0  0  0  0  0
    5.1733   -4.5469   29.8123 C   0  0  0  0  0  0  0  0  0  0  0  0
   -1.7508  -11.3016   18.6072 C   0  0  0  0  0  0  0  0  0  0  0  0
    1.7497   -5.6771   26.4971 C   0  0  0  0  0  0  0  0  0  0  0  0
   -1.5799   -9.9322   18.3468 C   0  0  0  0  0  0  0  0  0  0  0  0
   -1.0871  -12.2214   17.8851 C   0  0  0  0  0  0  0  0  0  0  0  0
   -2.2706   -8.9669   19.0691 C   0  0  0  0  0  0  0  0  0  0  0  0
    3.0279   -5.3073   26.8197 C   0  0  0  0  0  0  0  0  0  0  0  0
    7.3282   -3.8948   29.1186 C   0  0  0  0  0  0  0  0  0  0  0  0
  1  3  4  0
  1  7  4  0
  2  3  1  0
  2  6  4  0
  2 16  4  0
  3 22  4  0
  4  9  4  0
  4 10  1  0
  4 20  4  0
  5 16  4  0
  5 23  4  0
  6 15  4  0
  7 12  4  0
  8 13  4  0
  8 14  4  0
  9 11  4  0
 11 14  4  0
 11 19  4  0
 12 18  4  0
 13 21  4  0
 15 23  4  0
 17 19  4  0
 17 20  4  0
 18 22  4  0
 19 21  4  0
M  END
$$$$

 Created by Python create_sdf_string function

 23 25  0  0  0  0  0  0  0  0999 V2000
    2.4610   -5.3070   29.1240 C   0  0  0  0  0  0  0  0  0  0  0  0
    4.7710   -4.6952   28.4803 C   0  0  0  0  0  0  0  0  0  0  0  0
    3.4047   -5.1087   28.1314 C   0  0  0  0  0  0  0  0  0  0  0  0
   -0.2234  -11.8615   16.8874 C   0  0  0  0  0  0  0  0  0  0  0  0
    6.4491   -4.1532   30.1213 C   0  0  0  0  0  0  0  0  0  0  0  0
    5.7060   -4.4340   27.4975 C   0  0  0  0  0  0  0  0  0  0  0  0
    1.1818   -5.6612   28.8399 C   0  0  0  0  0  0  0  0  0  0  0  0
   -1.2067   -7.3287   17.7772 C   0  0  0  0  0  0  0  0  0  0  0  0
   -0.0206  -10.5585   16.6210 C   0  0  0  0  0  0  0  0  0  0  0  0
    0.3696  -12.7626   16.2169 O   0  0  0  0  0  0  0  0  0  0  0  0
   -0.6895   -9.5676   17.3297 C   0  0  0  0  0  0  0  0  0  0  0  0
    0.8388   -5.8417   27.5264 C   0  0  0  0  0  0  0  0  0  0  0  0
   -2.0709   -7.6637   18.7817 C   0  0  0  0  0  0  0  0  0  0  0  0
   -0.5279   -8.2168   17.0717 C   0  0  0  0  0  0  0  0  0  0  0  0
    6.9694   -4.0191   27.8190 C   0  0  0  0  0  0  0  0  0  0  0  0
    5.1733   -4.5469   29.8123 C   0  0  0  0  0  0  0  0  0  0  0  0
   -1.7508  -11.3016   18.6072 C   0  0  0  0  0  0  0  0  0  0  0  0
    1.7497   -5.6771   26.4971 C   0  0  0  0  0  0  0  0  0  0  0  0
   -1.5799   -9.9322   18.3468 C   0  0  0  0  0  0  0  0  0  0  0  0
   -1.0871  -12.2214   17.8851 C   0  0  0  0  0  0  0  0  0  0  0  0
   -2.2706   -8.9669   19.0691 C   0  0  0  0  0  0  0  0  0  0  0  0
    3.0279   -5.3073   26.8197 C   0  0  0  0  0  0  0  0  0  0  0  0
    7.3282   -3.8948   29.1186 C   0  0  0  0  0  0  0  0  0  0  0  0
  1  3  4  0
  1  7  4  0
  2  3  1  0
  2  6  4  0
  2 16  4  0
  3 22  4  0
  4  9  4  0
  4 10  1  0
  4 20  4  0
  5 16  4  0
  5 23  4  0
  6 15  4  0
  7 12  4  0
  8 13  4  0
  8 14  4  0
  9 11  4  0
 11 14  4  0
 11 19  4  0
 12 18  4  0
 13 21  4  0
 15 23  4  0
 17 19  4  0
 17 20  4  0
 18 22  4  0
 19 21  4  0
M  END
$$$$

 Created by Python create_sdf_string function

 23 25  0  0  0  0  0  0  0  0999 V2000
    2.4610   -5.3070   29.1240 C   0  0  0  0  0  0  0  0  0  0  0  0
    4.7710   -4.6952   28.4803 C   0  0  0  0  0  0  0  0  0  0  0  0
    3.4047   -5.1087   28.1314 C   0  0  0  0  0  0  0  0  0  0  0  0
   -0.2234  -11.8615   16.8874 C   0  0  0  0  0  0  0  0  0  0  0  0
    6.4491   -4.1532   30.1213 C   0  0  0  0  0  0  0  0  0  0  0  0
    5.7060   -4.4340   27.4975 C   0  0  0  0  0  0  0  0  0  0  0  0
    1.1818   -5.6612   28.8399 C   0  0  0  0  0  0  0  0  0  0  0  0
   -1.2067   -7.3287   17.7772 C   0  0  0  0  0  0  0  0  0  0  0  0
   -0.0206  -10.5585   16.6210 C   0  0  0  0  0  0  0  0  0  0  0  0
    0.3696  -12.7626   16.2169 O   0  0  0  0  0  0  0  0  0  0  0  0
   -0.6895   -9.5676   17.3297 C   0  0  0  0  0  0  0  0  0  0  0  0
    0.8388   -5.8417   27.5264 C   0  0  0  0  0  0  0  0  0  0  0  0
   -2.0709   -7.6637   18.7817 C   0  0  0  0  0  0  0  0  0  0  0  0
   -0.5279   -8.2168   17.0717 C   0  0  0  0  0  0  0  0  0  0  0  0
    6.9694   -4.0191   27.8190 C   0  0  0  0  0  0  0  0  0  0  0  0
    5.1733   -4.5469   29.8123 C   0  0  0  0  0  0  0  0  0  0  0  0
   -1.7508  -11.3016   18.6072 C   0  0  0  0  0  0  0  0  0  0  0  0
    1.7497   -5.6771   26.4971 C   0  0  0  0  0  0  0  0  0  0  0  0
   -1.5799   -9.9322   18.3468 C   0  0  0  0  0  0  0  0  0  0  0  0
   -1.0871  -12.2214   17.8851 C   0  0  0  0  0  0  0  0  0  0  0  0
   -2.2706   -8.9669   19.0691 C   0  0  0  0  0  0  0  0  0  0  0  0
    3.0279   -5.3073   26.8197 C   0  0  0  0  0  0  0  0  0  0  0  0
    7.3282   -3.8948   29.1186 C   0  0  0  0  0  0  0  0  0  0  0  0
  1  3  4  0
  1  7  4  0
  2  3  1  0
  2  6  4  0
  2 16  4  0
  3 22  4  0
  4  9  4  0
  4 10  1  0
  4 20  4  0
  5 16  4  0
  5 23  4  0
  6 15  4  0
  7 12  4  0
  8 13  4  0
  8 14  4  0
  9 11  4  0
 11 14  4  0
 11 19  4  0
 12 18  4  0
 13 21  4  0
 15 23  4  0
 17 19  4  0
 17 20  4  0
 18 22  4  0
 19 21  4  0
M  END
$$$$

 Created by Python create_sdf_string function

 23 25  0  0  0  0  0  0  0  0999 V2000
    2.4610   -5.3070   29.1240 C   0  0  0  0  0  0  0  0  0  0  0  0
    4.7710   -4.6952   28.4803 C   0  0  0  0  0  0  0  0  0  0  0  0
    3.4047   -5.1087   28.1314 C   0  0  0  0  0  0  0  0  0  0  0  0
   -0.2234  -11.8615   16.8874 C   0  0  0  0  0  0  0  0  0  0  0  0
    6.4491   -4.1532   30.1213 C   0  0  0  0  0  0  0  0  0  0  0  0
    5.7060   -4.4340   27.4975 C   0  0  0  0  0  0  0  0  0  0  0  0
    1.1818   -5.6612   28.8399 C   0  0  0  0  0  0  0  0  0  0  0  0
   -1.2067   -7.3287   17.7772 C   0  0  0  0  0  0  0  0  0  0  0  0
   -0.0206  -10.5585   16.6210 C   0  0  0  0  0  0  0  0  0  0  0  0
    0.3696  -12.7626   16.2169 O   0  0  0  0  0  0  0  0  0  0  0  0
   -0.6895   -9.5676   17.3297 C   0  0  0  0  0  0  0  0  0  0  0  0
    0.8388   -5.8417   27.5264 C   0  0  0  0  0  0  0  0  0  0  0  0
   -2.0709   -7.6637   18.7817 C   0  0  0  0  0  0  0  0  0  0  0  0
   -0.5279   -8.2168   17.0717 C   0  0  0  0  0  0  0  0  0  0  0  0
    6.9694   -4.0191   27.8190 C   0  0  0  0  0  0  0  0  0  0  0  0
    5.1733   -4.5469   29.8123 C   0  0  0  0  0  0  0  0  0  0  0  0
   -1.7508  -11.3016   18.6072 C   0  0  0  0  0  0  0  0  0  0  0  0
    1.7497   -5.6771   26.4971 C   0  0  0  0  0  0  0  0  0  0  0  0
   -1.5799   -9.9322   18.3468 C   0  0  0  0  0  0  0  0  0  0  0  0
   -1.0871  -12.2214   17.8851 C   0  0  0  0  0  0  0  0  0  0  0  0
   -2.2706   -8.9669   19.0691 C   0  0  0  0  0  0  0  0  0  0  0  0
    3.0279   -5.3073   26.8197 C   0  0  0  0  0  0  0  0  0  0  0  0
    7.3282   -3.8948   29.1186 C   0  0  0  0  0  0  0  0  0  0  0  0
  1  3  4  0
  1  7  4  0
  2  3  1  0
  2  6  4  0
  2 16  4  0
  3 22  4  0
  4  9  4  0
  4 10  1  0
  4 20  4  0
  5 16  4  0
  5 23  4  0
  6 15  4  0
  7 12  4  0
  8 13  4  0
  8 14  4  0
  9 11  4  0
 11 14  4  0
 11 19  4  0
 12 18  4  0
 13 21  4  0
 15 23  4  0
 17 19  4  0
 17 20  4  0
 18 22  4  0
 19 21  4  0
M  END
$$$$

 Created by Python create_sdf_string function

 23 25  0  0  0  0  0  0  0  0999 V2000
    2.4610   -5.3070   29.1240 C   0  0  0  0  0  0  0  0  0  0  0  0
    4.7710   -4.6952   28.4803 C   0  0  0  0  0  0  0  0  0  0  0  0
    3.4047   -5.1087   28.1314 C   0  0  0  0  0  0  0  0  0  0  0  0
   -0.2234  -11.8615   16.8874 C   0  0  0  0  0  0  0  0  0  0  0  0
    6.4491   -4.1532   30.1213 C   0  0  0  0  0  0  0  0  0  0  0  0
    5.7060   -4.4340   27.4975 C   0  0  0  0  0  0  0  0  0  0  0  0
    1.1818   -5.6612   28.8399 C   0  0  0  0  0  0  0  0  0  0  0  0
   -1.2067   -7.3287   17.7772 C   0  0  0  0  0  0  0  0  0  0  0  0
   -0.0206  -10.5585   16.6210 C   0  0  0  0  0  0  0  0  0  0  0  0
    0.3696  -12.7626   16.2169 O   0  0  0  0  0  0  0  0  0  0  0  0
   -0.6895   -9.5676   17.3297 C   0  0  0  0  0  0  0  0  0  0  0  0
    0.8388   -5.8417   27.5264 C   0  0  0  0  0  0  0  0  0  0  0  0
   -2.0709   -7.6637   18.7817 C   0  0  0  0  0  0  0  0  0  0  0  0
   -0.5279   -8.2168   17.0717 C   0  0  0  0  0  0  0  0  0  0  0  0
    6.9694   -4.0191   27.8190 C   0  0  0  0  0  0  0  0  0  0  0  0
    5.1733   -4.5469   29.8123 C   0  0  0  0  0  0  0  0  0  0  0  0
   -1.7508  -11.3016   18.6072 C   0  0  0  0  0  0  0  0  0  0  0  0
    1.7497   -5.6771   26.4971 C   0  0  0  0  0  0  0  0  0  0  0  0
   -1.5799   -9.9322   18.3468 C   0  0  0  0  0  0  0  0  0  0  0  0
   -1.0871  -12.2214   17.8851 C   0  0  0  0  0  0  0  0  0  0  0  0
   -2.2706   -8.9669   19.0691 C   0  0  0  0  0  0  0  0  0  0  0  0
    3.0279   -5.3073   26.8197 C   0  0  0  0  0  0  0  0  0  0  0  0
    7.3282   -3.8948   29.1186 C   0  0  0  0  0  0  0  0  0  0  0  0
  1  3  4  0
  1  7  4  0
  2  3  1  0
  2  6  4  0
  2 16  4  0
  3 22  4  0
  4  9  4  0
  4 10  1  0
  4 20  4  0
  5 16  4  0
  5 23  4  0
  6 15  4  0
  7 12  4  0
  8 13  4  0
  8 14  4  0
  9 11  4  0
 11 14  4  0
 11 19  4  0
 12 18  4  0
 13 21  4  0
 15 23  4  0
 17 19  4  0
 17 20  4  0
 18 22  4  0
 19 21  4  0
M  END
$$$$

 Created by Python create_sdf_string function

 23 25  0  0  0  0  0  0  0  0999 V2000
    2.4610   -5.3070   29.1240 C   0  0  0  0  0  0  0  0  0  0  0  0
    4.7710   -4.6952   28.4803 C   0  0  0  0  0  0  0  0  0  0  0  0
    3.4047   -5.1087   28.1314 C   0  0  0  0  0  0  0  0  0  0  0  0
   -0.2234  -11.8615   16.8874 C   0  0  0  0  0  0  0  0  0  0  0  0
    6.4491   -4.1532   30.1213 C   0  0  0  0  0  0  0  0  0  0  0  0
    5.7060   -4.4340   27.4975 C   0  0  0  0  0  0  0  0  0  0  0  0
    1.1818   -5.6612   28.8399 C   0  0  0  0  0  0  0  0  0  0  0  0
   -1.2067   -7.3287   17.7772 C   0  0  0  0  0  0  0  0  0  0  0  0
   -0.0206  -10.5585   16.6210 C   0  0  0  0  0  0  0  0  0  0  0  0
    0.3696  -12.7626   16.2169 O   0  0  0  0  0  0  0  0  0  0  0  0
   -0.6895   -9.5676   17.3297 C   0  0  0  0  0  0  0  0  0  0  0  0
    0.8388   -5.8417   27.5264 C   0  0  0  0  0  0  0  0  0  0  0  0
   -2.0709   -7.6637   18.7817 C   0  0  0  0  0  0  0  0  0  0  0  0
   -0.5279   -8.2168   17.0717 C   0  0  0  0  0  0  0  0  0  0  0  0
    6.9694   -4.0191   27.8190 C   0  0  0  0  0  0  0  0  0  0  0  0
    5.1733   -4.5469   29.8123 C   0  0  0  0  0  0  0  0  0  0  0  0
   -1.7508  -11.3016   18.6072 C   0  0  0  0  0  0  0  0  0  0  0  0
    1.7497   -5.6771   26.4971 C   0  0  0  0  0  0  0  0  0  0  0  0
   -1.5799   -9.9322   18.3468 C   0  0  0  0  0  0  0  0  0  0  0  0
   -1.0871  -12.2214   17.8851 C   0  0  0  0  0  0  0  0  0  0  0  0
   -2.2706   -8.9669   19.0691 C   0  0  0  0  0  0  0  0  0  0  0  0
    3.0279   -5.3073   26.8197 C   0  0  0  0  0  0  0  0  0  0  0  0
    7.3282   -3.8948   29.1186 C   0  0  0  0  0  0  0  0  0  0  0  0
  1  3  4  0
  1  7  4  0
  2  3  1  0
  2  6  4  0
  2 16  4  0
  3 22  4  0
  4  9  4  0
  4 10  1  0
  4 20  4  0
  5 16  4  0
  5 23  4  0
  6 15  4  0
  7 12  4  0
  8 13  4  0
  8 14  4  0
  9 11  4  0
 11 14  4  0
 11 19  4  0
 12 18  4  0
 13 21  4  0
 15 23  4  0
 17 19  4  0
 17 20  4  0
 18 22  4  0
 19 21  4  0
M  END
$$$$

 Created by Python create_sdf_string function

 23 25  0  0  0  0  0  0  0  0999 V2000
    2.4610   -5.3070   29.1240 C   0  0  0  0  0  0  0  0  0  0  0  0
    4.7710   -4.6952   28.4803 C   0  0  0  0  0  0  0  0  0  0  0  0
    3.4047   -5.1087   28.1314 C   0  0  0  0  0  0  0  0  0  0  0  0
   -0.2234  -11.8615   16.8874 C   0  0  0  0  0  0  0  0  0  0  0  0
    6.4491   -4.1532   30.1213 C   0  0  0  0  0  0  0  0  0  0  0  0
    5.7060   -4.4340   27.4975 C   0  0  0  0  0  0  0  0  0  0  0  0
    1.1818   -5.6612   28.8399 C   0  0  0  0  0  0  0  0  0  0  0  0
   -1.2067   -7.3287   17.7772 C   0  0  0  0  0  0  0  0  0  0  0  0
   -0.0206  -10.5585   16.6210 C   0  0  0  0  0  0  0  0  0  0  0  0
    0.3696  -12.7626   16.2169 O   0  0  0  0  0  0  0  0  0  0  0  0
   -0.6895   -9.5676   17.3297 C   0  0  0  0  0  0  0  0  0  0  0  0
    0.8388   -5.8417   27.5264 C   0  0  0  0  0  0  0  0  0  0  0  0
   -2.0709   -7.6637   18.7817 C   0  0  0  0  0  0  0  0  0  0  0  0
   -0.5279   -8.2168   17.0717 C   0  0  0  0  0  0  0  0  0  0  0  0
    6.9694   -4.0191   27.8190 C   0  0  0  0  0  0  0  0  0  0  0  0
    5.1733   -4.5469   29.8123 C   0  0  0  0  0  0  0  0  0  0  0  0
   -1.7508  -11.3016   18.6072 C   0  0  0  0  0  0  0  0  0  0  0  0
    1.7497   -5.6771   26.4971 C   0  0  0  0  0  0  0  0  0  0  0  0
   -1.5799   -9.9322   18.3468 C   0  0  0  0  0  0  0  0  0  0  0  0
   -1.0871  -12.2214   17.8851 C   0  0  0  0  0  0  0  0  0  0  0  0
   -2.2706   -8.9669   19.0691 C   0  0  0  0  0  0  0  0  0  0  0  0
    3.0279   -5.3073   26.8197 C   0  0  0  0  0  0  0  0  0  0  0  0
    7.3282   -3.8948   29.1186 C   0  0  0  0  0  0  0  0  0  0  0  0
  1  3  4  0
  1  7  4  0
  2  3  1  0
  2  6  4  0
  2 16  4  0
  3 22  4  0
  4  9  4  0
  4 10  1  0
  4 20  4  0
  5 16  4  0
  5 23  4  0
  6 15  4  0
  7 12  4  0
  8 13  4  0
  8 14  4  0
  9 11  4  0
 11 14  4  0
 11 19  4  0
 12 18  4  0
 13 21  4  0
 15 23  4  0
 17 19  4  0
 17 20  4  0
 18 22  4  0
 19 21  4  0
M  END
$$$$

 Created by Python create_sdf_string function

 23 25  0  0  0  0  0  0  0  0999 V2000
    2.4610   -5.3070   29.1240 C   0  0  0  0  0  0  0  0  0  0  0  0
    4.7710   -4.6952   28.4803 C   0  0  0  0  0  0  0  0  0  0  0  0
    3.4047   -5.1087   28.1314 C   0  0  0  0  0  0  0  0  0  0  0  0
   -0.2234  -11.8615   16.8874 C   0  0  0  0  0  0  0  0  0  0  0  0
    6.4491   -4.1532   30.1213 C   0  0  0  0  0  0  0  0  0  0  0  0
    5.7060   -4.4340   27.4975 C   0  0  0  0  0  0  0  0  0  0  0  0
    1.1818   -5.6612   28.8399 C   0  0  0  0  0  0  0  0  0  0  0  0
   -1.2067   -7.3287   17.7772 C   0  0  0  0  0  0  0  0  0  0  0  0
   -0.0206  -10.5585   16.6210 C   0  0  0  0  0  0  0  0  0  0  0  0
    0.3696  -12.7626   16.2169 O   0  0  0  0  0  0  0  0  0  0  0  0
   -0.6895   -9.5676   17.3297 C   0  0  0  0  0  0  0  0  0  0  0  0
    0.8388   -5.8417   27.5264 C   0  0  0  0  0  0  0  0  0  0  0  0
   -2.0709   -7.6637   18.7817 C   0  0  0  0  0  0  0  0  0  0  0  0
   -0.5279   -8.2168   17.0717 C   0  0  0  0  0  0  0  0  0  0  0  0
    6.9694   -4.0191   27.8190 C   0  0  0  0  0  0  0  0  0  0  0  0
    5.1733   -4.5469   29.8123 C   0  0  0  0  0  0  0  0  0  0  0  0
   -1.7508  -11.3016   18.6072 C   0  0  0  0  0  0  0  0  0  0  0  0
    1.7497   -5.6771   26.4971 C   0  0  0  0  0  0  0  0  0  0  0  0
   -1.5799   -9.9322   18.3468 C   0  0  0  0  0  0  0  0  0  0  0  0
   -1.0871  -12.2214   17.8851 C   0  0  0  0  0  0  0  0  0  0  0  0
   -2.2706   -8.9669   19.0691 C   0  0  0  0  0  0  0  0  0  0  0  0
    3.0279   -5.3073   26.8197 C   0  0  0  0  0  0  0  0  0  0  0  0
    7.3282   -3.8948   29.1186 C   0  0  0  0  0  0  0  0  0  0  0  0
  1  3  4  0
  1  7  4  0
  2  3  1  0
  2  6  4  0
  2 16  4  0
  3 22  4  0
  4  9  4  0
  4 10  1  0
  4 20  4  0
  5 16  4  0
  5 23  4  0
  6 15  4  0
  7 12  4  0
  8 13  4  0
  8 14  4  0
  9 11  4  0
 11 14  4  0
 11 19  4  0
 12 18  4  0
 13 21  4  0
 15 23  4  0
 17 19  4  0
 17 20  4  0
 18 22  4  0
 19 21  4  0
M  END
$$$$

 Created by Python create_sdf_string function

 23 25  0  0  0  0  0  0  0  0999 V2000
    2.4610   -5.3070   29.1240 C   0  0  0  0  0  0  0  0  0  0  0  0
    4.7710   -4.6952   28.4803 C   0  0  0  0  0  0  0  0  0  0  0  0
    3.4047   -5.1087   28.1314 C   0  0  0  0  0  0  0  0  0  0  0  0
   -0.2234  -11.8615   16.8874 C   0  0  0  0  0  0  0  0  0  0  0  0
    6.4491   -4.1532   30.1213 C   0  0  0  0  0  0  0  0  0  0  0  0
    5.7060   -4.4340   27.4975 C   0  0  0  0  0  0  0  0  0  0  0  0
    1.1818   -5.6612   28.8399 C   0  0  0  0  0  0  0  0  0  0  0  0
   -1.2067   -7.3287   17.7772 C   0  0  0  0  0  0  0  0  0  0  0  0
   -0.0206  -10.5585   16.6210 C   0  0  0  0  0  0  0  0  0  0  0  0
    0.3696  -12.7626   16.2169 O   0  0  0  0  0  0  0  0  0  0  0  0
   -0.6895   -9.5676   17.3297 C   0  0  0  0  0  0  0  0  0  0  0  0
    0.8388   -5.8417   27.5264 C   0  0  0  0  0  0  0  0  0  0  0  0
   -2.0709   -7.6637   18.7817 C   0  0  0  0  0  0  0  0  0  0  0  0
   -0.5279   -8.2168   17.0717 C   0  0  0  0  0  0  0  0  0  0  0  0
    6.9694   -4.0191   27.8190 C   0  0  0  0  0  0  0  0  0  0  0  0
    5.1733   -4.5469   29.8123 C   0  0  0  0  0  0  0  0  0  0  0  0
   -1.7508  -11.3016   18.6072 C   0  0  0  0  0  0  0  0  0  0  0  0
    1.7497   -5.6771   26.4971 C   0  0  0  0  0  0  0  0  0  0  0  0
   -1.5799   -9.9322   18.3468 C   0  0  0  0  0  0  0  0  0  0  0  0
   -1.0871  -12.2214   17.8851 C   0  0  0  0  0  0  0  0  0  0  0  0
   -2.2706   -8.9669   19.0691 C   0  0  0  0  0  0  0  0  0  0  0  0
    3.0279   -5.3073   26.8197 C   0  0  0  0  0  0  0  0  0  0  0  0
    7.3282   -3.8948   29.1186 C   0  0  0  0  0  0  0  0  0  0  0  0
  1  3  4  0
  1  7  4  0
  2  3  1  0
  2  6  4  0
  2 16  4  0
  3 22  4  0
  4  9  4  0
  4 10  1  0
  4 20  4  0
  5 16  4  0
  5 23  4  0
  6 15  4  0
  7 12  4  0
  8 13  4  0
  8 14  4  0
  9 11  4  0
 11 14  4  0
 11 19  4  0
 12 18  4  0
 13 21  4  0
 15 23  4  0
 17 19  4  0
 17 20  4  0
 18 22  4  0
 19 21  4  0
M  END
$$$$

 Created by Python create_sdf_string function

 23 25  0  0  0  0  0  0  0  0999 V2000
    2.4610   -5.3070   29.1240 C   0  0  0  0  0  0  0  0  0  0  0  0
    4.7710   -4.6952   28.4803 C   0  0  0  0  0  0  0  0  0  0  0  0
    3.4047   -5.1087   28.1314 C   0  0  0  0  0  0  0  0  0  0  0  0
   -0.2234  -11.8615   16.8874 C   0  0  0  0  0  0  0  0  0  0  0  0
    6.4491   -4.1532   30.1213 C   0  0  0  0  0  0  0  0  0  0  0  0
    5.7060   -4.4340   27.4975 C   0  0  0  0  0  0  0  0  0  0  0  0
    1.1818   -5.6612   28.8399 C   0  0  0  0  0  0  0  0  0  0  0  0
   -1.2067   -7.3287   17.7772 C   0  0  0  0  0  0  0  0  0  0  0  0
   -0.0206  -10.5585   16.6210 C   0  0  0  0  0  0  0  0  0  0  0  0
    0.3696  -12.7626   16.2169 O   0  0  0  0  0  0  0  0  0  0  0  0
   -0.6895   -9.5676   17.3297 C   0  0  0  0  0  0  0  0  0  0  0  0
    0.8388   -5.8417   27.5264 C   0  0  0  0  0  0  0  0  0  0  0  0
   -2.0709   -7.6637   18.7817 C   0  0  0  0  0  0  0  0  0  0  0  0
   -0.5279   -8.2168   17.0717 C   0  0  0  0  0  0  0  0  0  0  0  0
    6.9694   -4.0191   27.8190 C   0  0  0  0  0  0  0  0  0  0  0  0
    5.1733   -4.5469   29.8123 C   0  0  0  0  0  0  0  0  0  0  0  0
   -1.7508  -11.3016   18.6072 C   0  0  0  0  0  0  0  0  0  0  0  0
    1.7497   -5.6771   26.4971 C   0  0  0  0  0  0  0  0  0  0  0  0
   -1.5799   -9.9322   18.3468 C   0  0  0  0  0  0  0  0  0  0  0  0
   -1.0871  -12.2214   17.8851 C   0  0  0  0  0  0  0  0  0  0  0  0
   -2.2706   -8.9669   19.0691 C   0  0  0  0  0  0  0  0  0  0  0  0
    3.0279   -5.3073   26.8197 C   0  0  0  0  0  0  0  0  0  0  0  0
    7.3282   -3.8948   29.1186 C   0  0  0  0  0  0  0  0  0  0  0  0
  1  3  4  0
  1  7  4  0
  2  3  1  0
  2  6  4  0
  2 16  4  0
  3 22  4  0
  4  9  4  0
  4 10  1  0
  4 20  4  0
  5 16  4  0
  5 23  4  0
  6 15  4  0
  7 12  4  0
  8 13  4  0
  8 14  4  0
  9 11  4  0
 11 14  4  0
 11 19  4  0
 12 18  4  0
 13 21  4  0
 15 23  4  0
 17 19  4  0
 17 20  4  0
 18 22  4  0
 19 21  4  0
M  END
$$$$

 Created by Python create_sdf_string function

 23 25  0  0  0  0  0  0  0  0999 V2000
    2.4610   -5.3070   29.1240 C   0  0  0  0  0  0  0  0  0  0  0  0
    4.7710   -4.6952   28.4803 C   0  0  0  0  0  0  0  0  0  0  0  0
    3.4047   -5.1087   28.1314 C   0  0  0  0  0  0  0  0  0  0  0  0
   -0.2234  -11.8615   16.8874 C   0  0  0  0  0  0  0  0  0  0  0  0
    6.4491   -4.1532   30.1213 C   0  0  0  0  0  0  0  0  0  0  0  0
    5.7060   -4.4340   27.4975 C   0  0  0  0  0  0  0  0  0  0  0  0
    1.1818   -5.6612   28.8399 C   0  0  0  0  0  0  0  0  0  0  0  0
   -1.2067   -7.3287   17.7772 C   0  0  0  0  0  0  0  0  0  0  0  0
   -0.0206  -10.5585   16.6210 C   0  0  0  0  0  0  0  0  0  0  0  0
    0.3696  -12.7626   16.2169 O   0  0  0  0  0  0  0  0  0  0  0  0
   -0.6895   -9.5676   17.3297 C   0  0  0  0  0  0  0  0  0  0  0  0
    0.8388   -5.8417   27.5264 C   0  0  0  0  0  0  0  0  0  0  0  0
   -2.0709   -7.6637   18.7817 C   0  0  0  0  0  0  0  0  0  0  0  0
   -0.5279   -8.2168   17.0717 C   0  0  0  0  0  0  0  0  0  0  0  0
    6.9694   -4.0191   27.8190 C   0  0  0  0  0  0  0  0  0  0  0  0
    5.1733   -4.5469   29.8123 C   0  0  0  0  0  0  0  0  0  0  0  0
   -1.7508  -11.3016   18.6072 C   0  0  0  0  0  0  0  0  0  0  0  0
    1.7497   -5.6771   26.4971 C   0  0  0  0  0  0  0  0  0  0  0  0
   -1.5799   -9.9322   18.3468 C   0  0  0  0  0  0  0  0  0  0  0  0
   -1.0871  -12.2214   17.8851 C   0  0  0  0  0  0  0  0  0  0  0  0
   -2.2706   -8.9669   19.0691 C   0  0  0  0  0  0  0  0  0  0  0  0
    3.0279   -5.3073   26.8197 C   0  0  0  0  0  0  0  0  0  0  0  0
    7.3282   -3.8948   29.1186 C   0  0  0  0  0  0  0  0  0  0  0  0
  1  3  4  0
  1  7  4  0
  2  3  1  0
  2  6  4  0
  2 16  4  0
  3 22  4  0
  4  9  4  0
  4 10  1  0
  4 20  4  0
  5 16  4  0
  5 23  4  0
  6 15  4  0
  7 12  4  0
  8 13  4  0
  8 14  4  0
  9 11  4  0
 11 14  4  0
 11 19  4  0
 12 18  4  0
 13 21  4  0
 15 23  4  0
 17 19  4  0
 17 20  4  0
 18 22  4  0
 19 21  4  0
M  END
$$$$

 Created by Python create_sdf_string function

 23 25  0  0  0  0  0  0  0  0999 V2000
    2.4610   -5.3070   29.1240 C   0  0  0  0  0  0  0  0  0  0  0  0
    4.7710   -4.6952   28.4803 C   0  0  0  0  0  0  0  0  0  0  0  0
    3.4047   -5.1087   28.1314 C   0  0  0  0  0  0  0  0  0  0  0  0
   -0.2234  -11.8615   16.8874 C   0  0  0  0  0  0  0  0  0  0  0  0
    6.4491   -4.1532   30.1213 C   0  0  0  0  0  0  0  0  0  0  0  0
    5.7060   -4.4340   27.4975 C   0  0  0  0  0  0  0  0  0  0  0  0
    1.1818   -5.6612   28.8399 C   0  0  0  0  0  0  0  0  0  0  0  0
   -1.2067   -7.3287   17.7772 C   0  0  0  0  0  0  0  0  0  0  0  0
   -0.0206  -10.5585   16.6210 C   0  0  0  0  0  0  0  0  0  0  0  0
    0.3696  -12.7626   16.2169 O   0  0  0  0  0  0  0  0  0  0  0  0
   -0.6895   -9.5676   17.3297 C   0  0  0  0  0  0  0  0  0  0  0  0
    0.8388   -5.8417   27.5264 C   0  0  0  0  0  0  0  0  0  0  0  0
   -2.0709   -7.6637   18.7817 C   0  0  0  0  0  0  0  0  0  0  0  0
   -0.5279   -8.2168   17.0717 C   0  0  0  0  0  0  0  0  0  0  0  0
    6.9694   -4.0191   27.8190 C   0  0  0  0  0  0  0  0  0  0  0  0
    5.1733   -4.5469   29.8123 C   0  0  0  0  0  0  0  0  0  0  0  0
   -1.7508  -11.3016   18.6072 C   0  0  0  0  0  0  0  0  0  0  0  0
    1.7497   -5.6771   26.4971 C   0  0  0  0  0  0  0  0  0  0  0  0
   -1.5799   -9.9322   18.3468 C   0  0  0  0  0  0  0  0  0  0  0  0
   -1.0871  -12.2214   17.8851 C   0  0  0  0  0  0  0  0  0  0  0  0
   -2.2706   -8.9669   19.0691 C   0  0  0  0  0  0  0  0  0  0  0  0
    3.0279   -5.3073   26.8197 C   0  0  0  0  0  0  0  0  0  0  0  0
    7.3282   -3.8948   29.1186 C   0  0  0  0  0  0  0  0  0  0  0  0
  1  3  4  0
  1  7  4  0
  2  3  1  0
  2  6  4  0
  2 16  4  0
  3 22  4  0
  4  9  4  0
  4 10  1  0
  4 20  4  0
  5 16  4  0
  5 23  4  0
  6 15  4  0
  7 12  4  0
  8 13  4  0
  8 14  4  0
  9 11  4  0
 11 14  4  0
 11 19  4  0
 12 18  4  0
 13 21  4  0
 15 23  4  0
 17 19  4  0
 17 20  4  0
 18 22  4  0
 19 21  4  0
M  END
$$$$

 Created by Python create_sdf_string function

 23 25  0  0  0  0  0  0  0  0999 V2000
    2.4610   -5.3070   29.1240 C   0  0  0  0  0  0  0  0  0  0  0  0
    4.7710   -4.6952   28.4803 C   0  0  0  0  0  0  0  0  0  0  0  0
    3.4047   -5.1087   28.1314 C   0  0  0  0  0  0  0  0  0  0  0  0
   -0.2234  -11.8615   16.8874 C   0  0  0  0  0  0  0  0  0  0  0  0
    6.4491   -4.1532   30.1213 C   0  0  0  0  0  0  0  0  0  0  0  0
    5.7060   -4.4340   27.4975 C   0  0  0  0  0  0  0  0  0  0  0  0
    1.1818   -5.6612   28.8399 C   0  0  0  0  0  0  0  0  0  0  0  0
   -1.2067   -7.3287   17.7772 C   0  0  0  0  0  0  0  0  0  0  0  0
   -0.0206  -10.5585   16.6210 C   0  0  0  0  0  0  0  0  0  0  0  0
    0.3696  -12.7626   16.2169 O   0  0  0  0  0  0  0  0  0  0  0  0
   -0.6895   -9.5676   17.3297 C   0  0  0  0  0  0  0  0  0  0  0  0
    0.8388   -5.8417   27.5264 C   0  0  0  0  0  0  0  0  0  0  0  0
   -2.0709   -7.6637   18.7817 C   0  0  0  0  0  0  0  0  0  0  0  0
   -0.5279   -8.2168   17.0717 C   0  0  0  0  0  0  0  0  0  0  0  0
    6.9694   -4.0191   27.8190 C   0  0  0  0  0  0  0  0  0  0  0  0
    5.1733   -4.5469   29.8123 C   0  0  0  0  0  0  0  0  0  0  0  0
   -1.7508  -11.3016   18.6072 C   0  0  0  0  0  0  0  0  0  0  0  0
    1.7497   -5.6771   26.4971 C   0  0  0  0  0  0  0  0  0  0  0  0
   -1.5799   -9.9322   18.3468 C   0  0  0  0  0  0  0  0  0  0  0  0
   -1.0871  -12.2214   17.8851 C   0  0  0  0  0  0  0  0  0  0  0  0
   -2.2706   -8.9669   19.0691 C   0  0  0  0  0  0  0  0  0  0  0  0
    3.0279   -5.3073   26.8197 C   0  0  0  0  0  0  0  0  0  0  0  0
    7.3282   -3.8948   29.1186 C   0  0  0  0  0  0  0  0  0  0  0  0
  1  3  4  0
  1  7  4  0
  2  3  1  0
  2  6  4  0
  2 16  4  0
  3 22  4  0
  4  9  4  0
  4 10  1  0
  4 20  4  0
  5 16  4  0
  5 23  4  0
  6 15  4  0
  7 12  4  0
  8 13  4  0
  8 14  4  0
  9 11  4  0
 11 14  4  0
 11 19  4  0
 12 18  4  0
 13 21  4  0
 15 23  4  0
 17 19  4  0
 17 20  4  0
 18 22  4  0
 19 21  4  0
M  END
$$$$

 Created by Python create_sdf_string function

 23 25  0  0  0  0  0  0  0  0999 V2000
    2.4610   -5.3070   29.1240 C   0  0  0  0  0  0  0  0  0  0  0  0
    4.7710   -4.6952   28.4803 C   0  0  0  0  0  0  0  0  0  0  0  0
    3.4047   -5.1087   28.1314 C   0  0  0  0  0  0  0  0  0  0  0  0
   -0.2234  -11.8615   16.8874 C   0  0  0  0  0  0  0  0  0  0  0  0
    6.4491   -4.1532   30.1213 C   0  0  0  0  0  0  0  0  0  0  0  0
    5.7060   -4.4340   27.4975 C   0  0  0  0  0  0  0  0  0  0  0  0
    1.1818   -5.6612   28.8399 C   0  0  0  0  0  0  0  0  0  0  0  0
   -1.2067   -7.3287   17.7772 C   0  0  0  0  0  0  0  0  0  0  0  0
   -0.0206  -10.5585   16.6210 C   0  0  0  0  0  0  0  0  0  0  0  0
    0.3696  -12.7626   16.2169 O   0  0  0  0  0  0  0  0  0  0  0  0
   -0.6895   -9.5676   17.3297 C   0  0  0  0  0  0  0  0  0  0  0  0
    0.8388   -5.8417   27.5264 C   0  0  0  0  0  0  0  0  0  0  0  0
   -2.0709   -7.6637   18.7817 C   0  0  0  0  0  0  0  0  0  0  0  0
   -0.5279   -8.2168   17.0717 C   0  0  0  0  0  0  0  0  0  0  0  0
    6.9694   -4.0191   27.8190 C   0  0  0  0  0  0  0  0  0  0  0  0
    5.1733   -4.5469   29.8123 C   0  0  0  0  0  0  0  0  0  0  0  0
   -1.7508  -11.3016   18.6072 C   0  0  0  0  0  0  0  0  0  0  0  0
    1.7497   -5.6771   26.4971 C   0  0  0  0  0  0  0  0  0  0  0  0
   -1.5799   -9.9322   18.3468 C   0  0  0  0  0  0  0  0  0  0  0  0
   -1.0871  -12.2214   17.8851 C   0  0  0  0  0  0  0  0  0  0  0  0
   -2.2706   -8.9669   19.0691 C   0  0  0  0  0  0  0  0  0  0  0  0
    3.0279   -5.3073   26.8197 C   0  0  0  0  0  0  0  0  0  0  0  0
    7.3282   -3.8948   29.1186 C   0  0  0  0  0  0  0  0  0  0  0  0
  1  3  4  0
  1  7  4  0
  2  3  1  0
  2  6  4  0
  2 16  4  0
  3 22  4  0
  4  9  4  0
  4 10  1  0
  4 20  4  0
  5 16  4  0
  5 23  4  0
  6 15  4  0
  7 12  4  0
  8 13  4  0
  8 14  4  0
  9 11  4  0
 11 14  4  0
 11 19  4  0
 12 18  4  0
 13 21  4  0
 15 23  4  0
 17 19  4  0
 17 20  4  0
 18 22  4  0
 19 21  4  0
M  END
$$$$

 Created by Python create_sdf_string function

 23 25  0  0  0  0  0  0  0  0999 V2000
    2.4610   -5.3070   29.1240 C   0  0  0  0  0  0  0  0  0  0  0  0
    4.7710   -4.6952   28.4803 C   0  0  0  0  0  0  0  0  0  0  0  0
    3.4047   -5.1087   28.1314 C   0  0  0  0  0  0  0  0  0  0  0  0
   -0.2234  -11.8615   16.8874 C   0  0  0  0  0  0  0  0  0  0  0  0
    6.4491   -4.1532   30.1213 C   0  0  0  0  0  0  0  0  0  0  0  0
    5.7060   -4.4340   27.4975 C   0  0  0  0  0  0  0  0  0  0  0  0
    1.1818   -5.6612   28.8399 C   0  0  0  0  0  0  0  0  0  0  0  0
   -1.2067   -7.3287   17.7772 C   0  0  0  0  0  0  0  0  0  0  0  0
   -0.0206  -10.5585   16.6210 C   0  0  0  0  0  0  0  0  0  0  0  0
    0.3696  -12.7626   16.2169 O   0  0  0  0  0  0  0  0  0  0  0  0
   -0.6895   -9.5676   17.3297 C   0  0  0  0  0  0  0  0  0  0  0  0
    0.8388   -5.8417   27.5264 C   0  0  0  0  0  0  0  0  0  0  0  0
   -2.0709   -7.6637   18.7817 C   0  0  0  0  0  0  0  0  0  0  0  0
   -0.5279   -8.2168   17.0717 C   0  0  0  0  0  0  0  0  0  0  0  0
    6.9694   -4.0191   27.8190 C   0  0  0  0  0  0  0  0  0  0  0  0
    5.1733   -4.5469   29.8123 C   0  0  0  0  0  0  0  0  0  0  0  0
   -1.7508  -11.3016   18.6072 C   0  0  0  0  0  0  0  0  0  0  0  0
    1.7497   -5.6771   26.4971 C   0  0  0  0  0  0  0  0  0  0  0  0
   -1.5799   -9.9322   18.3468 C   0  0  0  0  0  0  0  0  0  0  0  0
   -1.0871  -12.2214   17.8851 C   0  0  0  0  0  0  0  0  0  0  0  0
   -2.2706   -8.9669   19.0691 C   0  0  0  0  0  0  0  0  0  0  0  0
    3.0279   -5.3073   26.8197 C   0  0  0  0  0  0  0  0  0  0  0  0
    7.3282   -3.8948   29.1186 C   0  0  0  0  0  0  0  0  0  0  0  0
  1  3  4  0
  1  7  4  0
  2  3  1  0
  2  6  4  0
  2 16  4  0
  3 22  4  0
  4  9  4  0
  4 10  1  0
  4 20  4  0
  5 16  4  0
  5 23  4  0
  6 15  4  0
  7 12  4  0
  8 13  4  0
  8 14  4  0
  9 11  4  0
 11 14  4  0
 11 19  4  0
 12 18  4  0
 13 21  4  0
 15 23  4  0
 17 19  4  0
 17 20  4  0
 18 22  4  0
 19 21  4  0
M  END
$$$$

 Created by Python create_sdf_string function

 23 25  0  0  0  0  0  0  0  0999 V2000
    2.4610   -5.3070   29.1240 C   0  0  0  0  0  0  0  0  0  0  0  0
    4.7710   -4.6952   28.4803 C   0  0  0  0  0  0  0  0  0  0  0  0
    3.4047   -5.1087   28.1314 C   0  0  0  0  0  0  0  0  0  0  0  0
   -0.2234  -11.8615   16.8874 C   0  0  0  0  0  0  0  0  0  0  0  0
    6.4491   -4.1532   30.1213 C   0  0  0  0  0  0  0  0  0  0  0  0
    5.7060   -4.4340   27.4975 C   0  0  0  0  0  0  0  0  0  0  0  0
    1.1818   -5.6612   28.8399 C   0  0  0  0  0  0  0  0  0  0  0  0
   -1.2067   -7.3287   17.7772 C   0  0  0  0  0  0  0  0  0  0  0  0
   -0.0206  -10.5585   16.6210 C   0  0  0  0  0  0  0  0  0  0  0  0
    0.3696  -12.7626   16.2169 O   0  0  0  0  0  0  0  0  0  0  0  0
   -0.6895   -9.5676   17.3297 C   0  0  0  0  0  0  0  0  0  0  0  0
    0.8388   -5.8417   27.5264 C   0  0  0  0  0  0  0  0  0  0  0  0
   -2.0709   -7.6637   18.7817 C   0  0  0  0  0  0  0  0  0  0  0  0
   -0.5279   -8.2168   17.0717 C   0  0  0  0  0  0  0  0  0  0  0  0
    6.9694   -4.0191   27.8190 C   0  0  0  0  0  0  0  0  0  0  0  0
    5.1733   -4.5469   29.8123 C   0  0  0  0  0  0  0  0  0  0  0  0
   -1.7508  -11.3016   18.6072 C   0  0  0  0  0  0  0  0  0  0  0  0
    1.7497   -5.6771   26.4971 C   0  0  0  0  0  0  0  0  0  0  0  0
   -1.5799   -9.9322   18.3468 C   0  0  0  0  0  0  0  0  0  0  0  0
   -1.0871  -12.2214   17.8851 C   0  0  0  0  0  0  0  0  0  0  0  0
   -2.2706   -8.9669   19.0691 C   0  0  0  0  0  0  0  0  0  0  0  0
    3.0279   -5.3073   26.8197 C   0  0  0  0  0  0  0  0  0  0  0  0
    7.3282   -3.8948   29.1186 C   0  0  0  0  0  0  0  0  0  0  0  0
  1  3  4  0
  1  7  4  0
  2  3  1  0
  2  6  4  0
  2 16  4  0
  3 22  4  0
  4  9  4  0
  4 10  1  0
  4 20  4  0
  5 16  4  0
  5 23  4  0
  6 15  4  0
  7 12  4  0
  8 13  4  0
  8 14  4  0
  9 11  4  0
 11 14  4  0
 11 19  4  0
 12 18  4  0
 13 21  4  0
 15 23  4  0
 17 19  4  0
 17 20  4  0
 18 22  4  0
 19 21  4  0
M  END
$$$$

 Created by Python create_sdf_string function

 23 25  0  0  0  0  0  0  0  0999 V2000
    2.4610   -5.3070   29.1240 C   0  0  0  0  0  0  0  0  0  0  0  0
    4.7710   -4.6952   28.4803 C   0  0  0  0  0  0  0  0  0  0  0  0
    3.4047   -5.1087   28.1314 C   0  0  0  0  0  0  0  0  0  0  0  0
   -0.2234  -11.8615   16.8874 C   0  0  0  0  0  0  0  0  0  0  0  0
    6.4491   -4.1532   30.1213 C   0  0  0  0  0  0  0  0  0  0  0  0
    5.7060   -4.4340   27.4975 C   0  0  0  0  0  0  0  0  0  0  0  0
    1.1818   -5.6612   28.8399 C   0  0  0  0  0  0  0  0  0  0  0  0
   -1.2067   -7.3287   17.7772 C   0  0  0  0  0  0  0  0  0  0  0  0
   -0.0206  -10.5585   16.6210 C   0  0  0  0  0  0  0  0  0  0  0  0
    0.3696  -12.7626   16.2169 O   0  0  0  0  0  0  0  0  0  0  0  0
   -0.6895   -9.5676   17.3297 C   0  0  0  0  0  0  0  0  0  0  0  0
    0.8388   -5.8417   27.5264 C   0  0  0  0  0  0  0  0  0  0  0  0
   -2.0709   -7.6637   18.7817 C   0  0  0  0  0  0  0  0  0  0  0  0
   -0.5279   -8.2168   17.0717 C   0  0  0  0  0  0  0  0  0  0  0  0
    6.9694   -4.0191   27.8190 C   0  0  0  0  0  0  0  0  0  0  0  0
    5.1733   -4.5469   29.8123 C   0  0  0  0  0  0  0  0  0  0  0  0
   -1.7508  -11.3016   18.6072 C   0  0  0  0  0  0  0  0  0  0  0  0
    1.7497   -5.6771   26.4971 C   0  0  0  0  0  0  0  0  0  0  0  0
   -1.5799   -9.9322   18.3468 C   0  0  0  0  0  0  0  0  0  0  0  0
   -1.0871  -12.2214   17.8851 C   0  0  0  0  0  0  0  0  0  0  0  0
   -2.2706   -8.9669   19.0691 C   0  0  0  0  0  0  0  0  0  0  0  0
    3.0279   -5.3073   26.8197 C   0  0  0  0  0  0  0  0  0  0  0  0
    7.3282   -3.8948   29.1186 C   0  0  0  0  0  0  0  0  0  0  0  0
  1  3  4  0
  1  7  4  0
  2  3  1  0
  2  6  4  0
  2 16  4  0
  3 22  4  0
  4  9  4  0
  4 10  1  0
  4 20  4  0
  5 16  4  0
  5 23  4  0
  6 15  4  0
  7 12  4  0
  8 13  4  0
  8 14  4  0
  9 11  4  0
 11 14  4  0
 11 19  4  0
 12 18  4  0
 13 21  4  0
 15 23  4  0
 17 19  4  0
 17 20  4  0
 18 22  4  0
 19 21  4  0
M  END
$$$$

 Created by Python create_sdf_string function

 23 25  0  0  0  0  0  0  0  0999 V2000
    2.4610   -5.3070   29.1240 C   0  0  0  0  0  0  0  0  0  0  0  0
    4.7710   -4.6952   28.4803 C   0  0  0  0  0  0  0  0  0  0  0  0
    3.4047   -5.1087   28.1314 C   0  0  0  0  0  0  0  0  0  0  0  0
   -0.2234  -11.8615   16.8874 C   0  0  0  0  0  0  0  0  0  0  0  0
    6.4491   -4.1532   30.1213 C   0  0  0  0  0  0  0  0  0  0  0  0
    5.7060   -4.4340   27.4975 C   0  0  0  0  0  0  0  0  0  0  0  0
    1.1818   -5.6612   28.8399 C   0  0  0  0  0  0  0  0  0  0  0  0
   -1.2067   -7.3287   17.7772 C   0  0  0  0  0  0  0  0  0  0  0  0
   -0.0206  -10.5585   16.6210 C   0  0  0  0  0  0  0  0  0  0  0  0
    0.3696  -12.7626   16.2169 O   0  0  0  0  0  0  0  0  0  0  0  0
   -0.6895   -9.5676   17.3297 C   0  0  0  0  0  0  0  0  0  0  0  0
    0.8388   -5.8417   27.5264 C   0  0  0  0  0  0  0  0  0  0  0  0
   -2.0709   -7.6637   18.7817 C   0  0  0  0  0  0  0  0  0  0  0  0
   -0.5279   -8.2168   17.0717 C   0  0  0  0  0  0  0  0  0  0  0  0
    6.9694   -4.0191   27.8190 C   0  0  0  0  0  0  0  0  0  0  0  0
    5.1733   -4.5469   29.8123 C   0  0  0  0  0  0  0  0  0  0  0  0
   -1.7508  -11.3016   18.6072 C   0  0  0  0  0  0  0  0  0  0  0  0
    1.7497   -5.6771   26.4971 C   0  0  0  0  0  0  0  0  0  0  0  0
   -1.5799   -9.9322   18.3468 C   0  0  0  0  0  0  0  0  0  0  0  0
   -1.0871  -12.2214   17.8851 C   0  0  0  0  0  0  0  0  0  0  0  0
   -2.2706   -8.9669   19.0691 C   0  0  0  0  0  0  0  0  0  0  0  0
    3.0279   -5.3073   26.8197 C   0  0  0  0  0  0  0  0  0  0  0  0
    7.3282   -3.8948   29.1186 C   0  0  0  0  0  0  0  0  0  0  0  0
  1  3  4  0
  1  7  4  0
  2  3  1  0
  2  6  4  0
  2 16  4  0
  3 22  4  0
  4  9  4  0
  4 10  1  0
  4 20  4  0
  5 16  4  0
  5 23  4  0
  6 15  4  0
  7 12  4  0
  8 13  4  0
  8 14  4  0
  9 11  4  0
 11 14  4  0
 11 19  4  0
 12 18  4  0
 13 21  4  0
 15 23  4  0
 17 19  4  0
 17 20  4  0
 18 22  4  0
 19 21  4  0
M  END
$$$$

 Created by Python create_sdf_string function

 23 25  0  0  0  0  0  0  0  0999 V2000
    2.4610   -5.3070   29.1240 C   0  0  0  0  0  0  0  0  0  0  0  0
    4.7710   -4.6952   28.4803 C   0  0  0  0  0  0  0  0  0  0  0  0
    3.4047   -5.1087   28.1314 C   0  0  0  0  0  0  0  0  0  0  0  0
   -0.2234  -11.8615   16.8874 C   0  0  0  0  0  0  0  0  0  0  0  0
    6.4491   -4.1532   30.1213 C   0  0  0  0  0  0  0  0  0  0  0  0
    5.7060   -4.4340   27.4975 C   0  0  0  0  0  0  0  0  0  0  0  0
    1.1818   -5.6612   28.8399 C   0  0  0  0  0  0  0  0  0  0  0  0
   -1.2067   -7.3287   17.7772 C   0  0  0  0  0  0  0  0  0  0  0  0
   -0.0206  -10.5585   16.6210 C   0  0  0  0  0  0  0  0  0  0  0  0
    0.3696  -12.7626   16.2169 O   0  0  0  0  0  0  0  0  0  0  0  0
   -0.6895   -9.5676   17.3297 C   0  0  0  0  0  0  0  0  0  0  0  0
    0.8388   -5.8417   27.5264 C   0  0  0  0  0  0  0  0  0  0  0  0
   -2.0709   -7.6637   18.7817 C   0  0  0  0  0  0  0  0  0  0  0  0
   -0.5279   -8.2168   17.0717 C   0  0  0  0  0  0  0  0  0  0  0  0
    6.9694   -4.0191   27.8190 C   0  0  0  0  0  0  0  0  0  0  0  0
    5.1733   -4.5469   29.8123 C   0  0  0  0  0  0  0  0  0  0  0  0
   -1.7508  -11.3016   18.6072 C   0  0  0  0  0  0  0  0  0  0  0  0
    1.7497   -5.6771   26.4971 C   0  0  0  0  0  0  0  0  0  0  0  0
   -1.5799   -9.9322   18.3468 C   0  0  0  0  0  0  0  0  0  0  0  0
   -1.0871  -12.2214   17.8851 C   0  0  0  0  0  0  0  0  0  0  0  0
   -2.2706   -8.9669   19.0691 C   0  0  0  0  0  0  0  0  0  0  0  0
    3.0279   -5.3073   26.8197 C   0  0  0  0  0  0  0  0  0  0  0  0
    7.3282   -3.8948   29.1186 C   0  0  0  0  0  0  0  0  0  0  0  0
  1  3  4  0
  1  7  4  0
  2  3  1  0
  2  6  4  0
  2 16  4  0
  3 22  4  0
  4  9  4  0
  4 10  1  0
  4 20  4  0
  5 16  4  0
  5 23  4  0
  6 15  4  0
  7 12  4  0
  8 13  4  0
  8 14  4  0
  9 11  4  0
 11 14  4  0
 11 19  4  0
 12 18  4  0
 13 21  4  0
 15 23  4  0
 17 19  4  0
 17 20  4  0
 18 22  4  0
 19 21  4  0
M  END
$$$$

 Created by Python create_sdf_string function

 23 25  0  0  0  0  0  0  0  0999 V2000
    2.4610   -5.3070   29.1240 C   0  0  0  0  0  0  0  0  0  0  0  0
    4.7710   -4.6952   28.4803 C   0  0  0  0  0  0  0  0  0  0  0  0
    3.4047   -5.1087   28.1314 C   0  0  0  0  0  0  0  0  0  0  0  0
   -0.2234  -11.8615   16.8874 C   0  0  0  0  0  0  0  0  0  0  0  0
    6.4491   -4.1532   30.1213 C   0  0  0  0  0  0  0  0  0  0  0  0
    5.7060   -4.4340   27.4975 C   0  0  0  0  0  0  0  0  0  0  0  0
    1.1818   -5.6612   28.8399 C   0  0  0  0  0  0  0  0  0  0  0  0
   -1.2067   -7.3287   17.7772 C   0  0  0  0  0  0  0  0  0  0  0  0
   -0.0206  -10.5585   16.6210 C   0  0  0  0  0  0  0  0  0  0  0  0
    0.3696  -12.7626   16.2169 O   0  0  0  0  0  0  0  0  0  0  0  0
   -0.6895   -9.5676   17.3297 C   0  0  0  0  0  0  0  0  0  0  0  0
    0.8388   -5.8417   27.5264 C   0  0  0  0  0  0  0  0  0  0  0  0
   -2.0709   -7.6637   18.7817 C   0  0  0  0  0  0  0  0  0  0  0  0
   -0.5279   -8.2168   17.0717 C   0  0  0  0  0  0  0  0  0  0  0  0
    6.9694   -4.0191   27.8190 C   0  0  0  0  0  0  0  0  0  0  0  0
    5.1733   -4.5469   29.8123 C   0  0  0  0  0  0  0  0  0  0  0  0
   -1.7508  -11.3016   18.6072 C   0  0  0  0  0  0  0  0  0  0  0  0
    1.7497   -5.6771   26.4971 C   0  0  0  0  0  0  0  0  0  0  0  0
   -1.5799   -9.9322   18.3468 C   0  0  0  0  0  0  0  0  0  0  0  0
   -1.0871  -12.2214   17.8851 C   0  0  0  0  0  0  0  0  0  0  0  0
   -2.2706   -8.9669   19.0691 C   0  0  0  0  0  0  0  0  0  0  0  0
    3.0279   -5.3073   26.8197 C   0  0  0  0  0  0  0  0  0  0  0  0
    7.3282   -3.8948   29.1186 C   0  0  0  0  0  0  0  0  0  0  0  0
  1  3  4  0
  1  7  4  0
  2  3  1  0
  2  6  4  0
  2 16  4  0
  3 22  4  0
  4  9  4  0
  4 10  1  0
  4 20  4  0
  5 16  4  0
  5 23  4  0
  6 15  4  0
  7 12  4  0
  8 13  4  0
  8 14  4  0
  9 11  4  0
 11 14  4  0
 11 19  4  0
 12 18  4  0
 13 21  4  0
 15 23  4  0
 17 19  4  0
 17 20  4  0
 18 22  4  0
 19 21  4  0
M  END
$$$$

 Created by Python create_sdf_string function

 23 25  0  0  0  0  0  0  0  0999 V2000
    2.4610   -5.3070   29.1240 C   0  0  0  0  0  0  0  0  0  0  0  0
    4.7710   -4.6952   28.4803 C   0  0  0  0  0  0  0  0  0  0  0  0
    3.4047   -5.1087   28.1314 C   0  0  0  0  0  0  0  0  0  0  0  0
   -0.2234  -11.8615   16.8874 C   0  0  0  0  0  0  0  0  0  0  0  0
    6.4491   -4.1532   30.1213 C   0  0  0  0  0  0  0  0  0  0  0  0
    5.7060   -4.4340   27.4975 C   0  0  0  0  0  0  0  0  0  0  0  0
    1.1818   -5.6612   28.8399 C   0  0  0  0  0  0  0  0  0  0  0  0
   -1.2067   -7.3287   17.7772 C   0  0  0  0  0  0  0  0  0  0  0  0
   -0.0206  -10.5585   16.6210 C   0  0  0  0  0  0  0  0  0  0  0  0
    0.3696  -12.7626   16.2169 O   0  0  0  0  0  0  0  0  0  0  0  0
   -0.6895   -9.5676   17.3297 C   0  0  0  0  0  0  0  0  0  0  0  0
    0.8388   -5.8417   27.5264 C   0  0  0  0  0  0  0  0  0  0  0  0
   -2.0709   -7.6637   18.7817 C   0  0  0  0  0  0  0  0  0  0  0  0
   -0.5279   -8.2168   17.0717 C   0  0  0  0  0  0  0  0  0  0  0  0
    6.9694   -4.0191   27.8190 C   0  0  0  0  0  0  0  0  0  0  0  0
    5.1733   -4.5469   29.8123 C   0  0  0  0  0  0  0  0  0  0  0  0
   -1.7508  -11.3016   18.6072 C   0  0  0  0  0  0  0  0  0  0  0  0
    1.7497   -5.6771   26.4971 C   0  0  0  0  0  0  0  0  0  0  0  0
   -1.5799   -9.9322   18.3468 C   0  0  0  0  0  0  0  0  0  0  0  0
   -1.0871  -12.2214   17.8851 C   0  0  0  0  0  0  0  0  0  0  0  0
   -2.2706   -8.9669   19.0691 C   0  0  0  0  0  0  0  0  0  0  0  0
    3.0279   -5.3073   26.8197 C   0  0  0  0  0  0  0  0  0  0  0  0
    7.3282   -3.8948   29.1186 C   0  0  0  0  0  0  0  0  0  0  0  0
  1  3  4  0
  1  7  4  0
  2  3  1  0
  2  6  4  0
  2 16  4  0
  3 22  4  0
  4  9  4  0
  4 10  1  0
  4 20  4  0
  5 16  4  0
  5 23  4  0
  6 15  4  0
  7 12  4  0
  8 13  4  0
  8 14  4  0
  9 11  4  0
 11 14  4  0
 11 19  4  0
 12 18  4  0
 13 21  4  0
 15 23  4  0
 17 19  4  0
 17 20  4  0
 18 22  4  0
 19 21  4  0
M  END
$$$$

 Created by Python create_sdf_string function

 23 25  0  0  0  0  0  0  0  0999 V2000
    2.4610   -5.3070   29.1240 C   0  0  0  0  0  0  0  0  0  0  0  0
    4.7710   -4.6952   28.4803 C   0  0  0  0  0  0  0  0  0  0  0  0
    3.4047   -5.1087   28.1314 C   0  0  0  0  0  0  0  0  0  0  0  0
   -0.2234  -11.8615   16.8874 C   0  0  0  0  0  0  0  0  0  0  0  0
    6.4491   -4.1532   30.1213 C   0  0  0  0  0  0  0  0  0  0  0  0
    5.7060   -4.4340   27.4975 C   0  0  0  0  0  0  0  0  0  0  0  0
    1.1818   -5.6612   28.8399 C   0  0  0  0  0  0  0  0  0  0  0  0
   -1.2067   -7.3287   17.7772 C   0  0  0  0  0  0  0  0  0  0  0  0
   -0.0206  -10.5585   16.6210 C   0  0  0  0  0  0  0  0  0  0  0  0
    0.3696  -12.7626   16.2169 O   0  0  0  0  0  0  0  0  0  0  0  0
   -0.6895   -9.5676   17.3297 C   0  0  0  0  0  0  0  0  0  0  0  0
    0.8388   -5.8417   27.5264 C   0  0  0  0  0  0  0  0  0  0  0  0
   -2.0709   -7.6637   18.7817 C   0  0  0  0  0  0  0  0  0  0  0  0
   -0.5279   -8.2168   17.0717 C   0  0  0  0  0  0  0  0  0  0  0  0
    6.9694   -4.0191   27.8190 C   0  0  0  0  0  0  0  0  0  0  0  0
    5.1733   -4.5469   29.8123 C   0  0  0  0  0  0  0  0  0  0  0  0
   -1.7508  -11.3016   18.6072 C   0  0  0  0  0  0  0  0  0  0  0  0
    1.7497   -5.6771   26.4971 C   0  0  0  0  0  0  0  0  0  0  0  0
   -1.5799   -9.9322   18.3468 C   0  0  0  0  0  0  0  0  0  0  0  0
   -1.0871  -12.2214   17.8851 C   0  0  0  0  0  0  0  0  0  0  0  0
   -2.2706   -8.9669   19.0691 C   0  0  0  0  0  0  0  0  0  0  0  0
    3.0279   -5.3073   26.8197 C   0  0  0  0  0  0  0  0  0  0  0  0
    7.3282   -3.8948   29.1186 C   0  0  0  0  0  0  0  0  0  0  0  0
  1  3  4  0
  1  7  4  0
  2  3  1  0
  2  6  4  0
  2 16  4  0
  3 22  4  0
  4  9  4  0
  4 10  1  0
  4 20  4  0
  5 16  4  0
  5 23  4  0
  6 15  4  0
  7 12  4  0
  8 13  4  0
  8 14  4  0
  9 11  4  0
 11 14  4  0
 11 19  4  0
 12 18  4  0
 13 21  4  0
 15 23  4  0
 17 19  4  0
 17 20  4  0
 18 22  4  0
 19 21  4  0
M  END
$$$$

 Created by Python create_sdf_string function

 23 25  0  0  0  0  0  0  0  0999 V2000
    2.4610   -5.3070   29.1240 C   0  0  0  0  0  0  0  0  0  0  0  0
    4.7710   -4.6952   28.4803 C   0  0  0  0  0  0  0  0  0  0  0  0
    3.4047   -5.1087   28.1314 C   0  0  0  0  0  0  0  0  0  0  0  0
   -0.2234  -11.8615   16.8874 C   0  0  0  0  0  0  0  0  0  0  0  0
    6.4491   -4.1532   30.1213 C   0  0  0  0  0  0  0  0  0  0  0  0
    5.7060   -4.4340   27.4975 C   0  0  0  0  0  0  0  0  0  0  0  0
    1.1818   -5.6612   28.8399 C   0  0  0  0  0  0  0  0  0  0  0  0
   -1.2067   -7.3287   17.7772 C   0  0  0  0  0  0  0  0  0  0  0  0
   -0.0206  -10.5585   16.6210 C   0  0  0  0  0  0  0  0  0  0  0  0
    0.3696  -12.7626   16.2169 O   0  0  0  0  0  0  0  0  0  0  0  0
   -0.6895   -9.5676   17.3297 C   0  0  0  0  0  0  0  0  0  0  0  0
    0.8388   -5.8417   27.5264 C   0  0  0  0  0  0  0  0  0  0  0  0
   -2.0709   -7.6637   18.7817 C   0  0  0  0  0  0  0  0  0  0  0  0
   -0.5279   -8.2168   17.0717 C   0  0  0  0  0  0  0  0  0  0  0  0
    6.9694   -4.0191   27.8190 C   0  0  0  0  0  0  0  0  0  0  0  0
    5.1733   -4.5469   29.8123 C   0  0  0  0  0  0  0  0  0  0  0  0
   -1.7508  -11.3016   18.6072 C   0  0  0  0  0  0  0  0  0  0  0  0
    1.7497   -5.6771   26.4971 C   0  0  0  0  0  0  0  0  0  0  0  0
   -1.5799   -9.9322   18.3468 C   0  0  0  0  0  0  0  0  0  0  0  0
   -1.0871  -12.2214   17.8851 C   0  0  0  0  0  0  0  0  0  0  0  0
   -2.2706   -8.9669   19.0691 C   0  0  0  0  0  0  0  0  0  0  0  0
    3.0279   -5.3073   26.8197 C   0  0  0  0  0  0  0  0  0  0  0  0
    7.3282   -3.8948   29.1186 C   0  0  0  0  0  0  0  0  0  0  0  0
  1  3  4  0
  1  7  4  0
  2  3  1  0
  2  6  4  0
  2 16  4  0
  3 22  4  0
  4  9  4  0
  4 10  1  0
  4 20  4  0
  5 16  4  0
  5 23  4  0
  6 15  4  0
  7 12  4  0
  8 13  4  0
  8 14  4  0
  9 11  4  0
 11 14  4  0
 11 19  4  0
 12 18  4  0
 13 21  4  0
 15 23  4  0
 17 19  4  0
 17 20  4  0
 18 22  4  0
 19 21  4  0
M  END
$$$$

 Created by Python create_sdf_string function

 23 25  0  0  0  0  0  0  0  0999 V2000
    2.4610   -5.3070   29.1240 C   0  0  0  0  0  0  0  0  0  0  0  0
    4.7710   -4.6952   28.4803 C   0  0  0  0  0  0  0  0  0  0  0  0
    3.4047   -5.1087   28.1314 C   0  0  0  0  0  0  0  0  0  0  0  0
   -0.2234  -11.8615   16.8874 C   0  0  0  0  0  0  0  0  0  0  0  0
    6.4491   -4.1532   30.1213 C   0  0  0  0  0  0  0  0  0  0  0  0
    5.7060   -4.4340   27.4975 C   0  0  0  0  0  0  0  0  0  0  0  0
    1.1818   -5.6612   28.8399 C   0  0  0  0  0  0  0  0  0  0  0  0
   -1.2067   -7.3287   17.7772 C   0  0  0  0  0  0  0  0  0  0  0  0
   -0.0206  -10.5585   16.6210 C   0  0  0  0  0  0  0  0  0  0  0  0
    0.3696  -12.7626   16.2169 O   0  0  0  0  0  0  0  0  0  0  0  0
   -0.6895   -9.5676   17.3297 C   0  0  0  0  0  0  0  0  0  0  0  0
    0.8388   -5.8417   27.5264 C   0  0  0  0  0  0  0  0  0  0  0  0
   -2.0709   -7.6637   18.7817 C   0  0  0  0  0  0  0  0  0  0  0  0
   -0.5279   -8.2168   17.0717 C   0  0  0  0  0  0  0  0  0  0  0  0
    6.9694   -4.0191   27.8190 C   0  0  0  0  0  0  0  0  0  0  0  0
    5.1733   -4.5469   29.8123 C   0  0  0  0  0  0  0  0  0  0  0  0
   -1.7508  -11.3016   18.6072 C   0  0  0  0  0  0  0  0  0  0  0  0
    1.7497   -5.6771   26.4971 C   0  0  0  0  0  0  0  0  0  0  0  0
   -1.5799   -9.9322   18.3468 C   0  0  0  0  0  0  0  0  0  0  0  0
   -1.0871  -12.2214   17.8851 C   0  0  0  0  0  0  0  0  0  0  0  0
   -2.2706   -8.9669   19.0691 C   0  0  0  0  0  0  0  0  0  0  0  0
    3.0279   -5.3073   26.8197 C   0  0  0  0  0  0  0  0  0  0  0  0
    7.3282   -3.8948   29.1186 C   0  0  0  0  0  0  0  0  0  0  0  0
  1  3  4  0
  1  7  4  0
  2  3  1  0
  2  6  4  0
  2 16  4  0
  3 22  4  0
  4  9  4  0
  4 10  1  0
  4 20  4  0
  5 16  4  0
  5 23  4  0
  6 15  4  0
  7 12  4  0
  8 13  4  0
  8 14  4  0
  9 11  4  0
 11 14  4  0
 11 19  4  0
 12 18  4  0
 13 21  4  0
 15 23  4  0
 17 19  4  0
 17 20  4  0
 18 22  4  0
 19 21  4  0
M  END
$$$$

 Created by Python create_sdf_string function

 23 25  0  0  0  0  0  0  0  0999 V2000
    2.4610   -5.3070   29.1240 C   0  0  0  0  0  0  0  0  0  0  0  0
    4.7710   -4.6952   28.4803 C   0  0  0  0  0  0  0  0  0  0  0  0
    3.4047   -5.1087   28.1314 C   0  0  0  0  0  0  0  0  0  0  0  0
   -0.2234  -11.8615   16.8874 C   0  0  0  0  0  0  0  0  0  0  0  0
    6.4491   -4.1532   30.1213 C   0  0  0  0  0  0  0  0  0  0  0  0
    5.7060   -4.4340   27.4975 C   0  0  0  0  0  0  0  0  0  0  0  0
    1.1818   -5.6612   28.8399 C   0  0  0  0  0  0  0  0  0  0  0  0
   -1.2067   -7.3287   17.7772 C   0  0  0  0  0  0  0  0  0  0  0  0
   -0.0206  -10.5585   16.6210 C   0  0  0  0  0  0  0  0  0  0  0  0
    0.3696  -12.7626   16.2169 O   0  0  0  0  0  0  0  0  0  0  0  0
   -0.6895   -9.5676   17.3297 C   0  0  0  0  0  0  0  0  0  0  0  0
    0.8388   -5.8417   27.5264 C   0  0  0  0  0  0  0  0  0  0  0  0
   -2.0709   -7.6637   18.7817 C   0  0  0  0  0  0  0  0  0  0  0  0
   -0.5279   -8.2168   17.0717 C   0  0  0  0  0  0  0  0  0  0  0  0
    6.9694   -4.0191   27.8190 C   0  0  0  0  0  0  0  0  0  0  0  0
    5.1733   -4.5469   29.8123 C   0  0  0  0  0  0  0  0  0  0  0  0
   -1.7508  -11.3016   18.6072 C   0  0  0  0  0  0  0  0  0  0  0  0
    1.7497   -5.6771   26.4971 C   0  0  0  0  0  0  0  0  0  0  0  0
   -1.5799   -9.9322   18.3468 C   0  0  0  0  0  0  0  0  0  0  0  0
   -1.0871  -12.2214   17.8851 C   0  0  0  0  0  0  0  0  0  0  0  0
   -2.2706   -8.9669   19.0691 C   0  0  0  0  0  0  0  0  0  0  0  0
    3.0279   -5.3073   26.8197 C   0  0  0  0  0  0  0  0  0  0  0  0
    7.3282   -3.8948   29.1186 C   0  0  0  0  0  0  0  0  0  0  0  0
  1  3  4  0
  1  7  4  0
  2  3  1  0
  2  6  4  0
  2 16  4  0
  3 22  4  0
  4  9  4  0
  4 10  1  0
  4 20  4  0
  5 16  4  0
  5 23  4  0
  6 15  4  0
  7 12  4  0
  8 13  4  0
  8 14  4  0
  9 11  4  0
 11 14  4  0
 11 19  4  0
 12 18  4  0
 13 21  4  0
 15 23  4  0
 17 19  4  0
 17 20  4  0
 18 22  4  0
 19 21  4  0
M  END
$$$$

 Created by Python create_sdf_string function

 23 25  0  0  0  0  0  0  0  0999 V2000
    2.4610   -5.3070   29.1240 C   0  0  0  0  0  0  0  0  0  0  0  0
    4.7710   -4.6952   28.4803 C   0  0  0  0  0  0  0  0  0  0  0  0
    3.4047   -5.1087   28.1314 C   0  0  0  0  0  0  0  0  0  0  0  0
   -0.2234  -11.8615   16.8874 C   0  0  0  0  0  0  0  0  0  0  0  0
    6.4491   -4.1532   30.1213 C   0  0  0  0  0  0  0  0  0  0  0  0
    5.7060   -4.4340   27.4975 C   0  0  0  0  0  0  0  0  0  0  0  0
    1.1818   -5.6612   28.8399 C   0  0  0  0  0  0  0  0  0  0  0  0
   -1.2067   -7.3287   17.7772 C   0  0  0  0  0  0  0  0  0  0  0  0
   -0.0206  -10.5585   16.6210 C   0  0  0  0  0  0  0  0  0  0  0  0
    0.3696  -12.7626   16.2169 O   0  0  0  0  0  0  0  0  0  0  0  0
   -0.6895   -9.5676   17.3297 C   0  0  0  0  0  0  0  0  0  0  0  0
    0.8388   -5.8417   27.5264 C   0  0  0  0  0  0  0  0  0  0  0  0
   -2.0709   -7.6637   18.7817 C   0  0  0  0  0  0  0  0  0  0  0  0
   -0.5279   -8.2168   17.0717 C   0  0  0  0  0  0  0  0  0  0  0  0
    6.9694   -4.0191   27.8190 C   0  0  0  0  0  0  0  0  0  0  0  0
    5.1733   -4.5469   29.8123 C   0  0  0  0  0  0  0  0  0  0  0  0
   -1.7508  -11.3016   18.6072 C   0  0  0  0  0  0  0  0  0  0  0  0
    1.7497   -5.6771   26.4971 C   0  0  0  0  0  0  0  0  0  0  0  0
   -1.5799   -9.9322   18.3468 C   0  0  0  0  0  0  0  0  0  0  0  0
   -1.0871  -12.2214   17.8851 C   0  0  0  0  0  0  0  0  0  0  0  0
   -2.2706   -8.9669   19.0691 C   0  0  0  0  0  0  0  0  0  0  0  0
    3.0279   -5.3073   26.8197 C   0  0  0  0  0  0  0  0  0  0  0  0
    7.3282   -3.8948   29.1186 C   0  0  0  0  0  0  0  0  0  0  0  0
  1  3  4  0
  1  7  4  0
  2  3  1  0
  2  6  4  0
  2 16  4  0
  3 22  4  0
  4  9  4  0
  4 10  1  0
  4 20  4  0
  5 16  4  0
  5 23  4  0
  6 15  4  0
  7 12  4  0
  8 13  4  0
  8 14  4  0
  9 11  4  0
 11 14  4  0
 11 19  4  0
 12 18  4  0
 13 21  4  0
 15 23  4  0
 17 19  4  0
 17 20  4  0
 18 22  4  0
 19 21  4  0
M  END
$$$$

 Created by Python create_sdf_string function

 23 25  0  0  0  0  0  0  0  0999 V2000
    2.4610   -5.3070   29.1240 C   0  0  0  0  0  0  0  0  0  0  0  0
    4.7710   -4.6952   28.4803 C   0  0  0  0  0  0  0  0  0  0  0  0
    3.4047   -5.1087   28.1314 C   0  0  0  0  0  0  0  0  0  0  0  0
   -0.2234  -11.8615   16.8874 C   0  0  0  0  0  0  0  0  0  0  0  0
    6.4491   -4.1532   30.1213 C   0  0  0  0  0  0  0  0  0  0  0  0
    5.7060   -4.4340   27.4975 C   0  0  0  0  0  0  0  0  0  0  0  0
    1.1818   -5.6612   28.8399 C   0  0  0  0  0  0  0  0  0  0  0  0
   -1.2067   -7.3287   17.7772 C   0  0  0  0  0  0  0  0  0  0  0  0
   -0.0206  -10.5585   16.6210 C   0  0  0  0  0  0  0  0  0  0  0  0
    0.3696  -12.7626   16.2169 O   0  0  0  0  0  0  0  0  0  0  0  0
   -0.6895   -9.5676   17.3297 C   0  0  0  0  0  0  0  0  0  0  0  0
    0.8388   -5.8417   27.5264 C   0  0  0  0  0  0  0  0  0  0  0  0
   -2.0709   -7.6637   18.7817 C   0  0  0  0  0  0  0  0  0  0  0  0
   -0.5279   -8.2168   17.0717 C   0  0  0  0  0  0  0  0  0  0  0  0
    6.9694   -4.0191   27.8190 C   0  0  0  0  0  0  0  0  0  0  0  0
    5.1733   -4.5469   29.8123 C   0  0  0  0  0  0  0  0  0  0  0  0
   -1.7508  -11.3016   18.6072 C   0  0  0  0  0  0  0  0  0  0  0  0
    1.7497   -5.6771   26.4971 C   0  0  0  0  0  0  0  0  0  0  0  0
   -1.5799   -9.9322   18.3468 C   0  0  0  0  0  0  0  0  0  0  0  0
   -1.0871  -12.2214   17.8851 C   0  0  0  0  0  0  0  0  0  0  0  0
   -2.2706   -8.9669   19.0691 C   0  0  0  0  0  0  0  0  0  0  0  0
    3.0279   -5.3073   26.8197 C   0  0  0  0  0  0  0  0  0  0  0  0
    7.3282   -3.8948   29.1186 C   0  0  0  0  0  0  0  0  0  0  0  0
  1  3  4  0
  1  7  4  0
  2  3  1  0
  2  6  4  0
  2 16  4  0
  3 22  4  0
  4  9  4  0
  4 10  1  0
  4 20  4  0
  5 16  4  0
  5 23  4  0
  6 15  4  0
  7 12  4  0
  8 13  4  0
  8 14  4  0
  9 11  4  0
 11 14  4  0
 11 19  4  0
 12 18  4  0
 13 21  4  0
 15 23  4  0
 17 19  4  0
 17 20  4  0
 18 22  4  0
 19 21  4  0
M  END
$$$$

 Created by Python create_sdf_string function

 23 25  0  0  0  0  0  0  0  0999 V2000
    2.4610   -5.3070   29.1240 C   0  0  0  0  0  0  0  0  0  0  0  0
    4.7710   -4.6952   28.4803 C   0  0  0  0  0  0  0  0  0  0  0  0
    3.4047   -5.1087   28.1314 C   0  0  0  0  0  0  0  0  0  0  0  0
   -0.2234  -11.8615   16.8874 C   0  0  0  0  0  0  0  0  0  0  0  0
    6.4491   -4.1532   30.1213 C   0  0  0  0  0  0  0  0  0  0  0  0
    5.7060   -4.4340   27.4975 C   0  0  0  0  0  0  0  0  0  0  0  0
    1.1818   -5.6612   28.8399 C   0  0  0  0  0  0  0  0  0  0  0  0
   -1.2067   -7.3287   17.7772 C   0  0  0  0  0  0  0  0  0  0  0  0
   -0.0206  -10.5585   16.6210 C   0  0  0  0  0  0  0  0  0  0  0  0
    0.3696  -12.7626   16.2169 O   0  0  0  0  0  0  0  0  0  0  0  0
   -0.6895   -9.5676   17.3297 C   0  0  0  0  0  0  0  0  0  0  0  0
    0.8388   -5.8417   27.5264 C   0  0  0  0  0  0  0  0  0  0  0  0
   -2.0709   -7.6637   18.7817 C   0  0  0  0  0  0  0  0  0  0  0  0
   -0.5279   -8.2168   17.0717 C   0  0  0  0  0  0  0  0  0  0  0  0
    6.9694   -4.0191   27.8190 C   0  0  0  0  0  0  0  0  0  0  0  0
    5.1733   -4.5469   29.8123 C   0  0  0  0  0  0  0  0  0  0  0  0
   -1.7508  -11.3016   18.6072 C   0  0  0  0  0  0  0  0  0  0  0  0
    1.7497   -5.6771   26.4971 C   0  0  0  0  0  0  0  0  0  0  0  0
   -1.5799   -9.9322   18.3468 C   0  0  0  0  0  0  0  0  0  0  0  0
   -1.0871  -12.2214   17.8851 C   0  0  0  0  0  0  0  0  0  0  0  0
   -2.2706   -8.9669   19.0691 C   0  0  0  0  0  0  0  0  0  0  0  0
    3.0279   -5.3073   26.8197 C   0  0  0  0  0  0  0  0  0  0  0  0
    7.3282   -3.8948   29.1186 C   0  0  0  0  0  0  0  0  0  0  0  0
  1  3  4  0
  1  7  4  0
  2  3  1  0
  2  6  4  0
  2 16  4  0
  3 22  4  0
  4  9  4  0
  4 10  1  0
  4 20  4  0
  5 16  4  0
  5 23  4  0
  6 15  4  0
  7 12  4  0
  8 13  4  0
  8 14  4  0
  9 11  4  0
 11 14  4  0
 11 19  4  0
 12 18  4  0
 13 21  4  0
 15 23  4  0
 17 19  4  0
 17 20  4  0
 18 22  4  0
 19 21  4  0
M  END
$$$$

 Created by Python create_sdf_string function

 23 25  0  0  0  0  0  0  0  0999 V2000
    2.4610   -5.3070   29.1240 C   0  0  0  0  0  0  0  0  0  0  0  0
    4.7710   -4.6952   28.4803 C   0  0  0  0  0  0  0  0  0  0  0  0
    3.4047   -5.1087   28.1314 C   0  0  0  0  0  0  0  0  0  0  0  0
   -0.2234  -11.8615   16.8874 C   0  0  0  0  0  0  0  0  0  0  0  0
    6.4491   -4.1532   30.1213 C   0  0  0  0  0  0  0  0  0  0  0  0
    5.7060   -4.4340   27.4975 C   0  0  0  0  0  0  0  0  0  0  0  0
    1.1818   -5.6612   28.8399 C   0  0  0  0  0  0  0  0  0  0  0  0
   -1.2067   -7.3287   17.7772 C   0  0  0  0  0  0  0  0  0  0  0  0
   -0.0206  -10.5585   16.6210 C   0  0  0  0  0  0  0  0  0  0  0  0
    0.3696  -12.7626   16.2169 O   0  0  0  0  0  0  0  0  0  0  0  0
   -0.6895   -9.5676   17.3297 C   0  0  0  0  0  0  0  0  0  0  0  0
    0.8388   -5.8417   27.5264 C   0  0  0  0  0  0  0  0  0  0  0  0
   -2.0709   -7.6637   18.7817 C   0  0  0  0  0  0  0  0  0  0  0  0
   -0.5279   -8.2168   17.0717 C   0  0  0  0  0  0  0  0  0  0  0  0
    6.9694   -4.0191   27.8190 C   0  0  0  0  0  0  0  0  0  0  0  0
    5.1733   -4.5469   29.8123 C   0  0  0  0  0  0  0  0  0  0  0  0
   -1.7508  -11.3016   18.6072 C   0  0  0  0  0  0  0  0  0  0  0  0
    1.7497   -5.6771   26.4971 C   0  0  0  0  0  0  0  0  0  0  0  0
   -1.5799   -9.9322   18.3468 C   0  0  0  0  0  0  0  0  0  0  0  0
   -1.0871  -12.2214   17.8851 C   0  0  0  0  0  0  0  0  0  0  0  0
   -2.2706   -8.9669   19.0691 C   0  0  0  0  0  0  0  0  0  0  0  0
    3.0279   -5.3073   26.8197 C   0  0  0  0  0  0  0  0  0  0  0  0
    7.3282   -3.8948   29.1186 C   0  0  0  0  0  0  0  0  0  0  0  0
  1  3  4  0
  1  7  4  0
  2  3  1  0
  2  6  4  0
  2 16  4  0
  3 22  4  0
  4  9  4  0
  4 10  1  0
  4 20  4  0
  5 16  4  0
  5 23  4  0
  6 15  4  0
  7 12  4  0
  8 13  4  0
  8 14  4  0
  9 11  4  0
 11 14  4  0
 11 19  4  0
 12 18  4  0
 13 21  4  0
 15 23  4  0
 17 19  4  0
 17 20  4  0
 18 22  4  0
 19 21  4  0
M  END
$$$$

 Created by Python create_sdf_string function

 23 25  0  0  0  0  0  0  0  0999 V2000
    2.4610   -5.3070   29.1240 C   0  0  0  0  0  0  0  0  0  0  0  0
    4.7710   -4.6952   28.4803 C   0  0  0  0  0  0  0  0  0  0  0  0
    3.4047   -5.1087   28.1314 C   0  0  0  0  0  0  0  0  0  0  0  0
   -0.2234  -11.8615   16.8874 C   0  0  0  0  0  0  0  0  0  0  0  0
    6.4491   -4.1532   30.1213 C   0  0  0  0  0  0  0  0  0  0  0  0
    5.7060   -4.4340   27.4975 C   0  0  0  0  0  0  0  0  0  0  0  0
    1.1818   -5.6612   28.8399 C   0  0  0  0  0  0  0  0  0  0  0  0
   -1.2067   -7.3287   17.7772 C   0  0  0  0  0  0  0  0  0  0  0  0
   -0.0206  -10.5585   16.6210 C   0  0  0  0  0  0  0  0  0  0  0  0
    0.3696  -12.7626   16.2169 O   0  0  0  0  0  0  0  0  0  0  0  0
   -0.6895   -9.5676   17.3297 C   0  0  0  0  0  0  0  0  0  0  0  0
    0.8388   -5.8417   27.5264 C   0  0  0  0  0  0  0  0  0  0  0  0
   -2.0709   -7.6637   18.7817 C   0  0  0  0  0  0  0  0  0  0  0  0
   -0.5279   -8.2168   17.0717 C   0  0  0  0  0  0  0  0  0  0  0  0
    6.9694   -4.0191   27.8190 C   0  0  0  0  0  0  0  0  0  0  0  0
    5.1733   -4.5469   29.8123 C   0  0  0  0  0  0  0  0  0  0  0  0
   -1.7508  -11.3016   18.6072 C   0  0  0  0  0  0  0  0  0  0  0  0
    1.7497   -5.6771   26.4971 C   0  0  0  0  0  0  0  0  0  0  0  0
   -1.5799   -9.9322   18.3468 C   0  0  0  0  0  0  0  0  0  0  0  0
   -1.0871  -12.2214   17.8851 C   0  0  0  0  0  0  0  0  0  0  0  0
   -2.2706   -8.9669   19.0691 C   0  0  0  0  0  0  0  0  0  0  0  0
    3.0279   -5.3073   26.8197 C   0  0  0  0  0  0  0  0  0  0  0  0
    7.3282   -3.8948   29.1186 C   0  0  0  0  0  0  0  0  0  0  0  0
  1  3  4  0
  1  7  4  0
  2  3  1  0
  2  6  4  0
  2 16  4  0
  3 22  4  0
  4  9  4  0
  4 10  1  0
  4 20  4  0
  5 16  4  0
  5 23  4  0
  6 15  4  0
  7 12  4  0
  8 13  4  0
  8 14  4  0
  9 11  4  0
 11 14  4  0
 11 19  4  0
 12 18  4  0
 13 21  4  0
 15 23  4  0
 17 19  4  0
 17 20  4  0
 18 22  4  0
 19 21  4  0
M  END
$$$$

 Created by Python create_sdf_string function

 23 25  0  0  0  0  0  0  0  0999 V2000
    2.4610   -5.3070   29.1240 C   0  0  0  0  0  0  0  0  0  0  0  0
    4.7710   -4.6952   28.4803 C   0  0  0  0  0  0  0  0  0  0  0  0
    3.4047   -5.1087   28.1314 C   0  0  0  0  0  0  0  0  0  0  0  0
   -0.2234  -11.8615   16.8874 C   0  0  0  0  0  0  0  0  0  0  0  0
    6.4491   -4.1532   30.1213 C   0  0  0  0  0  0  0  0  0  0  0  0
    5.7060   -4.4340   27.4975 C   0  0  0  0  0  0  0  0  0  0  0  0
    1.1818   -5.6612   28.8399 C   0  0  0  0  0  0  0  0  0  0  0  0
   -1.2067   -7.3287   17.7772 C   0  0  0  0  0  0  0  0  0  0  0  0
   -0.0206  -10.5585   16.6210 C   0  0  0  0  0  0  0  0  0  0  0  0
    0.3696  -12.7626   16.2169 O   0  0  0  0  0  0  0  0  0  0  0  0
   -0.6895   -9.5676   17.3297 C   0  0  0  0  0  0  0  0  0  0  0  0
    0.8388   -5.8417   27.5264 C   0  0  0  0  0  0  0  0  0  0  0  0
   -2.0709   -7.6637   18.7817 C   0  0  0  0  0  0  0  0  0  0  0  0
   -0.5279   -8.2168   17.0717 C   0  0  0  0  0  0  0  0  0  0  0  0
    6.9694   -4.0191   27.8190 C   0  0  0  0  0  0  0  0  0  0  0  0
    5.1733   -4.5469   29.8123 C   0  0  0  0  0  0  0  0  0  0  0  0
   -1.7508  -11.3016   18.6072 C   0  0  0  0  0  0  0  0  0  0  0  0
    1.7497   -5.6771   26.4971 C   0  0  0  0  0  0  0  0  0  0  0  0
   -1.5799   -9.9322   18.3468 C   0  0  0  0  0  0  0  0  0  0  0  0
   -1.0871  -12.2214   17.8851 C   0  0  0  0  0  0  0  0  0  0  0  0
   -2.2706   -8.9669   19.0691 C   0  0  0  0  0  0  0  0  0  0  0  0
    3.0279   -5.3073   26.8197 C   0  0  0  0  0  0  0  0  0  0  0  0
    7.3282   -3.8948   29.1186 C   0  0  0  0  0  0  0  0  0  0  0  0
  1  3  4  0
  1  7  4  0
  2  3  1  0
  2  6  4  0
  2 16  4  0
  3 22  4  0
  4  9  4  0
  4 10  1  0
  4 20  4  0
  5 16  4  0
  5 23  4  0
  6 15  4  0
  7 12  4  0
  8 13  4  0
  8 14  4  0
  9 11  4  0
 11 14  4  0
 11 19  4  0
 12 18  4  0
 13 21  4  0
 15 23  4  0
 17 19  4  0
 17 20  4  0
 18 22  4  0
 19 21  4  0
M  END
$$$$

 Created by Python create_sdf_string function

 23 25  0  0  0  0  0  0  0  0999 V2000
    2.4610   -5.3070   29.1240 C   0  0  0  0  0  0  0  0  0  0  0  0
    4.7710   -4.6952   28.4803 C   0  0  0  0  0  0  0  0  0  0  0  0
    3.4047   -5.1087   28.1314 C   0  0  0  0  0  0  0  0  0  0  0  0
   -0.2234  -11.8615   16.8874 C   0  0  0  0  0  0  0  0  0  0  0  0
    6.4491   -4.1532   30.1213 C   0  0  0  0  0  0  0  0  0  0  0  0
    5.7060   -4.4340   27.4975 C   0  0  0  0  0  0  0  0  0  0  0  0
    1.1818   -5.6612   28.8399 C   0  0  0  0  0  0  0  0  0  0  0  0
   -1.2067   -7.3287   17.7772 C   0  0  0  0  0  0  0  0  0  0  0  0
   -0.0206  -10.5585   16.6210 C   0  0  0  0  0  0  0  0  0  0  0  0
    0.3696  -12.7626   16.2169 O   0  0  0  0  0  0  0  0  0  0  0  0
   -0.6895   -9.5676   17.3297 C   0  0  0  0  0  0  0  0  0  0  0  0
    0.8388   -5.8417   27.5264 C   0  0  0  0  0  0  0  0  0  0  0  0
   -2.0709   -7.6637   18.7817 C   0  0  0  0  0  0  0  0  0  0  0  0
   -0.5279   -8.2168   17.0717 C   0  0  0  0  0  0  0  0  0  0  0  0
    6.9694   -4.0191   27.8190 C   0  0  0  0  0  0  0  0  0  0  0  0
    5.1733   -4.5469   29.8123 C   0  0  0  0  0  0  0  0  0  0  0  0
   -1.7508  -11.3016   18.6072 C   0  0  0  0  0  0  0  0  0  0  0  0
    1.7497   -5.6771   26.4971 C   0  0  0  0  0  0  0  0  0  0  0  0
   -1.5799   -9.9322   18.3468 C   0  0  0  0  0  0  0  0  0  0  0  0
   -1.0871  -12.2214   17.8851 C   0  0  0  0  0  0  0  0  0  0  0  0
   -2.2706   -8.9669   19.0691 C   0  0  0  0  0  0  0  0  0  0  0  0
    3.0279   -5.3073   26.8197 C   0  0  0  0  0  0  0  0  0  0  0  0
    7.3282   -3.8948   29.1186 C   0  0  0  0  0  0  0  0  0  0  0  0
  1  3  4  0
  1  7  4  0
  2  3  1  0
  2  6  4  0
  2 16  4  0
  3 22  4  0
  4  9  4  0
  4 10  1  0
  4 20  4  0
  5 16  4  0
  5 23  4  0
  6 15  4  0
  7 12  4  0
  8 13  4  0
  8 14  4  0
  9 11  4  0
 11 14  4  0
 11 19  4  0
 12 18  4  0
 13 21  4  0
 15 23  4  0
 17 19  4  0
 17 20  4  0
 18 22  4  0
 19 21  4  0
M  END
$$$$

 Created by Python create_sdf_string function

 23 25  0  0  0  0  0  0  0  0999 V2000
    2.4610   -5.3070   29.1240 C   0  0  0  0  0  0  0  0  0  0  0  0
    4.7710   -4.6952   28.4803 C   0  0  0  0  0  0  0  0  0  0  0  0
    3.4047   -5.1087   28.1314 C   0  0  0  0  0  0  0  0  0  0  0  0
   -0.2234  -11.8615   16.8874 C   0  0  0  0  0  0  0  0  0  0  0  0
    6.4491   -4.1532   30.1213 C   0  0  0  0  0  0  0  0  0  0  0  0
    5.7060   -4.4340   27.4975 C   0  0  0  0  0  0  0  0  0  0  0  0
    1.1818   -5.6612   28.8399 C   0  0  0  0  0  0  0  0  0  0  0  0
   -1.2067   -7.3287   17.7772 C   0  0  0  0  0  0  0  0  0  0  0  0
   -0.0206  -10.5585   16.6210 C   0  0  0  0  0  0  0  0  0  0  0  0
    0.3696  -12.7626   16.2169 O   0  0  0  0  0  0  0  0  0  0  0  0
   -0.6895   -9.5676   17.3297 C   0  0  0  0  0  0  0  0  0  0  0  0
    0.8388   -5.8417   27.5264 C   0  0  0  0  0  0  0  0  0  0  0  0
   -2.0709   -7.6637   18.7817 C   0  0  0  0  0  0  0  0  0  0  0  0
   -0.5279   -8.2168   17.0717 C   0  0  0  0  0  0  0  0  0  0  0  0
    6.9694   -4.0191   27.8190 C   0  0  0  0  0  0  0  0  0  0  0  0
    5.1733   -4.5469   29.8123 C   0  0  0  0  0  0  0  0  0  0  0  0
   -1.7508  -11.3016   18.6072 C   0  0  0  0  0  0  0  0  0  0  0  0
    1.7497   -5.6771   26.4971 C   0  0  0  0  0  0  0  0  0  0  0  0
   -1.5799   -9.9322   18.3468 C   0  0  0  0  0  0  0  0  0  0  0  0
   -1.0871  -12.2214   17.8851 C   0  0  0  0  0  0  0  0  0  0  0  0
   -2.2706   -8.9669   19.0691 C   0  0  0  0  0  0  0  0  0  0  0  0
    3.0279   -5.3073   26.8197 C   0  0  0  0  0  0  0  0  0  0  0  0
    7.3282   -3.8948   29.1186 C   0  0  0  0  0  0  0  0  0  0  0  0
  1  3  4  0
  1  7  4  0
  2  3  1  0
  2  6  4  0
  2 16  4  0
  3 22  4  0
  4  9  4  0
  4 10  1  0
  4 20  4  0
  5 16  4  0
  5 23  4  0
  6 15  4  0
  7 12  4  0
  8 13  4  0
  8 14  4  0
  9 11  4  0
 11 14  4  0
 11 19  4  0
 12 18  4  0
 13 21  4  0
 15 23  4  0
 17 19  4  0
 17 20  4  0
 18 22  4  0
 19 21  4  0
M  END
$$$$

 Created by Python create_sdf_string function

 23 25  0  0  0  0  0  0  0  0999 V2000
    2.4610   -5.3070   29.1240 C   0  0  0  0  0  0  0  0  0  0  0  0
    4.7710   -4.6952   28.4803 C   0  0  0  0  0  0  0  0  0  0  0  0
    3.4047   -5.1087   28.1314 C   0  0  0  0  0  0  0  0  0  0  0  0
   -0.2234  -11.8615   16.8874 C   0  0  0  0  0  0  0  0  0  0  0  0
    6.4491   -4.1532   30.1213 C   0  0  0  0  0  0  0  0  0  0  0  0
    5.7060   -4.4340   27.4975 C   0  0  0  0  0  0  0  0  0  0  0  0
    1.1818   -5.6612   28.8399 C   0  0  0  0  0  0  0  0  0  0  0  0
   -1.2067   -7.3287   17.7772 C   0  0  0  0  0  0  0  0  0  0  0  0
   -0.0206  -10.5585   16.6210 C   0  0  0  0  0  0  0  0  0  0  0  0
    0.3696  -12.7626   16.2169 O   0  0  0  0  0  0  0  0  0  0  0  0
   -0.6895   -9.5676   17.3297 C   0  0  0  0  0  0  0  0  0  0  0  0
    0.8388   -5.8417   27.5264 C   0  0  0  0  0  0  0  0  0  0  0  0
   -2.0709   -7.6637   18.7817 C   0  0  0  0  0  0  0  0  0  0  0  0
   -0.5279   -8.2168   17.0717 C   0  0  0  0  0  0  0  0  0  0  0  0
    6.9694   -4.0191   27.8190 C   0  0  0  0  0  0  0  0  0  0  0  0
    5.1733   -4.5469   29.8123 C   0  0  0  0  0  0  0  0  0  0  0  0
   -1.7508  -11.3016   18.6072 C   0  0  0  0  0  0  0  0  0  0  0  0
    1.7497   -5.6771   26.4971 C   0  0  0  0  0  0  0  0  0  0  0  0
   -1.5799   -9.9322   18.3468 C   0  0  0  0  0  0  0  0  0  0  0  0
   -1.0871  -12.2214   17.8851 C   0  0  0  0  0  0  0  0  0  0  0  0
   -2.2706   -8.9669   19.0691 C   0  0  0  0  0  0  0  0  0  0  0  0
    3.0279   -5.3073   26.8197 C   0  0  0  0  0  0  0  0  0  0  0  0
    7.3282   -3.8948   29.1186 C   0  0  0  0  0  0  0  0  0  0  0  0
  1  3  4  0
  1  7  4  0
  2  3  1  0
  2  6  4  0
  2 16  4  0
  3 22  4  0
  4  9  4  0
  4 10  1  0
  4 20  4  0
  5 16  4  0
  5 23  4  0
  6 15  4  0
  7 12  4  0
  8 13  4  0
  8 14  4  0
  9 11  4  0
 11 14  4  0
 11 19  4  0
 12 18  4  0
 13 21  4  0
 15 23  4  0
 17 19  4  0
 17 20  4  0
 18 22  4  0
 19 21  4  0
M  END
$$$$

 Created by Python create_sdf_string function

 23 25  0  0  0  0  0  0  0  0999 V2000
    2.4610   -5.3070   29.1240 C   0  0  0  0  0  0  0  0  0  0  0  0
    4.7710   -4.6952   28.4803 C   0  0  0  0  0  0  0  0  0  0  0  0
    3.4047   -5.1087   28.1314 C   0  0  0  0  0  0  0  0  0  0  0  0
   -0.2234  -11.8615   16.8874 C   0  0  0  0  0  0  0  0  0  0  0  0
    6.4491   -4.1532   30.1213 C   0  0  0  0  0  0  0  0  0  0  0  0
    5.7060   -4.4340   27.4975 C   0  0  0  0  0  0  0  0  0  0  0  0
    1.1818   -5.6612   28.8399 C   0  0  0  0  0  0  0  0  0  0  0  0
   -1.2067   -7.3287   17.7772 C   0  0  0  0  0  0  0  0  0  0  0  0
   -0.0206  -10.5585   16.6210 C   0  0  0  0  0  0  0  0  0  0  0  0
    0.3696  -12.7626   16.2169 O   0  0  0  0  0  0  0  0  0  0  0  0
   -0.6895   -9.5676   17.3297 C   0  0  0  0  0  0  0  0  0  0  0  0
    0.8388   -5.8417   27.5264 C   0  0  0  0  0  0  0  0  0  0  0  0
   -2.0709   -7.6637   18.7817 C   0  0  0  0  0  0  0  0  0  0  0  0
   -0.5279   -8.2168   17.0717 C   0  0  0  0  0  0  0  0  0  0  0  0
    6.9694   -4.0191   27.8190 C   0  0  0  0  0  0  0  0  0  0  0  0
    5.1733   -4.5469   29.8123 C   0  0  0  0  0  0  0  0  0  0  0  0
   -1.7508  -11.3016   18.6072 C   0  0  0  0  0  0  0  0  0  0  0  0
    1.7497   -5.6771   26.4971 C   0  0  0  0  0  0  0  0  0  0  0  0
   -1.5799   -9.9322   18.3468 C   0  0  0  0  0  0  0  0  0  0  0  0
   -1.0871  -12.2214   17.8851 C   0  0  0  0  0  0  0  0  0  0  0  0
   -2.2706   -8.9669   19.0691 C   0  0  0  0  0  0  0  0  0  0  0  0
    3.0279   -5.3073   26.8197 C   0  0  0  0  0  0  0  0  0  0  0  0
    7.3282   -3.8948   29.1186 C   0  0  0  0  0  0  0  0  0  0  0  0
  1  3  4  0
  1  7  4  0
  2  3  1  0
  2  6  4  0
  2 16  4  0
  3 22  4  0
  4  9  4  0
  4 10  1  0
  4 20  4  0
  5 16  4  0
  5 23  4  0
  6 15  4  0
  7 12  4  0
  8 13  4  0
  8 14  4  0
  9 11  4  0
 11 14  4  0
 11 19  4  0
 12 18  4  0
 13 21  4  0
 15 23  4  0
 17 19  4  0
 17 20  4  0
 18 22  4  0
 19 21  4  0
M  END
$$$$

 Created by Python create_sdf_string function

 23 25  0  0  0  0  0  0  0  0999 V2000
    2.4610   -5.3070   29.1240 C   0  0  0  0  0  0  0  0  0  0  0  0
    4.7710   -4.6952   28.4803 C   0  0  0  0  0  0  0  0  0  0  0  0
    3.4047   -5.1087   28.1314 C   0  0  0  0  0  0  0  0  0  0  0  0
   -0.2234  -11.8615   16.8874 C   0  0  0  0  0  0  0  0  0  0  0  0
    6.4491   -4.1532   30.1213 C   0  0  0  0  0  0  0  0  0  0  0  0
    5.7060   -4.4340   27.4975 C   0  0  0  0  0  0  0  0  0  0  0  0
    1.1818   -5.6612   28.8399 C   0  0  0  0  0  0  0  0  0  0  0  0
   -1.2067   -7.3287   17.7772 C   0  0  0  0  0  0  0  0  0  0  0  0
   -0.0206  -10.5585   16.6210 C   0  0  0  0  0  0  0  0  0  0  0  0
    0.3696  -12.7626   16.2169 O   0  0  0  0  0  0  0  0  0  0  0  0
   -0.6895   -9.5676   17.3297 C   0  0  0  0  0  0  0  0  0  0  0  0
    0.8388   -5.8417   27.5264 C   0  0  0  0  0  0  0  0  0  0  0  0
   -2.0709   -7.6637   18.7817 C   0  0  0  0  0  0  0  0  0  0  0  0
   -0.5279   -8.2168   17.0717 C   0  0  0  0  0  0  0  0  0  0  0  0
    6.9694   -4.0191   27.8190 C   0  0  0  0  0  0  0  0  0  0  0  0
    5.1733   -4.5469   29.8123 C   0  0  0  0  0  0  0  0  0  0  0  0
   -1.7508  -11.3016   18.6072 C   0  0  0  0  0  0  0  0  0  0  0  0
    1.7497   -5.6771   26.4971 C   0  0  0  0  0  0  0  0  0  0  0  0
   -1.5799   -9.9322   18.3468 C   0  0  0  0  0  0  0  0  0  0  0  0
   -1.0871  -12.2214   17.8851 C   0  0  0  0  0  0  0  0  0  0  0  0
   -2.2706   -8.9669   19.0691 C   0  0  0  0  0  0  0  0  0  0  0  0
    3.0279   -5.3073   26.8197 C   0  0  0  0  0  0  0  0  0  0  0  0
    7.3282   -3.8948   29.1186 C   0  0  0  0  0  0  0  0  0  0  0  0
  1  3  4  0
  1  7  4  0
  2  3  1  0
  2  6  4  0
  2 16  4  0
  3 22  4  0
  4  9  4  0
  4 10  1  0
  4 20  4  0
  5 16  4  0
  5 23  4  0
  6 15  4  0
  7 12  4  0
  8 13  4  0
  8 14  4  0
  9 11  4  0
 11 14  4  0
 11 19  4  0
 12 18  4  0
 13 21  4  0
 15 23  4  0
 17 19  4  0
 17 20  4  0
 18 22  4  0
 19 21  4  0
M  END
$$$$

 Created by Python create_sdf_string function

 23 25  0  0  0  0  0  0  0  0999 V2000
    2.4610   -5.3070   29.1240 C   0  0  0  0  0  0  0  0  0  0  0  0
    4.7710   -4.6952   28.4803 C   0  0  0  0  0  0  0  0  0  0  0  0
    3.4047   -5.1087   28.1314 C   0  0  0  0  0  0  0  0  0  0  0  0
   -0.2234  -11.8615   16.8874 C   0  0  0  0  0  0  0  0  0  0  0  0
    6.4491   -4.1532   30.1213 C   0  0  0  0  0  0  0  0  0  0  0  0
    5.7060   -4.4340   27.4975 C   0  0  0  0  0  0  0  0  0  0  0  0
    1.1818   -5.6612   28.8399 C   0  0  0  0  0  0  0  0  0  0  0  0
   -1.2067   -7.3287   17.7772 C   0  0  0  0  0  0  0  0  0  0  0  0
   -0.0206  -10.5585   16.6210 C   0  0  0  0  0  0  0  0  0  0  0  0
    0.3696  -12.7626   16.2169 O   0  0  0  0  0  0  0  0  0  0  0  0
   -0.6895   -9.5676   17.3297 C   0  0  0  0  0  0  0  0  0  0  0  0
    0.8388   -5.8417   27.5264 C   0  0  0  0  0  0  0  0  0  0  0  0
   -2.0709   -7.6637   18.7817 C   0  0  0  0  0  0  0  0  0  0  0  0
   -0.5279   -8.2168   17.0717 C   0  0  0  0  0  0  0  0  0  0  0  0
    6.9694   -4.0191   27.8190 C   0  0  0  0  0  0  0  0  0  0  0  0
    5.1733   -4.5469   29.8123 C   0  0  0  0  0  0  0  0  0  0  0  0
   -1.7508  -11.3016   18.6072 C   0  0  0  0  0  0  0  0  0  0  0  0
    1.7497   -5.6771   26.4971 C   0  0  0  0  0  0  0  0  0  0  0  0
   -1.5799   -9.9322   18.3468 C   0  0  0  0  0  0  0  0  0  0  0  0
   -1.0871  -12.2214   17.8851 C   0  0  0  0  0  0  0  0  0  0  0  0
   -2.2706   -8.9669   19.0691 C   0  0  0  0  0  0  0  0  0  0  0  0
    3.0279   -5.3073   26.8197 C   0  0  0  0  0  0  0  0  0  0  0  0
    7.3282   -3.8948   29.1186 C   0  0  0  0  0  0  0  0  0  0  0  0
  1  3  4  0
  1  7  4  0
  2  3  1  0
  2  6  4  0
  2 16  4  0
  3 22  4  0
  4  9  4  0
  4 10  1  0
  4 20  4  0
  5 16  4  0
  5 23  4  0
  6 15  4  0
  7 12  4  0
  8 13  4  0
  8 14  4  0
  9 11  4  0
 11 14  4  0
 11 19  4  0
 12 18  4  0
 13 21  4  0
 15 23  4  0
 17 19  4  0
 17 20  4  0
 18 22  4  0
 19 21  4  0
M  END
$$$$

 Created by Python create_sdf_string function

 23 25  0  0  0  0  0  0  0  0999 V2000
    2.4610   -5.3070   29.1240 C   0  0  0  0  0  0  0  0  0  0  0  0
    4.7710   -4.6952   28.4803 C   0  0  0  0  0  0  0  0  0  0  0  0
    3.4047   -5.1087   28.1314 C   0  0  0  0  0  0  0  0  0  0  0  0
   -0.2234  -11.8615   16.8874 C   0  0  0  0  0  0  0  0  0  0  0  0
    6.4491   -4.1532   30.1213 C   0  0  0  0  0  0  0  0  0  0  0  0
    5.7060   -4.4340   27.4975 C   0  0  0  0  0  0  0  0  0  0  0  0
    1.1818   -5.6612   28.8399 C   0  0  0  0  0  0  0  0  0  0  0  0
   -1.2067   -7.3287   17.7772 C   0  0  0  0  0  0  0  0  0  0  0  0
   -0.0206  -10.5585   16.6210 C   0  0  0  0  0  0  0  0  0  0  0  0
    0.3696  -12.7626   16.2169 O   0  0  0  0  0  0  0  0  0  0  0  0
   -0.6895   -9.5676   17.3297 C   0  0  0  0  0  0  0  0  0  0  0  0
    0.8388   -5.8417   27.5264 C   0  0  0  0  0  0  0  0  0  0  0  0
   -2.0709   -7.6637   18.7817 C   0  0  0  0  0  0  0  0  0  0  0  0
   -0.5279   -8.2168   17.0717 C   0  0  0  0  0  0  0  0  0  0  0  0
    6.9694   -4.0191   27.8190 C   0  0  0  0  0  0  0  0  0  0  0  0
    5.1733   -4.5469   29.8123 C   0  0  0  0  0  0  0  0  0  0  0  0
   -1.7508  -11.3016   18.6072 C   0  0  0  0  0  0  0  0  0  0  0  0
    1.7497   -5.6771   26.4971 C   0  0  0  0  0  0  0  0  0  0  0  0
   -1.5799   -9.9322   18.3468 C   0  0  0  0  0  0  0  0  0  0  0  0
   -1.0871  -12.2214   17.8851 C   0  0  0  0  0  0  0  0  0  0  0  0
   -2.2706   -8.9669   19.0691 C   0  0  0  0  0  0  0  0  0  0  0  0
    3.0279   -5.3073   26.8197 C   0  0  0  0  0  0  0  0  0  0  0  0
    7.3282   -3.8948   29.1186 C   0  0  0  0  0  0  0  0  0  0  0  0
  1  3  4  0
  1  7  4  0
  2  3  1  0
  2  6  4  0
  2 16  4  0
  3 22  4  0
  4  9  4  0
  4 10  1  0
  4 20  4  0
  5 16  4  0
  5 23  4  0
  6 15  4  0
  7 12  4  0
  8 13  4  0
  8 14  4  0
  9 11  4  0
 11 14  4  0
 11 19  4  0
 12 18  4  0
 13 21  4  0
 15 23  4  0
 17 19  4  0
 17 20  4  0
 18 22  4  0
 19 21  4  0
M  END
$$$$

 Created by Python create_sdf_string function

 23 25  0  0  0  0  0  0  0  0999 V2000
    2.4610   -5.3070   29.1240 C   0  0  0  0  0  0  0  0  0  0  0  0
    4.7710   -4.6952   28.4803 C   0  0  0  0  0  0  0  0  0  0  0  0
    3.4047   -5.1087   28.1314 C   0  0  0  0  0  0  0  0  0  0  0  0
   -0.2234  -11.8615   16.8874 C   0  0  0  0  0  0  0  0  0  0  0  0
    6.4491   -4.1532   30.1213 C   0  0  0  0  0  0  0  0  0  0  0  0
    5.7060   -4.4340   27.4975 C   0  0  0  0  0  0  0  0  0  0  0  0
    1.1818   -5.6612   28.8399 C   0  0  0  0  0  0  0  0  0  0  0  0
   -1.2067   -7.3287   17.7772 C   0  0  0  0  0  0  0  0  0  0  0  0
   -0.0206  -10.5585   16.6210 C   0  0  0  0  0  0  0  0  0  0  0  0
    0.3696  -12.7626   16.2169 O   0  0  0  0  0  0  0  0  0  0  0  0
   -0.6895   -9.5676   17.3297 C   0  0  0  0  0  0  0  0  0  0  0  0
    0.8388   -5.8417   27.5264 C   0  0  0  0  0  0  0  0  0  0  0  0
   -2.0709   -7.6637   18.7817 C   0  0  0  0  0  0  0  0  0  0  0  0
   -0.5279   -8.2168   17.0717 C   0  0  0  0  0  0  0  0  0  0  0  0
    6.9694   -4.0191   27.8190 C   0  0  0  0  0  0  0  0  0  0  0  0
    5.1733   -4.5469   29.8123 C   0  0  0  0  0  0  0  0  0  0  0  0
   -1.7508  -11.3016   18.6072 C   0  0  0  0  0  0  0  0  0  0  0  0
    1.7497   -5.6771   26.4971 C   0  0  0  0  0  0  0  0  0  0  0  0
   -1.5799   -9.9322   18.3468 C   0  0  0  0  0  0  0  0  0  0  0  0
   -1.0871  -12.2214   17.8851 C   0  0  0  0  0  0  0  0  0  0  0  0
   -2.2706   -8.9669   19.0691 C   0  0  0  0  0  0  0  0  0  0  0  0
    3.0279   -5.3073   26.8197 C   0  0  0  0  0  0  0  0  0  0  0  0
    7.3282   -3.8948   29.1186 C   0  0  0  0  0  0  0  0  0  0  0  0
  1  3  4  0
  1  7  4  0
  2  3  1  0
  2  6  4  0
  2 16  4  0
  3 22  4  0
  4  9  4  0
  4 10  1  0
  4 20  4  0
  5 16  4  0
  5 23  4  0
  6 15  4  0
  7 12  4  0
  8 13  4  0
  8 14  4  0
  9 11  4  0
 11 14  4  0
 11 19  4  0
 12 18  4  0
 13 21  4  0
 15 23  4  0
 17 19  4  0
 17 20  4  0
 18 22  4  0
 19 21  4  0
M  END
$$$$

 Created by Python create_sdf_string function

 23 25  0  0  0  0  0  0  0  0999 V2000
    2.4610   -5.3070   29.1240 C   0  0  0  0  0  0  0  0  0  0  0  0
    4.7710   -4.6952   28.4803 C   0  0  0  0  0  0  0  0  0  0  0  0
    3.4047   -5.1087   28.1314 C   0  0  0  0  0  0  0  0  0  0  0  0
   -0.2234  -11.8615   16.8874 C   0  0  0  0  0  0  0  0  0  0  0  0
    6.4491   -4.1532   30.1213 C   0  0  0  0  0  0  0  0  0  0  0  0
    5.7060   -4.4340   27.4975 C   0  0  0  0  0  0  0  0  0  0  0  0
    1.1818   -5.6612   28.8399 C   0  0  0  0  0  0  0  0  0  0  0  0
   -1.2067   -7.3287   17.7772 C   0  0  0  0  0  0  0  0  0  0  0  0
   -0.0206  -10.5585   16.6210 C   0  0  0  0  0  0  0  0  0  0  0  0
    0.3696  -12.7626   16.2169 O   0  0  0  0  0  0  0  0  0  0  0  0
   -0.6895   -9.5676   17.3297 C   0  0  0  0  0  0  0  0  0  0  0  0
    0.8388   -5.8417   27.5264 C   0  0  0  0  0  0  0  0  0  0  0  0
   -2.0709   -7.6637   18.7817 C   0  0  0  0  0  0  0  0  0  0  0  0
   -0.5279   -8.2168   17.0717 C   0  0  0  0  0  0  0  0  0  0  0  0
    6.9694   -4.0191   27.8190 C   0  0  0  0  0  0  0  0  0  0  0  0
    5.1733   -4.5469   29.8123 C   0  0  0  0  0  0  0  0  0  0  0  0
   -1.7508  -11.3016   18.6072 C   0  0  0  0  0  0  0  0  0  0  0  0
    1.7497   -5.6771   26.4971 C   0  0  0  0  0  0  0  0  0  0  0  0
   -1.5799   -9.9322   18.3468 C   0  0  0  0  0  0  0  0  0  0  0  0
   -1.0871  -12.2214   17.8851 C   0  0  0  0  0  0  0  0  0  0  0  0
   -2.2706   -8.9669   19.0691 C   0  0  0  0  0  0  0  0  0  0  0  0
    3.0279   -5.3073   26.8197 C   0  0  0  0  0  0  0  0  0  0  0  0
    7.3282   -3.8948   29.1186 C   0  0  0  0  0  0  0  0  0  0  0  0
  1  3  4  0
  1  7  4  0
  2  3  1  0
  2  6  4  0
  2 16  4  0
  3 22  4  0
  4  9  4  0
  4 10  1  0
  4 20  4  0
  5 16  4  0
  5 23  4  0
  6 15  4  0
  7 12  4  0
  8 13  4  0
  8 14  4  0
  9 11  4  0
 11 14  4  0
 11 19  4  0
 12 18  4  0
 13 21  4  0
 15 23  4  0
 17 19  4  0
 17 20  4  0
 18 22  4  0
 19 21  4  0
M  END
$$$$

 Created by Python create_sdf_string function

 23 25  0  0  0  0  0  0  0  0999 V2000
    2.4610   -5.3070   29.1240 C   0  0  0  0  0  0  0  0  0  0  0  0
    4.7710   -4.6952   28.4803 C   0  0  0  0  0  0  0  0  0  0  0  0
    3.4047   -5.1087   28.1314 C   0  0  0  0  0  0  0  0  0  0  0  0
   -0.2234  -11.8615   16.8874 C   0  0  0  0  0  0  0  0  0  0  0  0
    6.4491   -4.1532   30.1213 C   0  0  0  0  0  0  0  0  0  0  0  0
    5.7060   -4.4340   27.4975 C   0  0  0  0  0  0  0  0  0  0  0  0
    1.1818   -5.6612   28.8399 C   0  0  0  0  0  0  0  0  0  0  0  0
   -1.2067   -7.3287   17.7772 C   0  0  0  0  0  0  0  0  0  0  0  0
   -0.0206  -10.5585   16.6210 C   0  0  0  0  0  0  0  0  0  0  0  0
    0.3696  -12.7626   16.2169 O   0  0  0  0  0  0  0  0  0  0  0  0
   -0.6895   -9.5676   17.3297 C   0  0  0  0  0  0  0  0  0  0  0  0
    0.8388   -5.8417   27.5264 C   0  0  0  0  0  0  0  0  0  0  0  0
   -2.0709   -7.6637   18.7817 C   0  0  0  0  0  0  0  0  0  0  0  0
   -0.5279   -8.2168   17.0717 C   0  0  0  0  0  0  0  0  0  0  0  0
    6.9694   -4.0191   27.8190 C   0  0  0  0  0  0  0  0  0  0  0  0
    5.1733   -4.5469   29.8123 C   0  0  0  0  0  0  0  0  0  0  0  0
   -1.7508  -11.3016   18.6072 C   0  0  0  0  0  0  0  0  0  0  0  0
    1.7497   -5.6771   26.4971 C   0  0  0  0  0  0  0  0  0  0  0  0
   -1.5799   -9.9322   18.3468 C   0  0  0  0  0  0  0  0  0  0  0  0
   -1.0871  -12.2214   17.8851 C   0  0  0  0  0  0  0  0  0  0  0  0
   -2.2706   -8.9669   19.0691 C   0  0  0  0  0  0  0  0  0  0  0  0
    3.0279   -5.3073   26.8197 C   0  0  0  0  0  0  0  0  0  0  0  0
    7.3282   -3.8948   29.1186 C   0  0  0  0  0  0  0  0  0  0  0  0
  1  3  4  0
  1  7  4  0
  2  3  1  0
  2  6  4  0
  2 16  4  0
  3 22  4  0
  4  9  4  0
  4 10  1  0
  4 20  4  0
  5 16  4  0
  5 23  4  0
  6 15  4  0
  7 12  4  0
  8 13  4  0
  8 14  4  0
  9 11  4  0
 11 14  4  0
 11 19  4  0
 12 18  4  0
 13 21  4  0
 15 23  4  0
 17 19  4  0
 17 20  4  0
 18 22  4  0
 19 21  4  0
M  END
$$$$

 Created by Python create_sdf_string function

 23 25  0  0  0  0  0  0  0  0999 V2000
    2.4610   -5.3070   29.1240 C   0  0  0  0  0  0  0  0  0  0  0  0
    4.7710   -4.6952   28.4803 C   0  0  0  0  0  0  0  0  0  0  0  0
    3.4047   -5.1087   28.1314 C   0  0  0  0  0  0  0  0  0  0  0  0
   -0.2234  -11.8615   16.8874 C   0  0  0  0  0  0  0  0  0  0  0  0
    6.4491   -4.1532   30.1213 C   0  0  0  0  0  0  0  0  0  0  0  0
    5.7060   -4.4340   27.4975 C   0  0  0  0  0  0  0  0  0  0  0  0
    1.1818   -5.6612   28.8399 C   0  0  0  0  0  0  0  0  0  0  0  0
   -1.2067   -7.3287   17.7772 C   0  0  0  0  0  0  0  0  0  0  0  0
   -0.0206  -10.5585   16.6210 C   0  0  0  0  0  0  0  0  0  0  0  0
    0.3696  -12.7626   16.2169 O   0  0  0  0  0  0  0  0  0  0  0  0
   -0.6895   -9.5676   17.3297 C   0  0  0  0  0  0  0  0  0  0  0  0
    0.8388   -5.8417   27.5264 C   0  0  0  0  0  0  0  0  0  0  0  0
   -2.0709   -7.6637   18.7817 C   0  0  0  0  0  0  0  0  0  0  0  0
   -0.5279   -8.2168   17.0717 C   0  0  0  0  0  0  0  0  0  0  0  0
    6.9694   -4.0191   27.8190 C   0  0  0  0  0  0  0  0  0  0  0  0
    5.1733   -4.5469   29.8123 C   0  0  0  0  0  0  0  0  0  0  0  0
   -1.7508  -11.3016   18.6072 C   0  0  0  0  0  0  0  0  0  0  0  0
    1.7497   -5.6771   26.4971 C   0  0  0  0  0  0  0  0  0  0  0  0
   -1.5799   -9.9322   18.3468 C   0  0  0  0  0  0  0  0  0  0  0  0
   -1.0871  -12.2214   17.8851 C   0  0  0  0  0  0  0  0  0  0  0  0
   -2.2706   -8.9669   19.0691 C   0  0  0  0  0  0  0  0  0  0  0  0
    3.0279   -5.3073   26.8197 C   0  0  0  0  0  0  0  0  0  0  0  0
    7.3282   -3.8948   29.1186 C   0  0  0  0  0  0  0  0  0  0  0  0
  1  3  4  0
  1  7  4  0
  2  3  1  0
  2  6  4  0
  2 16  4  0
  3 22  4  0
  4  9  4  0
  4 10  1  0
  4 20  4  0
  5 16  4  0
  5 23  4  0
  6 15  4  0
  7 12  4  0
  8 13  4  0
  8 14  4  0
  9 11  4  0
 11 14  4  0
 11 19  4  0
 12 18  4  0
 13 21  4  0
 15 23  4  0
 17 19  4  0
 17 20  4  0
 18 22  4  0
 19 21  4  0
M  END
$$$$

 Created by Python create_sdf_string function

 23 25  0  0  0  0  0  0  0  0999 V2000
    2.4610   -5.3070   29.1240 C   0  0  0  0  0  0  0  0  0  0  0  0
    4.7710   -4.6952   28.4803 C   0  0  0  0  0  0  0  0  0  0  0  0
    3.4047   -5.1087   28.1314 C   0  0  0  0  0  0  0  0  0  0  0  0
   -0.2234  -11.8615   16.8874 C   0  0  0  0  0  0  0  0  0  0  0  0
    6.4491   -4.1532   30.1213 C   0  0  0  0  0  0  0  0  0  0  0  0
    5.7060   -4.4340   27.4975 C   0  0  0  0  0  0  0  0  0  0  0  0
    1.1818   -5.6612   28.8399 C   0  0  0  0  0  0  0  0  0  0  0  0
   -1.2067   -7.3287   17.7772 C   0  0  0  0  0  0  0  0  0  0  0  0
   -0.0206  -10.5585   16.6210 C   0  0  0  0  0  0  0  0  0  0  0  0
    0.3696  -12.7626   16.2169 O   0  0  0  0  0  0  0  0  0  0  0  0
   -0.6895   -9.5676   17.3297 C   0  0  0  0  0  0  0  0  0  0  0  0
    0.8388   -5.8417   27.5264 C   0  0  0  0  0  0  0  0  0  0  0  0
   -2.0709   -7.6637   18.7817 C   0  0  0  0  0  0  0  0  0  0  0  0
   -0.5279   -8.2168   17.0717 C   0  0  0  0  0  0  0  0  0  0  0  0
    6.9694   -4.0191   27.8190 C   0  0  0  0  0  0  0  0  0  0  0  0
    5.1733   -4.5469   29.8123 C   0  0  0  0  0  0  0  0  0  0  0  0
   -1.7508  -11.3016   18.6072 C   0  0  0  0  0  0  0  0  0  0  0  0
    1.7497   -5.6771   26.4971 C   0  0  0  0  0  0  0  0  0  0  0  0
   -1.5799   -9.9322   18.3468 C   0  0  0  0  0  0  0  0  0  0  0  0
   -1.0871  -12.2214   17.8851 C   0  0  0  0  0  0  0  0  0  0  0  0
   -2.2706   -8.9669   19.0691 C   0  0  0  0  0  0  0  0  0  0  0  0
    3.0279   -5.3073   26.8197 C   0  0  0  0  0  0  0  0  0  0  0  0
    7.3282   -3.8948   29.1186 C   0  0  0  0  0  0  0  0  0  0  0  0
  1  3  4  0
  1  7  4  0
  2  3  1  0
  2  6  4  0
  2 16  4  0
  3 22  4  0
  4  9  4  0
  4 10  1  0
  4 20  4  0
  5 16  4  0
  5 23  4  0
  6 15  4  0
  7 12  4  0
  8 13  4  0
  8 14  4  0
  9 11  4  0
 11 14  4  0
 11 19  4  0
 12 18  4  0
 13 21  4  0
 15 23  4  0
 17 19  4  0
 17 20  4  0
 18 22  4  0
 19 21  4  0
M  END
$$$$

 Created by Python create_sdf_string function

 23 25  0  0  0  0  0  0  0  0999 V2000
    2.4610   -5.3070   29.1240 C   0  0  0  0  0  0  0  0  0  0  0  0
    4.7710   -4.6952   28.4803 C   0  0  0  0  0  0  0  0  0  0  0  0
    3.4047   -5.1087   28.1314 C   0  0  0  0  0  0  0  0  0  0  0  0
   -0.2234  -11.8615   16.8874 C   0  0  0  0  0  0  0  0  0  0  0  0
    6.4491   -4.1532   30.1213 C   0  0  0  0  0  0  0  0  0  0  0  0
    5.7060   -4.4340   27.4975 C   0  0  0  0  0  0  0  0  0  0  0  0
    1.1818   -5.6612   28.8399 C   0  0  0  0  0  0  0  0  0  0  0  0
   -1.2067   -7.3287   17.7772 C   0  0  0  0  0  0  0  0  0  0  0  0
   -0.0206  -10.5585   16.6210 C   0  0  0  0  0  0  0  0  0  0  0  0
    0.3696  -12.7626   16.2169 O   0  0  0  0  0  0  0  0  0  0  0  0
   -0.6895   -9.5676   17.3297 C   0  0  0  0  0  0  0  0  0  0  0  0
    0.8388   -5.8417   27.5264 C   0  0  0  0  0  0  0  0  0  0  0  0
   -2.0709   -7.6637   18.7817 C   0  0  0  0  0  0  0  0  0  0  0  0
   -0.5279   -8.2168   17.0717 C   0  0  0  0  0  0  0  0  0  0  0  0
    6.9694   -4.0191   27.8190 C   0  0  0  0  0  0  0  0  0  0  0  0
    5.1733   -4.5469   29.8123 C   0  0  0  0  0  0  0  0  0  0  0  0
   -1.7508  -11.3016   18.6072 C   0  0  0  0  0  0  0  0  0  0  0  0
    1.7497   -5.6771   26.4971 C   0  0  0  0  0  0  0  0  0  0  0  0
   -1.5799   -9.9322   18.3468 C   0  0  0  0  0  0  0  0  0  0  0  0
   -1.0871  -12.2214   17.8851 C   0  0  0  0  0  0  0  0  0  0  0  0
   -2.2706   -8.9669   19.0691 C   0  0  0  0  0  0  0  0  0  0  0  0
    3.0279   -5.3073   26.8197 C   0  0  0  0  0  0  0  0  0  0  0  0
    7.3282   -3.8948   29.1186 C   0  0  0  0  0  0  0  0  0  0  0  0
  1  3  4  0
  1  7  4  0
  2  3  1  0
  2  6  4  0
  2 16  4  0
  3 22  4  0
  4  9  4  0
  4 10  1  0
  4 20  4  0
  5 16  4  0
  5 23  4  0
  6 15  4  0
  7 12  4  0
  8 13  4  0
  8 14  4  0
  9 11  4  0
 11 14  4  0
 11 19  4  0
 12 18  4  0
 13 21  4  0
 15 23  4  0
 17 19  4  0
 17 20  4  0
 18 22  4  0
 19 21  4  0
M  END
$$$$

 Created by Python create_sdf_string function

 23 25  0  0  0  0  0  0  0  0999 V2000
    2.4610   -5.3070   29.1240 C   0  0  0  0  0  0  0  0  0  0  0  0
    4.7710   -4.6952   28.4803 C   0  0  0  0  0  0  0  0  0  0  0  0
    3.4047   -5.1087   28.1314 C   0  0  0  0  0  0  0  0  0  0  0  0
   -0.2234  -11.8615   16.8874 C   0  0  0  0  0  0  0  0  0  0  0  0
    6.4491   -4.1532   30.1213 C   0  0  0  0  0  0  0  0  0  0  0  0
    5.7060   -4.4340   27.4975 C   0  0  0  0  0  0  0  0  0  0  0  0
    1.1818   -5.6612   28.8399 C   0  0  0  0  0  0  0  0  0  0  0  0
   -1.2067   -7.3287   17.7772 C   0  0  0  0  0  0  0  0  0  0  0  0
   -0.0206  -10.5585   16.6210 C   0  0  0  0  0  0  0  0  0  0  0  0
    0.3696  -12.7626   16.2169 O   0  0  0  0  0  0  0  0  0  0  0  0
   -0.6895   -9.5676   17.3297 C   0  0  0  0  0  0  0  0  0  0  0  0
    0.8388   -5.8417   27.5264 C   0  0  0  0  0  0  0  0  0  0  0  0
   -2.0709   -7.6637   18.7817 C   0  0  0  0  0  0  0  0  0  0  0  0
   -0.5279   -8.2168   17.0717 C   0  0  0  0  0  0  0  0  0  0  0  0
    6.9694   -4.0191   27.8190 C   0  0  0  0  0  0  0  0  0  0  0  0
    5.1733   -4.5469   29.8123 C   0  0  0  0  0  0  0  0  0  0  0  0
   -1.7508  -11.3016   18.6072 C   0  0  0  0  0  0  0  0  0  0  0  0
    1.7497   -5.6771   26.4971 C   0  0  0  0  0  0  0  0  0  0  0  0
   -1.5799   -9.9322   18.3468 C   0  0  0  0  0  0  0  0  0  0  0  0
   -1.0871  -12.2214   17.8851 C   0  0  0  0  0  0  0  0  0  0  0  0
   -2.2706   -8.9669   19.0691 C   0  0  0  0  0  0  0  0  0  0  0  0
    3.0279   -5.3073   26.8197 C   0  0  0  0  0  0  0  0  0  0  0  0
    7.3282   -3.8948   29.1186 C   0  0  0  0  0  0  0  0  0  0  0  0
  1  3  4  0
  1  7  4  0
  2  3  1  0
  2  6  4  0
  2 16  4  0
  3 22  4  0
  4  9  4  0
  4 10  1  0
  4 20  4  0
  5 16  4  0
  5 23  4  0
  6 15  4  0
  7 12  4  0
  8 13  4  0
  8 14  4  0
  9 11  4  0
 11 14  4  0
 11 19  4  0
 12 18  4  0
 13 21  4  0
 15 23  4  0
 17 19  4  0
 17 20  4  0
 18 22  4  0
 19 21  4  0
M  END
$$$$

 Created by Python create_sdf_string function

 23 25  0  0  0  0  0  0  0  0999 V2000
    2.4610   -5.3070   29.1240 C   0  0  0  0  0  0  0  0  0  0  0  0
    4.7710   -4.6952   28.4803 C   0  0  0  0  0  0  0  0  0  0  0  0
    3.4047   -5.1087   28.1314 C   0  0  0  0  0  0  0  0  0  0  0  0
   -0.2234  -11.8615   16.8874 C   0  0  0  0  0  0  0  0  0  0  0  0
    6.4491   -4.1532   30.1213 C   0  0  0  0  0  0  0  0  0  0  0  0
    5.7060   -4.4340   27.4975 C   0  0  0  0  0  0  0  0  0  0  0  0
    1.1818   -5.6612   28.8399 C   0  0  0  0  0  0  0  0  0  0  0  0
   -1.2067   -7.3287   17.7772 C   0  0  0  0  0  0  0  0  0  0  0  0
   -0.0206  -10.5585   16.6210 C   0  0  0  0  0  0  0  0  0  0  0  0
    0.3696  -12.7626   16.2169 O   0  0  0  0  0  0  0  0  0  0  0  0
   -0.6895   -9.5676   17.3297 C   0  0  0  0  0  0  0  0  0  0  0  0
    0.8388   -5.8417   27.5264 C   0  0  0  0  0  0  0  0  0  0  0  0
   -2.0709   -7.6637   18.7817 C   0  0  0  0  0  0  0  0  0  0  0  0
   -0.5279   -8.2168   17.0717 C   0  0  0  0  0  0  0  0  0  0  0  0
    6.9694   -4.0191   27.8190 C   0  0  0  0  0  0  0  0  0  0  0  0
    5.1733   -4.5469   29.8123 C   0  0  0  0  0  0  0  0  0  0  0  0
   -1.7508  -11.3016   18.6072 C   0  0  0  0  0  0  0  0  0  0  0  0
    1.7497   -5.6771   26.4971 C   0  0  0  0  0  0  0  0  0  0  0  0
   -1.5799   -9.9322   18.3468 C   0  0  0  0  0  0  0  0  0  0  0  0
   -1.0871  -12.2214   17.8851 C   0  0  0  0  0  0  0  0  0  0  0  0
   -2.2706   -8.9669   19.0691 C   0  0  0  0  0  0  0  0  0  0  0  0
    3.0279   -5.3073   26.8197 C   0  0  0  0  0  0  0  0  0  0  0  0
    7.3282   -3.8948   29.1186 C   0  0  0  0  0  0  0  0  0  0  0  0
  1  3  4  0
  1  7  4  0
  2  3  1  0
  2  6  4  0
  2 16  4  0
  3 22  4  0
  4  9  4  0
  4 10  1  0
  4 20  4  0
  5 16  4  0
  5 23  4  0
  6 15  4  0
  7 12  4  0
  8 13  4  0
  8 14  4  0
  9 11  4  0
 11 14  4  0
 11 19  4  0
 12 18  4  0
 13 21  4  0
 15 23  4  0
 17 19  4  0
 17 20  4  0
 18 22  4  0
 19 21  4  0
M  END
$$$$

 Created by Python create_sdf_string function

 23 25  0  0  0  0  0  0  0  0999 V2000
    2.4610   -5.3070   29.1240 C   0  0  0  0  0  0  0  0  0  0  0  0
    4.7710   -4.6952   28.4803 C   0  0  0  0  0  0  0  0  0  0  0  0
    3.4047   -5.1087   28.1314 C   0  0  0  0  0  0  0  0  0  0  0  0
   -0.2234  -11.8615   16.8874 C   0  0  0  0  0  0  0  0  0  0  0  0
    6.4491   -4.1532   30.1213 C   0  0  0  0  0  0  0  0  0  0  0  0
    5.7060   -4.4340   27.4975 C   0  0  0  0  0  0  0  0  0  0  0  0
    1.1818   -5.6612   28.8399 C   0  0  0  0  0  0  0  0  0  0  0  0
   -1.2067   -7.3287   17.7772 C   0  0  0  0  0  0  0  0  0  0  0  0
   -0.0206  -10.5585   16.6210 C   0  0  0  0  0  0  0  0  0  0  0  0
    0.3696  -12.7626   16.2169 O   0  0  0  0  0  0  0  0  0  0  0  0
   -0.6895   -9.5676   17.3297 C   0  0  0  0  0  0  0  0  0  0  0  0
    0.8388   -5.8417   27.5264 C   0  0  0  0  0  0  0  0  0  0  0  0
   -2.0709   -7.6637   18.7817 C   0  0  0  0  0  0  0  0  0  0  0  0
   -0.5279   -8.2168   17.0717 C   0  0  0  0  0  0  0  0  0  0  0  0
    6.9694   -4.0191   27.8190 C   0  0  0  0  0  0  0  0  0  0  0  0
    5.1733   -4.5469   29.8123 C   0  0  0  0  0  0  0  0  0  0  0  0
   -1.7508  -11.3016   18.6072 C   0  0  0  0  0  0  0  0  0  0  0  0
    1.7497   -5.6771   26.4971 C   0  0  0  0  0  0  0  0  0  0  0  0
   -1.5799   -9.9322   18.3468 C   0  0  0  0  0  0  0  0  0  0  0  0
   -1.0871  -12.2214   17.8851 C   0  0  0  0  0  0  0  0  0  0  0  0
   -2.2706   -8.9669   19.0691 C   0  0  0  0  0  0  0  0  0  0  0  0
    3.0279   -5.3073   26.8197 C   0  0  0  0  0  0  0  0  0  0  0  0
    7.3282   -3.8948   29.1186 C   0  0  0  0  0  0  0  0  0  0  0  0
  1  3  4  0
  1  7  4  0
  2  3  1  0
  2  6  4  0
  2 16  4  0
  3 22  4  0
  4  9  4  0
  4 10  1  0
  4 20  4  0
  5 16  4  0
  5 23  4  0
  6 15  4  0
  7 12  4  0
  8 13  4  0
  8 14  4  0
  9 11  4  0
 11 14  4  0
 11 19  4  0
 12 18  4  0
 13 21  4  0
 15 23  4  0
 17 19  4  0
 17 20  4  0
 18 22  4  0
 19 21  4  0
M  END
$$$$

 Created by Python create_sdf_string function

 23 25  0  0  0  0  0  0  0  0999 V2000
    2.4610   -5.3070   29.1240 C   0  0  0  0  0  0  0  0  0  0  0  0
    4.7710   -4.6952   28.4803 C   0  0  0  0  0  0  0  0  0  0  0  0
    3.4047   -5.1087   28.1314 C   0  0  0  0  0  0  0  0  0  0  0  0
   -0.2234  -11.8615   16.8874 C   0  0  0  0  0  0  0  0  0  0  0  0
    6.4491   -4.1532   30.1213 C   0  0  0  0  0  0  0  0  0  0  0  0
    5.7060   -4.4340   27.4975 C   0  0  0  0  0  0  0  0  0  0  0  0
    1.1818   -5.6612   28.8399 C   0  0  0  0  0  0  0  0  0  0  0  0
   -1.2067   -7.3287   17.7772 C   0  0  0  0  0  0  0  0  0  0  0  0
   -0.0206  -10.5585   16.6210 C   0  0  0  0  0  0  0  0  0  0  0  0
    0.3696  -12.7626   16.2169 O   0  0  0  0  0  0  0  0  0  0  0  0
   -0.6895   -9.5676   17.3297 C   0  0  0  0  0  0  0  0  0  0  0  0
    0.8388   -5.8417   27.5264 C   0  0  0  0  0  0  0  0  0  0  0  0
   -2.0709   -7.6637   18.7817 C   0  0  0  0  0  0  0  0  0  0  0  0
   -0.5279   -8.2168   17.0717 C   0  0  0  0  0  0  0  0  0  0  0  0
    6.9694   -4.0191   27.8190 C   0  0  0  0  0  0  0  0  0  0  0  0
    5.1733   -4.5469   29.8123 C   0  0  0  0  0  0  0  0  0  0  0  0
   -1.7508  -11.3016   18.6072 C   0  0  0  0  0  0  0  0  0  0  0  0
    1.7497   -5.6771   26.4971 C   0  0  0  0  0  0  0  0  0  0  0  0
   -1.5799   -9.9322   18.3468 C   0  0  0  0  0  0  0  0  0  0  0  0
   -1.0871  -12.2214   17.8851 C   0  0  0  0  0  0  0  0  0  0  0  0
   -2.2706   -8.9669   19.0691 C   0  0  0  0  0  0  0  0  0  0  0  0
    3.0279   -5.3073   26.8197 C   0  0  0  0  0  0  0  0  0  0  0  0
    7.3282   -3.8948   29.1186 C   0  0  0  0  0  0  0  0  0  0  0  0
  1  3  4  0
  1  7  4  0
  2  3  1  0
  2  6  4  0
  2 16  4  0
  3 22  4  0
  4  9  4  0
  4 10  1  0
  4 20  4  0
  5 16  4  0
  5 23  4  0
  6 15  4  0
  7 12  4  0
  8 13  4  0
  8 14  4  0
  9 11  4  0
 11 14  4  0
 11 19  4  0
 12 18  4  0
 13 21  4  0
 15 23  4  0
 17 19  4  0
 17 20  4  0
 18 22  4  0
 19 21  4  0
M  END
$$$$

 Created by Python create_sdf_string function

 23 25  0  0  0  0  0  0  0  0999 V2000
    2.4610   -5.3070   29.1240 C   0  0  0  0  0  0  0  0  0  0  0  0
    4.7710   -4.6952   28.4803 C   0  0  0  0  0  0  0  0  0  0  0  0
    3.4047   -5.1087   28.1314 C   0  0  0  0  0  0  0  0  0  0  0  0
   -0.2234  -11.8615   16.8874 C   0  0  0  0  0  0  0  0  0  0  0  0
    6.4491   -4.1532   30.1213 C   0  0  0  0  0  0  0  0  0  0  0  0
    5.7060   -4.4340   27.4975 C   0  0  0  0  0  0  0  0  0  0  0  0
    1.1818   -5.6612   28.8399 C   0  0  0  0  0  0  0  0  0  0  0  0
   -1.2067   -7.3287   17.7772 C   0  0  0  0  0  0  0  0  0  0  0  0
   -0.0206  -10.5585   16.6210 C   0  0  0  0  0  0  0  0  0  0  0  0
    0.3696  -12.7626   16.2169 O   0  0  0  0  0  0  0  0  0  0  0  0
   -0.6895   -9.5676   17.3297 C   0  0  0  0  0  0  0  0  0  0  0  0
    0.8388   -5.8417   27.5264 C   0  0  0  0  0  0  0  0  0  0  0  0
   -2.0709   -7.6637   18.7817 C   0  0  0  0  0  0  0  0  0  0  0  0
   -0.5279   -8.2168   17.0717 C   0  0  0  0  0  0  0  0  0  0  0  0
    6.9694   -4.0191   27.8190 C   0  0  0  0  0  0  0  0  0  0  0  0
    5.1733   -4.5469   29.8123 C   0  0  0  0  0  0  0  0  0  0  0  0
   -1.7508  -11.3016   18.6072 C   0  0  0  0  0  0  0  0  0  0  0  0
    1.7497   -5.6771   26.4971 C   0  0  0  0  0  0  0  0  0  0  0  0
   -1.5799   -9.9322   18.3468 C   0  0  0  0  0  0  0  0  0  0  0  0
   -1.0871  -12.2214   17.8851 C   0  0  0  0  0  0  0  0  0  0  0  0
   -2.2706   -8.9669   19.0691 C   0  0  0  0  0  0  0  0  0  0  0  0
    3.0279   -5.3073   26.8197 C   0  0  0  0  0  0  0  0  0  0  0  0
    7.3282   -3.8948   29.1186 C   0  0  0  0  0  0  0  0  0  0  0  0
  1  3  4  0
  1  7  4  0
  2  3  1  0
  2  6  4  0
  2 16  4  0
  3 22  4  0
  4  9  4  0
  4 10  1  0
  4 20  4  0
  5 16  4  0
  5 23  4  0
  6 15  4  0
  7 12  4  0
  8 13  4  0
  8 14  4  0
  9 11  4  0
 11 14  4  0
 11 19  4  0
 12 18  4  0
 13 21  4  0
 15 23  4  0
 17 19  4  0
 17 20  4  0
 18 22  4  0
 19 21  4  0
M  END
$$$$

 Created by Python create_sdf_string function

 23 25  0  0  0  0  0  0  0  0999 V2000
    2.4610   -5.3070   29.1240 C   0  0  0  0  0  0  0  0  0  0  0  0
    4.7710   -4.6952   28.4803 C   0  0  0  0  0  0  0  0  0  0  0  0
    3.4047   -5.1087   28.1314 C   0  0  0  0  0  0  0  0  0  0  0  0
   -0.2234  -11.8615   16.8874 C   0  0  0  0  0  0  0  0  0  0  0  0
    6.4491   -4.1532   30.1213 C   0  0  0  0  0  0  0  0  0  0  0  0
    5.7060   -4.4340   27.4975 C   0  0  0  0  0  0  0  0  0  0  0  0
    1.1818   -5.6612   28.8399 C   0  0  0  0  0  0  0  0  0  0  0  0
   -1.2067   -7.3287   17.7772 C   0  0  0  0  0  0  0  0  0  0  0  0
   -0.0206  -10.5585   16.6210 C   0  0  0  0  0  0  0  0  0  0  0  0
    0.3696  -12.7626   16.2169 O   0  0  0  0  0  0  0  0  0  0  0  0
   -0.6895   -9.5676   17.3297 C   0  0  0  0  0  0  0  0  0  0  0  0
    0.8388   -5.8417   27.5264 C   0  0  0  0  0  0  0  0  0  0  0  0
   -2.0709   -7.6637   18.7817 C   0  0  0  0  0  0  0  0  0  0  0  0
   -0.5279   -8.2168   17.0717 C   0  0  0  0  0  0  0  0  0  0  0  0
    6.9694   -4.0191   27.8190 C   0  0  0  0  0  0  0  0  0  0  0  0
    5.1733   -4.5469   29.8123 C   0  0  0  0  0  0  0  0  0  0  0  0
   -1.7508  -11.3016   18.6072 C   0  0  0  0  0  0  0  0  0  0  0  0
    1.7497   -5.6771   26.4971 C   0  0  0  0  0  0  0  0  0  0  0  0
   -1.5799   -9.9322   18.3468 C   0  0  0  0  0  0  0  0  0  0  0  0
   -1.0871  -12.2214   17.8851 C   0  0  0  0  0  0  0  0  0  0  0  0
   -2.2706   -8.9669   19.0691 C   0  0  0  0  0  0  0  0  0  0  0  0
    3.0279   -5.3073   26.8197 C   0  0  0  0  0  0  0  0  0  0  0  0
    7.3282   -3.8948   29.1186 C   0  0  0  0  0  0  0  0  0  0  0  0
  1  3  4  0
  1  7  4  0
  2  3  1  0
  2  6  4  0
  2 16  4  0
  3 22  4  0
  4  9  4  0
  4 10  1  0
  4 20  4  0
  5 16  4  0
  5 23  4  0
  6 15  4  0
  7 12  4  0
  8 13  4  0
  8 14  4  0
  9 11  4  0
 11 14  4  0
 11 19  4  0
 12 18  4  0
 13 21  4  0
 15 23  4  0
 17 19  4  0
 17 20  4  0
 18 22  4  0
 19 21  4  0
M  END
$$$$

 Created by Python create_sdf_string function

 23 25  0  0  0  0  0  0  0  0999 V2000
    2.4610   -5.3070   29.1240 C   0  0  0  0  0  0  0  0  0  0  0  0
    4.7710   -4.6952   28.4803 C   0  0  0  0  0  0  0  0  0  0  0  0
    3.4047   -5.1087   28.1314 C   0  0  0  0  0  0  0  0  0  0  0  0
   -0.2234  -11.8615   16.8874 C   0  0  0  0  0  0  0  0  0  0  0  0
    6.4491   -4.1532   30.1213 C   0  0  0  0  0  0  0  0  0  0  0  0
    5.7060   -4.4340   27.4975 C   0  0  0  0  0  0  0  0  0  0  0  0
    1.1818   -5.6612   28.8399 C   0  0  0  0  0  0  0  0  0  0  0  0
   -1.2067   -7.3287   17.7772 C   0  0  0  0  0  0  0  0  0  0  0  0
   -0.0206  -10.5585   16.6210 C   0  0  0  0  0  0  0  0  0  0  0  0
    0.3696  -12.7626   16.2169 O   0  0  0  0  0  0  0  0  0  0  0  0
   -0.6895   -9.5676   17.3297 C   0  0  0  0  0  0  0  0  0  0  0  0
    0.8388   -5.8417   27.5264 C   0  0  0  0  0  0  0  0  0  0  0  0
   -2.0709   -7.6637   18.7817 C   0  0  0  0  0  0  0  0  0  0  0  0
   -0.5279   -8.2168   17.0717 C   0  0  0  0  0  0  0  0  0  0  0  0
    6.9694   -4.0191   27.8190 C   0  0  0  0  0  0  0  0  0  0  0  0
    5.1733   -4.5469   29.8123 C   0  0  0  0  0  0  0  0  0  0  0  0
   -1.7508  -11.3016   18.6072 C   0  0  0  0  0  0  0  0  0  0  0  0
    1.7497   -5.6771   26.4971 C   0  0  0  0  0  0  0  0  0  0  0  0
   -1.5799   -9.9322   18.3468 C   0  0  0  0  0  0  0  0  0  0  0  0
   -1.0871  -12.2214   17.8851 C   0  0  0  0  0  0  0  0  0  0  0  0
   -2.2706   -8.9669   19.0691 C   0  0  0  0  0  0  0  0  0  0  0  0
    3.0279   -5.3073   26.8197 C   0  0  0  0  0  0  0  0  0  0  0  0
    7.3282   -3.8948   29.1186 C   0  0  0  0  0  0  0  0  0  0  0  0
  1  3  4  0
  1  7  4  0
  2  3  1  0
  2  6  4  0
  2 16  4  0
  3 22  4  0
  4  9  4  0
  4 10  1  0
  4 20  4  0
  5 16  4  0
  5 23  4  0
  6 15  4  0
  7 12  4  0
  8 13  4  0
  8 14  4  0
  9 11  4  0
 11 14  4  0
 11 19  4  0
 12 18  4  0
 13 21  4  0
 15 23  4  0
 17 19  4  0
 17 20  4  0
 18 22  4  0
 19 21  4  0
M  END
$$$$

 Created by Python create_sdf_string function

 23 25  0  0  0  0  0  0  0  0999 V2000
    2.4610   -5.3070   29.1240 C   0  0  0  0  0  0  0  0  0  0  0  0
    4.7710   -4.6952   28.4803 C   0  0  0  0  0  0  0  0  0  0  0  0
    3.4047   -5.1087   28.1314 C   0  0  0  0  0  0  0  0  0  0  0  0
   -0.2234  -11.8615   16.8874 C   0  0  0  0  0  0  0  0  0  0  0  0
    6.4491   -4.1532   30.1213 C   0  0  0  0  0  0  0  0  0  0  0  0
    5.7060   -4.4340   27.4975 C   0  0  0  0  0  0  0  0  0  0  0  0
    1.1818   -5.6612   28.8399 C   0  0  0  0  0  0  0  0  0  0  0  0
   -1.2067   -7.3287   17.7772 C   0  0  0  0  0  0  0  0  0  0  0  0
   -0.0206  -10.5585   16.6210 C   0  0  0  0  0  0  0  0  0  0  0  0
    0.3696  -12.7626   16.2169 O   0  0  0  0  0  0  0  0  0  0  0  0
   -0.6895   -9.5676   17.3297 C   0  0  0  0  0  0  0  0  0  0  0  0
    0.8388   -5.8417   27.5264 C   0  0  0  0  0  0  0  0  0  0  0  0
   -2.0709   -7.6637   18.7817 C   0  0  0  0  0  0  0  0  0  0  0  0
   -0.5279   -8.2168   17.0717 C   0  0  0  0  0  0  0  0  0  0  0  0
    6.9694   -4.0191   27.8190 C   0  0  0  0  0  0  0  0  0  0  0  0
    5.1733   -4.5469   29.8123 C   0  0  0  0  0  0  0  0  0  0  0  0
   -1.7508  -11.3016   18.6072 C   0  0  0  0  0  0  0  0  0  0  0  0
    1.7497   -5.6771   26.4971 C   0  0  0  0  0  0  0  0  0  0  0  0
   -1.5799   -9.9322   18.3468 C   0  0  0  0  0  0  0  0  0  0  0  0
   -1.0871  -12.2214   17.8851 C   0  0  0  0  0  0  0  0  0  0  0  0
   -2.2706   -8.9669   19.0691 C   0  0  0  0  0  0  0  0  0  0  0  0
    3.0279   -5.3073   26.8197 C   0  0  0  0  0  0  0  0  0  0  0  0
    7.3282   -3.8948   29.1186 C   0  0  0  0  0  0  0  0  0  0  0  0
  1  3  4  0
  1  7  4  0
  2  3  1  0
  2  6  4  0
  2 16  4  0
  3 22  4  0
  4  9  4  0
  4 10  1  0
  4 20  4  0
  5 16  4  0
  5 23  4  0
  6 15  4  0
  7 12  4  0
  8 13  4  0
  8 14  4  0
  9 11  4  0
 11 14  4  0
 11 19  4  0
 12 18  4  0
 13 21  4  0
 15 23  4  0
 17 19  4  0
 17 20  4  0
 18 22  4  0
 19 21  4  0
M  END
$$$$

 Created by Python create_sdf_string function

 23 25  0  0  0  0  0  0  0  0999 V2000
    2.4610   -5.3070   29.1240 C   0  0  0  0  0  0  0  0  0  0  0  0
    4.7710   -4.6952   28.4803 C   0  0  0  0  0  0  0  0  0  0  0  0
    3.4047   -5.1087   28.1314 C   0  0  0  0  0  0  0  0  0  0  0  0
   -0.2234  -11.8615   16.8874 C   0  0  0  0  0  0  0  0  0  0  0  0
    6.4491   -4.1532   30.1213 C   0  0  0  0  0  0  0  0  0  0  0  0
    5.7060   -4.4340   27.4975 C   0  0  0  0  0  0  0  0  0  0  0  0
    1.1818   -5.6612   28.8399 C   0  0  0  0  0  0  0  0  0  0  0  0
   -1.2067   -7.3287   17.7772 C   0  0  0  0  0  0  0  0  0  0  0  0
   -0.0206  -10.5585   16.6210 C   0  0  0  0  0  0  0  0  0  0  0  0
    0.3696  -12.7626   16.2169 O   0  0  0  0  0  0  0  0  0  0  0  0
   -0.6895   -9.5676   17.3297 C   0  0  0  0  0  0  0  0  0  0  0  0
    0.8388   -5.8417   27.5264 C   0  0  0  0  0  0  0  0  0  0  0  0
   -2.0709   -7.6637   18.7817 C   0  0  0  0  0  0  0  0  0  0  0  0
   -0.5279   -8.2168   17.0717 C   0  0  0  0  0  0  0  0  0  0  0  0
    6.9694   -4.0191   27.8190 C   0  0  0  0  0  0  0  0  0  0  0  0
    5.1733   -4.5469   29.8123 C   0  0  0  0  0  0  0  0  0  0  0  0
   -1.7508  -11.3016   18.6072 C   0  0  0  0  0  0  0  0  0  0  0  0
    1.7497   -5.6771   26.4971 C   0  0  0  0  0  0  0  0  0  0  0  0
   -1.5799   -9.9322   18.3468 C   0  0  0  0  0  0  0  0  0  0  0  0
   -1.0871  -12.2214   17.8851 C   0  0  0  0  0  0  0  0  0  0  0  0
   -2.2706   -8.9669   19.0691 C   0  0  0  0  0  0  0  0  0  0  0  0
    3.0279   -5.3073   26.8197 C   0  0  0  0  0  0  0  0  0  0  0  0
    7.3282   -3.8948   29.1186 C   0  0  0  0  0  0  0  0  0  0  0  0
  1  3  4  0
  1  7  4  0
  2  3  1  0
  2  6  4  0
  2 16  4  0
  3 22  4  0
  4  9  4  0
  4 10  1  0
  4 20  4  0
  5 16  4  0
  5 23  4  0
  6 15  4  0
  7 12  4  0
  8 13  4  0
  8 14  4  0
  9 11  4  0
 11 14  4  0
 11 19  4  0
 12 18  4  0
 13 21  4  0
 15 23  4  0
 17 19  4  0
 17 20  4  0
 18 22  4  0
 19 21  4  0
M  END
$$$$

 Created by Python create_sdf_string function

 23 25  0  0  0  0  0  0  0  0999 V2000
    2.4610   -5.3070   29.1240 C   0  0  0  0  0  0  0  0  0  0  0  0
    4.7710   -4.6952   28.4803 C   0  0  0  0  0  0  0  0  0  0  0  0
    3.4047   -5.1087   28.1314 C   0  0  0  0  0  0  0  0  0  0  0  0
   -0.2234  -11.8615   16.8874 C   0  0  0  0  0  0  0  0  0  0  0  0
    6.4491   -4.1532   30.1213 C   0  0  0  0  0  0  0  0  0  0  0  0
    5.7060   -4.4340   27.4975 C   0  0  0  0  0  0  0  0  0  0  0  0
    1.1818   -5.6612   28.8399 C   0  0  0  0  0  0  0  0  0  0  0  0
   -1.2067   -7.3287   17.7772 C   0  0  0  0  0  0  0  0  0  0  0  0
   -0.0206  -10.5585   16.6210 C   0  0  0  0  0  0  0  0  0  0  0  0
    0.3696  -12.7626   16.2169 O   0  0  0  0  0  0  0  0  0  0  0  0
   -0.6895   -9.5676   17.3297 C   0  0  0  0  0  0  0  0  0  0  0  0
    0.8388   -5.8417   27.5264 C   0  0  0  0  0  0  0  0  0  0  0  0
   -2.0709   -7.6637   18.7817 C   0  0  0  0  0  0  0  0  0  0  0  0
   -0.5279   -8.2168   17.0717 C   0  0  0  0  0  0  0  0  0  0  0  0
    6.9694   -4.0191   27.8190 C   0  0  0  0  0  0  0  0  0  0  0  0
    5.1733   -4.5469   29.8123 C   0  0  0  0  0  0  0  0  0  0  0  0
   -1.7508  -11.3016   18.6072 C   0  0  0  0  0  0  0  0  0  0  0  0
    1.7497   -5.6771   26.4971 C   0  0  0  0  0  0  0  0  0  0  0  0
   -1.5799   -9.9322   18.3468 C   0  0  0  0  0  0  0  0  0  0  0  0
   -1.0871  -12.2214   17.8851 C   0  0  0  0  0  0  0  0  0  0  0  0
   -2.2706   -8.9669   19.0691 C   0  0  0  0  0  0  0  0  0  0  0  0
    3.0279   -5.3073   26.8197 C   0  0  0  0  0  0  0  0  0  0  0  0
    7.3282   -3.8948   29.1186 C   0  0  0  0  0  0  0  0  0  0  0  0
  1  3  4  0
  1  7  4  0
  2  3  1  0
  2  6  4  0
  2 16  4  0
  3 22  4  0
  4  9  4  0
  4 10  1  0
  4 20  4  0
  5 16  4  0
  5 23  4  0
  6 15  4  0
  7 12  4  0
  8 13  4  0
  8 14  4  0
  9 11  4  0
 11 14  4  0
 11 19  4  0
 12 18  4  0
 13 21  4  0
 15 23  4  0
 17 19  4  0
 17 20  4  0
 18 22  4  0
 19 21  4  0
M  END
$$$$

 Created by Python create_sdf_string function

 23 25  0  0  0  0  0  0  0  0999 V2000
    2.4610   -5.3070   29.1240 C   0  0  0  0  0  0  0  0  0  0  0  0
    4.7710   -4.6952   28.4803 C   0  0  0  0  0  0  0  0  0  0  0  0
    3.4047   -5.1087   28.1314 C   0  0  0  0  0  0  0  0  0  0  0  0
   -0.2234  -11.8615   16.8874 C   0  0  0  0  0  0  0  0  0  0  0  0
    6.4491   -4.1532   30.1213 C   0  0  0  0  0  0  0  0  0  0  0  0
    5.7060   -4.4340   27.4975 C   0  0  0  0  0  0  0  0  0  0  0  0
    1.1818   -5.6612   28.8399 C   0  0  0  0  0  0  0  0  0  0  0  0
   -1.2067   -7.3287   17.7772 C   0  0  0  0  0  0  0  0  0  0  0  0
   -0.0206  -10.5585   16.6210 C   0  0  0  0  0  0  0  0  0  0  0  0
    0.3696  -12.7626   16.2169 O   0  0  0  0  0  0  0  0  0  0  0  0
   -0.6895   -9.5676   17.3297 C   0  0  0  0  0  0  0  0  0  0  0  0
    0.8388   -5.8417   27.5264 C   0  0  0  0  0  0  0  0  0  0  0  0
   -2.0709   -7.6637   18.7817 C   0  0  0  0  0  0  0  0  0  0  0  0
   -0.5279   -8.2168   17.0717 C   0  0  0  0  0  0  0  0  0  0  0  0
    6.9694   -4.0191   27.8190 C   0  0  0  0  0  0  0  0  0  0  0  0
    5.1733   -4.5469   29.8123 C   0  0  0  0  0  0  0  0  0  0  0  0
   -1.7508  -11.3016   18.6072 C   0  0  0  0  0  0  0  0  0  0  0  0
    1.7497   -5.6771   26.4971 C   0  0  0  0  0  0  0  0  0  0  0  0
   -1.5799   -9.9322   18.3468 C   0  0  0  0  0  0  0  0  0  0  0  0
   -1.0871  -12.2214   17.8851 C   0  0  0  0  0  0  0  0  0  0  0  0
   -2.2706   -8.9669   19.0691 C   0  0  0  0  0  0  0  0  0  0  0  0
    3.0279   -5.3073   26.8197 C   0  0  0  0  0  0  0  0  0  0  0  0
    7.3282   -3.8948   29.1186 C   0  0  0  0  0  0  0  0  0  0  0  0
  1  3  4  0
  1  7  4  0
  2  3  1  0
  2  6  4  0
  2 16  4  0
  3 22  4  0
  4  9  4  0
  4 10  1  0
  4 20  4  0
  5 16  4  0
  5 23  4  0
  6 15  4  0
  7 12  4  0
  8 13  4  0
  8 14  4  0
  9 11  4  0
 11 14  4  0
 11 19  4  0
 12 18  4  0
 13 21  4  0
 15 23  4  0
 17 19  4  0
 17 20  4  0
 18 22  4  0
 19 21  4  0
M  END
$$$$

 Created by Python create_sdf_string function

 23 25  0  0  0  0  0  0  0  0999 V2000
    2.4610   -5.3070   29.1240 C   0  0  0  0  0  0  0  0  0  0  0  0
    4.7710   -4.6952   28.4803 C   0  0  0  0  0  0  0  0  0  0  0  0
    3.4047   -5.1087   28.1314 C   0  0  0  0  0  0  0  0  0  0  0  0
   -0.2234  -11.8615   16.8874 C   0  0  0  0  0  0  0  0  0  0  0  0
    6.4491   -4.1532   30.1213 C   0  0  0  0  0  0  0  0  0  0  0  0
    5.7060   -4.4340   27.4975 C   0  0  0  0  0  0  0  0  0  0  0  0
    1.1818   -5.6612   28.8399 C   0  0  0  0  0  0  0  0  0  0  0  0
   -1.2067   -7.3287   17.7772 C   0  0  0  0  0  0  0  0  0  0  0  0
   -0.0206  -10.5585   16.6210 C   0  0  0  0  0  0  0  0  0  0  0  0
    0.3696  -12.7626   16.2169 O   0  0  0  0  0  0  0  0  0  0  0  0
   -0.6895   -9.5676   17.3297 C   0  0  0  0  0  0  0  0  0  0  0  0
    0.8388   -5.8417   27.5264 C   0  0  0  0  0  0  0  0  0  0  0  0
   -2.0709   -7.6637   18.7817 C   0  0  0  0  0  0  0  0  0  0  0  0
   -0.5279   -8.2168   17.0717 C   0  0  0  0  0  0  0  0  0  0  0  0
    6.9694   -4.0191   27.8190 C   0  0  0  0  0  0  0  0  0  0  0  0
    5.1733   -4.5469   29.8123 C   0  0  0  0  0  0  0  0  0  0  0  0
   -1.7508  -11.3016   18.6072 C   0  0  0  0  0  0  0  0  0  0  0  0
    1.7497   -5.6771   26.4971 C   0  0  0  0  0  0  0  0  0  0  0  0
   -1.5799   -9.9322   18.3468 C   0  0  0  0  0  0  0  0  0  0  0  0
   -1.0871  -12.2214   17.8851 C   0  0  0  0  0  0  0  0  0  0  0  0
   -2.2706   -8.9669   19.0691 C   0  0  0  0  0  0  0  0  0  0  0  0
    3.0279   -5.3073   26.8197 C   0  0  0  0  0  0  0  0  0  0  0  0
    7.3282   -3.8948   29.1186 C   0  0  0  0  0  0  0  0  0  0  0  0
  1  3  4  0
  1  7  4  0
  2  3  1  0
  2  6  4  0
  2 16  4  0
  3 22  4  0
  4  9  4  0
  4 10  1  0
  4 20  4  0
  5 16  4  0
  5 23  4  0
  6 15  4  0
  7 12  4  0
  8 13  4  0
  8 14  4  0
  9 11  4  0
 11 14  4  0
 11 19  4  0
 12 18  4  0
 13 21  4  0
 15 23  4  0
 17 19  4  0
 17 20  4  0
 18 22  4  0
 19 21  4  0
M  END
$$$$

 Created by Python create_sdf_string function

 23 25  0  0  0  0  0  0  0  0999 V2000
    2.4610   -5.3070   29.1240 C   0  0  0  0  0  0  0  0  0  0  0  0
    4.7710   -4.6952   28.4803 C   0  0  0  0  0  0  0  0  0  0  0  0
    3.4047   -5.1087   28.1314 C   0  0  0  0  0  0  0  0  0  0  0  0
   -0.2234  -11.8615   16.8874 C   0  0  0  0  0  0  0  0  0  0  0  0
    6.4491   -4.1532   30.1213 C   0  0  0  0  0  0  0  0  0  0  0  0
    5.7060   -4.4340   27.4975 C   0  0  0  0  0  0  0  0  0  0  0  0
    1.1818   -5.6612   28.8399 C   0  0  0  0  0  0  0  0  0  0  0  0
   -1.2067   -7.3287   17.7772 C   0  0  0  0  0  0  0  0  0  0  0  0
   -0.0206  -10.5585   16.6210 C   0  0  0  0  0  0  0  0  0  0  0  0
    0.3696  -12.7626   16.2169 O   0  0  0  0  0  0  0  0  0  0  0  0
   -0.6895   -9.5676   17.3297 C   0  0  0  0  0  0  0  0  0  0  0  0
    0.8388   -5.8417   27.5264 C   0  0  0  0  0  0  0  0  0  0  0  0
   -2.0709   -7.6637   18.7817 C   0  0  0  0  0  0  0  0  0  0  0  0
   -0.5279   -8.2168   17.0717 C   0  0  0  0  0  0  0  0  0  0  0  0
    6.9694   -4.0191   27.8190 C   0  0  0  0  0  0  0  0  0  0  0  0
    5.1733   -4.5469   29.8123 C   0  0  0  0  0  0  0  0  0  0  0  0
   -1.7508  -11.3016   18.6072 C   0  0  0  0  0  0  0  0  0  0  0  0
    1.7497   -5.6771   26.4971 C   0  0  0  0  0  0  0  0  0  0  0  0
   -1.5799   -9.9322   18.3468 C   0  0  0  0  0  0  0  0  0  0  0  0
   -1.0871  -12.2214   17.8851 C   0  0  0  0  0  0  0  0  0  0  0  0
   -2.2706   -8.9669   19.0691 C   0  0  0  0  0  0  0  0  0  0  0  0
    3.0279   -5.3073   26.8197 C   0  0  0  0  0  0  0  0  0  0  0  0
    7.3282   -3.8948   29.1186 C   0  0  0  0  0  0  0  0  0  0  0  0
  1  3  4  0
  1  7  4  0
  2  3  1  0
  2  6  4  0
  2 16  4  0
  3 22  4  0
  4  9  4  0
  4 10  1  0
  4 20  4  0
  5 16  4  0
  5 23  4  0
  6 15  4  0
  7 12  4  0
  8 13  4  0
  8 14  4  0
  9 11  4  0
 11 14  4  0
 11 19  4  0
 12 18  4  0
 13 21  4  0
 15 23  4  0
 17 19  4  0
 17 20  4  0
 18 22  4  0
 19 21  4  0
M  END
$$$$

 Created by Python create_sdf_string function

 23 25  0  0  0  0  0  0  0  0999 V2000
    2.4610   -5.3070   29.1240 C   0  0  0  0  0  0  0  0  0  0  0  0
    4.7710   -4.6952   28.4803 C   0  0  0  0  0  0  0  0  0  0  0  0
    3.4047   -5.1087   28.1314 C   0  0  0  0  0  0  0  0  0  0  0  0
   -0.2234  -11.8615   16.8874 C   0  0  0  0  0  0  0  0  0  0  0  0
    6.4491   -4.1532   30.1213 C   0  0  0  0  0  0  0  0  0  0  0  0
    5.7060   -4.4340   27.4975 C   0  0  0  0  0  0  0  0  0  0  0  0
    1.1818   -5.6612   28.8399 C   0  0  0  0  0  0  0  0  0  0  0  0
   -1.2067   -7.3287   17.7772 C   0  0  0  0  0  0  0  0  0  0  0  0
   -0.0206  -10.5585   16.6210 C   0  0  0  0  0  0  0  0  0  0  0  0
    0.3696  -12.7626   16.2169 O   0  0  0  0  0  0  0  0  0  0  0  0
   -0.6895   -9.5676   17.3297 C   0  0  0  0  0  0  0  0  0  0  0  0
    0.8388   -5.8417   27.5264 C   0  0  0  0  0  0  0  0  0  0  0  0
   -2.0709   -7.6637   18.7817 C   0  0  0  0  0  0  0  0  0  0  0  0
   -0.5279   -8.2168   17.0717 C   0  0  0  0  0  0  0  0  0  0  0  0
    6.9694   -4.0191   27.8190 C   0  0  0  0  0  0  0  0  0  0  0  0
    5.1733   -4.5469   29.8123 C   0  0  0  0  0  0  0  0  0  0  0  0
   -1.7508  -11.3016   18.6072 C   0  0  0  0  0  0  0  0  0  0  0  0
    1.7497   -5.6771   26.4971 C   0  0  0  0  0  0  0  0  0  0  0  0
   -1.5799   -9.9322   18.3468 C   0  0  0  0  0  0  0  0  0  0  0  0
   -1.0871  -12.2214   17.8851 C   0  0  0  0  0  0  0  0  0  0  0  0
   -2.2706   -8.9669   19.0691 C   0  0  0  0  0  0  0  0  0  0  0  0
    3.0279   -5.3073   26.8197 C   0  0  0  0  0  0  0  0  0  0  0  0
    7.3282   -3.8948   29.1186 C   0  0  0  0  0  0  0  0  0  0  0  0
  1  3  4  0
  1  7  4  0
  2  3  1  0
  2  6  4  0
  2 16  4  0
  3 22  4  0
  4  9  4  0
  4 10  1  0
  4 20  4  0
  5 16  4  0
  5 23  4  0
  6 15  4  0
  7 12  4  0
  8 13  4  0
  8 14  4  0
  9 11  4  0
 11 14  4  0
 11 19  4  0
 12 18  4  0
 13 21  4  0
 15 23  4  0
 17 19  4  0
 17 20  4  0
 18 22  4  0
 19 21  4  0
M  END
$$$$

 Created by Python create_sdf_string function

 23 25  0  0  0  0  0  0  0  0999 V2000
    2.4610   -5.3070   29.1240 C   0  0  0  0  0  0  0  0  0  0  0  0
    4.7710   -4.6952   28.4803 C   0  0  0  0  0  0  0  0  0  0  0  0
    3.4047   -5.1087   28.1314 C   0  0  0  0  0  0  0  0  0  0  0  0
   -0.2234  -11.8615   16.8874 C   0  0  0  0  0  0  0  0  0  0  0  0
    6.4491   -4.1532   30.1213 C   0  0  0  0  0  0  0  0  0  0  0  0
    5.7060   -4.4340   27.4975 C   0  0  0  0  0  0  0  0  0  0  0  0
    1.1818   -5.6612   28.8399 C   0  0  0  0  0  0  0  0  0  0  0  0
   -1.2067   -7.3287   17.7772 C   0  0  0  0  0  0  0  0  0  0  0  0
   -0.0206  -10.5585   16.6210 C   0  0  0  0  0  0  0  0  0  0  0  0
    0.3696  -12.7626   16.2169 O   0  0  0  0  0  0  0  0  0  0  0  0
   -0.6895   -9.5676   17.3297 C   0  0  0  0  0  0  0  0  0  0  0  0
    0.8388   -5.8417   27.5264 C   0  0  0  0  0  0  0  0  0  0  0  0
   -2.0709   -7.6637   18.7817 C   0  0  0  0  0  0  0  0  0  0  0  0
   -0.5279   -8.2168   17.0717 C   0  0  0  0  0  0  0  0  0  0  0  0
    6.9694   -4.0191   27.8190 C   0  0  0  0  0  0  0  0  0  0  0  0
    5.1733   -4.5469   29.8123 C   0  0  0  0  0  0  0  0  0  0  0  0
   -1.7508  -11.3016   18.6072 C   0  0  0  0  0  0  0  0  0  0  0  0
    1.7497   -5.6771   26.4971 C   0  0  0  0  0  0  0  0  0  0  0  0
   -1.5799   -9.9322   18.3468 C   0  0  0  0  0  0  0  0  0  0  0  0
   -1.0871  -12.2214   17.8851 C   0  0  0  0  0  0  0  0  0  0  0  0
   -2.2706   -8.9669   19.0691 C   0  0  0  0  0  0  0  0  0  0  0  0
    3.0279   -5.3073   26.8197 C   0  0  0  0  0  0  0  0  0  0  0  0
    7.3282   -3.8948   29.1186 C   0  0  0  0  0  0  0  0  0  0  0  0
  1  3  4  0
  1  7  4  0
  2  3  1  0
  2  6  4  0
  2 16  4  0
  3 22  4  0
  4  9  4  0
  4 10  1  0
  4 20  4  0
  5 16  4  0
  5 23  4  0
  6 15  4  0
  7 12  4  0
  8 13  4  0
  8 14  4  0
  9 11  4  0
 11 14  4  0
 11 19  4  0
 12 18  4  0
 13 21  4  0
 15 23  4  0
 17 19  4  0
 17 20  4  0
 18 22  4  0
 19 21  4  0
M  END
$$$$

 Created by Python create_sdf_string function

 23 25  0  0  0  0  0  0  0  0999 V2000
    2.4610   -5.3070   29.1240 C   0  0  0  0  0  0  0  0  0  0  0  0
    4.7710   -4.6952   28.4803 C   0  0  0  0  0  0  0  0  0  0  0  0
    3.4047   -5.1087   28.1314 C   0  0  0  0  0  0  0  0  0  0  0  0
   -0.2234  -11.8615   16.8874 C   0  0  0  0  0  0  0  0  0  0  0  0
    6.4491   -4.1532   30.1213 C   0  0  0  0  0  0  0  0  0  0  0  0
    5.7060   -4.4340   27.4975 C   0  0  0  0  0  0  0  0  0  0  0  0
    1.1818   -5.6612   28.8399 C   0  0  0  0  0  0  0  0  0  0  0  0
   -1.2067   -7.3287   17.7772 C   0  0  0  0  0  0  0  0  0  0  0  0
   -0.0206  -10.5585   16.6210 C   0  0  0  0  0  0  0  0  0  0  0  0
    0.3696  -12.7626   16.2169 O   0  0  0  0  0  0  0  0  0  0  0  0
   -0.6895   -9.5676   17.3297 C   0  0  0  0  0  0  0  0  0  0  0  0
    0.8388   -5.8417   27.5264 C   0  0  0  0  0  0  0  0  0  0  0  0
   -2.0709   -7.6637   18.7817 C   0  0  0  0  0  0  0  0  0  0  0  0
   -0.5279   -8.2168   17.0717 C   0  0  0  0  0  0  0  0  0  0  0  0
    6.9694   -4.0191   27.8190 C   0  0  0  0  0  0  0  0  0  0  0  0
    5.1733   -4.5469   29.8123 C   0  0  0  0  0  0  0  0  0  0  0  0
   -1.7508  -11.3016   18.6072 C   0  0  0  0  0  0  0  0  0  0  0  0
    1.7497   -5.6771   26.4971 C   0  0  0  0  0  0  0  0  0  0  0  0
   -1.5799   -9.9322   18.3468 C   0  0  0  0  0  0  0  0  0  0  0  0
   -1.0871  -12.2214   17.8851 C   0  0  0  0  0  0  0  0  0  0  0  0
   -2.2706   -8.9669   19.0691 C   0  0  0  0  0  0  0  0  0  0  0  0
    3.0279   -5.3073   26.8197 C   0  0  0  0  0  0  0  0  0  0  0  0
    7.3282   -3.8948   29.1186 C   0  0  0  0  0  0  0  0  0  0  0  0
  1  3  4  0
  1  7  4  0
  2  3  1  0
  2  6  4  0
  2 16  4  0
  3 22  4  0
  4  9  4  0
  4 10  1  0
  4 20  4  0
  5 16  4  0
  5 23  4  0
  6 15  4  0
  7 12  4  0
  8 13  4  0
  8 14  4  0
  9 11  4  0
 11 14  4  0
 11 19  4  0
 12 18  4  0
 13 21  4  0
 15 23  4  0
 17 19  4  0
 17 20  4  0
 18 22  4  0
 19 21  4  0
M  END
$$$$

 Created by Python create_sdf_string function

 23 25  0  0  0  0  0  0  0  0999 V2000
    2.4610   -5.3070   29.1240 C   0  0  0  0  0  0  0  0  0  0  0  0
    4.7710   -4.6952   28.4803 C   0  0  0  0  0  0  0  0  0  0  0  0
    3.4047   -5.1087   28.1314 C   0  0  0  0  0  0  0  0  0  0  0  0
   -0.2234  -11.8615   16.8874 C   0  0  0  0  0  0  0  0  0  0  0  0
    6.4491   -4.1532   30.1213 C   0  0  0  0  0  0  0  0  0  0  0  0
    5.7060   -4.4340   27.4975 C   0  0  0  0  0  0  0  0  0  0  0  0
    1.1818   -5.6612   28.8399 C   0  0  0  0  0  0  0  0  0  0  0  0
   -1.2067   -7.3287   17.7772 C   0  0  0  0  0  0  0  0  0  0  0  0
   -0.0206  -10.5585   16.6210 C   0  0  0  0  0  0  0  0  0  0  0  0
    0.3696  -12.7626   16.2169 O   0  0  0  0  0  0  0  0  0  0  0  0
   -0.6895   -9.5676   17.3297 C   0  0  0  0  0  0  0  0  0  0  0  0
    0.8388   -5.8417   27.5264 C   0  0  0  0  0  0  0  0  0  0  0  0
   -2.0709   -7.6637   18.7817 C   0  0  0  0  0  0  0  0  0  0  0  0
   -0.5279   -8.2168   17.0717 C   0  0  0  0  0  0  0  0  0  0  0  0
    6.9694   -4.0191   27.8190 C   0  0  0  0  0  0  0  0  0  0  0  0
    5.1733   -4.5469   29.8123 C   0  0  0  0  0  0  0  0  0  0  0  0
   -1.7508  -11.3016   18.6072 C   0  0  0  0  0  0  0  0  0  0  0  0
    1.7497   -5.6771   26.4971 C   0  0  0  0  0  0  0  0  0  0  0  0
   -1.5799   -9.9322   18.3468 C   0  0  0  0  0  0  0  0  0  0  0  0
   -1.0871  -12.2214   17.8851 C   0  0  0  0  0  0  0  0  0  0  0  0
   -2.2706   -8.9669   19.0691 C   0  0  0  0  0  0  0  0  0  0  0  0
    3.0279   -5.3073   26.8197 C   0  0  0  0  0  0  0  0  0  0  0  0
    7.3282   -3.8948   29.1186 C   0  0  0  0  0  0  0  0  0  0  0  0
  1  3  4  0
  1  7  4  0
  2  3  1  0
  2  6  4  0
  2 16  4  0
  3 22  4  0
  4  9  4  0
  4 10  1  0
  4 20  4  0
  5 16  4  0
  5 23  4  0
  6 15  4  0
  7 12  4  0
  8 13  4  0
  8 14  4  0
  9 11  4  0
 11 14  4  0
 11 19  4  0
 12 18  4  0
 13 21  4  0
 15 23  4  0
 17 19  4  0
 17 20  4  0
 18 22  4  0
 19 21  4  0
M  END
$$$$

 Created by Python create_sdf_string function

 23 25  0  0  0  0  0  0  0  0999 V2000
    2.4610   -5.3070   29.1240 C   0  0  0  0  0  0  0  0  0  0  0  0
    4.7710   -4.6952   28.4803 C   0  0  0  0  0  0  0  0  0  0  0  0
    3.4047   -5.1087   28.1314 C   0  0  0  0  0  0  0  0  0  0  0  0
   -0.2234  -11.8615   16.8874 C   0  0  0  0  0  0  0  0  0  0  0  0
    6.4491   -4.1532   30.1213 C   0  0  0  0  0  0  0  0  0  0  0  0
    5.7060   -4.4340   27.4975 C   0  0  0  0  0  0  0  0  0  0  0  0
    1.1818   -5.6612   28.8399 C   0  0  0  0  0  0  0  0  0  0  0  0
   -1.2067   -7.3287   17.7772 C   0  0  0  0  0  0  0  0  0  0  0  0
   -0.0206  -10.5585   16.6210 C   0  0  0  0  0  0  0  0  0  0  0  0
    0.3696  -12.7626   16.2169 O   0  0  0  0  0  0  0  0  0  0  0  0
   -0.6895   -9.5676   17.3297 C   0  0  0  0  0  0  0  0  0  0  0  0
    0.8388   -5.8417   27.5264 C   0  0  0  0  0  0  0  0  0  0  0  0
   -2.0709   -7.6637   18.7817 C   0  0  0  0  0  0  0  0  0  0  0  0
   -0.5279   -8.2168   17.0717 C   0  0  0  0  0  0  0  0  0  0  0  0
    6.9694   -4.0191   27.8190 C   0  0  0  0  0  0  0  0  0  0  0  0
    5.1733   -4.5469   29.8123 C   0  0  0  0  0  0  0  0  0  0  0  0
   -1.7508  -11.3016   18.6072 C   0  0  0  0  0  0  0  0  0  0  0  0
    1.7497   -5.6771   26.4971 C   0  0  0  0  0  0  0  0  0  0  0  0
   -1.5799   -9.9322   18.3468 C   0  0  0  0  0  0  0  0  0  0  0  0
   -1.0871  -12.2214   17.8851 C   0  0  0  0  0  0  0  0  0  0  0  0
   -2.2706   -8.9669   19.0691 C   0  0  0  0  0  0  0  0  0  0  0  0
    3.0279   -5.3073   26.8197 C   0  0  0  0  0  0  0  0  0  0  0  0
    7.3282   -3.8948   29.1186 C   0  0  0  0  0  0  0  0  0  0  0  0
  1  3  4  0
  1  7  4  0
  2  3  1  0
  2  6  4  0
  2 16  4  0
  3 22  4  0
  4  9  4  0
  4 10  1  0
  4 20  4  0
  5 16  4  0
  5 23  4  0
  6 15  4  0
  7 12  4  0
  8 13  4  0
  8 14  4  0
  9 11  4  0
 11 14  4  0
 11 19  4  0
 12 18  4  0
 13 21  4  0
 15 23  4  0
 17 19  4  0
 17 20  4  0
 18 22  4  0
 19 21  4  0
M  END
$$$$

 Created by Python create_sdf_string function

 23 25  0  0  0  0  0  0  0  0999 V2000
    2.4610   -5.3070   29.1240 C   0  0  0  0  0  0  0  0  0  0  0  0
    4.7710   -4.6952   28.4803 C   0  0  0  0  0  0  0  0  0  0  0  0
    3.4047   -5.1087   28.1314 C   0  0  0  0  0  0  0  0  0  0  0  0
   -0.2234  -11.8615   16.8874 C   0  0  0  0  0  0  0  0  0  0  0  0
    6.4491   -4.1532   30.1213 C   0  0  0  0  0  0  0  0  0  0  0  0
    5.7060   -4.4340   27.4975 C   0  0  0  0  0  0  0  0  0  0  0  0
    1.1818   -5.6612   28.8399 C   0  0  0  0  0  0  0  0  0  0  0  0
   -1.2067   -7.3287   17.7772 C   0  0  0  0  0  0  0  0  0  0  0  0
   -0.0206  -10.5585   16.6210 C   0  0  0  0  0  0  0  0  0  0  0  0
    0.3696  -12.7626   16.2169 O   0  0  0  0  0  0  0  0  0  0  0  0
   -0.6895   -9.5676   17.3297 C   0  0  0  0  0  0  0  0  0  0  0  0
    0.8388   -5.8417   27.5264 C   0  0  0  0  0  0  0  0  0  0  0  0
   -2.0709   -7.6637   18.7817 C   0  0  0  0  0  0  0  0  0  0  0  0
   -0.5279   -8.2168   17.0717 C   0  0  0  0  0  0  0  0  0  0  0  0
    6.9694   -4.0191   27.8190 C   0  0  0  0  0  0  0  0  0  0  0  0
    5.1733   -4.5469   29.8123 C   0  0  0  0  0  0  0  0  0  0  0  0
   -1.7508  -11.3016   18.6072 C   0  0  0  0  0  0  0  0  0  0  0  0
    1.7497   -5.6771   26.4971 C   0  0  0  0  0  0  0  0  0  0  0  0
   -1.5799   -9.9322   18.3468 C   0  0  0  0  0  0  0  0  0  0  0  0
   -1.0871  -12.2214   17.8851 C   0  0  0  0  0  0  0  0  0  0  0  0
   -2.2706   -8.9669   19.0691 C   0  0  0  0  0  0  0  0  0  0  0  0
    3.0279   -5.3073   26.8197 C   0  0  0  0  0  0  0  0  0  0  0  0
    7.3282   -3.8948   29.1186 C   0  0  0  0  0  0  0  0  0  0  0  0
  1  3  4  0
  1  7  4  0
  2  3  1  0
  2  6  4  0
  2 16  4  0
  3 22  4  0
  4  9  4  0
  4 10  1  0
  4 20  4  0
  5 16  4  0
  5 23  4  0
  6 15  4  0
  7 12  4  0
  8 13  4  0
  8 14  4  0
  9 11  4  0
 11 14  4  0
 11 19  4  0
 12 18  4  0
 13 21  4  0
 15 23  4  0
 17 19  4  0
 17 20  4  0
 18 22  4  0
 19 21  4  0
M  END
$$$$

 Created by Python create_sdf_string function

 23 25  0  0  0  0  0  0  0  0999 V2000
    2.4610   -5.3070   29.1240 C   0  0  0  0  0  0  0  0  0  0  0  0
    4.7710   -4.6952   28.4803 C   0  0  0  0  0  0  0  0  0  0  0  0
    3.4047   -5.1087   28.1314 C   0  0  0  0  0  0  0  0  0  0  0  0
   -0.2234  -11.8615   16.8874 C   0  0  0  0  0  0  0  0  0  0  0  0
    6.4491   -4.1532   30.1213 C   0  0  0  0  0  0  0  0  0  0  0  0
    5.7060   -4.4340   27.4975 C   0  0  0  0  0  0  0  0  0  0  0  0
    1.1818   -5.6612   28.8399 C   0  0  0  0  0  0  0  0  0  0  0  0
   -1.2067   -7.3287   17.7772 C   0  0  0  0  0  0  0  0  0  0  0  0
   -0.0206  -10.5585   16.6210 C   0  0  0  0  0  0  0  0  0  0  0  0
    0.3696  -12.7626   16.2169 O   0  0  0  0  0  0  0  0  0  0  0  0
   -0.6895   -9.5676   17.3297 C   0  0  0  0  0  0  0  0  0  0  0  0
    0.8388   -5.8417   27.5264 C   0  0  0  0  0  0  0  0  0  0  0  0
   -2.0709   -7.6637   18.7817 C   0  0  0  0  0  0  0  0  0  0  0  0
   -0.5279   -8.2168   17.0717 C   0  0  0  0  0  0  0  0  0  0  0  0
    6.9694   -4.0191   27.8190 C   0  0  0  0  0  0  0  0  0  0  0  0
    5.1733   -4.5469   29.8123 C   0  0  0  0  0  0  0  0  0  0  0  0
   -1.7508  -11.3016   18.6072 C   0  0  0  0  0  0  0  0  0  0  0  0
    1.7497   -5.6771   26.4971 C   0  0  0  0  0  0  0  0  0  0  0  0
   -1.5799   -9.9322   18.3468 C   0  0  0  0  0  0  0  0  0  0  0  0
   -1.0871  -12.2214   17.8851 C   0  0  0  0  0  0  0  0  0  0  0  0
   -2.2706   -8.9669   19.0691 C   0  0  0  0  0  0  0  0  0  0  0  0
    3.0279   -5.3073   26.8197 C   0  0  0  0  0  0  0  0  0  0  0  0
    7.3282   -3.8948   29.1186 C   0  0  0  0  0  0  0  0  0  0  0  0
  1  3  4  0
  1  7  4  0
  2  3  1  0
  2  6  4  0
  2 16  4  0
  3 22  4  0
  4  9  4  0
  4 10  1  0
  4 20  4  0
  5 16  4  0
  5 23  4  0
  6 15  4  0
  7 12  4  0
  8 13  4  0
  8 14  4  0
  9 11  4  0
 11 14  4  0
 11 19  4  0
 12 18  4  0
 13 21  4  0
 15 23  4  0
 17 19  4  0
 17 20  4  0
 18 22  4  0
 19 21  4  0
M  END
$$$$

 Created by Python create_sdf_string function

 23 25  0  0  0  0  0  0  0  0999 V2000
    2.4610   -5.3070   29.1240 C   0  0  0  0  0  0  0  0  0  0  0  0
    4.7710   -4.6952   28.4803 C   0  0  0  0  0  0  0  0  0  0  0  0
    3.4047   -5.1087   28.1314 C   0  0  0  0  0  0  0  0  0  0  0  0
   -0.2234  -11.8615   16.8874 C   0  0  0  0  0  0  0  0  0  0  0  0
    6.4491   -4.1532   30.1213 C   0  0  0  0  0  0  0  0  0  0  0  0
    5.7060   -4.4340   27.4975 C   0  0  0  0  0  0  0  0  0  0  0  0
    1.1818   -5.6612   28.8399 C   0  0  0  0  0  0  0  0  0  0  0  0
   -1.2067   -7.3287   17.7772 C   0  0  0  0  0  0  0  0  0  0  0  0
   -0.0206  -10.5585   16.6210 C   0  0  0  0  0  0  0  0  0  0  0  0
    0.3696  -12.7626   16.2169 O   0  0  0  0  0  0  0  0  0  0  0  0
   -0.6895   -9.5676   17.3297 C   0  0  0  0  0  0  0  0  0  0  0  0
    0.8388   -5.8417   27.5264 C   0  0  0  0  0  0  0  0  0  0  0  0
   -2.0709   -7.6637   18.7817 C   0  0  0  0  0  0  0  0  0  0  0  0
   -0.5279   -8.2168   17.0717 C   0  0  0  0  0  0  0  0  0  0  0  0
    6.9694   -4.0191   27.8190 C   0  0  0  0  0  0  0  0  0  0  0  0
    5.1733   -4.5469   29.8123 C   0  0  0  0  0  0  0  0  0  0  0  0
   -1.7508  -11.3016   18.6072 C   0  0  0  0  0  0  0  0  0  0  0  0
    1.7497   -5.6771   26.4971 C   0  0  0  0  0  0  0  0  0  0  0  0
   -1.5799   -9.9322   18.3468 C   0  0  0  0  0  0  0  0  0  0  0  0
   -1.0871  -12.2214   17.8851 C   0  0  0  0  0  0  0  0  0  0  0  0
   -2.2706   -8.9669   19.0691 C   0  0  0  0  0  0  0  0  0  0  0  0
    3.0279   -5.3073   26.8197 C   0  0  0  0  0  0  0  0  0  0  0  0
    7.3282   -3.8948   29.1186 C   0  0  0  0  0  0  0  0  0  0  0  0
  1  3  4  0
  1  7  4  0
  2  3  1  0
  2  6  4  0
  2 16  4  0
  3 22  4  0
  4  9  4  0
  4 10  1  0
  4 20  4  0
  5 16  4  0
  5 23  4  0
  6 15  4  0
  7 12  4  0
  8 13  4  0
  8 14  4  0
  9 11  4  0
 11 14  4  0
 11 19  4  0
 12 18  4  0
 13 21  4  0
 15 23  4  0
 17 19  4  0
 17 20  4  0
 18 22  4  0
 19 21  4  0
M  END
$$$$

 Created by Python create_sdf_string function

 23 25  0  0  0  0  0  0  0  0999 V2000
    2.4610   -5.3070   29.1240 C   0  0  0  0  0  0  0  0  0  0  0  0
    4.7710   -4.6952   28.4803 C   0  0  0  0  0  0  0  0  0  0  0  0
    3.4047   -5.1087   28.1314 C   0  0  0  0  0  0  0  0  0  0  0  0
   -0.2234  -11.8615   16.8874 C   0  0  0  0  0  0  0  0  0  0  0  0
    6.4491   -4.1532   30.1213 C   0  0  0  0  0  0  0  0  0  0  0  0
    5.7060   -4.4340   27.4975 C   0  0  0  0  0  0  0  0  0  0  0  0
    1.1818   -5.6612   28.8399 C   0  0  0  0  0  0  0  0  0  0  0  0
   -1.2067   -7.3287   17.7772 C   0  0  0  0  0  0  0  0  0  0  0  0
   -0.0206  -10.5585   16.6210 C   0  0  0  0  0  0  0  0  0  0  0  0
    0.3696  -12.7626   16.2169 O   0  0  0  0  0  0  0  0  0  0  0  0
   -0.6895   -9.5676   17.3297 C   0  0  0  0  0  0  0  0  0  0  0  0
    0.8388   -5.8417   27.5264 C   0  0  0  0  0  0  0  0  0  0  0  0
   -2.0709   -7.6637   18.7817 C   0  0  0  0  0  0  0  0  0  0  0  0
   -0.5279   -8.2168   17.0717 C   0  0  0  0  0  0  0  0  0  0  0  0
    6.9694   -4.0191   27.8190 C   0  0  0  0  0  0  0  0  0  0  0  0
    5.1733   -4.5469   29.8123 C   0  0  0  0  0  0  0  0  0  0  0  0
   -1.7508  -11.3016   18.6072 C   0  0  0  0  0  0  0  0  0  0  0  0
    1.7497   -5.6771   26.4971 C   0  0  0  0  0  0  0  0  0  0  0  0
   -1.5799   -9.9322   18.3468 C   0  0  0  0  0  0  0  0  0  0  0  0
   -1.0871  -12.2214   17.8851 C   0  0  0  0  0  0  0  0  0  0  0  0
   -2.2706   -8.9669   19.0691 C   0  0  0  0  0  0  0  0  0  0  0  0
    3.0279   -5.3073   26.8197 C   0  0  0  0  0  0  0  0  0  0  0  0
    7.3282   -3.8948   29.1186 C   0  0  0  0  0  0  0  0  0  0  0  0
  1  3  4  0
  1  7  4  0
  2  3  1  0
  2  6  4  0
  2 16  4  0
  3 22  4  0
  4  9  4  0
  4 10  1  0
  4 20  4  0
  5 16  4  0
  5 23  4  0
  6 15  4  0
  7 12  4  0
  8 13  4  0
  8 14  4  0
  9 11  4  0
 11 14  4  0
 11 19  4  0
 12 18  4  0
 13 21  4  0
 15 23  4  0
 17 19  4  0
 17 20  4  0
 18 22  4  0
 19 21  4  0
M  END
$$$$

 Created by Python create_sdf_string function

 23 25  0  0  0  0  0  0  0  0999 V2000
    2.4610   -5.3070   29.1240 C   0  0  0  0  0  0  0  0  0  0  0  0
    4.7710   -4.6952   28.4803 C   0  0  0  0  0  0  0  0  0  0  0  0
    3.4047   -5.1087   28.1314 C   0  0  0  0  0  0  0  0  0  0  0  0
   -0.2234  -11.8615   16.8874 C   0  0  0  0  0  0  0  0  0  0  0  0
    6.4491   -4.1532   30.1213 C   0  0  0  0  0  0  0  0  0  0  0  0
    5.7060   -4.4340   27.4975 C   0  0  0  0  0  0  0  0  0  0  0  0
    1.1818   -5.6612   28.8399 C   0  0  0  0  0  0  0  0  0  0  0  0
   -1.2067   -7.3287   17.7772 C   0  0  0  0  0  0  0  0  0  0  0  0
   -0.0206  -10.5585   16.6210 C   0  0  0  0  0  0  0  0  0  0  0  0
    0.3696  -12.7626   16.2169 O   0  0  0  0  0  0  0  0  0  0  0  0
   -0.6895   -9.5676   17.3297 C   0  0  0  0  0  0  0  0  0  0  0  0
    0.8388   -5.8417   27.5264 C   0  0  0  0  0  0  0  0  0  0  0  0
   -2.0709   -7.6637   18.7817 C   0  0  0  0  0  0  0  0  0  0  0  0
   -0.5279   -8.2168   17.0717 C   0  0  0  0  0  0  0  0  0  0  0  0
    6.9694   -4.0191   27.8190 C   0  0  0  0  0  0  0  0  0  0  0  0
    5.1733   -4.5469   29.8123 C   0  0  0  0  0  0  0  0  0  0  0  0
   -1.7508  -11.3016   18.6072 C   0  0  0  0  0  0  0  0  0  0  0  0
    1.7497   -5.6771   26.4971 C   0  0  0  0  0  0  0  0  0  0  0  0
   -1.5799   -9.9322   18.3468 C   0  0  0  0  0  0  0  0  0  0  0  0
   -1.0871  -12.2214   17.8851 C   0  0  0  0  0  0  0  0  0  0  0  0
   -2.2706   -8.9669   19.0691 C   0  0  0  0  0  0  0  0  0  0  0  0
    3.0279   -5.3073   26.8197 C   0  0  0  0  0  0  0  0  0  0  0  0
    7.3282   -3.8948   29.1186 C   0  0  0  0  0  0  0  0  0  0  0  0
  1  3  4  0
  1  7  4  0
  2  3  1  0
  2  6  4  0
  2 16  4  0
  3 22  4  0
  4  9  4  0
  4 10  1  0
  4 20  4  0
  5 16  4  0
  5 23  4  0
  6 15  4  0
  7 12  4  0
  8 13  4  0
  8 14  4  0
  9 11  4  0
 11 14  4  0
 11 19  4  0
 12 18  4  0
 13 21  4  0
 15 23  4  0
 17 19  4  0
 17 20  4  0
 18 22  4  0
 19 21  4  0
M  END
$$$$

 Created by Python create_sdf_string function

 23 25  0  0  0  0  0  0  0  0999 V2000
    2.4610   -5.3070   29.1240 C   0  0  0  0  0  0  0  0  0  0  0  0
    4.7710   -4.6952   28.4803 C   0  0  0  0  0  0  0  0  0  0  0  0
    3.4047   -5.1087   28.1314 C   0  0  0  0  0  0  0  0  0  0  0  0
   -0.2234  -11.8615   16.8874 C   0  0  0  0  0  0  0  0  0  0  0  0
    6.4491   -4.1532   30.1213 C   0  0  0  0  0  0  0  0  0  0  0  0
    5.7060   -4.4340   27.4975 C   0  0  0  0  0  0  0  0  0  0  0  0
    1.1818   -5.6612   28.8399 C   0  0  0  0  0  0  0  0  0  0  0  0
   -1.2067   -7.3287   17.7772 C   0  0  0  0  0  0  0  0  0  0  0  0
   -0.0206  -10.5585   16.6210 C   0  0  0  0  0  0  0  0  0  0  0  0
    0.3696  -12.7626   16.2169 O   0  0  0  0  0  0  0  0  0  0  0  0
   -0.6895   -9.5676   17.3297 C   0  0  0  0  0  0  0  0  0  0  0  0
    0.8388   -5.8417   27.5264 C   0  0  0  0  0  0  0  0  0  0  0  0
   -2.0709   -7.6637   18.7817 C   0  0  0  0  0  0  0  0  0  0  0  0
   -0.5279   -8.2168   17.0717 C   0  0  0  0  0  0  0  0  0  0  0  0
    6.9694   -4.0191   27.8190 C   0  0  0  0  0  0  0  0  0  0  0  0
    5.1733   -4.5469   29.8123 C   0  0  0  0  0  0  0  0  0  0  0  0
   -1.7508  -11.3016   18.6072 C   0  0  0  0  0  0  0  0  0  0  0  0
    1.7497   -5.6771   26.4971 C   0  0  0  0  0  0  0  0  0  0  0  0
   -1.5799   -9.9322   18.3468 C   0  0  0  0  0  0  0  0  0  0  0  0
   -1.0871  -12.2214   17.8851 C   0  0  0  0  0  0  0  0  0  0  0  0
   -2.2706   -8.9669   19.0691 C   0  0  0  0  0  0  0  0  0  0  0  0
    3.0279   -5.3073   26.8197 C   0  0  0  0  0  0  0  0  0  0  0  0
    7.3282   -3.8948   29.1186 C   0  0  0  0  0  0  0  0  0  0  0  0
  1  3  4  0
  1  7  4  0
  2  3  1  0
  2  6  4  0
  2 16  4  0
  3 22  4  0
  4  9  4  0
  4 10  1  0
  4 20  4  0
  5 16  4  0
  5 23  4  0
  6 15  4  0
  7 12  4  0
  8 13  4  0
  8 14  4  0
  9 11  4  0
 11 14  4  0
 11 19  4  0
 12 18  4  0
 13 21  4  0
 15 23  4  0
 17 19  4  0
 17 20  4  0
 18 22  4  0
 19 21  4  0
M  END
$$$$

 Created by Python create_sdf_string function

 23 25  0  0  0  0  0  0  0  0999 V2000
    2.4610   -5.3070   29.1240 C   0  0  0  0  0  0  0  0  0  0  0  0
    4.7710   -4.6952   28.4803 C   0  0  0  0  0  0  0  0  0  0  0  0
    3.4047   -5.1087   28.1314 C   0  0  0  0  0  0  0  0  0  0  0  0
   -0.2234  -11.8615   16.8874 C   0  0  0  0  0  0  0  0  0  0  0  0
    6.4491   -4.1532   30.1213 C   0  0  0  0  0  0  0  0  0  0  0  0
    5.7060   -4.4340   27.4975 C   0  0  0  0  0  0  0  0  0  0  0  0
    1.1818   -5.6612   28.8399 C   0  0  0  0  0  0  0  0  0  0  0  0
   -1.2067   -7.3287   17.7772 C   0  0  0  0  0  0  0  0  0  0  0  0
   -0.0206  -10.5585   16.6210 C   0  0  0  0  0  0  0  0  0  0  0  0
    0.3696  -12.7626   16.2169 O   0  0  0  0  0  0  0  0  0  0  0  0
   -0.6895   -9.5676   17.3297 C   0  0  0  0  0  0  0  0  0  0  0  0
    0.8388   -5.8417   27.5264 C   0  0  0  0  0  0  0  0  0  0  0  0
   -2.0709   -7.6637   18.7817 C   0  0  0  0  0  0  0  0  0  0  0  0
   -0.5279   -8.2168   17.0717 C   0  0  0  0  0  0  0  0  0  0  0  0
    6.9694   -4.0191   27.8190 C   0  0  0  0  0  0  0  0  0  0  0  0
    5.1733   -4.5469   29.8123 C   0  0  0  0  0  0  0  0  0  0  0  0
   -1.7508  -11.3016   18.6072 C   0  0  0  0  0  0  0  0  0  0  0  0
    1.7497   -5.6771   26.4971 C   0  0  0  0  0  0  0  0  0  0  0  0
   -1.5799   -9.9322   18.3468 C   0  0  0  0  0  0  0  0  0  0  0  0
   -1.0871  -12.2214   17.8851 C   0  0  0  0  0  0  0  0  0  0  0  0
   -2.2706   -8.9669   19.0691 C   0  0  0  0  0  0  0  0  0  0  0  0
    3.0279   -5.3073   26.8197 C   0  0  0  0  0  0  0  0  0  0  0  0
    7.3282   -3.8948   29.1186 C   0  0  0  0  0  0  0  0  0  0  0  0
  1  3  4  0
  1  7  4  0
  2  3  1  0
  2  6  4  0
  2 16  4  0
  3 22  4  0
  4  9  4  0
  4 10  1  0
  4 20  4  0
  5 16  4  0
  5 23  4  0
  6 15  4  0
  7 12  4  0
  8 13  4  0
  8 14  4  0
  9 11  4  0
 11 14  4  0
 11 19  4  0
 12 18  4  0
 13 21  4  0
 15 23  4  0
 17 19  4  0
 17 20  4  0
 18 22  4  0
 19 21  4  0
M  END
$$$$

 Created by Python create_sdf_string function

 23 25  0  0  0  0  0  0  0  0999 V2000
    2.4610   -5.3070   29.1240 C   0  0  0  0  0  0  0  0  0  0  0  0
    4.7710   -4.6952   28.4803 C   0  0  0  0  0  0  0  0  0  0  0  0
    3.4047   -5.1087   28.1314 C   0  0  0  0  0  0  0  0  0  0  0  0
   -0.2234  -11.8615   16.8874 C   0  0  0  0  0  0  0  0  0  0  0  0
    6.4491   -4.1532   30.1213 C   0  0  0  0  0  0  0  0  0  0  0  0
    5.7060   -4.4340   27.4975 C   0  0  0  0  0  0  0  0  0  0  0  0
    1.1818   -5.6612   28.8399 C   0  0  0  0  0  0  0  0  0  0  0  0
   -1.2067   -7.3287   17.7772 C   0  0  0  0  0  0  0  0  0  0  0  0
   -0.0206  -10.5585   16.6210 C   0  0  0  0  0  0  0  0  0  0  0  0
    0.3696  -12.7626   16.2169 O   0  0  0  0  0  0  0  0  0  0  0  0
   -0.6895   -9.5676   17.3297 C   0  0  0  0  0  0  0  0  0  0  0  0
    0.8388   -5.8417   27.5264 C   0  0  0  0  0  0  0  0  0  0  0  0
   -2.0709   -7.6637   18.7817 C   0  0  0  0  0  0  0  0  0  0  0  0
   -0.5279   -8.2168   17.0717 C   0  0  0  0  0  0  0  0  0  0  0  0
    6.9694   -4.0191   27.8190 C   0  0  0  0  0  0  0  0  0  0  0  0
    5.1733   -4.5469   29.8123 C   0  0  0  0  0  0  0  0  0  0  0  0
   -1.7508  -11.3016   18.6072 C   0  0  0  0  0  0  0  0  0  0  0  0
    1.7497   -5.6771   26.4971 C   0  0  0  0  0  0  0  0  0  0  0  0
   -1.5799   -9.9322   18.3468 C   0  0  0  0  0  0  0  0  0  0  0  0
   -1.0871  -12.2214   17.8851 C   0  0  0  0  0  0  0  0  0  0  0  0
   -2.2706   -8.9669   19.0691 C   0  0  0  0  0  0  0  0  0  0  0  0
    3.0279   -5.3073   26.8197 C   0  0  0  0  0  0  0  0  0  0  0  0
    7.3282   -3.8948   29.1186 C   0  0  0  0  0  0  0  0  0  0  0  0
  1  3  4  0
  1  7  4  0
  2  3  1  0
  2  6  4  0
  2 16  4  0
  3 22  4  0
  4  9  4  0
  4 10  1  0
  4 20  4  0
  5 16  4  0
  5 23  4  0
  6 15  4  0
  7 12  4  0
  8 13  4  0
  8 14  4  0
  9 11  4  0
 11 14  4  0
 11 19  4  0
 12 18  4  0
 13 21  4  0
 15 23  4  0
 17 19  4  0
 17 20  4  0
 18 22  4  0
 19 21  4  0
M  END
$$$$

 Created by Python create_sdf_string function

 23 25  0  0  0  0  0  0  0  0999 V2000
    2.4610   -5.3070   29.1240 C   0  0  0  0  0  0  0  0  0  0  0  0
    4.7710   -4.6952   28.4803 C   0  0  0  0  0  0  0  0  0  0  0  0
    3.4047   -5.1087   28.1314 C   0  0  0  0  0  0  0  0  0  0  0  0
   -0.2234  -11.8615   16.8874 C   0  0  0  0  0  0  0  0  0  0  0  0
    6.4491   -4.1532   30.1213 C   0  0  0  0  0  0  0  0  0  0  0  0
    5.7060   -4.4340   27.4975 C   0  0  0  0  0  0  0  0  0  0  0  0
    1.1818   -5.6612   28.8399 C   0  0  0  0  0  0  0  0  0  0  0  0
   -1.2067   -7.3287   17.7772 C   0  0  0  0  0  0  0  0  0  0  0  0
   -0.0206  -10.5585   16.6210 C   0  0  0  0  0  0  0  0  0  0  0  0
    0.3696  -12.7626   16.2169 O   0  0  0  0  0  0  0  0  0  0  0  0
   -0.6895   -9.5676   17.3297 C   0  0  0  0  0  0  0  0  0  0  0  0
    0.8388   -5.8417   27.5264 C   0  0  0  0  0  0  0  0  0  0  0  0
   -2.0709   -7.6637   18.7817 C   0  0  0  0  0  0  0  0  0  0  0  0
   -0.5279   -8.2168   17.0717 C   0  0  0  0  0  0  0  0  0  0  0  0
    6.9694   -4.0191   27.8190 C   0  0  0  0  0  0  0  0  0  0  0  0
    5.1733   -4.5469   29.8123 C   0  0  0  0  0  0  0  0  0  0  0  0
   -1.7508  -11.3016   18.6072 C   0  0  0  0  0  0  0  0  0  0  0  0
    1.7497   -5.6771   26.4971 C   0  0  0  0  0  0  0  0  0  0  0  0
   -1.5799   -9.9322   18.3468 C   0  0  0  0  0  0  0  0  0  0  0  0
   -1.0871  -12.2214   17.8851 C   0  0  0  0  0  0  0  0  0  0  0  0
   -2.2706   -8.9669   19.0691 C   0  0  0  0  0  0  0  0  0  0  0  0
    3.0279   -5.3073   26.8197 C   0  0  0  0  0  0  0  0  0  0  0  0
    7.3282   -3.8948   29.1186 C   0  0  0  0  0  0  0  0  0  0  0  0
  1  3  4  0
  1  7  4  0
  2  3  1  0
  2  6  4  0
  2 16  4  0
  3 22  4  0
  4  9  4  0
  4 10  1  0
  4 20  4  0
  5 16  4  0
  5 23  4  0
  6 15  4  0
  7 12  4  0
  8 13  4  0
  8 14  4  0
  9 11  4  0
 11 14  4  0
 11 19  4  0
 12 18  4  0
 13 21  4  0
 15 23  4  0
 17 19  4  0
 17 20  4  0
 18 22  4  0
 19 21  4  0
M  END
$$$$

 Created by Python create_sdf_string function

 23 25  0  0  0  0  0  0  0  0999 V2000
    2.4610   -5.3070   29.1240 C   0  0  0  0  0  0  0  0  0  0  0  0
    4.7710   -4.6952   28.4803 C   0  0  0  0  0  0  0  0  0  0  0  0
    3.4047   -5.1087   28.1314 C   0  0  0  0  0  0  0  0  0  0  0  0
   -0.2234  -11.8615   16.8874 C   0  0  0  0  0  0  0  0  0  0  0  0
    6.4491   -4.1532   30.1213 C   0  0  0  0  0  0  0  0  0  0  0  0
    5.7060   -4.4340   27.4975 C   0  0  0  0  0  0  0  0  0  0  0  0
    1.1818   -5.6612   28.8399 C   0  0  0  0  0  0  0  0  0  0  0  0
   -1.2067   -7.3287   17.7772 C   0  0  0  0  0  0  0  0  0  0  0  0
   -0.0206  -10.5585   16.6210 C   0  0  0  0  0  0  0  0  0  0  0  0
    0.3696  -12.7626   16.2169 O   0  0  0  0  0  0  0  0  0  0  0  0
   -0.6895   -9.5676   17.3297 C   0  0  0  0  0  0  0  0  0  0  0  0
    0.8388   -5.8417   27.5264 C   0  0  0  0  0  0  0  0  0  0  0  0
   -2.0709   -7.6637   18.7817 C   0  0  0  0  0  0  0  0  0  0  0  0
   -0.5279   -8.2168   17.0717 C   0  0  0  0  0  0  0  0  0  0  0  0
    6.9694   -4.0191   27.8190 C   0  0  0  0  0  0  0  0  0  0  0  0
    5.1733   -4.5469   29.8123 C   0  0  0  0  0  0  0  0  0  0  0  0
   -1.7508  -11.3016   18.6072 C   0  0  0  0  0  0  0  0  0  0  0  0
    1.7497   -5.6771   26.4971 C   0  0  0  0  0  0  0  0  0  0  0  0
   -1.5799   -9.9322   18.3468 C   0  0  0  0  0  0  0  0  0  0  0  0
   -1.0871  -12.2214   17.8851 C   0  0  0  0  0  0  0  0  0  0  0  0
   -2.2706   -8.9669   19.0691 C   0  0  0  0  0  0  0  0  0  0  0  0
    3.0279   -5.3073   26.8197 C   0  0  0  0  0  0  0  0  0  0  0  0
    7.3282   -3.8948   29.1186 C   0  0  0  0  0  0  0  0  0  0  0  0
  1  3  4  0
  1  7  4  0
  2  3  1  0
  2  6  4  0
  2 16  4  0
  3 22  4  0
  4  9  4  0
  4 10  1  0
  4 20  4  0
  5 16  4  0
  5 23  4  0
  6 15  4  0
  7 12  4  0
  8 13  4  0
  8 14  4  0
  9 11  4  0
 11 14  4  0
 11 19  4  0
 12 18  4  0
 13 21  4  0
 15 23  4  0
 17 19  4  0
 17 20  4  0
 18 22  4  0
 19 21  4  0
M  END
$$$$

 Created by Python create_sdf_string function

 23 25  0  0  0  0  0  0  0  0999 V2000
    2.4610   -5.3070   29.1240 C   0  0  0  0  0  0  0  0  0  0  0  0
    4.7710   -4.6952   28.4803 C   0  0  0  0  0  0  0  0  0  0  0  0
    3.4047   -5.1087   28.1314 C   0  0  0  0  0  0  0  0  0  0  0  0
   -0.2234  -11.8615   16.8874 C   0  0  0  0  0  0  0  0  0  0  0  0
    6.4491   -4.1532   30.1213 C   0  0  0  0  0  0  0  0  0  0  0  0
    5.7060   -4.4340   27.4975 C   0  0  0  0  0  0  0  0  0  0  0  0
    1.1818   -5.6612   28.8399 C   0  0  0  0  0  0  0  0  0  0  0  0
   -1.2067   -7.3287   17.7772 C   0  0  0  0  0  0  0  0  0  0  0  0
   -0.0206  -10.5585   16.6210 C   0  0  0  0  0  0  0  0  0  0  0  0
    0.3696  -12.7626   16.2169 O   0  0  0  0  0  0  0  0  0  0  0  0
   -0.6895   -9.5676   17.3297 C   0  0  0  0  0  0  0  0  0  0  0  0
    0.8388   -5.8417   27.5264 C   0  0  0  0  0  0  0  0  0  0  0  0
   -2.0709   -7.6637   18.7817 C   0  0  0  0  0  0  0  0  0  0  0  0
   -0.5279   -8.2168   17.0717 C   0  0  0  0  0  0  0  0  0  0  0  0
    6.9694   -4.0191   27.8190 C   0  0  0  0  0  0  0  0  0  0  0  0
    5.1733   -4.5469   29.8123 C   0  0  0  0  0  0  0  0  0  0  0  0
   -1.7508  -11.3016   18.6072 C   0  0  0  0  0  0  0  0  0  0  0  0
    1.7497   -5.6771   26.4971 C   0  0  0  0  0  0  0  0  0  0  0  0
   -1.5799   -9.9322   18.3468 C   0  0  0  0  0  0  0  0  0  0  0  0
   -1.0871  -12.2214   17.8851 C   0  0  0  0  0  0  0  0  0  0  0  0
   -2.2706   -8.9669   19.0691 C   0  0  0  0  0  0  0  0  0  0  0  0
    3.0279   -5.3073   26.8197 C   0  0  0  0  0  0  0  0  0  0  0  0
    7.3282   -3.8948   29.1186 C   0  0  0  0  0  0  0  0  0  0  0  0
  1  3  4  0
  1  7  4  0
  2  3  1  0
  2  6  4  0
  2 16  4  0
  3 22  4  0
  4  9  4  0
  4 10  1  0
  4 20  4  0
  5 16  4  0
  5 23  4  0
  6 15  4  0
  7 12  4  0
  8 13  4  0
  8 14  4  0
  9 11  4  0
 11 14  4  0
 11 19  4  0
 12 18  4  0
 13 21  4  0
 15 23  4  0
 17 19  4  0
 17 20  4  0
 18 22  4  0
 19 21  4  0
M  END
$$$$

 Created by Python create_sdf_string function

 23 25  0  0  0  0  0  0  0  0999 V2000
    2.4610   -5.3070   29.1240 C   0  0  0  0  0  0  0  0  0  0  0  0
    4.7710   -4.6952   28.4803 C   0  0  0  0  0  0  0  0  0  0  0  0
    3.4047   -5.1087   28.1314 C   0  0  0  0  0  0  0  0  0  0  0  0
   -0.2234  -11.8615   16.8874 C   0  0  0  0  0  0  0  0  0  0  0  0
    6.4491   -4.1532   30.1213 C   0  0  0  0  0  0  0  0  0  0  0  0
    5.7060   -4.4340   27.4975 C   0  0  0  0  0  0  0  0  0  0  0  0
    1.1818   -5.6612   28.8399 C   0  0  0  0  0  0  0  0  0  0  0  0
   -1.2067   -7.3287   17.7772 C   0  0  0  0  0  0  0  0  0  0  0  0
   -0.0206  -10.5585   16.6210 C   0  0  0  0  0  0  0  0  0  0  0  0
    0.3696  -12.7626   16.2169 O   0  0  0  0  0  0  0  0  0  0  0  0
   -0.6895   -9.5676   17.3297 C   0  0  0  0  0  0  0  0  0  0  0  0
    0.8388   -5.8417   27.5264 C   0  0  0  0  0  0  0  0  0  0  0  0
   -2.0709   -7.6637   18.7817 C   0  0  0  0  0  0  0  0  0  0  0  0
   -0.5279   -8.2168   17.0717 C   0  0  0  0  0  0  0  0  0  0  0  0
    6.9694   -4.0191   27.8190 C   0  0  0  0  0  0  0  0  0  0  0  0
    5.1733   -4.5469   29.8123 C   0  0  0  0  0  0  0  0  0  0  0  0
   -1.7508  -11.3016   18.6072 C   0  0  0  0  0  0  0  0  0  0  0  0
    1.7497   -5.6771   26.4971 C   0  0  0  0  0  0  0  0  0  0  0  0
   -1.5799   -9.9322   18.3468 C   0  0  0  0  0  0  0  0  0  0  0  0
   -1.0871  -12.2214   17.8851 C   0  0  0  0  0  0  0  0  0  0  0  0
   -2.2706   -8.9669   19.0691 C   0  0  0  0  0  0  0  0  0  0  0  0
    3.0279   -5.3073   26.8197 C   0  0  0  0  0  0  0  0  0  0  0  0
    7.3282   -3.8948   29.1186 C   0  0  0  0  0  0  0  0  0  0  0  0
  1  3  4  0
  1  7  4  0
  2  3  1  0
  2  6  4  0
  2 16  4  0
  3 22  4  0
  4  9  4  0
  4 10  1  0
  4 20  4  0
  5 16  4  0
  5 23  4  0
  6 15  4  0
  7 12  4  0
  8 13  4  0
  8 14  4  0
  9 11  4  0
 11 14  4  0
 11 19  4  0
 12 18  4  0
 13 21  4  0
 15 23  4  0
 17 19  4  0
 17 20  4  0
 18 22  4  0
 19 21  4  0
M  END
$$$$

 Created by Python create_sdf_string function

 23 25  0  0  0  0  0  0  0  0999 V2000
    2.4610   -5.3070   29.1240 C   0  0  0  0  0  0  0  0  0  0  0  0
    4.7710   -4.6952   28.4803 C   0  0  0  0  0  0  0  0  0  0  0  0
    3.4047   -5.1087   28.1314 C   0  0  0  0  0  0  0  0  0  0  0  0
   -0.2234  -11.8615   16.8874 C   0  0  0  0  0  0  0  0  0  0  0  0
    6.4491   -4.1532   30.1213 C   0  0  0  0  0  0  0  0  0  0  0  0
    5.7060   -4.4340   27.4975 C   0  0  0  0  0  0  0  0  0  0  0  0
    1.1818   -5.6612   28.8399 C   0  0  0  0  0  0  0  0  0  0  0  0
   -1.2067   -7.3287   17.7772 C   0  0  0  0  0  0  0  0  0  0  0  0
   -0.0206  -10.5585   16.6210 C   0  0  0  0  0  0  0  0  0  0  0  0
    0.3696  -12.7626   16.2169 O   0  0  0  0  0  0  0  0  0  0  0  0
   -0.6895   -9.5676   17.3297 C   0  0  0  0  0  0  0  0  0  0  0  0
    0.8388   -5.8417   27.5264 C   0  0  0  0  0  0  0  0  0  0  0  0
   -2.0709   -7.6637   18.7817 C   0  0  0  0  0  0  0  0  0  0  0  0
   -0.5279   -8.2168   17.0717 C   0  0  0  0  0  0  0  0  0  0  0  0
    6.9694   -4.0191   27.8190 C   0  0  0  0  0  0  0  0  0  0  0  0
    5.1733   -4.5469   29.8123 C   0  0  0  0  0  0  0  0  0  0  0  0
   -1.7508  -11.3016   18.6072 C   0  0  0  0  0  0  0  0  0  0  0  0
    1.7497   -5.6771   26.4971 C   0  0  0  0  0  0  0  0  0  0  0  0
   -1.5799   -9.9322   18.3468 C   0  0  0  0  0  0  0  0  0  0  0  0
   -1.0871  -12.2214   17.8851 C   0  0  0  0  0  0  0  0  0  0  0  0
   -2.2706   -8.9669   19.0691 C   0  0  0  0  0  0  0  0  0  0  0  0
    3.0279   -5.3073   26.8197 C   0  0  0  0  0  0  0  0  0  0  0  0
    7.3282   -3.8948   29.1186 C   0  0  0  0  0  0  0  0  0  0  0  0
  1  3  4  0
  1  7  4  0
  2  3  1  0
  2  6  4  0
  2 16  4  0
  3 22  4  0
  4  9  4  0
  4 10  1  0
  4 20  4  0
  5 16  4  0
  5 23  4  0
  6 15  4  0
  7 12  4  0
  8 13  4  0
  8 14  4  0
  9 11  4  0
 11 14  4  0
 11 19  4  0
 12 18  4  0
 13 21  4  0
 15 23  4  0
 17 19  4  0
 17 20  4  0
 18 22  4  0
 19 21  4  0
M  END
$$$$

 Created by Python create_sdf_string function

 23 25  0  0  0  0  0  0  0  0999 V2000
    2.4610   -5.3070   29.1240 C   0  0  0  0  0  0  0  0  0  0  0  0
    4.7710   -4.6952   28.4803 C   0  0  0  0  0  0  0  0  0  0  0  0
    3.4047   -5.1087   28.1314 C   0  0  0  0  0  0  0  0  0  0  0  0
   -0.2234  -11.8615   16.8874 C   0  0  0  0  0  0  0  0  0  0  0  0
    6.4491   -4.1532   30.1213 C   0  0  0  0  0  0  0  0  0  0  0  0
    5.7060   -4.4340   27.4975 C   0  0  0  0  0  0  0  0  0  0  0  0
    1.1818   -5.6612   28.8399 C   0  0  0  0  0  0  0  0  0  0  0  0
   -1.2067   -7.3287   17.7772 C   0  0  0  0  0  0  0  0  0  0  0  0
   -0.0206  -10.5585   16.6210 C   0  0  0  0  0  0  0  0  0  0  0  0
    0.3696  -12.7626   16.2169 O   0  0  0  0  0  0  0  0  0  0  0  0
   -0.6895   -9.5676   17.3297 C   0  0  0  0  0  0  0  0  0  0  0  0
    0.8388   -5.8417   27.5264 C   0  0  0  0  0  0  0  0  0  0  0  0
   -2.0709   -7.6637   18.7817 C   0  0  0  0  0  0  0  0  0  0  0  0
   -0.5279   -8.2168   17.0717 C   0  0  0  0  0  0  0  0  0  0  0  0
    6.9694   -4.0191   27.8190 C   0  0  0  0  0  0  0  0  0  0  0  0
    5.1733   -4.5469   29.8123 C   0  0  0  0  0  0  0  0  0  0  0  0
   -1.7508  -11.3016   18.6072 C   0  0  0  0  0  0  0  0  0  0  0  0
    1.7497   -5.6771   26.4971 C   0  0  0  0  0  0  0  0  0  0  0  0
   -1.5799   -9.9322   18.3468 C   0  0  0  0  0  0  0  0  0  0  0  0
   -1.0871  -12.2214   17.8851 C   0  0  0  0  0  0  0  0  0  0  0  0
   -2.2706   -8.9669   19.0691 C   0  0  0  0  0  0  0  0  0  0  0  0
    3.0279   -5.3073   26.8197 C   0  0  0  0  0  0  0  0  0  0  0  0
    7.3282   -3.8948   29.1186 C   0  0  0  0  0  0  0  0  0  0  0  0
  1  3  4  0
  1  7  4  0
  2  3  1  0
  2  6  4  0
  2 16  4  0
  3 22  4  0
  4  9  4  0
  4 10  1  0
  4 20  4  0
  5 16  4  0
  5 23  4  0
  6 15  4  0
  7 12  4  0
  8 13  4  0
  8 14  4  0
  9 11  4  0
 11 14  4  0
 11 19  4  0
 12 18  4  0
 13 21  4  0
 15 23  4  0
 17 19  4  0
 17 20  4  0
 18 22  4  0
 19 21  4  0
M  END
$$$$

 Created by Python create_sdf_string function

 23 25  0  0  0  0  0  0  0  0999 V2000
    2.4610   -5.3070   29.1240 C   0  0  0  0  0  0  0  0  0  0  0  0
    4.7710   -4.6952   28.4803 C   0  0  0  0  0  0  0  0  0  0  0  0
    3.4047   -5.1087   28.1314 C   0  0  0  0  0  0  0  0  0  0  0  0
   -0.2234  -11.8615   16.8874 C   0  0  0  0  0  0  0  0  0  0  0  0
    6.4491   -4.1532   30.1213 C   0  0  0  0  0  0  0  0  0  0  0  0
    5.7060   -4.4340   27.4975 C   0  0  0  0  0  0  0  0  0  0  0  0
    1.1818   -5.6612   28.8399 C   0  0  0  0  0  0  0  0  0  0  0  0
   -1.2067   -7.3287   17.7772 C   0  0  0  0  0  0  0  0  0  0  0  0
   -0.0206  -10.5585   16.6210 C   0  0  0  0  0  0  0  0  0  0  0  0
    0.3696  -12.7626   16.2169 O   0  0  0  0  0  0  0  0  0  0  0  0
   -0.6895   -9.5676   17.3297 C   0  0  0  0  0  0  0  0  0  0  0  0
    0.8388   -5.8417   27.5264 C   0  0  0  0  0  0  0  0  0  0  0  0
   -2.0709   -7.6637   18.7817 C   0  0  0  0  0  0  0  0  0  0  0  0
   -0.5279   -8.2168   17.0717 C   0  0  0  0  0  0  0  0  0  0  0  0
    6.9694   -4.0191   27.8190 C   0  0  0  0  0  0  0  0  0  0  0  0
    5.1733   -4.5469   29.8123 C   0  0  0  0  0  0  0  0  0  0  0  0
   -1.7508  -11.3016   18.6072 C   0  0  0  0  0  0  0  0  0  0  0  0
    1.7497   -5.6771   26.4971 C   0  0  0  0  0  0  0  0  0  0  0  0
   -1.5799   -9.9322   18.3468 C   0  0  0  0  0  0  0  0  0  0  0  0
   -1.0871  -12.2214   17.8851 C   0  0  0  0  0  0  0  0  0  0  0  0
   -2.2706   -8.9669   19.0691 C   0  0  0  0  0  0  0  0  0  0  0  0
    3.0279   -5.3073   26.8197 C   0  0  0  0  0  0  0  0  0  0  0  0
    7.3282   -3.8948   29.1186 C   0  0  0  0  0  0  0  0  0  0  0  0
  1  3  4  0
  1  7  4  0
  2  3  1  0
  2  6  4  0
  2 16  4  0
  3 22  4  0
  4  9  4  0
  4 10  1  0
  4 20  4  0
  5 16  4  0
  5 23  4  0
  6 15  4  0
  7 12  4  0
  8 13  4  0
  8 14  4  0
  9 11  4  0
 11 14  4  0
 11 19  4  0
 12 18  4  0
 13 21  4  0
 15 23  4  0
 17 19  4  0
 17 20  4  0
 18 22  4  0
 19 21  4  0
M  END
$$$$

 Created by Python create_sdf_string function

 23 25  0  0  0  0  0  0  0  0999 V2000
    2.4610   -5.3070   29.1240 C   0  0  0  0  0  0  0  0  0  0  0  0
    4.7710   -4.6952   28.4803 C   0  0  0  0  0  0  0  0  0  0  0  0
    3.4047   -5.1087   28.1314 C   0  0  0  0  0  0  0  0  0  0  0  0
   -0.2234  -11.8615   16.8874 C   0  0  0  0  0  0  0  0  0  0  0  0
    6.4491   -4.1532   30.1213 C   0  0  0  0  0  0  0  0  0  0  0  0
    5.7060   -4.4340   27.4975 C   0  0  0  0  0  0  0  0  0  0  0  0
    1.1818   -5.6612   28.8399 C   0  0  0  0  0  0  0  0  0  0  0  0
   -1.2067   -7.3287   17.7772 C   0  0  0  0  0  0  0  0  0  0  0  0
   -0.0206  -10.5585   16.6210 C   0  0  0  0  0  0  0  0  0  0  0  0
    0.3696  -12.7626   16.2169 O   0  0  0  0  0  0  0  0  0  0  0  0
   -0.6895   -9.5676   17.3297 C   0  0  0  0  0  0  0  0  0  0  0  0
    0.8388   -5.8417   27.5264 C   0  0  0  0  0  0  0  0  0  0  0  0
   -2.0709   -7.6637   18.7817 C   0  0  0  0  0  0  0  0  0  0  0  0
   -0.5279   -8.2168   17.0717 C   0  0  0  0  0  0  0  0  0  0  0  0
    6.9694   -4.0191   27.8190 C   0  0  0  0  0  0  0  0  0  0  0  0
    5.1733   -4.5469   29.8123 C   0  0  0  0  0  0  0  0  0  0  0  0
   -1.7508  -11.3016   18.6072 C   0  0  0  0  0  0  0  0  0  0  0  0
    1.7497   -5.6771   26.4971 C   0  0  0  0  0  0  0  0  0  0  0  0
   -1.5799   -9.9322   18.3468 C   0  0  0  0  0  0  0  0  0  0  0  0
   -1.0871  -12.2214   17.8851 C   0  0  0  0  0  0  0  0  0  0  0  0
   -2.2706   -8.9669   19.0691 C   0  0  0  0  0  0  0  0  0  0  0  0
    3.0279   -5.3073   26.8197 C   0  0  0  0  0  0  0  0  0  0  0  0
    7.3282   -3.8948   29.1186 C   0  0  0  0  0  0  0  0  0  0  0  0
  1  3  4  0
  1  7  4  0
  2  3  1  0
  2  6  4  0
  2 16  4  0
  3 22  4  0
  4  9  4  0
  4 10  1  0
  4 20  4  0
  5 16  4  0
  5 23  4  0
  6 15  4  0
  7 12  4  0
  8 13  4  0
  8 14  4  0
  9 11  4  0
 11 14  4  0
 11 19  4  0
 12 18  4  0
 13 21  4  0
 15 23  4  0
 17 19  4  0
 17 20  4  0
 18 22  4  0
 19 21  4  0
M  END
$$$$

 Created by Python create_sdf_string function

 23 25  0  0  0  0  0  0  0  0999 V2000
    2.4610   -5.3070   29.1240 C   0  0  0  0  0  0  0  0  0  0  0  0
    4.7710   -4.6952   28.4803 C   0  0  0  0  0  0  0  0  0  0  0  0
    3.4047   -5.1087   28.1314 C   0  0  0  0  0  0  0  0  0  0  0  0
   -0.2234  -11.8615   16.8874 C   0  0  0  0  0  0  0  0  0  0  0  0
    6.4491   -4.1532   30.1213 C   0  0  0  0  0  0  0  0  0  0  0  0
    5.7060   -4.4340   27.4975 C   0  0  0  0  0  0  0  0  0  0  0  0
    1.1818   -5.6612   28.8399 C   0  0  0  0  0  0  0  0  0  0  0  0
   -1.2067   -7.3287   17.7772 C   0  0  0  0  0  0  0  0  0  0  0  0
   -0.0206  -10.5585   16.6210 C   0  0  0  0  0  0  0  0  0  0  0  0
    0.3696  -12.7626   16.2169 O   0  0  0  0  0  0  0  0  0  0  0  0
   -0.6895   -9.5676   17.3297 C   0  0  0  0  0  0  0  0  0  0  0  0
    0.8388   -5.8417   27.5264 C   0  0  0  0  0  0  0  0  0  0  0  0
   -2.0709   -7.6637   18.7817 C   0  0  0  0  0  0  0  0  0  0  0  0
   -0.5279   -8.2168   17.0717 C   0  0  0  0  0  0  0  0  0  0  0  0
    6.9694   -4.0191   27.8190 C   0  0  0  0  0  0  0  0  0  0  0  0
    5.1733   -4.5469   29.8123 C   0  0  0  0  0  0  0  0  0  0  0  0
   -1.7508  -11.3016   18.6072 C   0  0  0  0  0  0  0  0  0  0  0  0
    1.7497   -5.6771   26.4971 C   0  0  0  0  0  0  0  0  0  0  0  0
   -1.5799   -9.9322   18.3468 C   0  0  0  0  0  0  0  0  0  0  0  0
   -1.0871  -12.2214   17.8851 C   0  0  0  0  0  0  0  0  0  0  0  0
   -2.2706   -8.9669   19.0691 C   0  0  0  0  0  0  0  0  0  0  0  0
    3.0279   -5.3073   26.8197 C   0  0  0  0  0  0  0  0  0  0  0  0
    7.3282   -3.8948   29.1186 C   0  0  0  0  0  0  0  0  0  0  0  0
  1  3  4  0
  1  7  4  0
  2  3  1  0
  2  6  4  0
  2 16  4  0
  3 22  4  0
  4  9  4  0
  4 10  1  0
  4 20  4  0
  5 16  4  0
  5 23  4  0
  6 15  4  0
  7 12  4  0
  8 13  4  0
  8 14  4  0
  9 11  4  0
 11 14  4  0
 11 19  4  0
 12 18  4  0
 13 21  4  0
 15 23  4  0
 17 19  4  0
 17 20  4  0
 18 22  4  0
 19 21  4  0
M  END
$$$$

 Created by Python create_sdf_string function

 23 25  0  0  0  0  0  0  0  0999 V2000
    2.4610   -5.3070   29.1240 C   0  0  0  0  0  0  0  0  0  0  0  0
    4.7710   -4.6952   28.4803 C   0  0  0  0  0  0  0  0  0  0  0  0
    3.4047   -5.1087   28.1314 C   0  0  0  0  0  0  0  0  0  0  0  0
   -0.2234  -11.8615   16.8874 C   0  0  0  0  0  0  0  0  0  0  0  0
    6.4491   -4.1532   30.1213 C   0  0  0  0  0  0  0  0  0  0  0  0
    5.7060   -4.4340   27.4975 C   0  0  0  0  0  0  0  0  0  0  0  0
    1.1818   -5.6612   28.8399 C   0  0  0  0  0  0  0  0  0  0  0  0
   -1.2067   -7.3287   17.7772 C   0  0  0  0  0  0  0  0  0  0  0  0
   -0.0206  -10.5585   16.6210 C   0  0  0  0  0  0  0  0  0  0  0  0
    0.3696  -12.7626   16.2169 O   0  0  0  0  0  0  0  0  0  0  0  0
   -0.6895   -9.5676   17.3297 C   0  0  0  0  0  0  0  0  0  0  0  0
    0.8388   -5.8417   27.5264 C   0  0  0  0  0  0  0  0  0  0  0  0
   -2.0709   -7.6637   18.7817 C   0  0  0  0  0  0  0  0  0  0  0  0
   -0.5279   -8.2168   17.0717 C   0  0  0  0  0  0  0  0  0  0  0  0
    6.9694   -4.0191   27.8190 C   0  0  0  0  0  0  0  0  0  0  0  0
    5.1733   -4.5469   29.8123 C   0  0  0  0  0  0  0  0  0  0  0  0
   -1.7508  -11.3016   18.6072 C   0  0  0  0  0  0  0  0  0  0  0  0
    1.7497   -5.6771   26.4971 C   0  0  0  0  0  0  0  0  0  0  0  0
   -1.5799   -9.9322   18.3468 C   0  0  0  0  0  0  0  0  0  0  0  0
   -1.0871  -12.2214   17.8851 C   0  0  0  0  0  0  0  0  0  0  0  0
   -2.2706   -8.9669   19.0691 C   0  0  0  0  0  0  0  0  0  0  0  0
    3.0279   -5.3073   26.8197 C   0  0  0  0  0  0  0  0  0  0  0  0
    7.3282   -3.8948   29.1186 C   0  0  0  0  0  0  0  0  0  0  0  0
  1  3  4  0
  1  7  4  0
  2  3  1  0
  2  6  4  0
  2 16  4  0
  3 22  4  0
  4  9  4  0
  4 10  1  0
  4 20  4  0
  5 16  4  0
  5 23  4  0
  6 15  4  0
  7 12  4  0
  8 13  4  0
  8 14  4  0
  9 11  4  0
 11 14  4  0
 11 19  4  0
 12 18  4  0
 13 21  4  0
 15 23  4  0
 17 19  4  0
 17 20  4  0
 18 22  4  0
 19 21  4  0
M  END
$$$$

 Created by Python create_sdf_string function

 23 25  0  0  0  0  0  0  0  0999 V2000
    2.4610   -5.3070   29.1240 C   0  0  0  0  0  0  0  0  0  0  0  0
    4.7710   -4.6952   28.4803 C   0  0  0  0  0  0  0  0  0  0  0  0
    3.4047   -5.1087   28.1314 C   0  0  0  0  0  0  0  0  0  0  0  0
   -0.2234  -11.8615   16.8874 C   0  0  0  0  0  0  0  0  0  0  0  0
    6.4491   -4.1532   30.1213 C   0  0  0  0  0  0  0  0  0  0  0  0
    5.7060   -4.4340   27.4975 C   0  0  0  0  0  0  0  0  0  0  0  0
    1.1818   -5.6612   28.8399 C   0  0  0  0  0  0  0  0  0  0  0  0
   -1.2067   -7.3287   17.7772 C   0  0  0  0  0  0  0  0  0  0  0  0
   -0.0206  -10.5585   16.6210 C   0  0  0  0  0  0  0  0  0  0  0  0
    0.3696  -12.7626   16.2169 O   0  0  0  0  0  0  0  0  0  0  0  0
   -0.6895   -9.5676   17.3297 C   0  0  0  0  0  0  0  0  0  0  0  0
    0.8388   -5.8417   27.5264 C   0  0  0  0  0  0  0  0  0  0  0  0
   -2.0709   -7.6637   18.7817 C   0  0  0  0  0  0  0  0  0  0  0  0
   -0.5279   -8.2168   17.0717 C   0  0  0  0  0  0  0  0  0  0  0  0
    6.9694   -4.0191   27.8190 C   0  0  0  0  0  0  0  0  0  0  0  0
    5.1733   -4.5469   29.8123 C   0  0  0  0  0  0  0  0  0  0  0  0
   -1.7508  -11.3016   18.6072 C   0  0  0  0  0  0  0  0  0  0  0  0
    1.7497   -5.6771   26.4971 C   0  0  0  0  0  0  0  0  0  0  0  0
   -1.5799   -9.9322   18.3468 C   0  0  0  0  0  0  0  0  0  0  0  0
   -1.0871  -12.2214   17.8851 C   0  0  0  0  0  0  0  0  0  0  0  0
   -2.2706   -8.9669   19.0691 C   0  0  0  0  0  0  0  0  0  0  0  0
    3.0279   -5.3073   26.8197 C   0  0  0  0  0  0  0  0  0  0  0  0
    7.3282   -3.8948   29.1186 C   0  0  0  0  0  0  0  0  0  0  0  0
  1  3  4  0
  1  7  4  0
  2  3  1  0
  2  6  4  0
  2 16  4  0
  3 22  4  0
  4  9  4  0
  4 10  1  0
  4 20  4  0
  5 16  4  0
  5 23  4  0
  6 15  4  0
  7 12  4  0
  8 13  4  0
  8 14  4  0
  9 11  4  0
 11 14  4  0
 11 19  4  0
 12 18  4  0
 13 21  4  0
 15 23  4  0
 17 19  4  0
 17 20  4  0
 18 22  4  0
 19 21  4  0
M  END
$$$$

 Created by Python create_sdf_string function

 23 25  0  0  0  0  0  0  0  0999 V2000
    2.4610   -5.3070   29.1240 C   0  0  0  0  0  0  0  0  0  0  0  0
    4.7710   -4.6952   28.4803 C   0  0  0  0  0  0  0  0  0  0  0  0
    3.4047   -5.1087   28.1314 C   0  0  0  0  0  0  0  0  0  0  0  0
   -0.2234  -11.8615   16.8874 C   0  0  0  0  0  0  0  0  0  0  0  0
    6.4491   -4.1532   30.1213 C   0  0  0  0  0  0  0  0  0  0  0  0
    5.7060   -4.4340   27.4975 C   0  0  0  0  0  0  0  0  0  0  0  0
    1.1818   -5.6612   28.8399 C   0  0  0  0  0  0  0  0  0  0  0  0
   -1.2067   -7.3287   17.7772 C   0  0  0  0  0  0  0  0  0  0  0  0
   -0.0206  -10.5585   16.6210 C   0  0  0  0  0  0  0  0  0  0  0  0
    0.3696  -12.7626   16.2169 O   0  0  0  0  0  0  0  0  0  0  0  0
   -0.6895   -9.5676   17.3297 C   0  0  0  0  0  0  0  0  0  0  0  0
    0.8388   -5.8417   27.5264 C   0  0  0  0  0  0  0  0  0  0  0  0
   -2.0709   -7.6637   18.7817 C   0  0  0  0  0  0  0  0  0  0  0  0
   -0.5279   -8.2168   17.0717 C   0  0  0  0  0  0  0  0  0  0  0  0
    6.9694   -4.0191   27.8190 C   0  0  0  0  0  0  0  0  0  0  0  0
    5.1733   -4.5469   29.8123 C   0  0  0  0  0  0  0  0  0  0  0  0
   -1.7508  -11.3016   18.6072 C   0  0  0  0  0  0  0  0  0  0  0  0
    1.7497   -5.6771   26.4971 C   0  0  0  0  0  0  0  0  0  0  0  0
   -1.5799   -9.9322   18.3468 C   0  0  0  0  0  0  0  0  0  0  0  0
   -1.0871  -12.2214   17.8851 C   0  0  0  0  0  0  0  0  0  0  0  0
   -2.2706   -8.9669   19.0691 C   0  0  0  0  0  0  0  0  0  0  0  0
    3.0279   -5.3073   26.8197 C   0  0  0  0  0  0  0  0  0  0  0  0
    7.3282   -3.8948   29.1186 C   0  0  0  0  0  0  0  0  0  0  0  0
  1  3  4  0
  1  7  4  0
  2  3  1  0
  2  6  4  0
  2 16  4  0
  3 22  4  0
  4  9  4  0
  4 10  1  0
  4 20  4  0
  5 16  4  0
  5 23  4  0
  6 15  4  0
  7 12  4  0
  8 13  4  0
  8 14  4  0
  9 11  4  0
 11 14  4  0
 11 19  4  0
 12 18  4  0
 13 21  4  0
 15 23  4  0
 17 19  4  0
 17 20  4  0
 18 22  4  0
 19 21  4  0
M  END
$$$$

 Created by Python create_sdf_string function

 23 25  0  0  0  0  0  0  0  0999 V2000
    2.4610   -5.3070   29.1240 C   0  0  0  0  0  0  0  0  0  0  0  0
    4.7710   -4.6952   28.4803 C   0  0  0  0  0  0  0  0  0  0  0  0
    3.4047   -5.1087   28.1314 C   0  0  0  0  0  0  0  0  0  0  0  0
   -0.2234  -11.8615   16.8874 C   0  0  0  0  0  0  0  0  0  0  0  0
    6.4491   -4.1532   30.1213 C   0  0  0  0  0  0  0  0  0  0  0  0
    5.7060   -4.4340   27.4975 C   0  0  0  0  0  0  0  0  0  0  0  0
    1.1818   -5.6612   28.8399 C   0  0  0  0  0  0  0  0  0  0  0  0
   -1.2067   -7.3287   17.7772 C   0  0  0  0  0  0  0  0  0  0  0  0
   -0.0206  -10.5585   16.6210 C   0  0  0  0  0  0  0  0  0  0  0  0
    0.3696  -12.7626   16.2169 O   0  0  0  0  0  0  0  0  0  0  0  0
   -0.6895   -9.5676   17.3297 C   0  0  0  0  0  0  0  0  0  0  0  0
    0.8388   -5.8417   27.5264 C   0  0  0  0  0  0  0  0  0  0  0  0
   -2.0709   -7.6637   18.7817 C   0  0  0  0  0  0  0  0  0  0  0  0
   -0.5279   -8.2168   17.0717 C   0  0  0  0  0  0  0  0  0  0  0  0
    6.9694   -4.0191   27.8190 C   0  0  0  0  0  0  0  0  0  0  0  0
    5.1733   -4.5469   29.8123 C   0  0  0  0  0  0  0  0  0  0  0  0
   -1.7508  -11.3016   18.6072 C   0  0  0  0  0  0  0  0  0  0  0  0
    1.7497   -5.6771   26.4971 C   0  0  0  0  0  0  0  0  0  0  0  0
   -1.5799   -9.9322   18.3468 C   0  0  0  0  0  0  0  0  0  0  0  0
   -1.0871  -12.2214   17.8851 C   0  0  0  0  0  0  0  0  0  0  0  0
   -2.2706   -8.9669   19.0691 C   0  0  0  0  0  0  0  0  0  0  0  0
    3.0279   -5.3073   26.8197 C   0  0  0  0  0  0  0  0  0  0  0  0
    7.3282   -3.8948   29.1186 C   0  0  0  0  0  0  0  0  0  0  0  0
  1  3  4  0
  1  7  4  0
  2  3  1  0
  2  6  4  0
  2 16  4  0
  3 22  4  0
  4  9  4  0
  4 10  1  0
  4 20  4  0
  5 16  4  0
  5 23  4  0
  6 15  4  0
  7 12  4  0
  8 13  4  0
  8 14  4  0
  9 11  4  0
 11 14  4  0
 11 19  4  0
 12 18  4  0
 13 21  4  0
 15 23  4  0
 17 19  4  0
 17 20  4  0
 18 22  4  0
 19 21  4  0
M  END
$$$$

 Created by Python create_sdf_string function

 23 25  0  0  0  0  0  0  0  0999 V2000
    2.4610   -5.3070   29.1240 C   0  0  0  0  0  0  0  0  0  0  0  0
    4.7710   -4.6952   28.4803 C   0  0  0  0  0  0  0  0  0  0  0  0
    3.4047   -5.1087   28.1314 C   0  0  0  0  0  0  0  0  0  0  0  0
   -0.2234  -11.8615   16.8874 C   0  0  0  0  0  0  0  0  0  0  0  0
    6.4491   -4.1532   30.1213 C   0  0  0  0  0  0  0  0  0  0  0  0
    5.7060   -4.4340   27.4975 C   0  0  0  0  0  0  0  0  0  0  0  0
    1.1818   -5.6612   28.8399 C   0  0  0  0  0  0  0  0  0  0  0  0
   -1.2067   -7.3287   17.7772 C   0  0  0  0  0  0  0  0  0  0  0  0
   -0.0206  -10.5585   16.6210 C   0  0  0  0  0  0  0  0  0  0  0  0
    0.3696  -12.7626   16.2169 O   0  0  0  0  0  0  0  0  0  0  0  0
   -0.6895   -9.5676   17.3297 C   0  0  0  0  0  0  0  0  0  0  0  0
    0.8388   -5.8417   27.5264 C   0  0  0  0  0  0  0  0  0  0  0  0
   -2.0709   -7.6637   18.7817 C   0  0  0  0  0  0  0  0  0  0  0  0
   -0.5279   -8.2168   17.0717 C   0  0  0  0  0  0  0  0  0  0  0  0
    6.9694   -4.0191   27.8190 C   0  0  0  0  0  0  0  0  0  0  0  0
    5.1733   -4.5469   29.8123 C   0  0  0  0  0  0  0  0  0  0  0  0
   -1.7508  -11.3016   18.6072 C   0  0  0  0  0  0  0  0  0  0  0  0
    1.7497   -5.6771   26.4971 C   0  0  0  0  0  0  0  0  0  0  0  0
   -1.5799   -9.9322   18.3468 C   0  0  0  0  0  0  0  0  0  0  0  0
   -1.0871  -12.2214   17.8851 C   0  0  0  0  0  0  0  0  0  0  0  0
   -2.2706   -8.9669   19.0691 C   0  0  0  0  0  0  0  0  0  0  0  0
    3.0279   -5.3073   26.8197 C   0  0  0  0  0  0  0  0  0  0  0  0
    7.3282   -3.8948   29.1186 C   0  0  0  0  0  0  0  0  0  0  0  0
  1  3  4  0
  1  7  4  0
  2  3  1  0
  2  6  4  0
  2 16  4  0
  3 22  4  0
  4  9  4  0
  4 10  1  0
  4 20  4  0
  5 16  4  0
  5 23  4  0
  6 15  4  0
  7 12  4  0
  8 13  4  0
  8 14  4  0
  9 11  4  0
 11 14  4  0
 11 19  4  0
 12 18  4  0
 13 21  4  0
 15 23  4  0
 17 19  4  0
 17 20  4  0
 18 22  4  0
 19 21  4  0
M  END
$$$$

 Created by Python create_sdf_string function

 23 25  0  0  0  0  0  0  0  0999 V2000
    2.4610   -5.3070   29.1240 C   0  0  0  0  0  0  0  0  0  0  0  0
    4.7710   -4.6952   28.4803 C   0  0  0  0  0  0  0  0  0  0  0  0
    3.4047   -5.1087   28.1314 C   0  0  0  0  0  0  0  0  0  0  0  0
   -0.2234  -11.8615   16.8874 C   0  0  0  0  0  0  0  0  0  0  0  0
    6.4491   -4.1532   30.1213 C   0  0  0  0  0  0  0  0  0  0  0  0
    5.7060   -4.4340   27.4975 C   0  0  0  0  0  0  0  0  0  0  0  0
    1.1818   -5.6612   28.8399 C   0  0  0  0  0  0  0  0  0  0  0  0
   -1.2067   -7.3287   17.7772 C   0  0  0  0  0  0  0  0  0  0  0  0
   -0.0206  -10.5585   16.6210 C   0  0  0  0  0  0  0  0  0  0  0  0
    0.3696  -12.7626   16.2169 O   0  0  0  0  0  0  0  0  0  0  0  0
   -0.6895   -9.5676   17.3297 C   0  0  0  0  0  0  0  0  0  0  0  0
    0.8388   -5.8417   27.5264 C   0  0  0  0  0  0  0  0  0  0  0  0
   -2.0709   -7.6637   18.7817 C   0  0  0  0  0  0  0  0  0  0  0  0
   -0.5279   -8.2168   17.0717 C   0  0  0  0  0  0  0  0  0  0  0  0
    6.9694   -4.0191   27.8190 C   0  0  0  0  0  0  0  0  0  0  0  0
    5.1733   -4.5469   29.8123 C   0  0  0  0  0  0  0  0  0  0  0  0
   -1.7508  -11.3016   18.6072 C   0  0  0  0  0  0  0  0  0  0  0  0
    1.7497   -5.6771   26.4971 C   0  0  0  0  0  0  0  0  0  0  0  0
   -1.5799   -9.9322   18.3468 C   0  0  0  0  0  0  0  0  0  0  0  0
   -1.0871  -12.2214   17.8851 C   0  0  0  0  0  0  0  0  0  0  0  0
   -2.2706   -8.9669   19.0691 C   0  0  0  0  0  0  0  0  0  0  0  0
    3.0279   -5.3073   26.8197 C   0  0  0  0  0  0  0  0  0  0  0  0
    7.3282   -3.8948   29.1186 C   0  0  0  0  0  0  0  0  0  0  0  0
  1  3  4  0
  1  7  4  0
  2  3  1  0
  2  6  4  0
  2 16  4  0
  3 22  4  0
  4  9  4  0
  4 10  1  0
  4 20  4  0
  5 16  4  0
  5 23  4  0
  6 15  4  0
  7 12  4  0
  8 13  4  0
  8 14  4  0
  9 11  4  0
 11 14  4  0
 11 19  4  0
 12 18  4  0
 13 21  4  0
 15 23  4  0
 17 19  4  0
 17 20  4  0
 18 22  4  0
 19 21  4  0
M  END
$$$$

 Created by Python create_sdf_string function

 23 25  0  0  0  0  0  0  0  0999 V2000
    2.4610   -5.3070   29.1240 C   0  0  0  0  0  0  0  0  0  0  0  0
    4.7710   -4.6952   28.4803 C   0  0  0  0  0  0  0  0  0  0  0  0
    3.4047   -5.1087   28.1314 C   0  0  0  0  0  0  0  0  0  0  0  0
   -0.2234  -11.8615   16.8874 C   0  0  0  0  0  0  0  0  0  0  0  0
    6.4491   -4.1532   30.1213 C   0  0  0  0  0  0  0  0  0  0  0  0
    5.7060   -4.4340   27.4975 C   0  0  0  0  0  0  0  0  0  0  0  0
    1.1818   -5.6612   28.8399 C   0  0  0  0  0  0  0  0  0  0  0  0
   -1.2067   -7.3287   17.7772 C   0  0  0  0  0  0  0  0  0  0  0  0
   -0.0206  -10.5585   16.6210 C   0  0  0  0  0  0  0  0  0  0  0  0
    0.3696  -12.7626   16.2169 O   0  0  0  0  0  0  0  0  0  0  0  0
   -0.6895   -9.5676   17.3297 C   0  0  0  0  0  0  0  0  0  0  0  0
    0.8388   -5.8417   27.5264 C   0  0  0  0  0  0  0  0  0  0  0  0
   -2.0709   -7.6637   18.7817 C   0  0  0  0  0  0  0  0  0  0  0  0
   -0.5279   -8.2168   17.0717 C   0  0  0  0  0  0  0  0  0  0  0  0
    6.9694   -4.0191   27.8190 C   0  0  0  0  0  0  0  0  0  0  0  0
    5.1733   -4.5469   29.8123 C   0  0  0  0  0  0  0  0  0  0  0  0
   -1.7508  -11.3016   18.6072 C   0  0  0  0  0  0  0  0  0  0  0  0
    1.7497   -5.6771   26.4971 C   0  0  0  0  0  0  0  0  0  0  0  0
   -1.5799   -9.9322   18.3468 C   0  0  0  0  0  0  0  0  0  0  0  0
   -1.0871  -12.2214   17.8851 C   0  0  0  0  0  0  0  0  0  0  0  0
   -2.2706   -8.9669   19.0691 C   0  0  0  0  0  0  0  0  0  0  0  0
    3.0279   -5.3073   26.8197 C   0  0  0  0  0  0  0  0  0  0  0  0
    7.3282   -3.8948   29.1186 C   0  0  0  0  0  0  0  0  0  0  0  0
  1  3  4  0
  1  7  4  0
  2  3  1  0
  2  6  4  0
  2 16  4  0
  3 22  4  0
  4  9  4  0
  4 10  1  0
  4 20  4  0
  5 16  4  0
  5 23  4  0
  6 15  4  0
  7 12  4  0
  8 13  4  0
  8 14  4  0
  9 11  4  0
 11 14  4  0
 11 19  4  0
 12 18  4  0
 13 21  4  0
 15 23  4  0
 17 19  4  0
 17 20  4  0
 18 22  4  0
 19 21  4  0
M  END
$$$$

 Created by Python create_sdf_string function

 23 25  0  0  0  0  0  0  0  0999 V2000
    2.4610   -5.3070   29.1240 C   0  0  0  0  0  0  0  0  0  0  0  0
    4.7710   -4.6952   28.4803 C   0  0  0  0  0  0  0  0  0  0  0  0
    3.4047   -5.1087   28.1314 C   0  0  0  0  0  0  0  0  0  0  0  0
   -0.2234  -11.8615   16.8874 C   0  0  0  0  0  0  0  0  0  0  0  0
    6.4491   -4.1532   30.1213 C   0  0  0  0  0  0  0  0  0  0  0  0
    5.7060   -4.4340   27.4975 C   0  0  0  0  0  0  0  0  0  0  0  0
    1.1818   -5.6612   28.8399 C   0  0  0  0  0  0  0  0  0  0  0  0
   -1.2067   -7.3287   17.7772 C   0  0  0  0  0  0  0  0  0  0  0  0
   -0.0206  -10.5585   16.6210 C   0  0  0  0  0  0  0  0  0  0  0  0
    0.3696  -12.7626   16.2169 O   0  0  0  0  0  0  0  0  0  0  0  0
   -0.6895   -9.5676   17.3297 C   0  0  0  0  0  0  0  0  0  0  0  0
    0.8388   -5.8417   27.5264 C   0  0  0  0  0  0  0  0  0  0  0  0
   -2.0709   -7.6637   18.7817 C   0  0  0  0  0  0  0  0  0  0  0  0
   -0.5279   -8.2168   17.0717 C   0  0  0  0  0  0  0  0  0  0  0  0
    6.9694   -4.0191   27.8190 C   0  0  0  0  0  0  0  0  0  0  0  0
    5.1733   -4.5469   29.8123 C   0  0  0  0  0  0  0  0  0  0  0  0
   -1.7508  -11.3016   18.6072 C   0  0  0  0  0  0  0  0  0  0  0  0
    1.7497   -5.6771   26.4971 C   0  0  0  0  0  0  0  0  0  0  0  0
   -1.5799   -9.9322   18.3468 C   0  0  0  0  0  0  0  0  0  0  0  0
   -1.0871  -12.2214   17.8851 C   0  0  0  0  0  0  0  0  0  0  0  0
   -2.2706   -8.9669   19.0691 C   0  0  0  0  0  0  0  0  0  0  0  0
    3.0279   -5.3073   26.8197 C   0  0  0  0  0  0  0  0  0  0  0  0
    7.3282   -3.8948   29.1186 C   0  0  0  0  0  0  0  0  0  0  0  0
  1  3  4  0
  1  7  4  0
  2  3  1  0
  2  6  4  0
  2 16  4  0
  3 22  4  0
  4  9  4  0
  4 10  1  0
  4 20  4  0
  5 16  4  0
  5 23  4  0
  6 15  4  0
  7 12  4  0
  8 13  4  0
  8 14  4  0
  9 11  4  0
 11 14  4  0
 11 19  4  0
 12 18  4  0
 13 21  4  0
 15 23  4  0
 17 19  4  0
 17 20  4  0
 18 22  4  0
 19 21  4  0
M  END
$$$$

 Created by Python create_sdf_string function

 23 25  0  0  0  0  0  0  0  0999 V2000
    2.4610   -5.3070   29.1240 C   0  0  0  0  0  0  0  0  0  0  0  0
    4.7710   -4.6952   28.4803 C   0  0  0  0  0  0  0  0  0  0  0  0
    3.4047   -5.1087   28.1314 C   0  0  0  0  0  0  0  0  0  0  0  0
   -0.2234  -11.8615   16.8874 C   0  0  0  0  0  0  0  0  0  0  0  0
    6.4491   -4.1532   30.1213 C   0  0  0  0  0  0  0  0  0  0  0  0
    5.7060   -4.4340   27.4975 C   0  0  0  0  0  0  0  0  0  0  0  0
    1.1818   -5.6612   28.8399 C   0  0  0  0  0  0  0  0  0  0  0  0
   -1.2067   -7.3287   17.7772 C   0  0  0  0  0  0  0  0  0  0  0  0
   -0.0206  -10.5585   16.6210 C   0  0  0  0  0  0  0  0  0  0  0  0
    0.3696  -12.7626   16.2169 O   0  0  0  0  0  0  0  0  0  0  0  0
   -0.6895   -9.5676   17.3297 C   0  0  0  0  0  0  0  0  0  0  0  0
    0.8388   -5.8417   27.5264 C   0  0  0  0  0  0  0  0  0  0  0  0
   -2.0709   -7.6637   18.7817 C   0  0  0  0  0  0  0  0  0  0  0  0
   -0.5279   -8.2168   17.0717 C   0  0  0  0  0  0  0  0  0  0  0  0
    6.9694   -4.0191   27.8190 C   0  0  0  0  0  0  0  0  0  0  0  0
    5.1733   -4.5469   29.8123 C   0  0  0  0  0  0  0  0  0  0  0  0
   -1.7508  -11.3016   18.6072 C   0  0  0  0  0  0  0  0  0  0  0  0
    1.7497   -5.6771   26.4971 C   0  0  0  0  0  0  0  0  0  0  0  0
   -1.5799   -9.9322   18.3468 C   0  0  0  0  0  0  0  0  0  0  0  0
   -1.0871  -12.2214   17.8851 C   0  0  0  0  0  0  0  0  0  0  0  0
   -2.2706   -8.9669   19.0691 C   0  0  0  0  0  0  0  0  0  0  0  0
    3.0279   -5.3073   26.8197 C   0  0  0  0  0  0  0  0  0  0  0  0
    7.3282   -3.8948   29.1186 C   0  0  0  0  0  0  0  0  0  0  0  0
  1  3  4  0
  1  7  4  0
  2  3  1  0
  2  6  4  0
  2 16  4  0
  3 22  4  0
  4  9  4  0
  4 10  1  0
  4 20  4  0
  5 16  4  0
  5 23  4  0
  6 15  4  0
  7 12  4  0
  8 13  4  0
  8 14  4  0
  9 11  4  0
 11 14  4  0
 11 19  4  0
 12 18  4  0
 13 21  4  0
 15 23  4  0
 17 19  4  0
 17 20  4  0
 18 22  4  0
 19 21  4  0
M  END
$$$$

 Created by Python create_sdf_string function

 23 25  0  0  0  0  0  0  0  0999 V2000
    2.4610   -5.3070   29.1240 C   0  0  0  0  0  0  0  0  0  0  0  0
    4.7710   -4.6952   28.4803 C   0  0  0  0  0  0  0  0  0  0  0  0
    3.4047   -5.1087   28.1314 C   0  0  0  0  0  0  0  0  0  0  0  0
   -0.2234  -11.8615   16.8874 C   0  0  0  0  0  0  0  0  0  0  0  0
    6.4491   -4.1532   30.1213 C   0  0  0  0  0  0  0  0  0  0  0  0
    5.7060   -4.4340   27.4975 C   0  0  0  0  0  0  0  0  0  0  0  0
    1.1818   -5.6612   28.8399 C   0  0  0  0  0  0  0  0  0  0  0  0
   -1.2067   -7.3287   17.7772 C   0  0  0  0  0  0  0  0  0  0  0  0
   -0.0206  -10.5585   16.6210 C   0  0  0  0  0  0  0  0  0  0  0  0
    0.3696  -12.7626   16.2169 O   0  0  0  0  0  0  0  0  0  0  0  0
   -0.6895   -9.5676   17.3297 C   0  0  0  0  0  0  0  0  0  0  0  0
    0.8388   -5.8417   27.5264 C   0  0  0  0  0  0  0  0  0  0  0  0
   -2.0709   -7.6637   18.7817 C   0  0  0  0  0  0  0  0  0  0  0  0
   -0.5279   -8.2168   17.0717 C   0  0  0  0  0  0  0  0  0  0  0  0
    6.9694   -4.0191   27.8190 C   0  0  0  0  0  0  0  0  0  0  0  0
    5.1733   -4.5469   29.8123 C   0  0  0  0  0  0  0  0  0  0  0  0
   -1.7508  -11.3016   18.6072 C   0  0  0  0  0  0  0  0  0  0  0  0
    1.7497   -5.6771   26.4971 C   0  0  0  0  0  0  0  0  0  0  0  0
   -1.5799   -9.9322   18.3468 C   0  0  0  0  0  0  0  0  0  0  0  0
   -1.0871  -12.2214   17.8851 C   0  0  0  0  0  0  0  0  0  0  0  0
   -2.2706   -8.9669   19.0691 C   0  0  0  0  0  0  0  0  0  0  0  0
    3.0279   -5.3073   26.8197 C   0  0  0  0  0  0  0  0  0  0  0  0
    7.3282   -3.8948   29.1186 C   0  0  0  0  0  0  0  0  0  0  0  0
  1  3  4  0
  1  7  4  0
  2  3  1  0
  2  6  4  0
  2 16  4  0
  3 22  4  0
  4  9  4  0
  4 10  1  0
  4 20  4  0
  5 16  4  0
  5 23  4  0
  6 15  4  0
  7 12  4  0
  8 13  4  0
  8 14  4  0
  9 11  4  0
 11 14  4  0
 11 19  4  0
 12 18  4  0
 13 21  4  0
 15 23  4  0
 17 19  4  0
 17 20  4  0
 18 22  4  0
 19 21  4  0
M  END
$$$$

 Created by Python create_sdf_string function

 23 25  0  0  0  0  0  0  0  0999 V2000
    2.4610   -5.3070   29.1240 C   0  0  0  0  0  0  0  0  0  0  0  0
    4.7710   -4.6952   28.4803 C   0  0  0  0  0  0  0  0  0  0  0  0
    3.4047   -5.1087   28.1314 C   0  0  0  0  0  0  0  0  0  0  0  0
   -0.2234  -11.8615   16.8874 C   0  0  0  0  0  0  0  0  0  0  0  0
    6.4491   -4.1532   30.1213 C   0  0  0  0  0  0  0  0  0  0  0  0
    5.7060   -4.4340   27.4975 C   0  0  0  0  0  0  0  0  0  0  0  0
    1.1818   -5.6612   28.8399 C   0  0  0  0  0  0  0  0  0  0  0  0
   -1.2067   -7.3287   17.7772 C   0  0  0  0  0  0  0  0  0  0  0  0
   -0.0206  -10.5585   16.6210 C   0  0  0  0  0  0  0  0  0  0  0  0
    0.3696  -12.7626   16.2169 O   0  0  0  0  0  0  0  0  0  0  0  0
   -0.6895   -9.5676   17.3297 C   0  0  0  0  0  0  0  0  0  0  0  0
    0.8388   -5.8417   27.5264 C   0  0  0  0  0  0  0  0  0  0  0  0
   -2.0709   -7.6637   18.7817 C   0  0  0  0  0  0  0  0  0  0  0  0
   -0.5279   -8.2168   17.0717 C   0  0  0  0  0  0  0  0  0  0  0  0
    6.9694   -4.0191   27.8190 C   0  0  0  0  0  0  0  0  0  0  0  0
    5.1733   -4.5469   29.8123 C   0  0  0  0  0  0  0  0  0  0  0  0
   -1.7508  -11.3016   18.6072 C   0  0  0  0  0  0  0  0  0  0  0  0
    1.7497   -5.6771   26.4971 C   0  0  0  0  0  0  0  0  0  0  0  0
   -1.5799   -9.9322   18.3468 C   0  0  0  0  0  0  0  0  0  0  0  0
   -1.0871  -12.2214   17.8851 C   0  0  0  0  0  0  0  0  0  0  0  0
   -2.2706   -8.9669   19.0691 C   0  0  0  0  0  0  0  0  0  0  0  0
    3.0279   -5.3073   26.8197 C   0  0  0  0  0  0  0  0  0  0  0  0
    7.3282   -3.8948   29.1186 C   0  0  0  0  0  0  0  0  0  0  0  0
  1  3  4  0
  1  7  4  0
  2  3  1  0
  2  6  4  0
  2 16  4  0
  3 22  4  0
  4  9  4  0
  4 10  1  0
  4 20  4  0
  5 16  4  0
  5 23  4  0
  6 15  4  0
  7 12  4  0
  8 13  4  0
  8 14  4  0
  9 11  4  0
 11 14  4  0
 11 19  4  0
 12 18  4  0
 13 21  4  0
 15 23  4  0
 17 19  4  0
 17 20  4  0
 18 22  4  0
 19 21  4  0
M  END
$$$$

 Created by Python create_sdf_string function

 23 25  0  0  0  0  0  0  0  0999 V2000
    2.4610   -5.3070   29.1240 C   0  0  0  0  0  0  0  0  0  0  0  0
    4.7710   -4.6952   28.4803 C   0  0  0  0  0  0  0  0  0  0  0  0
    3.4047   -5.1087   28.1314 C   0  0  0  0  0  0  0  0  0  0  0  0
   -0.2234  -11.8615   16.8874 C   0  0  0  0  0  0  0  0  0  0  0  0
    6.4491   -4.1532   30.1213 C   0  0  0  0  0  0  0  0  0  0  0  0
    5.7060   -4.4340   27.4975 C   0  0  0  0  0  0  0  0  0  0  0  0
    1.1818   -5.6612   28.8399 C   0  0  0  0  0  0  0  0  0  0  0  0
   -1.2067   -7.3287   17.7772 C   0  0  0  0  0  0  0  0  0  0  0  0
   -0.0206  -10.5585   16.6210 C   0  0  0  0  0  0  0  0  0  0  0  0
    0.3696  -12.7626   16.2169 O   0  0  0  0  0  0  0  0  0  0  0  0
   -0.6895   -9.5676   17.3297 C   0  0  0  0  0  0  0  0  0  0  0  0
    0.8388   -5.8417   27.5264 C   0  0  0  0  0  0  0  0  0  0  0  0
   -2.0709   -7.6637   18.7817 C   0  0  0  0  0  0  0  0  0  0  0  0
   -0.5279   -8.2168   17.0717 C   0  0  0  0  0  0  0  0  0  0  0  0
    6.9694   -4.0191   27.8190 C   0  0  0  0  0  0  0  0  0  0  0  0
    5.1733   -4.5469   29.8123 C   0  0  0  0  0  0  0  0  0  0  0  0
   -1.7508  -11.3016   18.6072 C   0  0  0  0  0  0  0  0  0  0  0  0
    1.7497   -5.6771   26.4971 C   0  0  0  0  0  0  0  0  0  0  0  0
   -1.5799   -9.9322   18.3468 C   0  0  0  0  0  0  0  0  0  0  0  0
   -1.0871  -12.2214   17.8851 C   0  0  0  0  0  0  0  0  0  0  0  0
   -2.2706   -8.9669   19.0691 C   0  0  0  0  0  0  0  0  0  0  0  0
    3.0279   -5.3073   26.8197 C   0  0  0  0  0  0  0  0  0  0  0  0
    7.3282   -3.8948   29.1186 C   0  0  0  0  0  0  0  0  0  0  0  0
  1  3  4  0
  1  7  4  0
  2  3  1  0
  2  6  4  0
  2 16  4  0
  3 22  4  0
  4  9  4  0
  4 10  1  0
  4 20  4  0
  5 16  4  0
  5 23  4  0
  6 15  4  0
  7 12  4  0
  8 13  4  0
  8 14  4  0
  9 11  4  0
 11 14  4  0
 11 19  4  0
 12 18  4  0
 13 21  4  0
 15 23  4  0
 17 19  4  0
 17 20  4  0
 18 22  4  0
 19 21  4  0
M  END
$$$$

 Created by Python create_sdf_string function

 23 25  0  0  0  0  0  0  0  0999 V2000
    2.4610   -5.3070   29.1240 C   0  0  0  0  0  0  0  0  0  0  0  0
    4.7710   -4.6952   28.4803 C   0  0  0  0  0  0  0  0  0  0  0  0
    3.4047   -5.1087   28.1314 C   0  0  0  0  0  0  0  0  0  0  0  0
   -0.2234  -11.8615   16.8874 C   0  0  0  0  0  0  0  0  0  0  0  0
    6.4491   -4.1532   30.1213 C   0  0  0  0  0  0  0  0  0  0  0  0
    5.7060   -4.4340   27.4975 C   0  0  0  0  0  0  0  0  0  0  0  0
    1.1818   -5.6612   28.8399 C   0  0  0  0  0  0  0  0  0  0  0  0
   -1.2067   -7.3287   17.7772 C   0  0  0  0  0  0  0  0  0  0  0  0
   -0.0206  -10.5585   16.6210 C   0  0  0  0  0  0  0  0  0  0  0  0
    0.3696  -12.7626   16.2169 O   0  0  0  0  0  0  0  0  0  0  0  0
   -0.6895   -9.5676   17.3297 C   0  0  0  0  0  0  0  0  0  0  0  0
    0.8388   -5.8417   27.5264 C   0  0  0  0  0  0  0  0  0  0  0  0
   -2.0709   -7.6637   18.7817 C   0  0  0  0  0  0  0  0  0  0  0  0
   -0.5279   -8.2168   17.0717 C   0  0  0  0  0  0  0  0  0  0  0  0
    6.9694   -4.0191   27.8190 C   0  0  0  0  0  0  0  0  0  0  0  0
    5.1733   -4.5469   29.8123 C   0  0  0  0  0  0  0  0  0  0  0  0
   -1.7508  -11.3016   18.6072 C   0  0  0  0  0  0  0  0  0  0  0  0
    1.7497   -5.6771   26.4971 C   0  0  0  0  0  0  0  0  0  0  0  0
   -1.5799   -9.9322   18.3468 C   0  0  0  0  0  0  0  0  0  0  0  0
   -1.0871  -12.2214   17.8851 C   0  0  0  0  0  0  0  0  0  0  0  0
   -2.2706   -8.9669   19.0691 C   0  0  0  0  0  0  0  0  0  0  0  0
    3.0279   -5.3073   26.8197 C   0  0  0  0  0  0  0  0  0  0  0  0
    7.3282   -3.8948   29.1186 C   0  0  0  0  0  0  0  0  0  0  0  0
  1  3  4  0
  1  7  4  0
  2  3  1  0
  2  6  4  0
  2 16  4  0
  3 22  4  0
  4  9  4  0
  4 10  1  0
  4 20  4  0
  5 16  4  0
  5 23  4  0
  6 15  4  0
  7 12  4  0
  8 13  4  0
  8 14  4  0
  9 11  4  0
 11 14  4  0
 11 19  4  0
 12 18  4  0
 13 21  4  0
 15 23  4  0
 17 19  4  0
 17 20  4  0
 18 22  4  0
 19 21  4  0
M  END
$$$$

 Created by Python create_sdf_string function

 23 25  0  0  0  0  0  0  0  0999 V2000
    2.4610   -5.3070   29.1240 C   0  0  0  0  0  0  0  0  0  0  0  0
    4.7710   -4.6952   28.4803 C   0  0  0  0  0  0  0  0  0  0  0  0
    3.4047   -5.1087   28.1314 C   0  0  0  0  0  0  0  0  0  0  0  0
   -0.2234  -11.8615   16.8874 C   0  0  0  0  0  0  0  0  0  0  0  0
    6.4491   -4.1532   30.1213 C   0  0  0  0  0  0  0  0  0  0  0  0
    5.7060   -4.4340   27.4975 C   0  0  0  0  0  0  0  0  0  0  0  0
    1.1818   -5.6612   28.8399 C   0  0  0  0  0  0  0  0  0  0  0  0
   -1.2067   -7.3287   17.7772 C   0  0  0  0  0  0  0  0  0  0  0  0
   -0.0206  -10.5585   16.6210 C   0  0  0  0  0  0  0  0  0  0  0  0
    0.3696  -12.7626   16.2169 O   0  0  0  0  0  0  0  0  0  0  0  0
   -0.6895   -9.5676   17.3297 C   0  0  0  0  0  0  0  0  0  0  0  0
    0.8388   -5.8417   27.5264 C   0  0  0  0  0  0  0  0  0  0  0  0
   -2.0709   -7.6637   18.7817 C   0  0  0  0  0  0  0  0  0  0  0  0
   -0.5279   -8.2168   17.0717 C   0  0  0  0  0  0  0  0  0  0  0  0
    6.9694   -4.0191   27.8190 C   0  0  0  0  0  0  0  0  0  0  0  0
    5.1733   -4.5469   29.8123 C   0  0  0  0  0  0  0  0  0  0  0  0
   -1.7508  -11.3016   18.6072 C   0  0  0  0  0  0  0  0  0  0  0  0
    1.7497   -5.6771   26.4971 C   0  0  0  0  0  0  0  0  0  0  0  0
   -1.5799   -9.9322   18.3468 C   0  0  0  0  0  0  0  0  0  0  0  0
   -1.0871  -12.2214   17.8851 C   0  0  0  0  0  0  0  0  0  0  0  0
   -2.2706   -8.9669   19.0691 C   0  0  0  0  0  0  0  0  0  0  0  0
    3.0279   -5.3073   26.8197 C   0  0  0  0  0  0  0  0  0  0  0  0
    7.3282   -3.8948   29.1186 C   0  0  0  0  0  0  0  0  0  0  0  0
  1  3  4  0
  1  7  4  0
  2  3  1  0
  2  6  4  0
  2 16  4  0
  3 22  4  0
  4  9  4  0
  4 10  1  0
  4 20  4  0
  5 16  4  0
  5 23  4  0
  6 15  4  0
  7 12  4  0
  8 13  4  0
  8 14  4  0
  9 11  4  0
 11 14  4  0
 11 19  4  0
 12 18  4  0
 13 21  4  0
 15 23  4  0
 17 19  4  0
 17 20  4  0
 18 22  4  0
 19 21  4  0
M  END
$$$$

 Created by Python create_sdf_string function

 23 25  0  0  0  0  0  0  0  0999 V2000
    2.4610   -5.3070   29.1240 C   0  0  0  0  0  0  0  0  0  0  0  0
    4.7710   -4.6952   28.4803 C   0  0  0  0  0  0  0  0  0  0  0  0
    3.4047   -5.1087   28.1314 C   0  0  0  0  0  0  0  0  0  0  0  0
   -0.2234  -11.8615   16.8874 C   0  0  0  0  0  0  0  0  0  0  0  0
    6.4491   -4.1532   30.1213 C   0  0  0  0  0  0  0  0  0  0  0  0
    5.7060   -4.4340   27.4975 C   0  0  0  0  0  0  0  0  0  0  0  0
    1.1818   -5.6612   28.8399 C   0  0  0  0  0  0  0  0  0  0  0  0
   -1.2067   -7.3287   17.7772 C   0  0  0  0  0  0  0  0  0  0  0  0
   -0.0206  -10.5585   16.6210 C   0  0  0  0  0  0  0  0  0  0  0  0
    0.3696  -12.7626   16.2169 O   0  0  0  0  0  0  0  0  0  0  0  0
   -0.6895   -9.5676   17.3297 C   0  0  0  0  0  0  0  0  0  0  0  0
    0.8388   -5.8417   27.5264 C   0  0  0  0  0  0  0  0  0  0  0  0
   -2.0709   -7.6637   18.7817 C   0  0  0  0  0  0  0  0  0  0  0  0
   -0.5279   -8.2168   17.0717 C   0  0  0  0  0  0  0  0  0  0  0  0
    6.9694   -4.0191   27.8190 C   0  0  0  0  0  0  0  0  0  0  0  0
    5.1733   -4.5469   29.8123 C   0  0  0  0  0  0  0  0  0  0  0  0
   -1.7508  -11.3016   18.6072 C   0  0  0  0  0  0  0  0  0  0  0  0
    1.7497   -5.6771   26.4971 C   0  0  0  0  0  0  0  0  0  0  0  0
   -1.5799   -9.9322   18.3468 C   0  0  0  0  0  0  0  0  0  0  0  0
   -1.0871  -12.2214   17.8851 C   0  0  0  0  0  0  0  0  0  0  0  0
   -2.2706   -8.9669   19.0691 C   0  0  0  0  0  0  0  0  0  0  0  0
    3.0279   -5.3073   26.8197 C   0  0  0  0  0  0  0  0  0  0  0  0
    7.3282   -3.8948   29.1186 C   0  0  0  0  0  0  0  0  0  0  0  0
  1  3  4  0
  1  7  4  0
  2  3  1  0
  2  6  4  0
  2 16  4  0
  3 22  4  0
  4  9  4  0
  4 10  1  0
  4 20  4  0
  5 16  4  0
  5 23  4  0
  6 15  4  0
  7 12  4  0
  8 13  4  0
  8 14  4  0
  9 11  4  0
 11 14  4  0
 11 19  4  0
 12 18  4  0
 13 21  4  0
 15 23  4  0
 17 19  4  0
 17 20  4  0
 18 22  4  0
 19 21  4  0
M  END
$$$$

 Created by Python create_sdf_string function

 23 25  0  0  0  0  0  0  0  0999 V2000
    2.4610   -5.3070   29.1240 C   0  0  0  0  0  0  0  0  0  0  0  0
    4.7710   -4.6952   28.4803 C   0  0  0  0  0  0  0  0  0  0  0  0
    3.4047   -5.1087   28.1314 C   0  0  0  0  0  0  0  0  0  0  0  0
   -0.2234  -11.8615   16.8874 C   0  0  0  0  0  0  0  0  0  0  0  0
    6.4491   -4.1532   30.1213 C   0  0  0  0  0  0  0  0  0  0  0  0
    5.7060   -4.4340   27.4975 C   0  0  0  0  0  0  0  0  0  0  0  0
    1.1818   -5.6612   28.8399 C   0  0  0  0  0  0  0  0  0  0  0  0
   -1.2067   -7.3287   17.7772 C   0  0  0  0  0  0  0  0  0  0  0  0
   -0.0206  -10.5585   16.6210 C   0  0  0  0  0  0  0  0  0  0  0  0
    0.3696  -12.7626   16.2169 O   0  0  0  0  0  0  0  0  0  0  0  0
   -0.6895   -9.5676   17.3297 C   0  0  0  0  0  0  0  0  0  0  0  0
    0.8388   -5.8417   27.5264 C   0  0  0  0  0  0  0  0  0  0  0  0
   -2.0709   -7.6637   18.7817 C   0  0  0  0  0  0  0  0  0  0  0  0
   -0.5279   -8.2168   17.0717 C   0  0  0  0  0  0  0  0  0  0  0  0
    6.9694   -4.0191   27.8190 C   0  0  0  0  0  0  0  0  0  0  0  0
    5.1733   -4.5469   29.8123 C   0  0  0  0  0  0  0  0  0  0  0  0
   -1.7508  -11.3016   18.6072 C   0  0  0  0  0  0  0  0  0  0  0  0
    1.7497   -5.6771   26.4971 C   0  0  0  0  0  0  0  0  0  0  0  0
   -1.5799   -9.9322   18.3468 C   0  0  0  0  0  0  0  0  0  0  0  0
   -1.0871  -12.2214   17.8851 C   0  0  0  0  0  0  0  0  0  0  0  0
   -2.2706   -8.9669   19.0691 C   0  0  0  0  0  0  0  0  0  0  0  0
    3.0279   -5.3073   26.8197 C   0  0  0  0  0  0  0  0  0  0  0  0
    7.3282   -3.8948   29.1186 C   0  0  0  0  0  0  0  0  0  0  0  0
  1  3  4  0
  1  7  4  0
  2  3  1  0
  2  6  4  0
  2 16  4  0
  3 22  4  0
  4  9  4  0
  4 10  1  0
  4 20  4  0
  5 16  4  0
  5 23  4  0
  6 15  4  0
  7 12  4  0
  8 13  4  0
  8 14  4  0
  9 11  4  0
 11 14  4  0
 11 19  4  0
 12 18  4  0
 13 21  4  0
 15 23  4  0
 17 19  4  0
 17 20  4  0
 18 22  4  0
 19 21  4  0
M  END
$$$$

 Created by Python create_sdf_string function

 23 25  0  0  0  0  0  0  0  0999 V2000
    2.4610   -5.3070   29.1240 C   0  0  0  0  0  0  0  0  0  0  0  0
    4.7710   -4.6952   28.4803 C   0  0  0  0  0  0  0  0  0  0  0  0
    3.4047   -5.1087   28.1314 C   0  0  0  0  0  0  0  0  0  0  0  0
   -0.2234  -11.8615   16.8874 C   0  0  0  0  0  0  0  0  0  0  0  0
    6.4491   -4.1532   30.1213 C   0  0  0  0  0  0  0  0  0  0  0  0
    5.7060   -4.4340   27.4975 C   0  0  0  0  0  0  0  0  0  0  0  0
    1.1818   -5.6612   28.8399 C   0  0  0  0  0  0  0  0  0  0  0  0
   -1.2067   -7.3287   17.7772 C   0  0  0  0  0  0  0  0  0  0  0  0
   -0.0206  -10.5585   16.6210 C   0  0  0  0  0  0  0  0  0  0  0  0
    0.3696  -12.7626   16.2169 O   0  0  0  0  0  0  0  0  0  0  0  0
   -0.6895   -9.5676   17.3297 C   0  0  0  0  0  0  0  0  0  0  0  0
    0.8388   -5.8417   27.5264 C   0  0  0  0  0  0  0  0  0  0  0  0
   -2.0709   -7.6637   18.7817 C   0  0  0  0  0  0  0  0  0  0  0  0
   -0.5279   -8.2168   17.0717 C   0  0  0  0  0  0  0  0  0  0  0  0
    6.9694   -4.0191   27.8190 C   0  0  0  0  0  0  0  0  0  0  0  0
    5.1733   -4.5469   29.8123 C   0  0  0  0  0  0  0  0  0  0  0  0
   -1.7508  -11.3016   18.6072 C   0  0  0  0  0  0  0  0  0  0  0  0
    1.7497   -5.6771   26.4971 C   0  0  0  0  0  0  0  0  0  0  0  0
   -1.5799   -9.9322   18.3468 C   0  0  0  0  0  0  0  0  0  0  0  0
   -1.0871  -12.2214   17.8851 C   0  0  0  0  0  0  0  0  0  0  0  0
   -2.2706   -8.9669   19.0691 C   0  0  0  0  0  0  0  0  0  0  0  0
    3.0279   -5.3073   26.8197 C   0  0  0  0  0  0  0  0  0  0  0  0
    7.3282   -3.8948   29.1186 C   0  0  0  0  0  0  0  0  0  0  0  0
  1  3  4  0
  1  7  4  0
  2  3  1  0
  2  6  4  0
  2 16  4  0
  3 22  4  0
  4  9  4  0
  4 10  1  0
  4 20  4  0
  5 16  4  0
  5 23  4  0
  6 15  4  0
  7 12  4  0
  8 13  4  0
  8 14  4  0
  9 11  4  0
 11 14  4  0
 11 19  4  0
 12 18  4  0
 13 21  4  0
 15 23  4  0
 17 19  4  0
 17 20  4  0
 18 22  4  0
 19 21  4  0
M  END
$$$$

 Created by Python create_sdf_string function

 23 25  0  0  0  0  0  0  0  0999 V2000
    2.4610   -5.3070   29.1240 C   0  0  0  0  0  0  0  0  0  0  0  0
    4.7710   -4.6952   28.4803 C   0  0  0  0  0  0  0  0  0  0  0  0
    3.4047   -5.1087   28.1314 C   0  0  0  0  0  0  0  0  0  0  0  0
   -0.2234  -11.8615   16.8874 C   0  0  0  0  0  0  0  0  0  0  0  0
    6.4491   -4.1532   30.1213 C   0  0  0  0  0  0  0  0  0  0  0  0
    5.7060   -4.4340   27.4975 C   0  0  0  0  0  0  0  0  0  0  0  0
    1.1818   -5.6612   28.8399 C   0  0  0  0  0  0  0  0  0  0  0  0
   -1.2067   -7.3287   17.7772 C   0  0  0  0  0  0  0  0  0  0  0  0
   -0.0206  -10.5585   16.6210 C   0  0  0  0  0  0  0  0  0  0  0  0
    0.3696  -12.7626   16.2169 O   0  0  0  0  0  0  0  0  0  0  0  0
   -0.6895   -9.5676   17.3297 C   0  0  0  0  0  0  0  0  0  0  0  0
    0.8388   -5.8417   27.5264 C   0  0  0  0  0  0  0  0  0  0  0  0
   -2.0709   -7.6637   18.7817 C   0  0  0  0  0  0  0  0  0  0  0  0
   -0.5279   -8.2168   17.0717 C   0  0  0  0  0  0  0  0  0  0  0  0
    6.9694   -4.0191   27.8190 C   0  0  0  0  0  0  0  0  0  0  0  0
    5.1733   -4.5469   29.8123 C   0  0  0  0  0  0  0  0  0  0  0  0
   -1.7508  -11.3016   18.6072 C   0  0  0  0  0  0  0  0  0  0  0  0
    1.7497   -5.6771   26.4971 C   0  0  0  0  0  0  0  0  0  0  0  0
   -1.5799   -9.9322   18.3468 C   0  0  0  0  0  0  0  0  0  0  0  0
   -1.0871  -12.2214   17.8851 C   0  0  0  0  0  0  0  0  0  0  0  0
   -2.2706   -8.9669   19.0691 C   0  0  0  0  0  0  0  0  0  0  0  0
    3.0279   -5.3073   26.8197 C   0  0  0  0  0  0  0  0  0  0  0  0
    7.3282   -3.8948   29.1186 C   0  0  0  0  0  0  0  0  0  0  0  0
  1  3  4  0
  1  7  4  0
  2  3  1  0
  2  6  4  0
  2 16  4  0
  3 22  4  0
  4  9  4  0
  4 10  1  0
  4 20  4  0
  5 16  4  0
  5 23  4  0
  6 15  4  0
  7 12  4  0
  8 13  4  0
  8 14  4  0
  9 11  4  0
 11 14  4  0
 11 19  4  0
 12 18  4  0
 13 21  4  0
 15 23  4  0
 17 19  4  0
 17 20  4  0
 18 22  4  0
 19 21  4  0
M  END
$$$$

 Created by Python create_sdf_string function

 23 25  0  0  0  0  0  0  0  0999 V2000
    2.4610   -5.3070   29.1240 C   0  0  0  0  0  0  0  0  0  0  0  0
    4.7710   -4.6952   28.4803 C   0  0  0  0  0  0  0  0  0  0  0  0
    3.4047   -5.1087   28.1314 C   0  0  0  0  0  0  0  0  0  0  0  0
   -0.2234  -11.8615   16.8874 C   0  0  0  0  0  0  0  0  0  0  0  0
    6.4491   -4.1532   30.1213 C   0  0  0  0  0  0  0  0  0  0  0  0
    5.7060   -4.4340   27.4975 C   0  0  0  0  0  0  0  0  0  0  0  0
    1.1818   -5.6612   28.8399 C   0  0  0  0  0  0  0  0  0  0  0  0
   -1.2067   -7.3287   17.7772 C   0  0  0  0  0  0  0  0  0  0  0  0
   -0.0206  -10.5585   16.6210 C   0  0  0  0  0  0  0  0  0  0  0  0
    0.3696  -12.7626   16.2169 O   0  0  0  0  0  0  0  0  0  0  0  0
   -0.6895   -9.5676   17.3297 C   0  0  0  0  0  0  0  0  0  0  0  0
    0.8388   -5.8417   27.5264 C   0  0  0  0  0  0  0  0  0  0  0  0
   -2.0709   -7.6637   18.7817 C   0  0  0  0  0  0  0  0  0  0  0  0
   -0.5279   -8.2168   17.0717 C   0  0  0  0  0  0  0  0  0  0  0  0
    6.9694   -4.0191   27.8190 C   0  0  0  0  0  0  0  0  0  0  0  0
    5.1733   -4.5469   29.8123 C   0  0  0  0  0  0  0  0  0  0  0  0
   -1.7508  -11.3016   18.6072 C   0  0  0  0  0  0  0  0  0  0  0  0
    1.7497   -5.6771   26.4971 C   0  0  0  0  0  0  0  0  0  0  0  0
   -1.5799   -9.9322   18.3468 C   0  0  0  0  0  0  0  0  0  0  0  0
   -1.0871  -12.2214   17.8851 C   0  0  0  0  0  0  0  0  0  0  0  0
   -2.2706   -8.9669   19.0691 C   0  0  0  0  0  0  0  0  0  0  0  0
    3.0279   -5.3073   26.8197 C   0  0  0  0  0  0  0  0  0  0  0  0
    7.3282   -3.8948   29.1186 C   0  0  0  0  0  0  0  0  0  0  0  0
  1  3  4  0
  1  7  4  0
  2  3  1  0
  2  6  4  0
  2 16  4  0
  3 22  4  0
  4  9  4  0
  4 10  1  0
  4 20  4  0
  5 16  4  0
  5 23  4  0
  6 15  4  0
  7 12  4  0
  8 13  4  0
  8 14  4  0
  9 11  4  0
 11 14  4  0
 11 19  4  0
 12 18  4  0
 13 21  4  0
 15 23  4  0
 17 19  4  0
 17 20  4  0
 18 22  4  0
 19 21  4  0
M  END
$$$$

 Created by Python create_sdf_string function

 23 25  0  0  0  0  0  0  0  0999 V2000
    2.4610   -5.3070   29.1240 C   0  0  0  0  0  0  0  0  0  0  0  0
    4.7710   -4.6952   28.4803 C   0  0  0  0  0  0  0  0  0  0  0  0
    3.4047   -5.1087   28.1314 C   0  0  0  0  0  0  0  0  0  0  0  0
   -0.2234  -11.8615   16.8874 C   0  0  0  0  0  0  0  0  0  0  0  0
    6.4491   -4.1532   30.1213 C   0  0  0  0  0  0  0  0  0  0  0  0
    5.7060   -4.4340   27.4975 C   0  0  0  0  0  0  0  0  0  0  0  0
    1.1818   -5.6612   28.8399 C   0  0  0  0  0  0  0  0  0  0  0  0
   -1.2067   -7.3287   17.7772 C   0  0  0  0  0  0  0  0  0  0  0  0
   -0.0206  -10.5585   16.6210 C   0  0  0  0  0  0  0  0  0  0  0  0
    0.3696  -12.7626   16.2169 O   0  0  0  0  0  0  0  0  0  0  0  0
   -0.6895   -9.5676   17.3297 C   0  0  0  0  0  0  0  0  0  0  0  0
    0.8388   -5.8417   27.5264 C   0  0  0  0  0  0  0  0  0  0  0  0
   -2.0709   -7.6637   18.7817 C   0  0  0  0  0  0  0  0  0  0  0  0
   -0.5279   -8.2168   17.0717 C   0  0  0  0  0  0  0  0  0  0  0  0
    6.9694   -4.0191   27.8190 C   0  0  0  0  0  0  0  0  0  0  0  0
    5.1733   -4.5469   29.8123 C   0  0  0  0  0  0  0  0  0  0  0  0
   -1.7508  -11.3016   18.6072 C   0  0  0  0  0  0  0  0  0  0  0  0
    1.7497   -5.6771   26.4971 C   0  0  0  0  0  0  0  0  0  0  0  0
   -1.5799   -9.9322   18.3468 C   0  0  0  0  0  0  0  0  0  0  0  0
   -1.0871  -12.2214   17.8851 C   0  0  0  0  0  0  0  0  0  0  0  0
   -2.2706   -8.9669   19.0691 C   0  0  0  0  0  0  0  0  0  0  0  0
    3.0279   -5.3073   26.8197 C   0  0  0  0  0  0  0  0  0  0  0  0
    7.3282   -3.8948   29.1186 C   0  0  0  0  0  0  0  0  0  0  0  0
  1  3  4  0
  1  7  4  0
  2  3  1  0
  2  6  4  0
  2 16  4  0
  3 22  4  0
  4  9  4  0
  4 10  1  0
  4 20  4  0
  5 16  4  0
  5 23  4  0
  6 15  4  0
  7 12  4  0
  8 13  4  0
  8 14  4  0
  9 11  4  0
 11 14  4  0
 11 19  4  0
 12 18  4  0
 13 21  4  0
 15 23  4  0
 17 19  4  0
 17 20  4  0
 18 22  4  0
 19 21  4  0
M  END
$$$$

 Created by Python create_sdf_string function

 23 25  0  0  0  0  0  0  0  0999 V2000
    2.4610   -5.3070   29.1240 C   0  0  0  0  0  0  0  0  0  0  0  0
    4.7710   -4.6952   28.4803 C   0  0  0  0  0  0  0  0  0  0  0  0
    3.4047   -5.1087   28.1314 C   0  0  0  0  0  0  0  0  0  0  0  0
   -0.2234  -11.8615   16.8874 C   0  0  0  0  0  0  0  0  0  0  0  0
    6.4491   -4.1532   30.1213 C   0  0  0  0  0  0  0  0  0  0  0  0
    5.7060   -4.4340   27.4975 C   0  0  0  0  0  0  0  0  0  0  0  0
    1.1818   -5.6612   28.8399 C   0  0  0  0  0  0  0  0  0  0  0  0
   -1.2067   -7.3287   17.7772 C   0  0  0  0  0  0  0  0  0  0  0  0
   -0.0206  -10.5585   16.6210 C   0  0  0  0  0  0  0  0  0  0  0  0
    0.3696  -12.7626   16.2169 O   0  0  0  0  0  0  0  0  0  0  0  0
   -0.6895   -9.5676   17.3297 C   0  0  0  0  0  0  0  0  0  0  0  0
    0.8388   -5.8417   27.5264 C   0  0  0  0  0  0  0  0  0  0  0  0
   -2.0709   -7.6637   18.7817 C   0  0  0  0  0  0  0  0  0  0  0  0
   -0.5279   -8.2168   17.0717 C   0  0  0  0  0  0  0  0  0  0  0  0
    6.9694   -4.0191   27.8190 C   0  0  0  0  0  0  0  0  0  0  0  0
    5.1733   -4.5469   29.8123 C   0  0  0  0  0  0  0  0  0  0  0  0
   -1.7508  -11.3016   18.6072 C   0  0  0  0  0  0  0  0  0  0  0  0
    1.7497   -5.6771   26.4971 C   0  0  0  0  0  0  0  0  0  0  0  0
   -1.5799   -9.9322   18.3468 C   0  0  0  0  0  0  0  0  0  0  0  0
   -1.0871  -12.2214   17.8851 C   0  0  0  0  0  0  0  0  0  0  0  0
   -2.2706   -8.9669   19.0691 C   0  0  0  0  0  0  0  0  0  0  0  0
    3.0279   -5.3073   26.8197 C   0  0  0  0  0  0  0  0  0  0  0  0
    7.3282   -3.8948   29.1186 C   0  0  0  0  0  0  0  0  0  0  0  0
  1  3  4  0
  1  7  4  0
  2  3  1  0
  2  6  4  0
  2 16  4  0
  3 22  4  0
  4  9  4  0
  4 10  1  0
  4 20  4  0
  5 16  4  0
  5 23  4  0
  6 15  4  0
  7 12  4  0
  8 13  4  0
  8 14  4  0
  9 11  4  0
 11 14  4  0
 11 19  4  0
 12 18  4  0
 13 21  4  0
 15 23  4  0
 17 19  4  0
 17 20  4  0
 18 22  4  0
 19 21  4  0
M  END
$$$$

 Created by Python create_sdf_string function

 23 25  0  0  0  0  0  0  0  0999 V2000
    2.4610   -5.3070   29.1240 C   0  0  0  0  0  0  0  0  0  0  0  0
    4.7710   -4.6952   28.4803 C   0  0  0  0  0  0  0  0  0  0  0  0
    3.4047   -5.1087   28.1314 C   0  0  0  0  0  0  0  0  0  0  0  0
   -0.2234  -11.8615   16.8874 C   0  0  0  0  0  0  0  0  0  0  0  0
    6.4491   -4.1532   30.1213 C   0  0  0  0  0  0  0  0  0  0  0  0
    5.7060   -4.4340   27.4975 C   0  0  0  0  0  0  0  0  0  0  0  0
    1.1818   -5.6612   28.8399 C   0  0  0  0  0  0  0  0  0  0  0  0
   -1.2067   -7.3287   17.7772 C   0  0  0  0  0  0  0  0  0  0  0  0
   -0.0206  -10.5585   16.6210 C   0  0  0  0  0  0  0  0  0  0  0  0
    0.3696  -12.7626   16.2169 O   0  0  0  0  0  0  0  0  0  0  0  0
   -0.6895   -9.5676   17.3297 C   0  0  0  0  0  0  0  0  0  0  0  0
    0.8388   -5.8417   27.5264 C   0  0  0  0  0  0  0  0  0  0  0  0
   -2.0709   -7.6637   18.7817 C   0  0  0  0  0  0  0  0  0  0  0  0
   -0.5279   -8.2168   17.0717 C   0  0  0  0  0  0  0  0  0  0  0  0
    6.9694   -4.0191   27.8190 C   0  0  0  0  0  0  0  0  0  0  0  0
    5.1733   -4.5469   29.8123 C   0  0  0  0  0  0  0  0  0  0  0  0
   -1.7508  -11.3016   18.6072 C   0  0  0  0  0  0  0  0  0  0  0  0
    1.7497   -5.6771   26.4971 C   0  0  0  0  0  0  0  0  0  0  0  0
   -1.5799   -9.9322   18.3468 C   0  0  0  0  0  0  0  0  0  0  0  0
   -1.0871  -12.2214   17.8851 C   0  0  0  0  0  0  0  0  0  0  0  0
   -2.2706   -8.9669   19.0691 C   0  0  0  0  0  0  0  0  0  0  0  0
    3.0279   -5.3073   26.8197 C   0  0  0  0  0  0  0  0  0  0  0  0
    7.3282   -3.8948   29.1186 C   0  0  0  0  0  0  0  0  0  0  0  0
  1  3  4  0
  1  7  4  0
  2  3  1  0
  2  6  4  0
  2 16  4  0
  3 22  4  0
  4  9  4  0
  4 10  1  0
  4 20  4  0
  5 16  4  0
  5 23  4  0
  6 15  4  0
  7 12  4  0
  8 13  4  0
  8 14  4  0
  9 11  4  0
 11 14  4  0
 11 19  4  0
 12 18  4  0
 13 21  4  0
 15 23  4  0
 17 19  4  0
 17 20  4  0
 18 22  4  0
 19 21  4  0
M  END
$$$$

 Created by Python create_sdf_string function

 23 25  0  0  0  0  0  0  0  0999 V2000
    2.4610   -5.3070   29.1240 C   0  0  0  0  0  0  0  0  0  0  0  0
    4.7710   -4.6952   28.4803 C   0  0  0  0  0  0  0  0  0  0  0  0
    3.4047   -5.1087   28.1314 C   0  0  0  0  0  0  0  0  0  0  0  0
   -0.2234  -11.8615   16.8874 C   0  0  0  0  0  0  0  0  0  0  0  0
    6.4491   -4.1532   30.1213 C   0  0  0  0  0  0  0  0  0  0  0  0
    5.7060   -4.4340   27.4975 C   0  0  0  0  0  0  0  0  0  0  0  0
    1.1818   -5.6612   28.8399 C   0  0  0  0  0  0  0  0  0  0  0  0
   -1.2067   -7.3287   17.7772 C   0  0  0  0  0  0  0  0  0  0  0  0
   -0.0206  -10.5585   16.6210 C   0  0  0  0  0  0  0  0  0  0  0  0
    0.3696  -12.7626   16.2169 O   0  0  0  0  0  0  0  0  0  0  0  0
   -0.6895   -9.5676   17.3297 C   0  0  0  0  0  0  0  0  0  0  0  0
    0.8388   -5.8417   27.5264 C   0  0  0  0  0  0  0  0  0  0  0  0
   -2.0709   -7.6637   18.7817 C   0  0  0  0  0  0  0  0  0  0  0  0
   -0.5279   -8.2168   17.0717 C   0  0  0  0  0  0  0  0  0  0  0  0
    6.9694   -4.0191   27.8190 C   0  0  0  0  0  0  0  0  0  0  0  0
    5.1733   -4.5469   29.8123 C   0  0  0  0  0  0  0  0  0  0  0  0
   -1.7508  -11.3016   18.6072 C   0  0  0  0  0  0  0  0  0  0  0  0
    1.7497   -5.6771   26.4971 C   0  0  0  0  0  0  0  0  0  0  0  0
   -1.5799   -9.9322   18.3468 C   0  0  0  0  0  0  0  0  0  0  0  0
   -1.0871  -12.2214   17.8851 C   0  0  0  0  0  0  0  0  0  0  0  0
   -2.2706   -8.9669   19.0691 C   0  0  0  0  0  0  0  0  0  0  0  0
    3.0279   -5.3073   26.8197 C   0  0  0  0  0  0  0  0  0  0  0  0
    7.3282   -3.8948   29.1186 C   0  0  0  0  0  0  0  0  0  0  0  0
  1  3  4  0
  1  7  4  0
  2  3  1  0
  2  6  4  0
  2 16  4  0
  3 22  4  0
  4  9  4  0
  4 10  1  0
  4 20  4  0
  5 16  4  0
  5 23  4  0
  6 15  4  0
  7 12  4  0
  8 13  4  0
  8 14  4  0
  9 11  4  0
 11 14  4  0
 11 19  4  0
 12 18  4  0
 13 21  4  0
 15 23  4  0
 17 19  4  0
 17 20  4  0
 18 22  4  0
 19 21  4  0
M  END
$$$$

 Created by Python create_sdf_string function

 23 25  0  0  0  0  0  0  0  0999 V2000
    2.4610   -5.3070   29.1240 C   0  0  0  0  0  0  0  0  0  0  0  0
    4.7710   -4.6952   28.4803 C   0  0  0  0  0  0  0  0  0  0  0  0
    3.4047   -5.1087   28.1314 C   0  0  0  0  0  0  0  0  0  0  0  0
   -0.2234  -11.8615   16.8874 C   0  0  0  0  0  0  0  0  0  0  0  0
    6.4491   -4.1532   30.1213 C   0  0  0  0  0  0  0  0  0  0  0  0
    5.7060   -4.4340   27.4975 C   0  0  0  0  0  0  0  0  0  0  0  0
    1.1818   -5.6612   28.8399 C   0  0  0  0  0  0  0  0  0  0  0  0
   -1.2067   -7.3287   17.7772 C   0  0  0  0  0  0  0  0  0  0  0  0
   -0.0206  -10.5585   16.6210 C   0  0  0  0  0  0  0  0  0  0  0  0
    0.3696  -12.7626   16.2169 O   0  0  0  0  0  0  0  0  0  0  0  0
   -0.6895   -9.5676   17.3297 C   0  0  0  0  0  0  0  0  0  0  0  0
    0.8388   -5.8417   27.5264 C   0  0  0  0  0  0  0  0  0  0  0  0
   -2.0709   -7.6637   18.7817 C   0  0  0  0  0  0  0  0  0  0  0  0
   -0.5279   -8.2168   17.0717 C   0  0  0  0  0  0  0  0  0  0  0  0
    6.9694   -4.0191   27.8190 C   0  0  0  0  0  0  0  0  0  0  0  0
    5.1733   -4.5469   29.8123 C   0  0  0  0  0  0  0  0  0  0  0  0
   -1.7508  -11.3016   18.6072 C   0  0  0  0  0  0  0  0  0  0  0  0
    1.7497   -5.6771   26.4971 C   0  0  0  0  0  0  0  0  0  0  0  0
   -1.5799   -9.9322   18.3468 C   0  0  0  0  0  0  0  0  0  0  0  0
   -1.0871  -12.2214   17.8851 C   0  0  0  0  0  0  0  0  0  0  0  0
   -2.2706   -8.9669   19.0691 C   0  0  0  0  0  0  0  0  0  0  0  0
    3.0279   -5.3073   26.8197 C   0  0  0  0  0  0  0  0  0  0  0  0
    7.3282   -3.8948   29.1186 C   0  0  0  0  0  0  0  0  0  0  0  0
  1  3  4  0
  1  7  4  0
  2  3  1  0
  2  6  4  0
  2 16  4  0
  3 22  4  0
  4  9  4  0
  4 10  1  0
  4 20  4  0
  5 16  4  0
  5 23  4  0
  6 15  4  0
  7 12  4  0
  8 13  4  0
  8 14  4  0
  9 11  4  0
 11 14  4  0
 11 19  4  0
 12 18  4  0
 13 21  4  0
 15 23  4  0
 17 19  4  0
 17 20  4  0
 18 22  4  0
 19 21  4  0
M  END
$$$$

 Created by Python create_sdf_string function

 23 25  0  0  0  0  0  0  0  0999 V2000
    2.4610   -5.3070   29.1240 C   0  0  0  0  0  0  0  0  0  0  0  0
    4.7710   -4.6952   28.4803 C   0  0  0  0  0  0  0  0  0  0  0  0
    3.4047   -5.1087   28.1314 C   0  0  0  0  0  0  0  0  0  0  0  0
   -0.2234  -11.8615   16.8874 C   0  0  0  0  0  0  0  0  0  0  0  0
    6.4491   -4.1532   30.1213 C   0  0  0  0  0  0  0  0  0  0  0  0
    5.7060   -4.4340   27.4975 C   0  0  0  0  0  0  0  0  0  0  0  0
    1.1818   -5.6612   28.8399 C   0  0  0  0  0  0  0  0  0  0  0  0
   -1.2067   -7.3287   17.7772 C   0  0  0  0  0  0  0  0  0  0  0  0
   -0.0206  -10.5585   16.6210 C   0  0  0  0  0  0  0  0  0  0  0  0
    0.3696  -12.7626   16.2169 O   0  0  0  0  0  0  0  0  0  0  0  0
   -0.6895   -9.5676   17.3297 C   0  0  0  0  0  0  0  0  0  0  0  0
    0.8388   -5.8417   27.5264 C   0  0  0  0  0  0  0  0  0  0  0  0
   -2.0709   -7.6637   18.7817 C   0  0  0  0  0  0  0  0  0  0  0  0
   -0.5279   -8.2168   17.0717 C   0  0  0  0  0  0  0  0  0  0  0  0
    6.9694   -4.0191   27.8190 C   0  0  0  0  0  0  0  0  0  0  0  0
    5.1733   -4.5469   29.8123 C   0  0  0  0  0  0  0  0  0  0  0  0
   -1.7508  -11.3016   18.6072 C   0  0  0  0  0  0  0  0  0  0  0  0
    1.7497   -5.6771   26.4971 C   0  0  0  0  0  0  0  0  0  0  0  0
   -1.5799   -9.9322   18.3468 C   0  0  0  0  0  0  0  0  0  0  0  0
   -1.0871  -12.2214   17.8851 C   0  0  0  0  0  0  0  0  0  0  0  0
   -2.2706   -8.9669   19.0691 C   0  0  0  0  0  0  0  0  0  0  0  0
    3.0279   -5.3073   26.8197 C   0  0  0  0  0  0  0  0  0  0  0  0
    7.3282   -3.8948   29.1186 C   0  0  0  0  0  0  0  0  0  0  0  0
  1  3  4  0
  1  7  4  0
  2  3  1  0
  2  6  4  0
  2 16  4  0
  3 22  4  0
  4  9  4  0
  4 10  1  0
  4 20  4  0
  5 16  4  0
  5 23  4  0
  6 15  4  0
  7 12  4  0
  8 13  4  0
  8 14  4  0
  9 11  4  0
 11 14  4  0
 11 19  4  0
 12 18  4  0
 13 21  4  0
 15 23  4  0
 17 19  4  0
 17 20  4  0
 18 22  4  0
 19 21  4  0
M  END
$$$$

 Created by Python create_sdf_string function

 23 25  0  0  0  0  0  0  0  0999 V2000
    2.4610   -5.3070   29.1240 C   0  0  0  0  0  0  0  0  0  0  0  0
    4.7710   -4.6952   28.4803 C   0  0  0  0  0  0  0  0  0  0  0  0
    3.4047   -5.1087   28.1314 C   0  0  0  0  0  0  0  0  0  0  0  0
   -0.2234  -11.8615   16.8874 C   0  0  0  0  0  0  0  0  0  0  0  0
    6.4491   -4.1532   30.1213 C   0  0  0  0  0  0  0  0  0  0  0  0
    5.7060   -4.4340   27.4975 C   0  0  0  0  0  0  0  0  0  0  0  0
    1.1818   -5.6612   28.8399 C   0  0  0  0  0  0  0  0  0  0  0  0
   -1.2067   -7.3287   17.7772 C   0  0  0  0  0  0  0  0  0  0  0  0
   -0.0206  -10.5585   16.6210 C   0  0  0  0  0  0  0  0  0  0  0  0
    0.3696  -12.7626   16.2169 O   0  0  0  0  0  0  0  0  0  0  0  0
   -0.6895   -9.5676   17.3297 C   0  0  0  0  0  0  0  0  0  0  0  0
    0.8388   -5.8417   27.5264 C   0  0  0  0  0  0  0  0  0  0  0  0
   -2.0709   -7.6637   18.7817 C   0  0  0  0  0  0  0  0  0  0  0  0
   -0.5279   -8.2168   17.0717 C   0  0  0  0  0  0  0  0  0  0  0  0
    6.9694   -4.0191   27.8190 C   0  0  0  0  0  0  0  0  0  0  0  0
    5.1733   -4.5469   29.8123 C   0  0  0  0  0  0  0  0  0  0  0  0
   -1.7508  -11.3016   18.6072 C   0  0  0  0  0  0  0  0  0  0  0  0
    1.7497   -5.6771   26.4971 C   0  0  0  0  0  0  0  0  0  0  0  0
   -1.5799   -9.9322   18.3468 C   0  0  0  0  0  0  0  0  0  0  0  0
   -1.0871  -12.2214   17.8851 C   0  0  0  0  0  0  0  0  0  0  0  0
   -2.2706   -8.9669   19.0691 C   0  0  0  0  0  0  0  0  0  0  0  0
    3.0279   -5.3073   26.8197 C   0  0  0  0  0  0  0  0  0  0  0  0
    7.3282   -3.8948   29.1186 C   0  0  0  0  0  0  0  0  0  0  0  0
  1  3  4  0
  1  7  4  0
  2  3  1  0
  2  6  4  0
  2 16  4  0
  3 22  4  0
  4  9  4  0
  4 10  1  0
  4 20  4  0
  5 16  4  0
  5 23  4  0
  6 15  4  0
  7 12  4  0
  8 13  4  0
  8 14  4  0
  9 11  4  0
 11 14  4  0
 11 19  4  0
 12 18  4  0
 13 21  4  0
 15 23  4  0
 17 19  4  0
 17 20  4  0
 18 22  4  0
 19 21  4  0
M  END
$$$$

 Created by Python create_sdf_string function

 23 25  0  0  0  0  0  0  0  0999 V2000
    2.4610   -5.3070   29.1240 C   0  0  0  0  0  0  0  0  0  0  0  0
    4.7710   -4.6952   28.4803 C   0  0  0  0  0  0  0  0  0  0  0  0
    3.4047   -5.1087   28.1314 C   0  0  0  0  0  0  0  0  0  0  0  0
   -0.2234  -11.8615   16.8874 C   0  0  0  0  0  0  0  0  0  0  0  0
    6.4491   -4.1532   30.1213 C   0  0  0  0  0  0  0  0  0  0  0  0
    5.7060   -4.4340   27.4975 C   0  0  0  0  0  0  0  0  0  0  0  0
    1.1818   -5.6612   28.8399 C   0  0  0  0  0  0  0  0  0  0  0  0
   -1.2067   -7.3287   17.7772 C   0  0  0  0  0  0  0  0  0  0  0  0
   -0.0206  -10.5585   16.6210 C   0  0  0  0  0  0  0  0  0  0  0  0
    0.3696  -12.7626   16.2169 O   0  0  0  0  0  0  0  0  0  0  0  0
   -0.6895   -9.5676   17.3297 C   0  0  0  0  0  0  0  0  0  0  0  0
    0.8388   -5.8417   27.5264 C   0  0  0  0  0  0  0  0  0  0  0  0
   -2.0709   -7.6637   18.7817 C   0  0  0  0  0  0  0  0  0  0  0  0
   -0.5279   -8.2168   17.0717 C   0  0  0  0  0  0  0  0  0  0  0  0
    6.9694   -4.0191   27.8190 C   0  0  0  0  0  0  0  0  0  0  0  0
    5.1733   -4.5469   29.8123 C   0  0  0  0  0  0  0  0  0  0  0  0
   -1.7508  -11.3016   18.6072 C   0  0  0  0  0  0  0  0  0  0  0  0
    1.7497   -5.6771   26.4971 C   0  0  0  0  0  0  0  0  0  0  0  0
   -1.5799   -9.9322   18.3468 C   0  0  0  0  0  0  0  0  0  0  0  0
   -1.0871  -12.2214   17.8851 C   0  0  0  0  0  0  0  0  0  0  0  0
   -2.2706   -8.9669   19.0691 C   0  0  0  0  0  0  0  0  0  0  0  0
    3.0279   -5.3073   26.8197 C   0  0  0  0  0  0  0  0  0  0  0  0
    7.3282   -3.8948   29.1186 C   0  0  0  0  0  0  0  0  0  0  0  0
  1  3  4  0
  1  7  4  0
  2  3  1  0
  2  6  4  0
  2 16  4  0
  3 22  4  0
  4  9  4  0
  4 10  1  0
  4 20  4  0
  5 16  4  0
  5 23  4  0
  6 15  4  0
  7 12  4  0
  8 13  4  0
  8 14  4  0
  9 11  4  0
 11 14  4  0
 11 19  4  0
 12 18  4  0
 13 21  4  0
 15 23  4  0
 17 19  4  0
 17 20  4  0
 18 22  4  0
 19 21  4  0
M  END
$$$$

 Created by Python create_sdf_string function

 23 25  0  0  0  0  0  0  0  0999 V2000
    2.4610   -5.3070   29.1240 C   0  0  0  0  0  0  0  0  0  0  0  0
    4.7710   -4.6952   28.4803 C   0  0  0  0  0  0  0  0  0  0  0  0
    3.4047   -5.1087   28.1314 C   0  0  0  0  0  0  0  0  0  0  0  0
   -0.2234  -11.8615   16.8874 C   0  0  0  0  0  0  0  0  0  0  0  0
    6.4491   -4.1532   30.1213 C   0  0  0  0  0  0  0  0  0  0  0  0
    5.7060   -4.4340   27.4975 C   0  0  0  0  0  0  0  0  0  0  0  0
    1.1818   -5.6612   28.8399 C   0  0  0  0  0  0  0  0  0  0  0  0
   -1.2067   -7.3287   17.7772 C   0  0  0  0  0  0  0  0  0  0  0  0
   -0.0206  -10.5585   16.6210 C   0  0  0  0  0  0  0  0  0  0  0  0
    0.3696  -12.7626   16.2169 O   0  0  0  0  0  0  0  0  0  0  0  0
   -0.6895   -9.5676   17.3297 C   0  0  0  0  0  0  0  0  0  0  0  0
    0.8388   -5.8417   27.5264 C   0  0  0  0  0  0  0  0  0  0  0  0
   -2.0709   -7.6637   18.7817 C   0  0  0  0  0  0  0  0  0  0  0  0
   -0.5279   -8.2168   17.0717 C   0  0  0  0  0  0  0  0  0  0  0  0
    6.9694   -4.0191   27.8190 C   0  0  0  0  0  0  0  0  0  0  0  0
    5.1733   -4.5469   29.8123 C   0  0  0  0  0  0  0  0  0  0  0  0
   -1.7508  -11.3016   18.6072 C   0  0  0  0  0  0  0  0  0  0  0  0
    1.7497   -5.6771   26.4971 C   0  0  0  0  0  0  0  0  0  0  0  0
   -1.5799   -9.9322   18.3468 C   0  0  0  0  0  0  0  0  0  0  0  0
   -1.0871  -12.2214   17.8851 C   0  0  0  0  0  0  0  0  0  0  0  0
   -2.2706   -8.9669   19.0691 C   0  0  0  0  0  0  0  0  0  0  0  0
    3.0279   -5.3073   26.8197 C   0  0  0  0  0  0  0  0  0  0  0  0
    7.3282   -3.8948   29.1186 C   0  0  0  0  0  0  0  0  0  0  0  0
  1  3  4  0
  1  7  4  0
  2  3  1  0
  2  6  4  0
  2 16  4  0
  3 22  4  0
  4  9  4  0
  4 10  1  0
  4 20  4  0
  5 16  4  0
  5 23  4  0
  6 15  4  0
  7 12  4  0
  8 13  4  0
  8 14  4  0
  9 11  4  0
 11 14  4  0
 11 19  4  0
 12 18  4  0
 13 21  4  0
 15 23  4  0
 17 19  4  0
 17 20  4  0
 18 22  4  0
 19 21  4  0
M  END
$$$$

 Created by Python create_sdf_string function

 23 25  0  0  0  0  0  0  0  0999 V2000
    2.4610   -5.3070   29.1240 C   0  0  0  0  0  0  0  0  0  0  0  0
    4.7710   -4.6952   28.4803 C   0  0  0  0  0  0  0  0  0  0  0  0
    3.4047   -5.1087   28.1314 C   0  0  0  0  0  0  0  0  0  0  0  0
   -0.2234  -11.8615   16.8874 C   0  0  0  0  0  0  0  0  0  0  0  0
    6.4491   -4.1532   30.1213 C   0  0  0  0  0  0  0  0  0  0  0  0
    5.7060   -4.4340   27.4975 C   0  0  0  0  0  0  0  0  0  0  0  0
    1.1818   -5.6612   28.8399 C   0  0  0  0  0  0  0  0  0  0  0  0
   -1.2067   -7.3287   17.7772 C   0  0  0  0  0  0  0  0  0  0  0  0
   -0.0206  -10.5585   16.6210 C   0  0  0  0  0  0  0  0  0  0  0  0
    0.3696  -12.7626   16.2169 O   0  0  0  0  0  0  0  0  0  0  0  0
   -0.6895   -9.5676   17.3297 C   0  0  0  0  0  0  0  0  0  0  0  0
    0.8388   -5.8417   27.5264 C   0  0  0  0  0  0  0  0  0  0  0  0
   -2.0709   -7.6637   18.7817 C   0  0  0  0  0  0  0  0  0  0  0  0
   -0.5279   -8.2168   17.0717 C   0  0  0  0  0  0  0  0  0  0  0  0
    6.9694   -4.0191   27.8190 C   0  0  0  0  0  0  0  0  0  0  0  0
    5.1733   -4.5469   29.8123 C   0  0  0  0  0  0  0  0  0  0  0  0
   -1.7508  -11.3016   18.6072 C   0  0  0  0  0  0  0  0  0  0  0  0
    1.7497   -5.6771   26.4971 C   0  0  0  0  0  0  0  0  0  0  0  0
   -1.5799   -9.9322   18.3468 C   0  0  0  0  0  0  0  0  0  0  0  0
   -1.0871  -12.2214   17.8851 C   0  0  0  0  0  0  0  0  0  0  0  0
   -2.2706   -8.9669   19.0691 C   0  0  0  0  0  0  0  0  0  0  0  0
    3.0279   -5.3073   26.8197 C   0  0  0  0  0  0  0  0  0  0  0  0
    7.3282   -3.8948   29.1186 C   0  0  0  0  0  0  0  0  0  0  0  0
  1  3  4  0
  1  7  4  0
  2  3  1  0
  2  6  4  0
  2 16  4  0
  3 22  4  0
  4  9  4  0
  4 10  1  0
  4 20  4  0
  5 16  4  0
  5 23  4  0
  6 15  4  0
  7 12  4  0
  8 13  4  0
  8 14  4  0
  9 11  4  0
 11 14  4  0
 11 19  4  0
 12 18  4  0
 13 21  4  0
 15 23  4  0
 17 19  4  0
 17 20  4  0
 18 22  4  0
 19 21  4  0
M  END
$$$$

 Created by Python create_sdf_string function

 23 25  0  0  0  0  0  0  0  0999 V2000
    2.4610   -5.3070   29.1240 C   0  0  0  0  0  0  0  0  0  0  0  0
    4.7710   -4.6952   28.4803 C   0  0  0  0  0  0  0  0  0  0  0  0
    3.4047   -5.1087   28.1314 C   0  0  0  0  0  0  0  0  0  0  0  0
   -0.2234  -11.8615   16.8874 C   0  0  0  0  0  0  0  0  0  0  0  0
    6.4491   -4.1532   30.1213 C   0  0  0  0  0  0  0  0  0  0  0  0
    5.7060   -4.4340   27.4975 C   0  0  0  0  0  0  0  0  0  0  0  0
    1.1818   -5.6612   28.8399 C   0  0  0  0  0  0  0  0  0  0  0  0
   -1.2067   -7.3287   17.7772 C   0  0  0  0  0  0  0  0  0  0  0  0
   -0.0206  -10.5585   16.6210 C   0  0  0  0  0  0  0  0  0  0  0  0
    0.3696  -12.7626   16.2169 O   0  0  0  0  0  0  0  0  0  0  0  0
   -0.6895   -9.5676   17.3297 C   0  0  0  0  0  0  0  0  0  0  0  0
    0.8388   -5.8417   27.5264 C   0  0  0  0  0  0  0  0  0  0  0  0
   -2.0709   -7.6637   18.7817 C   0  0  0  0  0  0  0  0  0  0  0  0
   -0.5279   -8.2168   17.0717 C   0  0  0  0  0  0  0  0  0  0  0  0
    6.9694   -4.0191   27.8190 C   0  0  0  0  0  0  0  0  0  0  0  0
    5.1733   -4.5469   29.8123 C   0  0  0  0  0  0  0  0  0  0  0  0
   -1.7508  -11.3016   18.6072 C   0  0  0  0  0  0  0  0  0  0  0  0
    1.7497   -5.6771   26.4971 C   0  0  0  0  0  0  0  0  0  0  0  0
   -1.5799   -9.9322   18.3468 C   0  0  0  0  0  0  0  0  0  0  0  0
   -1.0871  -12.2214   17.8851 C   0  0  0  0  0  0  0  0  0  0  0  0
   -2.2706   -8.9669   19.0691 C   0  0  0  0  0  0  0  0  0  0  0  0
    3.0279   -5.3073   26.8197 C   0  0  0  0  0  0  0  0  0  0  0  0
    7.3282   -3.8948   29.1186 C   0  0  0  0  0  0  0  0  0  0  0  0
  1  3  4  0
  1  7  4  0
  2  3  1  0
  2  6  4  0
  2 16  4  0
  3 22  4  0
  4  9  4  0
  4 10  1  0
  4 20  4  0
  5 16  4  0
  5 23  4  0
  6 15  4  0
  7 12  4  0
  8 13  4  0
  8 14  4  0
  9 11  4  0
 11 14  4  0
 11 19  4  0
 12 18  4  0
 13 21  4  0
 15 23  4  0
 17 19  4  0
 17 20  4  0
 18 22  4  0
 19 21  4  0
M  END
$$$$

 Created by Python create_sdf_string function

 23 25  0  0  0  0  0  0  0  0999 V2000
    2.4610   -5.3070   29.1240 C   0  0  0  0  0  0  0  0  0  0  0  0
    4.7710   -4.6952   28.4803 C   0  0  0  0  0  0  0  0  0  0  0  0
    3.4047   -5.1087   28.1314 C   0  0  0  0  0  0  0  0  0  0  0  0
   -0.2234  -11.8615   16.8874 C   0  0  0  0  0  0  0  0  0  0  0  0
    6.4491   -4.1532   30.1213 C   0  0  0  0  0  0  0  0  0  0  0  0
    5.7060   -4.4340   27.4975 C   0  0  0  0  0  0  0  0  0  0  0  0
    1.1818   -5.6612   28.8399 C   0  0  0  0  0  0  0  0  0  0  0  0
   -1.2067   -7.3287   17.7772 C   0  0  0  0  0  0  0  0  0  0  0  0
   -0.0206  -10.5585   16.6210 C   0  0  0  0  0  0  0  0  0  0  0  0
    0.3696  -12.7626   16.2169 O   0  0  0  0  0  0  0  0  0  0  0  0
   -0.6895   -9.5676   17.3297 C   0  0  0  0  0  0  0  0  0  0  0  0
    0.8388   -5.8417   27.5264 C   0  0  0  0  0  0  0  0  0  0  0  0
   -2.0709   -7.6637   18.7817 C   0  0  0  0  0  0  0  0  0  0  0  0
   -0.5279   -8.2168   17.0717 C   0  0  0  0  0  0  0  0  0  0  0  0
    6.9694   -4.0191   27.8190 C   0  0  0  0  0  0  0  0  0  0  0  0
    5.1733   -4.5469   29.8123 C   0  0  0  0  0  0  0  0  0  0  0  0
   -1.7508  -11.3016   18.6072 C   0  0  0  0  0  0  0  0  0  0  0  0
    1.7497   -5.6771   26.4971 C   0  0  0  0  0  0  0  0  0  0  0  0
   -1.5799   -9.9322   18.3468 C   0  0  0  0  0  0  0  0  0  0  0  0
   -1.0871  -12.2214   17.8851 C   0  0  0  0  0  0  0  0  0  0  0  0
   -2.2706   -8.9669   19.0691 C   0  0  0  0  0  0  0  0  0  0  0  0
    3.0279   -5.3073   26.8197 C   0  0  0  0  0  0  0  0  0  0  0  0
    7.3282   -3.8948   29.1186 C   0  0  0  0  0  0  0  0  0  0  0  0
  1  3  4  0
  1  7  4  0
  2  3  1  0
  2  6  4  0
  2 16  4  0
  3 22  4  0
  4  9  4  0
  4 10  1  0
  4 20  4  0
  5 16  4  0
  5 23  4  0
  6 15  4  0
  7 12  4  0
  8 13  4  0
  8 14  4  0
  9 11  4  0
 11 14  4  0
 11 19  4  0
 12 18  4  0
 13 21  4  0
 15 23  4  0
 17 19  4  0
 17 20  4  0
 18 22  4  0
 19 21  4  0
M  END
$$$$

 Created by Python create_sdf_string function

 23 25  0  0  0  0  0  0  0  0999 V2000
    2.4610   -5.3070   29.1240 C   0  0  0  0  0  0  0  0  0  0  0  0
    4.7710   -4.6952   28.4803 C   0  0  0  0  0  0  0  0  0  0  0  0
    3.4047   -5.1087   28.1314 C   0  0  0  0  0  0  0  0  0  0  0  0
   -0.2234  -11.8615   16.8874 C   0  0  0  0  0  0  0  0  0  0  0  0
    6.4491   -4.1532   30.1213 C   0  0  0  0  0  0  0  0  0  0  0  0
    5.7060   -4.4340   27.4975 C   0  0  0  0  0  0  0  0  0  0  0  0
    1.1818   -5.6612   28.8399 C   0  0  0  0  0  0  0  0  0  0  0  0
   -1.2067   -7.3287   17.7772 C   0  0  0  0  0  0  0  0  0  0  0  0
   -0.0206  -10.5585   16.6210 C   0  0  0  0  0  0  0  0  0  0  0  0
    0.3696  -12.7626   16.2169 O   0  0  0  0  0  0  0  0  0  0  0  0
   -0.6895   -9.5676   17.3297 C   0  0  0  0  0  0  0  0  0  0  0  0
    0.8388   -5.8417   27.5264 C   0  0  0  0  0  0  0  0  0  0  0  0
   -2.0709   -7.6637   18.7817 C   0  0  0  0  0  0  0  0  0  0  0  0
   -0.5279   -8.2168   17.0717 C   0  0  0  0  0  0  0  0  0  0  0  0
    6.9694   -4.0191   27.8190 C   0  0  0  0  0  0  0  0  0  0  0  0
    5.1733   -4.5469   29.8123 C   0  0  0  0  0  0  0  0  0  0  0  0
   -1.7508  -11.3016   18.6072 C   0  0  0  0  0  0  0  0  0  0  0  0
    1.7497   -5.6771   26.4971 C   0  0  0  0  0  0  0  0  0  0  0  0
   -1.5799   -9.9322   18.3468 C   0  0  0  0  0  0  0  0  0  0  0  0
   -1.0871  -12.2214   17.8851 C   0  0  0  0  0  0  0  0  0  0  0  0
   -2.2706   -8.9669   19.0691 C   0  0  0  0  0  0  0  0  0  0  0  0
    3.0279   -5.3073   26.8197 C   0  0  0  0  0  0  0  0  0  0  0  0
    7.3282   -3.8948   29.1186 C   0  0  0  0  0  0  0  0  0  0  0  0
  1  3  4  0
  1  7  4  0
  2  3  1  0
  2  6  4  0
  2 16  4  0
  3 22  4  0
  4  9  4  0
  4 10  1  0
  4 20  4  0
  5 16  4  0
  5 23  4  0
  6 15  4  0
  7 12  4  0
  8 13  4  0
  8 14  4  0
  9 11  4  0
 11 14  4  0
 11 19  4  0
 12 18  4  0
 13 21  4  0
 15 23  4  0
 17 19  4  0
 17 20  4  0
 18 22  4  0
 19 21  4  0
M  END
$$$$

 Created by Python create_sdf_string function

 23 25  0  0  0  0  0  0  0  0999 V2000
    2.4610   -5.3070   29.1240 C   0  0  0  0  0  0  0  0  0  0  0  0
    4.7710   -4.6952   28.4803 C   0  0  0  0  0  0  0  0  0  0  0  0
    3.4047   -5.1087   28.1314 C   0  0  0  0  0  0  0  0  0  0  0  0
   -0.2234  -11.8615   16.8874 C   0  0  0  0  0  0  0  0  0  0  0  0
    6.4491   -4.1532   30.1213 C   0  0  0  0  0  0  0  0  0  0  0  0
    5.7060   -4.4340   27.4975 C   0  0  0  0  0  0  0  0  0  0  0  0
    1.1818   -5.6612   28.8399 C   0  0  0  0  0  0  0  0  0  0  0  0
   -1.2067   -7.3287   17.7772 C   0  0  0  0  0  0  0  0  0  0  0  0
   -0.0206  -10.5585   16.6210 C   0  0  0  0  0  0  0  0  0  0  0  0
    0.3696  -12.7626   16.2169 O   0  0  0  0  0  0  0  0  0  0  0  0
   -0.6895   -9.5676   17.3297 C   0  0  0  0  0  0  0  0  0  0  0  0
    0.8388   -5.8417   27.5264 C   0  0  0  0  0  0  0  0  0  0  0  0
   -2.0709   -7.6637   18.7817 C   0  0  0  0  0  0  0  0  0  0  0  0
   -0.5279   -8.2168   17.0717 C   0  0  0  0  0  0  0  0  0  0  0  0
    6.9694   -4.0191   27.8190 C   0  0  0  0  0  0  0  0  0  0  0  0
    5.1733   -4.5469   29.8123 C   0  0  0  0  0  0  0  0  0  0  0  0
   -1.7508  -11.3016   18.6072 C   0  0  0  0  0  0  0  0  0  0  0  0
    1.7497   -5.6771   26.4971 C   0  0  0  0  0  0  0  0  0  0  0  0
   -1.5799   -9.9322   18.3468 C   0  0  0  0  0  0  0  0  0  0  0  0
   -1.0871  -12.2214   17.8851 C   0  0  0  0  0  0  0  0  0  0  0  0
   -2.2706   -8.9669   19.0691 C   0  0  0  0  0  0  0  0  0  0  0  0
    3.0279   -5.3073   26.8197 C   0  0  0  0  0  0  0  0  0  0  0  0
    7.3282   -3.8948   29.1186 C   0  0  0  0  0  0  0  0  0  0  0  0
  1  3  4  0
  1  7  4  0
  2  3  1  0
  2  6  4  0
  2 16  4  0
  3 22  4  0
  4  9  4  0
  4 10  1  0
  4 20  4  0
  5 16  4  0
  5 23  4  0
  6 15  4  0
  7 12  4  0
  8 13  4  0
  8 14  4  0
  9 11  4  0
 11 14  4  0
 11 19  4  0
 12 18  4  0
 13 21  4  0
 15 23  4  0
 17 19  4  0
 17 20  4  0
 18 22  4  0
 19 21  4  0
M  END
$$$$

 Created by Python create_sdf_string function

 23 25  0  0  0  0  0  0  0  0999 V2000
    2.4610   -5.3070   29.1240 C   0  0  0  0  0  0  0  0  0  0  0  0
    4.7710   -4.6952   28.4803 C   0  0  0  0  0  0  0  0  0  0  0  0
    3.4047   -5.1087   28.1314 C   0  0  0  0  0  0  0  0  0  0  0  0
   -0.2234  -11.8615   16.8874 C   0  0  0  0  0  0  0  0  0  0  0  0
    6.4491   -4.1532   30.1213 C   0  0  0  0  0  0  0  0  0  0  0  0
    5.7060   -4.4340   27.4975 C   0  0  0  0  0  0  0  0  0  0  0  0
    1.1818   -5.6612   28.8399 C   0  0  0  0  0  0  0  0  0  0  0  0
   -1.2067   -7.3287   17.7772 C   0  0  0  0  0  0  0  0  0  0  0  0
   -0.0206  -10.5585   16.6210 C   0  0  0  0  0  0  0  0  0  0  0  0
    0.3696  -12.7626   16.2169 O   0  0  0  0  0  0  0  0  0  0  0  0
   -0.6895   -9.5676   17.3297 C   0  0  0  0  0  0  0  0  0  0  0  0
    0.8388   -5.8417   27.5264 C   0  0  0  0  0  0  0  0  0  0  0  0
   -2.0709   -7.6637   18.7817 C   0  0  0  0  0  0  0  0  0  0  0  0
   -0.5279   -8.2168   17.0717 C   0  0  0  0  0  0  0  0  0  0  0  0
    6.9694   -4.0191   27.8190 C   0  0  0  0  0  0  0  0  0  0  0  0
    5.1733   -4.5469   29.8123 C   0  0  0  0  0  0  0  0  0  0  0  0
   -1.7508  -11.3016   18.6072 C   0  0  0  0  0  0  0  0  0  0  0  0
    1.7497   -5.6771   26.4971 C   0  0  0  0  0  0  0  0  0  0  0  0
   -1.5799   -9.9322   18.3468 C   0  0  0  0  0  0  0  0  0  0  0  0
   -1.0871  -12.2214   17.8851 C   0  0  0  0  0  0  0  0  0  0  0  0
   -2.2706   -8.9669   19.0691 C   0  0  0  0  0  0  0  0  0  0  0  0
    3.0279   -5.3073   26.8197 C   0  0  0  0  0  0  0  0  0  0  0  0
    7.3282   -3.8948   29.1186 C   0  0  0  0  0  0  0  0  0  0  0  0
  1  3  4  0
  1  7  4  0
  2  3  1  0
  2  6  4  0
  2 16  4  0
  3 22  4  0
  4  9  4  0
  4 10  1  0
  4 20  4  0
  5 16  4  0
  5 23  4  0
  6 15  4  0
  7 12  4  0
  8 13  4  0
  8 14  4  0
  9 11  4  0
 11 14  4  0
 11 19  4  0
 12 18  4  0
 13 21  4  0
 15 23  4  0
 17 19  4  0
 17 20  4  0
 18 22  4  0
 19 21  4  0
M  END
$$$$

 Created by Python create_sdf_string function

 23 25  0  0  0  0  0  0  0  0999 V2000
    2.4610   -5.3070   29.1240 C   0  0  0  0  0  0  0  0  0  0  0  0
    4.7710   -4.6952   28.4803 C   0  0  0  0  0  0  0  0  0  0  0  0
    3.4047   -5.1087   28.1314 C   0  0  0  0  0  0  0  0  0  0  0  0
   -0.2234  -11.8615   16.8874 C   0  0  0  0  0  0  0  0  0  0  0  0
    6.4491   -4.1532   30.1213 C   0  0  0  0  0  0  0  0  0  0  0  0
    5.7060   -4.4340   27.4975 C   0  0  0  0  0  0  0  0  0  0  0  0
    1.1818   -5.6612   28.8399 C   0  0  0  0  0  0  0  0  0  0  0  0
   -1.2067   -7.3287   17.7772 C   0  0  0  0  0  0  0  0  0  0  0  0
   -0.0206  -10.5585   16.6210 C   0  0  0  0  0  0  0  0  0  0  0  0
    0.3696  -12.7626   16.2169 O   0  0  0  0  0  0  0  0  0  0  0  0
   -0.6895   -9.5676   17.3297 C   0  0  0  0  0  0  0  0  0  0  0  0
    0.8388   -5.8417   27.5264 C   0  0  0  0  0  0  0  0  0  0  0  0
   -2.0709   -7.6637   18.7817 C   0  0  0  0  0  0  0  0  0  0  0  0
   -0.5279   -8.2168   17.0717 C   0  0  0  0  0  0  0  0  0  0  0  0
    6.9694   -4.0191   27.8190 C   0  0  0  0  0  0  0  0  0  0  0  0
    5.1733   -4.5469   29.8123 C   0  0  0  0  0  0  0  0  0  0  0  0
   -1.7508  -11.3016   18.6072 C   0  0  0  0  0  0  0  0  0  0  0  0
    1.7497   -5.6771   26.4971 C   0  0  0  0  0  0  0  0  0  0  0  0
   -1.5799   -9.9322   18.3468 C   0  0  0  0  0  0  0  0  0  0  0  0
   -1.0871  -12.2214   17.8851 C   0  0  0  0  0  0  0  0  0  0  0  0
   -2.2706   -8.9669   19.0691 C   0  0  0  0  0  0  0  0  0  0  0  0
    3.0279   -5.3073   26.8197 C   0  0  0  0  0  0  0  0  0  0  0  0
    7.3282   -3.8948   29.1186 C   0  0  0  0  0  0  0  0  0  0  0  0
  1  3  4  0
  1  7  4  0
  2  3  1  0
  2  6  4  0
  2 16  4  0
  3 22  4  0
  4  9  4  0
  4 10  1  0
  4 20  4  0
  5 16  4  0
  5 23  4  0
  6 15  4  0
  7 12  4  0
  8 13  4  0
  8 14  4  0
  9 11  4  0
 11 14  4  0
 11 19  4  0
 12 18  4  0
 13 21  4  0
 15 23  4  0
 17 19  4  0
 17 20  4  0
 18 22  4  0
 19 21  4  0
M  END
$$$$

 Created by Python create_sdf_string function

 23 25  0  0  0  0  0  0  0  0999 V2000
    2.4610   -5.3070   29.1240 C   0  0  0  0  0  0  0  0  0  0  0  0
    4.7710   -4.6952   28.4803 C   0  0  0  0  0  0  0  0  0  0  0  0
    3.4047   -5.1087   28.1314 C   0  0  0  0  0  0  0  0  0  0  0  0
   -0.2234  -11.8615   16.8874 C   0  0  0  0  0  0  0  0  0  0  0  0
    6.4491   -4.1532   30.1213 C   0  0  0  0  0  0  0  0  0  0  0  0
    5.7060   -4.4340   27.4975 C   0  0  0  0  0  0  0  0  0  0  0  0
    1.1818   -5.6612   28.8399 C   0  0  0  0  0  0  0  0  0  0  0  0
   -1.2067   -7.3287   17.7772 C   0  0  0  0  0  0  0  0  0  0  0  0
   -0.0206  -10.5585   16.6210 C   0  0  0  0  0  0  0  0  0  0  0  0
    0.3696  -12.7626   16.2169 O   0  0  0  0  0  0  0  0  0  0  0  0
   -0.6895   -9.5676   17.3297 C   0  0  0  0  0  0  0  0  0  0  0  0
    0.8388   -5.8417   27.5264 C   0  0  0  0  0  0  0  0  0  0  0  0
   -2.0709   -7.6637   18.7817 C   0  0  0  0  0  0  0  0  0  0  0  0
   -0.5279   -8.2168   17.0717 C   0  0  0  0  0  0  0  0  0  0  0  0
    6.9694   -4.0191   27.8190 C   0  0  0  0  0  0  0  0  0  0  0  0
    5.1733   -4.5469   29.8123 C   0  0  0  0  0  0  0  0  0  0  0  0
   -1.7508  -11.3016   18.6072 C   0  0  0  0  0  0  0  0  0  0  0  0
    1.7497   -5.6771   26.4971 C   0  0  0  0  0  0  0  0  0  0  0  0
   -1.5799   -9.9322   18.3468 C   0  0  0  0  0  0  0  0  0  0  0  0
   -1.0871  -12.2214   17.8851 C   0  0  0  0  0  0  0  0  0  0  0  0
   -2.2706   -8.9669   19.0691 C   0  0  0  0  0  0  0  0  0  0  0  0
    3.0279   -5.3073   26.8197 C   0  0  0  0  0  0  0  0  0  0  0  0
    7.3282   -3.8948   29.1186 C   0  0  0  0  0  0  0  0  0  0  0  0
  1  3  4  0
  1  7  4  0
  2  3  1  0
  2  6  4  0
  2 16  4  0
  3 22  4  0
  4  9  4  0
  4 10  1  0
  4 20  4  0
  5 16  4  0
  5 23  4  0
  6 15  4  0
  7 12  4  0
  8 13  4  0
  8 14  4  0
  9 11  4  0
 11 14  4  0
 11 19  4  0
 12 18  4  0
 13 21  4  0
 15 23  4  0
 17 19  4  0
 17 20  4  0
 18 22  4  0
 19 21  4  0
M  END
$$$$

 Created by Python create_sdf_string function

 23 25  0  0  0  0  0  0  0  0999 V2000
    2.4610   -5.3070   29.1240 C   0  0  0  0  0  0  0  0  0  0  0  0
    4.7710   -4.6952   28.4803 C   0  0  0  0  0  0  0  0  0  0  0  0
    3.4047   -5.1087   28.1314 C   0  0  0  0  0  0  0  0  0  0  0  0
   -0.2234  -11.8615   16.8874 C   0  0  0  0  0  0  0  0  0  0  0  0
    6.4491   -4.1532   30.1213 C   0  0  0  0  0  0  0  0  0  0  0  0
    5.7060   -4.4340   27.4975 C   0  0  0  0  0  0  0  0  0  0  0  0
    1.1818   -5.6612   28.8399 C   0  0  0  0  0  0  0  0  0  0  0  0
   -1.2067   -7.3287   17.7772 C   0  0  0  0  0  0  0  0  0  0  0  0
   -0.0206  -10.5585   16.6210 C   0  0  0  0  0  0  0  0  0  0  0  0
    0.3696  -12.7626   16.2169 O   0  0  0  0  0  0  0  0  0  0  0  0
   -0.6895   -9.5676   17.3297 C   0  0  0  0  0  0  0  0  0  0  0  0
    0.8388   -5.8417   27.5264 C   0  0  0  0  0  0  0  0  0  0  0  0
   -2.0709   -7.6637   18.7817 C   0  0  0  0  0  0  0  0  0  0  0  0
   -0.5279   -8.2168   17.0717 C   0  0  0  0  0  0  0  0  0  0  0  0
    6.9694   -4.0191   27.8190 C   0  0  0  0  0  0  0  0  0  0  0  0
    5.1733   -4.5469   29.8123 C   0  0  0  0  0  0  0  0  0  0  0  0
   -1.7508  -11.3016   18.6072 C   0  0  0  0  0  0  0  0  0  0  0  0
    1.7497   -5.6771   26.4971 C   0  0  0  0  0  0  0  0  0  0  0  0
   -1.5799   -9.9322   18.3468 C   0  0  0  0  0  0  0  0  0  0  0  0
   -1.0871  -12.2214   17.8851 C   0  0  0  0  0  0  0  0  0  0  0  0
   -2.2706   -8.9669   19.0691 C   0  0  0  0  0  0  0  0  0  0  0  0
    3.0279   -5.3073   26.8197 C   0  0  0  0  0  0  0  0  0  0  0  0
    7.3282   -3.8948   29.1186 C   0  0  0  0  0  0  0  0  0  0  0  0
  1  3  4  0
  1  7  4  0
  2  3  1  0
  2  6  4  0
  2 16  4  0
  3 22  4  0
  4  9  4  0
  4 10  1  0
  4 20  4  0
  5 16  4  0
  5 23  4  0
  6 15  4  0
  7 12  4  0
  8 13  4  0
  8 14  4  0
  9 11  4  0
 11 14  4  0
 11 19  4  0
 12 18  4  0
 13 21  4  0
 15 23  4  0
 17 19  4  0
 17 20  4  0
 18 22  4  0
 19 21  4  0
M  END
$$$$

 Created by Python create_sdf_string function

 23 25  0  0  0  0  0  0  0  0999 V2000
    2.4610   -5.3070   29.1240 C   0  0  0  0  0  0  0  0  0  0  0  0
    4.7710   -4.6952   28.4803 C   0  0  0  0  0  0  0  0  0  0  0  0
    3.4047   -5.1087   28.1314 C   0  0  0  0  0  0  0  0  0  0  0  0
   -0.2234  -11.8615   16.8874 C   0  0  0  0  0  0  0  0  0  0  0  0
    6.4491   -4.1532   30.1213 C   0  0  0  0  0  0  0  0  0  0  0  0
    5.7060   -4.4340   27.4975 C   0  0  0  0  0  0  0  0  0  0  0  0
    1.1818   -5.6612   28.8399 C   0  0  0  0  0  0  0  0  0  0  0  0
   -1.2067   -7.3287   17.7772 C   0  0  0  0  0  0  0  0  0  0  0  0
   -0.0206  -10.5585   16.6210 C   0  0  0  0  0  0  0  0  0  0  0  0
    0.3696  -12.7626   16.2169 O   0  0  0  0  0  0  0  0  0  0  0  0
   -0.6895   -9.5676   17.3297 C   0  0  0  0  0  0  0  0  0  0  0  0
    0.8388   -5.8417   27.5264 C   0  0  0  0  0  0  0  0  0  0  0  0
   -2.0709   -7.6637   18.7817 C   0  0  0  0  0  0  0  0  0  0  0  0
   -0.5279   -8.2168   17.0717 C   0  0  0  0  0  0  0  0  0  0  0  0
    6.9694   -4.0191   27.8190 C   0  0  0  0  0  0  0  0  0  0  0  0
    5.1733   -4.5469   29.8123 C   0  0  0  0  0  0  0  0  0  0  0  0
   -1.7508  -11.3016   18.6072 C   0  0  0  0  0  0  0  0  0  0  0  0
    1.7497   -5.6771   26.4971 C   0  0  0  0  0  0  0  0  0  0  0  0
   -1.5799   -9.9322   18.3468 C   0  0  0  0  0  0  0  0  0  0  0  0
   -1.0871  -12.2214   17.8851 C   0  0  0  0  0  0  0  0  0  0  0  0
   -2.2706   -8.9669   19.0691 C   0  0  0  0  0  0  0  0  0  0  0  0
    3.0279   -5.3073   26.8197 C   0  0  0  0  0  0  0  0  0  0  0  0
    7.3282   -3.8948   29.1186 C   0  0  0  0  0  0  0  0  0  0  0  0
  1  3  4  0
  1  7  4  0
  2  3  1  0
  2  6  4  0
  2 16  4  0
  3 22  4  0
  4  9  4  0
  4 10  1  0
  4 20  4  0
  5 16  4  0
  5 23  4  0
  6 15  4  0
  7 12  4  0
  8 13  4  0
  8 14  4  0
  9 11  4  0
 11 14  4  0
 11 19  4  0
 12 18  4  0
 13 21  4  0
 15 23  4  0
 17 19  4  0
 17 20  4  0
 18 22  4  0
 19 21  4  0
M  END
$$$$

 Created by Python create_sdf_string function

 23 25  0  0  0  0  0  0  0  0999 V2000
    2.4610   -5.3070   29.1240 C   0  0  0  0  0  0  0  0  0  0  0  0
    4.7710   -4.6952   28.4803 C   0  0  0  0  0  0  0  0  0  0  0  0
    3.4047   -5.1087   28.1314 C   0  0  0  0  0  0  0  0  0  0  0  0
   -0.2234  -11.8615   16.8874 C   0  0  0  0  0  0  0  0  0  0  0  0
    6.4491   -4.1532   30.1213 C   0  0  0  0  0  0  0  0  0  0  0  0
    5.7060   -4.4340   27.4975 C   0  0  0  0  0  0  0  0  0  0  0  0
    1.1818   -5.6612   28.8399 C   0  0  0  0  0  0  0  0  0  0  0  0
   -1.2067   -7.3287   17.7772 C   0  0  0  0  0  0  0  0  0  0  0  0
   -0.0206  -10.5585   16.6210 C   0  0  0  0  0  0  0  0  0  0  0  0
    0.3696  -12.7626   16.2169 O   0  0  0  0  0  0  0  0  0  0  0  0
   -0.6895   -9.5676   17.3297 C   0  0  0  0  0  0  0  0  0  0  0  0
    0.8388   -5.8417   27.5264 C   0  0  0  0  0  0  0  0  0  0  0  0
   -2.0709   -7.6637   18.7817 C   0  0  0  0  0  0  0  0  0  0  0  0
   -0.5279   -8.2168   17.0717 C   0  0  0  0  0  0  0  0  0  0  0  0
    6.9694   -4.0191   27.8190 C   0  0  0  0  0  0  0  0  0  0  0  0
    5.1733   -4.5469   29.8123 C   0  0  0  0  0  0  0  0  0  0  0  0
   -1.7508  -11.3016   18.6072 C   0  0  0  0  0  0  0  0  0  0  0  0
    1.7497   -5.6771   26.4971 C   0  0  0  0  0  0  0  0  0  0  0  0
   -1.5799   -9.9322   18.3468 C   0  0  0  0  0  0  0  0  0  0  0  0
   -1.0871  -12.2214   17.8851 C   0  0  0  0  0  0  0  0  0  0  0  0
   -2.2706   -8.9669   19.0691 C   0  0  0  0  0  0  0  0  0  0  0  0
    3.0279   -5.3073   26.8197 C   0  0  0  0  0  0  0  0  0  0  0  0
    7.3282   -3.8948   29.1186 C   0  0  0  0  0  0  0  0  0  0  0  0
  1  3  4  0
  1  7  4  0
  2  3  1  0
  2  6  4  0
  2 16  4  0
  3 22  4  0
  4  9  4  0
  4 10  1  0
  4 20  4  0
  5 16  4  0
  5 23  4  0
  6 15  4  0
  7 12  4  0
  8 13  4  0
  8 14  4  0
  9 11  4  0
 11 14  4  0
 11 19  4  0
 12 18  4  0
 13 21  4  0
 15 23  4  0
 17 19  4  0
 17 20  4  0
 18 22  4  0
 19 21  4  0
M  END
$$$$

 Created by Python create_sdf_string function

 23 25  0  0  0  0  0  0  0  0999 V2000
    2.4610   -5.3070   29.1240 C   0  0  0  0  0  0  0  0  0  0  0  0
    4.7710   -4.6952   28.4803 C   0  0  0  0  0  0  0  0  0  0  0  0
    3.4047   -5.1087   28.1314 C   0  0  0  0  0  0  0  0  0  0  0  0
   -0.2234  -11.8615   16.8874 C   0  0  0  0  0  0  0  0  0  0  0  0
    6.4491   -4.1532   30.1213 C   0  0  0  0  0  0  0  0  0  0  0  0
    5.7060   -4.4340   27.4975 C   0  0  0  0  0  0  0  0  0  0  0  0
    1.1818   -5.6612   28.8399 C   0  0  0  0  0  0  0  0  0  0  0  0
   -1.2067   -7.3287   17.7772 C   0  0  0  0  0  0  0  0  0  0  0  0
   -0.0206  -10.5585   16.6210 C   0  0  0  0  0  0  0  0  0  0  0  0
    0.3696  -12.7626   16.2169 O   0  0  0  0  0  0  0  0  0  0  0  0
   -0.6895   -9.5676   17.3297 C   0  0  0  0  0  0  0  0  0  0  0  0
    0.8388   -5.8417   27.5264 C   0  0  0  0  0  0  0  0  0  0  0  0
   -2.0709   -7.6637   18.7817 C   0  0  0  0  0  0  0  0  0  0  0  0
   -0.5279   -8.2168   17.0717 C   0  0  0  0  0  0  0  0  0  0  0  0
    6.9694   -4.0191   27.8190 C   0  0  0  0  0  0  0  0  0  0  0  0
    5.1733   -4.5469   29.8123 C   0  0  0  0  0  0  0  0  0  0  0  0
   -1.7508  -11.3016   18.6072 C   0  0  0  0  0  0  0  0  0  0  0  0
    1.7497   -5.6771   26.4971 C   0  0  0  0  0  0  0  0  0  0  0  0
   -1.5799   -9.9322   18.3468 C   0  0  0  0  0  0  0  0  0  0  0  0
   -1.0871  -12.2214   17.8851 C   0  0  0  0  0  0  0  0  0  0  0  0
   -2.2706   -8.9669   19.0691 C   0  0  0  0  0  0  0  0  0  0  0  0
    3.0279   -5.3073   26.8197 C   0  0  0  0  0  0  0  0  0  0  0  0
    7.3282   -3.8948   29.1186 C   0  0  0  0  0  0  0  0  0  0  0  0
  1  3  4  0
  1  7  4  0
  2  3  1  0
  2  6  4  0
  2 16  4  0
  3 22  4  0
  4  9  4  0
  4 10  1  0
  4 20  4  0
  5 16  4  0
  5 23  4  0
  6 15  4  0
  7 12  4  0
  8 13  4  0
  8 14  4  0
  9 11  4  0
 11 14  4  0
 11 19  4  0
 12 18  4  0
 13 21  4  0
 15 23  4  0
 17 19  4  0
 17 20  4  0
 18 22  4  0
 19 21  4  0
M  END
$$$$

 Created by Python create_sdf_string function

 23 25  0  0  0  0  0  0  0  0999 V2000
    2.4610   -5.3070   29.1240 C   0  0  0  0  0  0  0  0  0  0  0  0
    4.7710   -4.6952   28.4803 C   0  0  0  0  0  0  0  0  0  0  0  0
    3.4047   -5.1087   28.1314 C   0  0  0  0  0  0  0  0  0  0  0  0
   -0.2234  -11.8615   16.8874 C   0  0  0  0  0  0  0  0  0  0  0  0
    6.4491   -4.1532   30.1213 C   0  0  0  0  0  0  0  0  0  0  0  0
    5.7060   -4.4340   27.4975 C   0  0  0  0  0  0  0  0  0  0  0  0
    1.1818   -5.6612   28.8399 C   0  0  0  0  0  0  0  0  0  0  0  0
   -1.2067   -7.3287   17.7772 C   0  0  0  0  0  0  0  0  0  0  0  0
   -0.0206  -10.5585   16.6210 C   0  0  0  0  0  0  0  0  0  0  0  0
    0.3696  -12.7626   16.2169 O   0  0  0  0  0  0  0  0  0  0  0  0
   -0.6895   -9.5676   17.3297 C   0  0  0  0  0  0  0  0  0  0  0  0
    0.8388   -5.8417   27.5264 C   0  0  0  0  0  0  0  0  0  0  0  0
   -2.0709   -7.6637   18.7817 C   0  0  0  0  0  0  0  0  0  0  0  0
   -0.5279   -8.2168   17.0717 C   0  0  0  0  0  0  0  0  0  0  0  0
    6.9694   -4.0191   27.8190 C   0  0  0  0  0  0  0  0  0  0  0  0
    5.1733   -4.5469   29.8123 C   0  0  0  0  0  0  0  0  0  0  0  0
   -1.7508  -11.3016   18.6072 C   0  0  0  0  0  0  0  0  0  0  0  0
    1.7497   -5.6771   26.4971 C   0  0  0  0  0  0  0  0  0  0  0  0
   -1.5799   -9.9322   18.3468 C   0  0  0  0  0  0  0  0  0  0  0  0
   -1.0871  -12.2214   17.8851 C   0  0  0  0  0  0  0  0  0  0  0  0
   -2.2706   -8.9669   19.0691 C   0  0  0  0  0  0  0  0  0  0  0  0
    3.0279   -5.3073   26.8197 C   0  0  0  0  0  0  0  0  0  0  0  0
    7.3282   -3.8948   29.1186 C   0  0  0  0  0  0  0  0  0  0  0  0
  1  3  4  0
  1  7  4  0
  2  3  1  0
  2  6  4  0
  2 16  4  0
  3 22  4  0
  4  9  4  0
  4 10  1  0
  4 20  4  0
  5 16  4  0
  5 23  4  0
  6 15  4  0
  7 12  4  0
  8 13  4  0
  8 14  4  0
  9 11  4  0
 11 14  4  0
 11 19  4  0
 12 18  4  0
 13 21  4  0
 15 23  4  0
 17 19  4  0
 17 20  4  0
 18 22  4  0
 19 21  4  0
M  END
$$$$

 Created by Python create_sdf_string function

 23 25  0  0  0  0  0  0  0  0999 V2000
    2.4610   -5.3070   29.1240 C   0  0  0  0  0  0  0  0  0  0  0  0
    4.7710   -4.6952   28.4803 C   0  0  0  0  0  0  0  0  0  0  0  0
    3.4047   -5.1087   28.1314 C   0  0  0  0  0  0  0  0  0  0  0  0
   -0.2234  -11.8615   16.8874 C   0  0  0  0  0  0  0  0  0  0  0  0
    6.4491   -4.1532   30.1213 C   0  0  0  0  0  0  0  0  0  0  0  0
    5.7060   -4.4340   27.4975 C   0  0  0  0  0  0  0  0  0  0  0  0
    1.1818   -5.6612   28.8399 C   0  0  0  0  0  0  0  0  0  0  0  0
   -1.2067   -7.3287   17.7772 C   0  0  0  0  0  0  0  0  0  0  0  0
   -0.0206  -10.5585   16.6210 C   0  0  0  0  0  0  0  0  0  0  0  0
    0.3696  -12.7626   16.2169 O   0  0  0  0  0  0  0  0  0  0  0  0
   -0.6895   -9.5676   17.3297 C   0  0  0  0  0  0  0  0  0  0  0  0
    0.8388   -5.8417   27.5264 C   0  0  0  0  0  0  0  0  0  0  0  0
   -2.0709   -7.6637   18.7817 C   0  0  0  0  0  0  0  0  0  0  0  0
   -0.5279   -8.2168   17.0717 C   0  0  0  0  0  0  0  0  0  0  0  0
    6.9694   -4.0191   27.8190 C   0  0  0  0  0  0  0  0  0  0  0  0
    5.1733   -4.5469   29.8123 C   0  0  0  0  0  0  0  0  0  0  0  0
   -1.7508  -11.3016   18.6072 C   0  0  0  0  0  0  0  0  0  0  0  0
    1.7497   -5.6771   26.4971 C   0  0  0  0  0  0  0  0  0  0  0  0
   -1.5799   -9.9322   18.3468 C   0  0  0  0  0  0  0  0  0  0  0  0
   -1.0871  -12.2214   17.8851 C   0  0  0  0  0  0  0  0  0  0  0  0
   -2.2706   -8.9669   19.0691 C   0  0  0  0  0  0  0  0  0  0  0  0
    3.0279   -5.3073   26.8197 C   0  0  0  0  0  0  0  0  0  0  0  0
    7.3282   -3.8948   29.1186 C   0  0  0  0  0  0  0  0  0  0  0  0
  1  3  4  0
  1  7  4  0
  2  3  1  0
  2  6  4  0
  2 16  4  0
  3 22  4  0
  4  9  4  0
  4 10  1  0
  4 20  4  0
  5 16  4  0
  5 23  4  0
  6 15  4  0
  7 12  4  0
  8 13  4  0
  8 14  4  0
  9 11  4  0
 11 14  4  0
 11 19  4  0
 12 18  4  0
 13 21  4  0
 15 23  4  0
 17 19  4  0
 17 20  4  0
 18 22  4  0
 19 21  4  0
M  END
$$$$

 Created by Python create_sdf_string function

 23 25  0  0  0  0  0  0  0  0999 V2000
    2.4610   -5.3070   29.1240 C   0  0  0  0  0  0  0  0  0  0  0  0
    4.7710   -4.6952   28.4803 C   0  0  0  0  0  0  0  0  0  0  0  0
    3.4047   -5.1087   28.1314 C   0  0  0  0  0  0  0  0  0  0  0  0
   -0.2234  -11.8615   16.8874 C   0  0  0  0  0  0  0  0  0  0  0  0
    6.4491   -4.1532   30.1213 C   0  0  0  0  0  0  0  0  0  0  0  0
    5.7060   -4.4340   27.4975 C   0  0  0  0  0  0  0  0  0  0  0  0
    1.1818   -5.6612   28.8399 C   0  0  0  0  0  0  0  0  0  0  0  0
   -1.2067   -7.3287   17.7772 C   0  0  0  0  0  0  0  0  0  0  0  0
   -0.0206  -10.5585   16.6210 C   0  0  0  0  0  0  0  0  0  0  0  0
    0.3696  -12.7626   16.2169 O   0  0  0  0  0  0  0  0  0  0  0  0
   -0.6895   -9.5676   17.3297 C   0  0  0  0  0  0  0  0  0  0  0  0
    0.8388   -5.8417   27.5264 C   0  0  0  0  0  0  0  0  0  0  0  0
   -2.0709   -7.6637   18.7817 C   0  0  0  0  0  0  0  0  0  0  0  0
   -0.5279   -8.2168   17.0717 C   0  0  0  0  0  0  0  0  0  0  0  0
    6.9694   -4.0191   27.8190 C   0  0  0  0  0  0  0  0  0  0  0  0
    5.1733   -4.5469   29.8123 C   0  0  0  0  0  0  0  0  0  0  0  0
   -1.7508  -11.3016   18.6072 C   0  0  0  0  0  0  0  0  0  0  0  0
    1.7497   -5.6771   26.4971 C   0  0  0  0  0  0  0  0  0  0  0  0
   -1.5799   -9.9322   18.3468 C   0  0  0  0  0  0  0  0  0  0  0  0
   -1.0871  -12.2214   17.8851 C   0  0  0  0  0  0  0  0  0  0  0  0
   -2.2706   -8.9669   19.0691 C   0  0  0  0  0  0  0  0  0  0  0  0
    3.0279   -5.3073   26.8197 C   0  0  0  0  0  0  0  0  0  0  0  0
    7.3282   -3.8948   29.1186 C   0  0  0  0  0  0  0  0  0  0  0  0
  1  3  4  0
  1  7  4  0
  2  3  1  0
  2  6  4  0
  2 16  4  0
  3 22  4  0
  4  9  4  0
  4 10  1  0
  4 20  4  0
  5 16  4  0
  5 23  4  0
  6 15  4  0
  7 12  4  0
  8 13  4  0
  8 14  4  0
  9 11  4  0
 11 14  4  0
 11 19  4  0
 12 18  4  0
 13 21  4  0
 15 23  4  0
 17 19  4  0
 17 20  4  0
 18 22  4  0
 19 21  4  0
M  END
$$$$

 Created by Python create_sdf_string function

 23 25  0  0  0  0  0  0  0  0999 V2000
    2.4610   -5.3070   29.1240 C   0  0  0  0  0  0  0  0  0  0  0  0
    4.7710   -4.6952   28.4803 C   0  0  0  0  0  0  0  0  0  0  0  0
    3.4047   -5.1087   28.1314 C   0  0  0  0  0  0  0  0  0  0  0  0
   -0.2234  -11.8615   16.8874 C   0  0  0  0  0  0  0  0  0  0  0  0
    6.4491   -4.1532   30.1213 C   0  0  0  0  0  0  0  0  0  0  0  0
    5.7060   -4.4340   27.4975 C   0  0  0  0  0  0  0  0  0  0  0  0
    1.1818   -5.6612   28.8399 C   0  0  0  0  0  0  0  0  0  0  0  0
   -1.2067   -7.3287   17.7772 C   0  0  0  0  0  0  0  0  0  0  0  0
   -0.0206  -10.5585   16.6210 C   0  0  0  0  0  0  0  0  0  0  0  0
    0.3696  -12.7626   16.2169 O   0  0  0  0  0  0  0  0  0  0  0  0
   -0.6895   -9.5676   17.3297 C   0  0  0  0  0  0  0  0  0  0  0  0
    0.8388   -5.8417   27.5264 C   0  0  0  0  0  0  0  0  0  0  0  0
   -2.0709   -7.6637   18.7817 C   0  0  0  0  0  0  0  0  0  0  0  0
   -0.5279   -8.2168   17.0717 C   0  0  0  0  0  0  0  0  0  0  0  0
    6.9694   -4.0191   27.8190 C   0  0  0  0  0  0  0  0  0  0  0  0
    5.1733   -4.5469   29.8123 C   0  0  0  0  0  0  0  0  0  0  0  0
   -1.7508  -11.3016   18.6072 C   0  0  0  0  0  0  0  0  0  0  0  0
    1.7497   -5.6771   26.4971 C   0  0  0  0  0  0  0  0  0  0  0  0
   -1.5799   -9.9322   18.3468 C   0  0  0  0  0  0  0  0  0  0  0  0
   -1.0871  -12.2214   17.8851 C   0  0  0  0  0  0  0  0  0  0  0  0
   -2.2706   -8.9669   19.0691 C   0  0  0  0  0  0  0  0  0  0  0  0
    3.0279   -5.3073   26.8197 C   0  0  0  0  0  0  0  0  0  0  0  0
    7.3282   -3.8948   29.1186 C   0  0  0  0  0  0  0  0  0  0  0  0
  1  3  4  0
  1  7  4  0
  2  3  1  0
  2  6  4  0
  2 16  4  0
  3 22  4  0
  4  9  4  0
  4 10  1  0
  4 20  4  0
  5 16  4  0
  5 23  4  0
  6 15  4  0
  7 12  4  0
  8 13  4  0
  8 14  4  0
  9 11  4  0
 11 14  4  0
 11 19  4  0
 12 18  4  0
 13 21  4  0
 15 23  4  0
 17 19  4  0
 17 20  4  0
 18 22  4  0
 19 21  4  0
M  END
$$$$

 Created by Python create_sdf_string function

 23 25  0  0  0  0  0  0  0  0999 V2000
    2.4610   -5.3070   29.1240 C   0  0  0  0  0  0  0  0  0  0  0  0
    4.7710   -4.6952   28.4803 C   0  0  0  0  0  0  0  0  0  0  0  0
    3.4047   -5.1087   28.1314 C   0  0  0  0  0  0  0  0  0  0  0  0
   -0.2234  -11.8615   16.8874 C   0  0  0  0  0  0  0  0  0  0  0  0
    6.4491   -4.1532   30.1213 C   0  0  0  0  0  0  0  0  0  0  0  0
    5.7060   -4.4340   27.4975 C   0  0  0  0  0  0  0  0  0  0  0  0
    1.1818   -5.6612   28.8399 C   0  0  0  0  0  0  0  0  0  0  0  0
   -1.2067   -7.3287   17.7772 C   0  0  0  0  0  0  0  0  0  0  0  0
   -0.0206  -10.5585   16.6210 C   0  0  0  0  0  0  0  0  0  0  0  0
    0.3696  -12.7626   16.2169 O   0  0  0  0  0  0  0  0  0  0  0  0
   -0.6895   -9.5676   17.3297 C   0  0  0  0  0  0  0  0  0  0  0  0
    0.8388   -5.8417   27.5264 C   0  0  0  0  0  0  0  0  0  0  0  0
   -2.0709   -7.6637   18.7817 C   0  0  0  0  0  0  0  0  0  0  0  0
   -0.5279   -8.2168   17.0717 C   0  0  0  0  0  0  0  0  0  0  0  0
    6.9694   -4.0191   27.8190 C   0  0  0  0  0  0  0  0  0  0  0  0
    5.1733   -4.5469   29.8123 C   0  0  0  0  0  0  0  0  0  0  0  0
   -1.7508  -11.3016   18.6072 C   0  0  0  0  0  0  0  0  0  0  0  0
    1.7497   -5.6771   26.4971 C   0  0  0  0  0  0  0  0  0  0  0  0
   -1.5799   -9.9322   18.3468 C   0  0  0  0  0  0  0  0  0  0  0  0
   -1.0871  -12.2214   17.8851 C   0  0  0  0  0  0  0  0  0  0  0  0
   -2.2706   -8.9669   19.0691 C   0  0  0  0  0  0  0  0  0  0  0  0
    3.0279   -5.3073   26.8197 C   0  0  0  0  0  0  0  0  0  0  0  0
    7.3282   -3.8948   29.1186 C   0  0  0  0  0  0  0  0  0  0  0  0
  1  3  4  0
  1  7  4  0
  2  3  1  0
  2  6  4  0
  2 16  4  0
  3 22  4  0
  4  9  4  0
  4 10  1  0
  4 20  4  0
  5 16  4  0
  5 23  4  0
  6 15  4  0
  7 12  4  0
  8 13  4  0
  8 14  4  0
  9 11  4  0
 11 14  4  0
 11 19  4  0
 12 18  4  0
 13 21  4  0
 15 23  4  0
 17 19  4  0
 17 20  4  0
 18 22  4  0
 19 21  4  0
M  END
$$$$

 Created by Python create_sdf_string function

 23 25  0  0  0  0  0  0  0  0999 V2000
    2.4610   -5.3070   29.1240 C   0  0  0  0  0  0  0  0  0  0  0  0
    4.7710   -4.6952   28.4803 C   0  0  0  0  0  0  0  0  0  0  0  0
    3.4047   -5.1087   28.1314 C   0  0  0  0  0  0  0  0  0  0  0  0
   -0.2234  -11.8615   16.8874 C   0  0  0  0  0  0  0  0  0  0  0  0
    6.4491   -4.1532   30.1213 C   0  0  0  0  0  0  0  0  0  0  0  0
    5.7060   -4.4340   27.4975 C   0  0  0  0  0  0  0  0  0  0  0  0
    1.1818   -5.6612   28.8399 C   0  0  0  0  0  0  0  0  0  0  0  0
   -1.2067   -7.3287   17.7772 C   0  0  0  0  0  0  0  0  0  0  0  0
   -0.0206  -10.5585   16.6210 C   0  0  0  0  0  0  0  0  0  0  0  0
    0.3696  -12.7626   16.2169 O   0  0  0  0  0  0  0  0  0  0  0  0
   -0.6895   -9.5676   17.3297 C   0  0  0  0  0  0  0  0  0  0  0  0
    0.8388   -5.8417   27.5264 C   0  0  0  0  0  0  0  0  0  0  0  0
   -2.0709   -7.6637   18.7817 C   0  0  0  0  0  0  0  0  0  0  0  0
   -0.5279   -8.2168   17.0717 C   0  0  0  0  0  0  0  0  0  0  0  0
    6.9694   -4.0191   27.8190 C   0  0  0  0  0  0  0  0  0  0  0  0
    5.1733   -4.5469   29.8123 C   0  0  0  0  0  0  0  0  0  0  0  0
   -1.7508  -11.3016   18.6072 C   0  0  0  0  0  0  0  0  0  0  0  0
    1.7497   -5.6771   26.4971 C   0  0  0  0  0  0  0  0  0  0  0  0
   -1.5799   -9.9322   18.3468 C   0  0  0  0  0  0  0  0  0  0  0  0
   -1.0871  -12.2214   17.8851 C   0  0  0  0  0  0  0  0  0  0  0  0
   -2.2706   -8.9669   19.0691 C   0  0  0  0  0  0  0  0  0  0  0  0
    3.0279   -5.3073   26.8197 C   0  0  0  0  0  0  0  0  0  0  0  0
    7.3282   -3.8948   29.1186 C   0  0  0  0  0  0  0  0  0  0  0  0
  1  3  4  0
  1  7  4  0
  2  3  1  0
  2  6  4  0
  2 16  4  0
  3 22  4  0
  4  9  4  0
  4 10  1  0
  4 20  4  0
  5 16  4  0
  5 23  4  0
  6 15  4  0
  7 12  4  0
  8 13  4  0
  8 14  4  0
  9 11  4  0
 11 14  4  0
 11 19  4  0
 12 18  4  0
 13 21  4  0
 15 23  4  0
 17 19  4  0
 17 20  4  0
 18 22  4  0
 19 21  4  0
M  END
$$$$

 Created by Python create_sdf_string function

 23 25  0  0  0  0  0  0  0  0999 V2000
    2.4610   -5.3070   29.1240 C   0  0  0  0  0  0  0  0  0  0  0  0
    4.7710   -4.6952   28.4803 C   0  0  0  0  0  0  0  0  0  0  0  0
    3.4047   -5.1087   28.1314 C   0  0  0  0  0  0  0  0  0  0  0  0
   -0.2234  -11.8615   16.8874 C   0  0  0  0  0  0  0  0  0  0  0  0
    6.4491   -4.1532   30.1213 C   0  0  0  0  0  0  0  0  0  0  0  0
    5.7060   -4.4340   27.4975 C   0  0  0  0  0  0  0  0  0  0  0  0
    1.1818   -5.6612   28.8399 C   0  0  0  0  0  0  0  0  0  0  0  0
   -1.2067   -7.3287   17.7772 C   0  0  0  0  0  0  0  0  0  0  0  0
   -0.0206  -10.5585   16.6210 C   0  0  0  0  0  0  0  0  0  0  0  0
    0.3696  -12.7626   16.2169 O   0  0  0  0  0  0  0  0  0  0  0  0
   -0.6895   -9.5676   17.3297 C   0  0  0  0  0  0  0  0  0  0  0  0
    0.8388   -5.8417   27.5264 C   0  0  0  0  0  0  0  0  0  0  0  0
   -2.0709   -7.6637   18.7817 C   0  0  0  0  0  0  0  0  0  0  0  0
   -0.5279   -8.2168   17.0717 C   0  0  0  0  0  0  0  0  0  0  0  0
    6.9694   -4.0191   27.8190 C   0  0  0  0  0  0  0  0  0  0  0  0
    5.1733   -4.5469   29.8123 C   0  0  0  0  0  0  0  0  0  0  0  0
   -1.7508  -11.3016   18.6072 C   0  0  0  0  0  0  0  0  0  0  0  0
    1.7497   -5.6771   26.4971 C   0  0  0  0  0  0  0  0  0  0  0  0
   -1.5799   -9.9322   18.3468 C   0  0  0  0  0  0  0  0  0  0  0  0
   -1.0871  -12.2214   17.8851 C   0  0  0  0  0  0  0  0  0  0  0  0
   -2.2706   -8.9669   19.0691 C   0  0  0  0  0  0  0  0  0  0  0  0
    3.0279   -5.3073   26.8197 C   0  0  0  0  0  0  0  0  0  0  0  0
    7.3282   -3.8948   29.1186 C   0  0  0  0  0  0  0  0  0  0  0  0
  1  3  4  0
  1  7  4  0
  2  3  1  0
  2  6  4  0
  2 16  4  0
  3 22  4  0
  4  9  4  0
  4 10  1  0
  4 20  4  0
  5 16  4  0
  5 23  4  0
  6 15  4  0
  7 12  4  0
  8 13  4  0
  8 14  4  0
  9 11  4  0
 11 14  4  0
 11 19  4  0
 12 18  4  0
 13 21  4  0
 15 23  4  0
 17 19  4  0
 17 20  4  0
 18 22  4  0
 19 21  4  0
M  END
$$$$

 Created by Python create_sdf_string function

 23 25  0  0  0  0  0  0  0  0999 V2000
    2.4610   -5.3070   29.1240 C   0  0  0  0  0  0  0  0  0  0  0  0
    4.7710   -4.6952   28.4803 C   0  0  0  0  0  0  0  0  0  0  0  0
    3.4047   -5.1087   28.1314 C   0  0  0  0  0  0  0  0  0  0  0  0
   -0.2234  -11.8615   16.8874 C   0  0  0  0  0  0  0  0  0  0  0  0
    6.4491   -4.1532   30.1213 C   0  0  0  0  0  0  0  0  0  0  0  0
    5.7060   -4.4340   27.4975 C   0  0  0  0  0  0  0  0  0  0  0  0
    1.1818   -5.6612   28.8399 C   0  0  0  0  0  0  0  0  0  0  0  0
   -1.2067   -7.3287   17.7772 C   0  0  0  0  0  0  0  0  0  0  0  0
   -0.0206  -10.5585   16.6210 C   0  0  0  0  0  0  0  0  0  0  0  0
    0.3696  -12.7626   16.2169 O   0  0  0  0  0  0  0  0  0  0  0  0
   -0.6895   -9.5676   17.3297 C   0  0  0  0  0  0  0  0  0  0  0  0
    0.8388   -5.8417   27.5264 C   0  0  0  0  0  0  0  0  0  0  0  0
   -2.0709   -7.6637   18.7817 C   0  0  0  0  0  0  0  0  0  0  0  0
   -0.5279   -8.2168   17.0717 C   0  0  0  0  0  0  0  0  0  0  0  0
    6.9694   -4.0191   27.8190 C   0  0  0  0  0  0  0  0  0  0  0  0
    5.1733   -4.5469   29.8123 C   0  0  0  0  0  0  0  0  0  0  0  0
   -1.7508  -11.3016   18.6072 C   0  0  0  0  0  0  0  0  0  0  0  0
    1.7497   -5.6771   26.4971 C   0  0  0  0  0  0  0  0  0  0  0  0
   -1.5799   -9.9322   18.3468 C   0  0  0  0  0  0  0  0  0  0  0  0
   -1.0871  -12.2214   17.8851 C   0  0  0  0  0  0  0  0  0  0  0  0
   -2.2706   -8.9669   19.0691 C   0  0  0  0  0  0  0  0  0  0  0  0
    3.0279   -5.3073   26.8197 C   0  0  0  0  0  0  0  0  0  0  0  0
    7.3282   -3.8948   29.1186 C   0  0  0  0  0  0  0  0  0  0  0  0
  1  3  4  0
  1  7  4  0
  2  3  1  0
  2  6  4  0
  2 16  4  0
  3 22  4  0
  4  9  4  0
  4 10  1  0
  4 20  4  0
  5 16  4  0
  5 23  4  0
  6 15  4  0
  7 12  4  0
  8 13  4  0
  8 14  4  0
  9 11  4  0
 11 14  4  0
 11 19  4  0
 12 18  4  0
 13 21  4  0
 15 23  4  0
 17 19  4  0
 17 20  4  0
 18 22  4  0
 19 21  4  0
M  END
$$$$

 Created by Python create_sdf_string function

 23 25  0  0  0  0  0  0  0  0999 V2000
    2.4610   -5.3070   29.1240 C   0  0  0  0  0  0  0  0  0  0  0  0
    4.7710   -4.6952   28.4803 C   0  0  0  0  0  0  0  0  0  0  0  0
    3.4047   -5.1087   28.1314 C   0  0  0  0  0  0  0  0  0  0  0  0
   -0.2234  -11.8615   16.8874 C   0  0  0  0  0  0  0  0  0  0  0  0
    6.4491   -4.1532   30.1213 C   0  0  0  0  0  0  0  0  0  0  0  0
    5.7060   -4.4340   27.4975 C   0  0  0  0  0  0  0  0  0  0  0  0
    1.1818   -5.6612   28.8399 C   0  0  0  0  0  0  0  0  0  0  0  0
   -1.2067   -7.3287   17.7772 C   0  0  0  0  0  0  0  0  0  0  0  0
   -0.0206  -10.5585   16.6210 C   0  0  0  0  0  0  0  0  0  0  0  0
    0.3696  -12.7626   16.2169 O   0  0  0  0  0  0  0  0  0  0  0  0
   -0.6895   -9.5676   17.3297 C   0  0  0  0  0  0  0  0  0  0  0  0
    0.8388   -5.8417   27.5264 C   0  0  0  0  0  0  0  0  0  0  0  0
   -2.0709   -7.6637   18.7817 C   0  0  0  0  0  0  0  0  0  0  0  0
   -0.5279   -8.2168   17.0717 C   0  0  0  0  0  0  0  0  0  0  0  0
    6.9694   -4.0191   27.8190 C   0  0  0  0  0  0  0  0  0  0  0  0
    5.1733   -4.5469   29.8123 C   0  0  0  0  0  0  0  0  0  0  0  0
   -1.7508  -11.3016   18.6072 C   0  0  0  0  0  0  0  0  0  0  0  0
    1.7497   -5.6771   26.4971 C   0  0  0  0  0  0  0  0  0  0  0  0
   -1.5799   -9.9322   18.3468 C   0  0  0  0  0  0  0  0  0  0  0  0
   -1.0871  -12.2214   17.8851 C   0  0  0  0  0  0  0  0  0  0  0  0
   -2.2706   -8.9669   19.0691 C   0  0  0  0  0  0  0  0  0  0  0  0
    3.0279   -5.3073   26.8197 C   0  0  0  0  0  0  0  0  0  0  0  0
    7.3282   -3.8948   29.1186 C   0  0  0  0  0  0  0  0  0  0  0  0
  1  3  4  0
  1  7  4  0
  2  3  1  0
  2  6  4  0
  2 16  4  0
  3 22  4  0
  4  9  4  0
  4 10  1  0
  4 20  4  0
  5 16  4  0
  5 23  4  0
  6 15  4  0
  7 12  4  0
  8 13  4  0
  8 14  4  0
  9 11  4  0
 11 14  4  0
 11 19  4  0
 12 18  4  0
 13 21  4  0
 15 23  4  0
 17 19  4  0
 17 20  4  0
 18 22  4  0
 19 21  4  0
M  END
$$$$

 Created by Python create_sdf_string function

 23 25  0  0  0  0  0  0  0  0999 V2000
    2.4610   -5.3070   29.1240 C   0  0  0  0  0  0  0  0  0  0  0  0
    4.7710   -4.6952   28.4803 C   0  0  0  0  0  0  0  0  0  0  0  0
    3.4047   -5.1087   28.1314 C   0  0  0  0  0  0  0  0  0  0  0  0
   -0.2234  -11.8615   16.8874 C   0  0  0  0  0  0  0  0  0  0  0  0
    6.4491   -4.1532   30.1213 C   0  0  0  0  0  0  0  0  0  0  0  0
    5.7060   -4.4340   27.4975 C   0  0  0  0  0  0  0  0  0  0  0  0
    1.1818   -5.6612   28.8399 C   0  0  0  0  0  0  0  0  0  0  0  0
   -1.2067   -7.3287   17.7772 C   0  0  0  0  0  0  0  0  0  0  0  0
   -0.0206  -10.5585   16.6210 C   0  0  0  0  0  0  0  0  0  0  0  0
    0.3696  -12.7626   16.2169 O   0  0  0  0  0  0  0  0  0  0  0  0
   -0.6895   -9.5676   17.3297 C   0  0  0  0  0  0  0  0  0  0  0  0
    0.8388   -5.8417   27.5264 C   0  0  0  0  0  0  0  0  0  0  0  0
   -2.0709   -7.6637   18.7817 C   0  0  0  0  0  0  0  0  0  0  0  0
   -0.5279   -8.2168   17.0717 C   0  0  0  0  0  0  0  0  0  0  0  0
    6.9694   -4.0191   27.8190 C   0  0  0  0  0  0  0  0  0  0  0  0
    5.1733   -4.5469   29.8123 C   0  0  0  0  0  0  0  0  0  0  0  0
   -1.7508  -11.3016   18.6072 C   0  0  0  0  0  0  0  0  0  0  0  0
    1.7497   -5.6771   26.4971 C   0  0  0  0  0  0  0  0  0  0  0  0
   -1.5799   -9.9322   18.3468 C   0  0  0  0  0  0  0  0  0  0  0  0
   -1.0871  -12.2214   17.8851 C   0  0  0  0  0  0  0  0  0  0  0  0
   -2.2706   -8.9669   19.0691 C   0  0  0  0  0  0  0  0  0  0  0  0
    3.0279   -5.3073   26.8197 C   0  0  0  0  0  0  0  0  0  0  0  0
    7.3282   -3.8948   29.1186 C   0  0  0  0  0  0  0  0  0  0  0  0
  1  3  4  0
  1  7  4  0
  2  3  1  0
  2  6  4  0
  2 16  4  0
  3 22  4  0
  4  9  4  0
  4 10  1  0
  4 20  4  0
  5 16  4  0
  5 23  4  0
  6 15  4  0
  7 12  4  0
  8 13  4  0
  8 14  4  0
  9 11  4  0
 11 14  4  0
 11 19  4  0
 12 18  4  0
 13 21  4  0
 15 23  4  0
 17 19  4  0
 17 20  4  0
 18 22  4  0
 19 21  4  0
M  END
$$$$

 Created by Python create_sdf_string function

 23 25  0  0  0  0  0  0  0  0999 V2000
    2.4610   -5.3070   29.1240 C   0  0  0  0  0  0  0  0  0  0  0  0
    4.7710   -4.6952   28.4803 C   0  0  0  0  0  0  0  0  0  0  0  0
    3.4047   -5.1087   28.1314 C   0  0  0  0  0  0  0  0  0  0  0  0
   -0.2234  -11.8615   16.8874 C   0  0  0  0  0  0  0  0  0  0  0  0
    6.4491   -4.1532   30.1213 C   0  0  0  0  0  0  0  0  0  0  0  0
    5.7060   -4.4340   27.4975 C   0  0  0  0  0  0  0  0  0  0  0  0
    1.1818   -5.6612   28.8399 C   0  0  0  0  0  0  0  0  0  0  0  0
   -1.2067   -7.3287   17.7772 C   0  0  0  0  0  0  0  0  0  0  0  0
   -0.0206  -10.5585   16.6210 C   0  0  0  0  0  0  0  0  0  0  0  0
    0.3696  -12.7626   16.2169 O   0  0  0  0  0  0  0  0  0  0  0  0
   -0.6895   -9.5676   17.3297 C   0  0  0  0  0  0  0  0  0  0  0  0
    0.8388   -5.8417   27.5264 C   0  0  0  0  0  0  0  0  0  0  0  0
   -2.0709   -7.6637   18.7817 C   0  0  0  0  0  0  0  0  0  0  0  0
   -0.5279   -8.2168   17.0717 C   0  0  0  0  0  0  0  0  0  0  0  0
    6.9694   -4.0191   27.8190 C   0  0  0  0  0  0  0  0  0  0  0  0
    5.1733   -4.5469   29.8123 C   0  0  0  0  0  0  0  0  0  0  0  0
   -1.7508  -11.3016   18.6072 C   0  0  0  0  0  0  0  0  0  0  0  0
    1.7497   -5.6771   26.4971 C   0  0  0  0  0  0  0  0  0  0  0  0
   -1.5799   -9.9322   18.3468 C   0  0  0  0  0  0  0  0  0  0  0  0
   -1.0871  -12.2214   17.8851 C   0  0  0  0  0  0  0  0  0  0  0  0
   -2.2706   -8.9669   19.0691 C   0  0  0  0  0  0  0  0  0  0  0  0
    3.0279   -5.3073   26.8197 C   0  0  0  0  0  0  0  0  0  0  0  0
    7.3282   -3.8948   29.1186 C   0  0  0  0  0  0  0  0  0  0  0  0
  1  3  4  0
  1  7  4  0
  2  3  1  0
  2  6  4  0
  2 16  4  0
  3 22  4  0
  4  9  4  0
  4 10  1  0
  4 20  4  0
  5 16  4  0
  5 23  4  0
  6 15  4  0
  7 12  4  0
  8 13  4  0
  8 14  4  0
  9 11  4  0
 11 14  4  0
 11 19  4  0
 12 18  4  0
 13 21  4  0
 15 23  4  0
 17 19  4  0
 17 20  4  0
 18 22  4  0
 19 21  4  0
M  END
$$$$

 Created by Python create_sdf_string function

 23 25  0  0  0  0  0  0  0  0999 V2000
    2.4610   -5.3070   29.1240 C   0  0  0  0  0  0  0  0  0  0  0  0
    4.7710   -4.6952   28.4803 C   0  0  0  0  0  0  0  0  0  0  0  0
    3.4047   -5.1087   28.1314 C   0  0  0  0  0  0  0  0  0  0  0  0
   -0.2234  -11.8615   16.8874 C   0  0  0  0  0  0  0  0  0  0  0  0
    6.4491   -4.1532   30.1213 C   0  0  0  0  0  0  0  0  0  0  0  0
    5.7060   -4.4340   27.4975 C   0  0  0  0  0  0  0  0  0  0  0  0
    1.1818   -5.6612   28.8399 C   0  0  0  0  0  0  0  0  0  0  0  0
   -1.2067   -7.3287   17.7772 C   0  0  0  0  0  0  0  0  0  0  0  0
   -0.0206  -10.5585   16.6210 C   0  0  0  0  0  0  0  0  0  0  0  0
    0.3696  -12.7626   16.2169 O   0  0  0  0  0  0  0  0  0  0  0  0
   -0.6895   -9.5676   17.3297 C   0  0  0  0  0  0  0  0  0  0  0  0
    0.8388   -5.8417   27.5264 C   0  0  0  0  0  0  0  0  0  0  0  0
   -2.0709   -7.6637   18.7817 C   0  0  0  0  0  0  0  0  0  0  0  0
   -0.5279   -8.2168   17.0717 C   0  0  0  0  0  0  0  0  0  0  0  0
    6.9694   -4.0191   27.8190 C   0  0  0  0  0  0  0  0  0  0  0  0
    5.1733   -4.5469   29.8123 C   0  0  0  0  0  0  0  0  0  0  0  0
   -1.7508  -11.3016   18.6072 C   0  0  0  0  0  0  0  0  0  0  0  0
    1.7497   -5.6771   26.4971 C   0  0  0  0  0  0  0  0  0  0  0  0
   -1.5799   -9.9322   18.3468 C   0  0  0  0  0  0  0  0  0  0  0  0
   -1.0871  -12.2214   17.8851 C   0  0  0  0  0  0  0  0  0  0  0  0
   -2.2706   -8.9669   19.0691 C   0  0  0  0  0  0  0  0  0  0  0  0
    3.0279   -5.3073   26.8197 C   0  0  0  0  0  0  0  0  0  0  0  0
    7.3282   -3.8948   29.1186 C   0  0  0  0  0  0  0  0  0  0  0  0
  1  3  4  0
  1  7  4  0
  2  3  1  0
  2  6  4  0
  2 16  4  0
  3 22  4  0
  4  9  4  0
  4 10  1  0
  4 20  4  0
  5 16  4  0
  5 23  4  0
  6 15  4  0
  7 12  4  0
  8 13  4  0
  8 14  4  0
  9 11  4  0
 11 14  4  0
 11 19  4  0
 12 18  4  0
 13 21  4  0
 15 23  4  0
 17 19  4  0
 17 20  4  0
 18 22  4  0
 19 21  4  0
M  END
$$$$

 Created by Python create_sdf_string function

 23 25  0  0  0  0  0  0  0  0999 V2000
    2.4610   -5.3070   29.1240 C   0  0  0  0  0  0  0  0  0  0  0  0
    4.7710   -4.6952   28.4803 C   0  0  0  0  0  0  0  0  0  0  0  0
    3.4047   -5.1087   28.1314 C   0  0  0  0  0  0  0  0  0  0  0  0
   -0.2234  -11.8615   16.8874 C   0  0  0  0  0  0  0  0  0  0  0  0
    6.4491   -4.1532   30.1213 C   0  0  0  0  0  0  0  0  0  0  0  0
    5.7060   -4.4340   27.4975 C   0  0  0  0  0  0  0  0  0  0  0  0
    1.1818   -5.6612   28.8399 C   0  0  0  0  0  0  0  0  0  0  0  0
   -1.2067   -7.3287   17.7772 C   0  0  0  0  0  0  0  0  0  0  0  0
   -0.0206  -10.5585   16.6210 C   0  0  0  0  0  0  0  0  0  0  0  0
    0.3696  -12.7626   16.2169 O   0  0  0  0  0  0  0  0  0  0  0  0
   -0.6895   -9.5676   17.3297 C   0  0  0  0  0  0  0  0  0  0  0  0
    0.8388   -5.8417   27.5264 C   0  0  0  0  0  0  0  0  0  0  0  0
   -2.0709   -7.6637   18.7817 C   0  0  0  0  0  0  0  0  0  0  0  0
   -0.5279   -8.2168   17.0717 C   0  0  0  0  0  0  0  0  0  0  0  0
    6.9694   -4.0191   27.8190 C   0  0  0  0  0  0  0  0  0  0  0  0
    5.1733   -4.5469   29.8123 C   0  0  0  0  0  0  0  0  0  0  0  0
   -1.7508  -11.3016   18.6072 C   0  0  0  0  0  0  0  0  0  0  0  0
    1.7497   -5.6771   26.4971 C   0  0  0  0  0  0  0  0  0  0  0  0
   -1.5799   -9.9322   18.3468 C   0  0  0  0  0  0  0  0  0  0  0  0
   -1.0871  -12.2214   17.8851 C   0  0  0  0  0  0  0  0  0  0  0  0
   -2.2706   -8.9669   19.0691 C   0  0  0  0  0  0  0  0  0  0  0  0
    3.0279   -5.3073   26.8197 C   0  0  0  0  0  0  0  0  0  0  0  0
    7.3282   -3.8948   29.1186 C   0  0  0  0  0  0  0  0  0  0  0  0
  1  3  4  0
  1  7  4  0
  2  3  1  0
  2  6  4  0
  2 16  4  0
  3 22  4  0
  4  9  4  0
  4 10  1  0
  4 20  4  0
  5 16  4  0
  5 23  4  0
  6 15  4  0
  7 12  4  0
  8 13  4  0
  8 14  4  0
  9 11  4  0
 11 14  4  0
 11 19  4  0
 12 18  4  0
 13 21  4  0
 15 23  4  0
 17 19  4  0
 17 20  4  0
 18 22  4  0
 19 21  4  0
M  END
$$$$

 Created by Python create_sdf_string function

 23 25  0  0  0  0  0  0  0  0999 V2000
    2.4610   -5.3070   29.1240 C   0  0  0  0  0  0  0  0  0  0  0  0
    4.7710   -4.6952   28.4803 C   0  0  0  0  0  0  0  0  0  0  0  0
    3.4047   -5.1087   28.1314 C   0  0  0  0  0  0  0  0  0  0  0  0
   -0.2234  -11.8615   16.8874 C   0  0  0  0  0  0  0  0  0  0  0  0
    6.4491   -4.1532   30.1213 C   0  0  0  0  0  0  0  0  0  0  0  0
    5.7060   -4.4340   27.4975 C   0  0  0  0  0  0  0  0  0  0  0  0
    1.1818   -5.6612   28.8399 C   0  0  0  0  0  0  0  0  0  0  0  0
   -1.2067   -7.3287   17.7772 C   0  0  0  0  0  0  0  0  0  0  0  0
   -0.0206  -10.5585   16.6210 C   0  0  0  0  0  0  0  0  0  0  0  0
    0.3696  -12.7626   16.2169 O   0  0  0  0  0  0  0  0  0  0  0  0
   -0.6895   -9.5676   17.3297 C   0  0  0  0  0  0  0  0  0  0  0  0
    0.8388   -5.8417   27.5264 C   0  0  0  0  0  0  0  0  0  0  0  0
   -2.0709   -7.6637   18.7817 C   0  0  0  0  0  0  0  0  0  0  0  0
   -0.5279   -8.2168   17.0717 C   0  0  0  0  0  0  0  0  0  0  0  0
    6.9694   -4.0191   27.8190 C   0  0  0  0  0  0  0  0  0  0  0  0
    5.1733   -4.5469   29.8123 C   0  0  0  0  0  0  0  0  0  0  0  0
   -1.7508  -11.3016   18.6072 C   0  0  0  0  0  0  0  0  0  0  0  0
    1.7497   -5.6771   26.4971 C   0  0  0  0  0  0  0  0  0  0  0  0
   -1.5799   -9.9322   18.3468 C   0  0  0  0  0  0  0  0  0  0  0  0
   -1.0871  -12.2214   17.8851 C   0  0  0  0  0  0  0  0  0  0  0  0
   -2.2706   -8.9669   19.0691 C   0  0  0  0  0  0  0  0  0  0  0  0
    3.0279   -5.3073   26.8197 C   0  0  0  0  0  0  0  0  0  0  0  0
    7.3282   -3.8948   29.1186 C   0  0  0  0  0  0  0  0  0  0  0  0
  1  3  4  0
  1  7  4  0
  2  3  1  0
  2  6  4  0
  2 16  4  0
  3 22  4  0
  4  9  4  0
  4 10  1  0
  4 20  4  0
  5 16  4  0
  5 23  4  0
  6 15  4  0
  7 12  4  0
  8 13  4  0
  8 14  4  0
  9 11  4  0
 11 14  4  0
 11 19  4  0
 12 18  4  0
 13 21  4  0
 15 23  4  0
 17 19  4  0
 17 20  4  0
 18 22  4  0
 19 21  4  0
M  END
$$$$

 Created by Python create_sdf_string function

 23 25  0  0  0  0  0  0  0  0999 V2000
    2.4610   -5.3070   29.1240 C   0  0  0  0  0  0  0  0  0  0  0  0
    4.7710   -4.6952   28.4803 C   0  0  0  0  0  0  0  0  0  0  0  0
    3.4047   -5.1087   28.1314 C   0  0  0  0  0  0  0  0  0  0  0  0
   -0.2234  -11.8615   16.8874 C   0  0  0  0  0  0  0  0  0  0  0  0
    6.4491   -4.1532   30.1213 C   0  0  0  0  0  0  0  0  0  0  0  0
    5.7060   -4.4340   27.4975 C   0  0  0  0  0  0  0  0  0  0  0  0
    1.1818   -5.6612   28.8399 C   0  0  0  0  0  0  0  0  0  0  0  0
   -1.2067   -7.3287   17.7772 C   0  0  0  0  0  0  0  0  0  0  0  0
   -0.0206  -10.5585   16.6210 C   0  0  0  0  0  0  0  0  0  0  0  0
    0.3696  -12.7626   16.2169 O   0  0  0  0  0  0  0  0  0  0  0  0
   -0.6895   -9.5676   17.3297 C   0  0  0  0  0  0  0  0  0  0  0  0
    0.8388   -5.8417   27.5264 C   0  0  0  0  0  0  0  0  0  0  0  0
   -2.0709   -7.6637   18.7817 C   0  0  0  0  0  0  0  0  0  0  0  0
   -0.5279   -8.2168   17.0717 C   0  0  0  0  0  0  0  0  0  0  0  0
    6.9694   -4.0191   27.8190 C   0  0  0  0  0  0  0  0  0  0  0  0
    5.1733   -4.5469   29.8123 C   0  0  0  0  0  0  0  0  0  0  0  0
   -1.7508  -11.3016   18.6072 C   0  0  0  0  0  0  0  0  0  0  0  0
    1.7497   -5.6771   26.4971 C   0  0  0  0  0  0  0  0  0  0  0  0
   -1.5799   -9.9322   18.3468 C   0  0  0  0  0  0  0  0  0  0  0  0
   -1.0871  -12.2214   17.8851 C   0  0  0  0  0  0  0  0  0  0  0  0
   -2.2706   -8.9669   19.0691 C   0  0  0  0  0  0  0  0  0  0  0  0
    3.0279   -5.3073   26.8197 C   0  0  0  0  0  0  0  0  0  0  0  0
    7.3282   -3.8948   29.1186 C   0  0  0  0  0  0  0  0  0  0  0  0
  1  3  4  0
  1  7  4  0
  2  3  1  0
  2  6  4  0
  2 16  4  0
  3 22  4  0
  4  9  4  0
  4 10  1  0
  4 20  4  0
  5 16  4  0
  5 23  4  0
  6 15  4  0
  7 12  4  0
  8 13  4  0
  8 14  4  0
  9 11  4  0
 11 14  4  0
 11 19  4  0
 12 18  4  0
 13 21  4  0
 15 23  4  0
 17 19  4  0
 17 20  4  0
 18 22  4  0
 19 21  4  0
M  END
$$$$

 Created by Python create_sdf_string function

 23 25  0  0  0  0  0  0  0  0999 V2000
    2.4610   -5.3070   29.1240 C   0  0  0  0  0  0  0  0  0  0  0  0
    4.7710   -4.6952   28.4803 C   0  0  0  0  0  0  0  0  0  0  0  0
    3.4047   -5.1087   28.1314 C   0  0  0  0  0  0  0  0  0  0  0  0
   -0.2234  -11.8615   16.8874 C   0  0  0  0  0  0  0  0  0  0  0  0
    6.4491   -4.1532   30.1213 C   0  0  0  0  0  0  0  0  0  0  0  0
    5.7060   -4.4340   27.4975 C   0  0  0  0  0  0  0  0  0  0  0  0
    1.1818   -5.6612   28.8399 C   0  0  0  0  0  0  0  0  0  0  0  0
   -1.2067   -7.3287   17.7772 C   0  0  0  0  0  0  0  0  0  0  0  0
   -0.0206  -10.5585   16.6210 C   0  0  0  0  0  0  0  0  0  0  0  0
    0.3696  -12.7626   16.2169 O   0  0  0  0  0  0  0  0  0  0  0  0
   -0.6895   -9.5676   17.3297 C   0  0  0  0  0  0  0  0  0  0  0  0
    0.8388   -5.8417   27.5264 C   0  0  0  0  0  0  0  0  0  0  0  0
   -2.0709   -7.6637   18.7817 C   0  0  0  0  0  0  0  0  0  0  0  0
   -0.5279   -8.2168   17.0717 C   0  0  0  0  0  0  0  0  0  0  0  0
    6.9694   -4.0191   27.8190 C   0  0  0  0  0  0  0  0  0  0  0  0
    5.1733   -4.5469   29.8123 C   0  0  0  0  0  0  0  0  0  0  0  0
   -1.7508  -11.3016   18.6072 C   0  0  0  0  0  0  0  0  0  0  0  0
    1.7497   -5.6771   26.4971 C   0  0  0  0  0  0  0  0  0  0  0  0
   -1.5799   -9.9322   18.3468 C   0  0  0  0  0  0  0  0  0  0  0  0
   -1.0871  -12.2214   17.8851 C   0  0  0  0  0  0  0  0  0  0  0  0
   -2.2706   -8.9669   19.0691 C   0  0  0  0  0  0  0  0  0  0  0  0
    3.0279   -5.3073   26.8197 C   0  0  0  0  0  0  0  0  0  0  0  0
    7.3282   -3.8948   29.1186 C   0  0  0  0  0  0  0  0  0  0  0  0
  1  3  4  0
  1  7  4  0
  2  3  1  0
  2  6  4  0
  2 16  4  0
  3 22  4  0
  4  9  4  0
  4 10  1  0
  4 20  4  0
  5 16  4  0
  5 23  4  0
  6 15  4  0
  7 12  4  0
  8 13  4  0
  8 14  4  0
  9 11  4  0
 11 14  4  0
 11 19  4  0
 12 18  4  0
 13 21  4  0
 15 23  4  0
 17 19  4  0
 17 20  4  0
 18 22  4  0
 19 21  4  0
M  END
$$$$

 Created by Python create_sdf_string function

 23 25  0  0  0  0  0  0  0  0999 V2000
    2.4610   -5.3070   29.1240 C   0  0  0  0  0  0  0  0  0  0  0  0
    4.7710   -4.6952   28.4803 C   0  0  0  0  0  0  0  0  0  0  0  0
    3.4047   -5.1087   28.1314 C   0  0  0  0  0  0  0  0  0  0  0  0
   -0.2234  -11.8615   16.8874 C   0  0  0  0  0  0  0  0  0  0  0  0
    6.4491   -4.1532   30.1213 C   0  0  0  0  0  0  0  0  0  0  0  0
    5.7060   -4.4340   27.4975 C   0  0  0  0  0  0  0  0  0  0  0  0
    1.1818   -5.6612   28.8399 C   0  0  0  0  0  0  0  0  0  0  0  0
   -1.2067   -7.3287   17.7772 C   0  0  0  0  0  0  0  0  0  0  0  0
   -0.0206  -10.5585   16.6210 C   0  0  0  0  0  0  0  0  0  0  0  0
    0.3696  -12.7626   16.2169 O   0  0  0  0  0  0  0  0  0  0  0  0
   -0.6895   -9.5676   17.3297 C   0  0  0  0  0  0  0  0  0  0  0  0
    0.8388   -5.8417   27.5264 C   0  0  0  0  0  0  0  0  0  0  0  0
   -2.0709   -7.6637   18.7817 C   0  0  0  0  0  0  0  0  0  0  0  0
   -0.5279   -8.2168   17.0717 C   0  0  0  0  0  0  0  0  0  0  0  0
    6.9694   -4.0191   27.8190 C   0  0  0  0  0  0  0  0  0  0  0  0
    5.1733   -4.5469   29.8123 C   0  0  0  0  0  0  0  0  0  0  0  0
   -1.7508  -11.3016   18.6072 C   0  0  0  0  0  0  0  0  0  0  0  0
    1.7497   -5.6771   26.4971 C   0  0  0  0  0  0  0  0  0  0  0  0
   -1.5799   -9.9322   18.3468 C   0  0  0  0  0  0  0  0  0  0  0  0
   -1.0871  -12.2214   17.8851 C   0  0  0  0  0  0  0  0  0  0  0  0
   -2.2706   -8.9669   19.0691 C   0  0  0  0  0  0  0  0  0  0  0  0
    3.0279   -5.3073   26.8197 C   0  0  0  0  0  0  0  0  0  0  0  0
    7.3282   -3.8948   29.1186 C   0  0  0  0  0  0  0  0  0  0  0  0
  1  3  4  0
  1  7  4  0
  2  3  1  0
  2  6  4  0
  2 16  4  0
  3 22  4  0
  4  9  4  0
  4 10  1  0
  4 20  4  0
  5 16  4  0
  5 23  4  0
  6 15  4  0
  7 12  4  0
  8 13  4  0
  8 14  4  0
  9 11  4  0
 11 14  4  0
 11 19  4  0
 12 18  4  0
 13 21  4  0
 15 23  4  0
 17 19  4  0
 17 20  4  0
 18 22  4  0
 19 21  4  0
M  END
$$$$

 Created by Python create_sdf_string function

 23 25  0  0  0  0  0  0  0  0999 V2000
    2.4610   -5.3070   29.1240 C   0  0  0  0  0  0  0  0  0  0  0  0
    4.7710   -4.6952   28.4803 C   0  0  0  0  0  0  0  0  0  0  0  0
    3.4047   -5.1087   28.1314 C   0  0  0  0  0  0  0  0  0  0  0  0
   -0.2234  -11.8615   16.8874 C   0  0  0  0  0  0  0  0  0  0  0  0
    6.4491   -4.1532   30.1213 C   0  0  0  0  0  0  0  0  0  0  0  0
    5.7060   -4.4340   27.4975 C   0  0  0  0  0  0  0  0  0  0  0  0
    1.1818   -5.6612   28.8399 C   0  0  0  0  0  0  0  0  0  0  0  0
   -1.2067   -7.3287   17.7772 C   0  0  0  0  0  0  0  0  0  0  0  0
   -0.0206  -10.5585   16.6210 C   0  0  0  0  0  0  0  0  0  0  0  0
    0.3696  -12.7626   16.2169 O   0  0  0  0  0  0  0  0  0  0  0  0
   -0.6895   -9.5676   17.3297 C   0  0  0  0  0  0  0  0  0  0  0  0
    0.8388   -5.8417   27.5264 C   0  0  0  0  0  0  0  0  0  0  0  0
   -2.0709   -7.6637   18.7817 C   0  0  0  0  0  0  0  0  0  0  0  0
   -0.5279   -8.2168   17.0717 C   0  0  0  0  0  0  0  0  0  0  0  0
    6.9694   -4.0191   27.8190 C   0  0  0  0  0  0  0  0  0  0  0  0
    5.1733   -4.5469   29.8123 C   0  0  0  0  0  0  0  0  0  0  0  0
   -1.7508  -11.3016   18.6072 C   0  0  0  0  0  0  0  0  0  0  0  0
    1.7497   -5.6771   26.4971 C   0  0  0  0  0  0  0  0  0  0  0  0
   -1.5799   -9.9322   18.3468 C   0  0  0  0  0  0  0  0  0  0  0  0
   -1.0871  -12.2214   17.8851 C   0  0  0  0  0  0  0  0  0  0  0  0
   -2.2706   -8.9669   19.0691 C   0  0  0  0  0  0  0  0  0  0  0  0
    3.0279   -5.3073   26.8197 C   0  0  0  0  0  0  0  0  0  0  0  0
    7.3282   -3.8948   29.1186 C   0  0  0  0  0  0  0  0  0  0  0  0
  1  3  4  0
  1  7  4  0
  2  3  1  0
  2  6  4  0
  2 16  4  0
  3 22  4  0
  4  9  4  0
  4 10  1  0
  4 20  4  0
  5 16  4  0
  5 23  4  0
  6 15  4  0
  7 12  4  0
  8 13  4  0
  8 14  4  0
  9 11  4  0
 11 14  4  0
 11 19  4  0
 12 18  4  0
 13 21  4  0
 15 23  4  0
 17 19  4  0
 17 20  4  0
 18 22  4  0
 19 21  4  0
M  END
$$$$

 Created by Python create_sdf_string function

 23 25  0  0  0  0  0  0  0  0999 V2000
    2.4610   -5.3070   29.1240 C   0  0  0  0  0  0  0  0  0  0  0  0
    4.7710   -4.6952   28.4803 C   0  0  0  0  0  0  0  0  0  0  0  0
    3.4047   -5.1087   28.1314 C   0  0  0  0  0  0  0  0  0  0  0  0
   -0.2234  -11.8615   16.8874 C   0  0  0  0  0  0  0  0  0  0  0  0
    6.4491   -4.1532   30.1213 C   0  0  0  0  0  0  0  0  0  0  0  0
    5.7060   -4.4340   27.4975 C   0  0  0  0  0  0  0  0  0  0  0  0
    1.1818   -5.6612   28.8399 C   0  0  0  0  0  0  0  0  0  0  0  0
   -1.2067   -7.3287   17.7772 C   0  0  0  0  0  0  0  0  0  0  0  0
   -0.0206  -10.5585   16.6210 C   0  0  0  0  0  0  0  0  0  0  0  0
    0.3696  -12.7626   16.2169 O   0  0  0  0  0  0  0  0  0  0  0  0
   -0.6895   -9.5676   17.3297 C   0  0  0  0  0  0  0  0  0  0  0  0
    0.8388   -5.8417   27.5264 C   0  0  0  0  0  0  0  0  0  0  0  0
   -2.0709   -7.6637   18.7817 C   0  0  0  0  0  0  0  0  0  0  0  0
   -0.5279   -8.2168   17.0717 C   0  0  0  0  0  0  0  0  0  0  0  0
    6.9694   -4.0191   27.8190 C   0  0  0  0  0  0  0  0  0  0  0  0
    5.1733   -4.5469   29.8123 C   0  0  0  0  0  0  0  0  0  0  0  0
   -1.7508  -11.3016   18.6072 C   0  0  0  0  0  0  0  0  0  0  0  0
    1.7497   -5.6771   26.4971 C   0  0  0  0  0  0  0  0  0  0  0  0
   -1.5799   -9.9322   18.3468 C   0  0  0  0  0  0  0  0  0  0  0  0
   -1.0871  -12.2214   17.8851 C   0  0  0  0  0  0  0  0  0  0  0  0
   -2.2706   -8.9669   19.0691 C   0  0  0  0  0  0  0  0  0  0  0  0
    3.0279   -5.3073   26.8197 C   0  0  0  0  0  0  0  0  0  0  0  0
    7.3282   -3.8948   29.1186 C   0  0  0  0  0  0  0  0  0  0  0  0
  1  3  4  0
  1  7  4  0
  2  3  1  0
  2  6  4  0
  2 16  4  0
  3 22  4  0
  4  9  4  0
  4 10  1  0
  4 20  4  0
  5 16  4  0
  5 23  4  0
  6 15  4  0
  7 12  4  0
  8 13  4  0
  8 14  4  0
  9 11  4  0
 11 14  4  0
 11 19  4  0
 12 18  4  0
 13 21  4  0
 15 23  4  0
 17 19  4  0
 17 20  4  0
 18 22  4  0
 19 21  4  0
M  END
$$$$

 Created by Python create_sdf_string function

 23 25  0  0  0  0  0  0  0  0999 V2000
    2.4610   -5.3070   29.1240 C   0  0  0  0  0  0  0  0  0  0  0  0
    4.7710   -4.6952   28.4803 C   0  0  0  0  0  0  0  0  0  0  0  0
    3.4047   -5.1087   28.1314 C   0  0  0  0  0  0  0  0  0  0  0  0
   -0.2234  -11.8615   16.8874 C   0  0  0  0  0  0  0  0  0  0  0  0
    6.4491   -4.1532   30.1213 C   0  0  0  0  0  0  0  0  0  0  0  0
    5.7060   -4.4340   27.4975 C   0  0  0  0  0  0  0  0  0  0  0  0
    1.1818   -5.6612   28.8399 C   0  0  0  0  0  0  0  0  0  0  0  0
   -1.2067   -7.3287   17.7772 C   0  0  0  0  0  0  0  0  0  0  0  0
   -0.0206  -10.5585   16.6210 C   0  0  0  0  0  0  0  0  0  0  0  0
    0.3696  -12.7626   16.2169 O   0  0  0  0  0  0  0  0  0  0  0  0
   -0.6895   -9.5676   17.3297 C   0  0  0  0  0  0  0  0  0  0  0  0
    0.8388   -5.8417   27.5264 C   0  0  0  0  0  0  0  0  0  0  0  0
   -2.0709   -7.6637   18.7817 C   0  0  0  0  0  0  0  0  0  0  0  0
   -0.5279   -8.2168   17.0717 C   0  0  0  0  0  0  0  0  0  0  0  0
    6.9694   -4.0191   27.8190 C   0  0  0  0  0  0  0  0  0  0  0  0
    5.1733   -4.5469   29.8123 C   0  0  0  0  0  0  0  0  0  0  0  0
   -1.7508  -11.3016   18.6072 C   0  0  0  0  0  0  0  0  0  0  0  0
    1.7497   -5.6771   26.4971 C   0  0  0  0  0  0  0  0  0  0  0  0
   -1.5799   -9.9322   18.3468 C   0  0  0  0  0  0  0  0  0  0  0  0
   -1.0871  -12.2214   17.8851 C   0  0  0  0  0  0  0  0  0  0  0  0
   -2.2706   -8.9669   19.0691 C   0  0  0  0  0  0  0  0  0  0  0  0
    3.0279   -5.3073   26.8197 C   0  0  0  0  0  0  0  0  0  0  0  0
    7.3282   -3.8948   29.1186 C   0  0  0  0  0  0  0  0  0  0  0  0
  1  3  4  0
  1  7  4  0
  2  3  1  0
  2  6  4  0
  2 16  4  0
  3 22  4  0
  4  9  4  0
  4 10  1  0
  4 20  4  0
  5 16  4  0
  5 23  4  0
  6 15  4  0
  7 12  4  0
  8 13  4  0
  8 14  4  0
  9 11  4  0
 11 14  4  0
 11 19  4  0
 12 18  4  0
 13 21  4  0
 15 23  4  0
 17 19  4  0
 17 20  4  0
 18 22  4  0
 19 21  4  0
M  END
$$$$

 Created by Python create_sdf_string function

 23 25  0  0  0  0  0  0  0  0999 V2000
    2.4610   -5.3070   29.1240 C   0  0  0  0  0  0  0  0  0  0  0  0
    4.7710   -4.6952   28.4803 C   0  0  0  0  0  0  0  0  0  0  0  0
    3.4047   -5.1087   28.1314 C   0  0  0  0  0  0  0  0  0  0  0  0
   -0.2234  -11.8615   16.8874 C   0  0  0  0  0  0  0  0  0  0  0  0
    6.4491   -4.1532   30.1213 C   0  0  0  0  0  0  0  0  0  0  0  0
    5.7060   -4.4340   27.4975 C   0  0  0  0  0  0  0  0  0  0  0  0
    1.1818   -5.6612   28.8399 C   0  0  0  0  0  0  0  0  0  0  0  0
   -1.2067   -7.3287   17.7772 C   0  0  0  0  0  0  0  0  0  0  0  0
   -0.0206  -10.5585   16.6210 C   0  0  0  0  0  0  0  0  0  0  0  0
    0.3696  -12.7626   16.2169 O   0  0  0  0  0  0  0  0  0  0  0  0
   -0.6895   -9.5676   17.3297 C   0  0  0  0  0  0  0  0  0  0  0  0
    0.8388   -5.8417   27.5264 C   0  0  0  0  0  0  0  0  0  0  0  0
   -2.0709   -7.6637   18.7817 C   0  0  0  0  0  0  0  0  0  0  0  0
   -0.5279   -8.2168   17.0717 C   0  0  0  0  0  0  0  0  0  0  0  0
    6.9694   -4.0191   27.8190 C   0  0  0  0  0  0  0  0  0  0  0  0
    5.1733   -4.5469   29.8123 C   0  0  0  0  0  0  0  0  0  0  0  0
   -1.7508  -11.3016   18.6072 C   0  0  0  0  0  0  0  0  0  0  0  0
    1.7497   -5.6771   26.4971 C   0  0  0  0  0  0  0  0  0  0  0  0
   -1.5799   -9.9322   18.3468 C   0  0  0  0  0  0  0  0  0  0  0  0
   -1.0871  -12.2214   17.8851 C   0  0  0  0  0  0  0  0  0  0  0  0
   -2.2706   -8.9669   19.0691 C   0  0  0  0  0  0  0  0  0  0  0  0
    3.0279   -5.3073   26.8197 C   0  0  0  0  0  0  0  0  0  0  0  0
    7.3282   -3.8948   29.1186 C   0  0  0  0  0  0  0  0  0  0  0  0
  1  3  4  0
  1  7  4  0
  2  3  1  0
  2  6  4  0
  2 16  4  0
  3 22  4  0
  4  9  4  0
  4 10  1  0
  4 20  4  0
  5 16  4  0
  5 23  4  0
  6 15  4  0
  7 12  4  0
  8 13  4  0
  8 14  4  0
  9 11  4  0
 11 14  4  0
 11 19  4  0
 12 18  4  0
 13 21  4  0
 15 23  4  0
 17 19  4  0
 17 20  4  0
 18 22  4  0
 19 21  4  0
M  END
$$$$

 Created by Python create_sdf_string function

 23 25  0  0  0  0  0  0  0  0999 V2000
    2.4610   -5.3070   29.1240 C   0  0  0  0  0  0  0  0  0  0  0  0
    4.7710   -4.6952   28.4803 C   0  0  0  0  0  0  0  0  0  0  0  0
    3.4047   -5.1087   28.1314 C   0  0  0  0  0  0  0  0  0  0  0  0
   -0.2234  -11.8615   16.8874 C   0  0  0  0  0  0  0  0  0  0  0  0
    6.4491   -4.1532   30.1213 C   0  0  0  0  0  0  0  0  0  0  0  0
    5.7060   -4.4340   27.4975 C   0  0  0  0  0  0  0  0  0  0  0  0
    1.1818   -5.6612   28.8399 C   0  0  0  0  0  0  0  0  0  0  0  0
   -1.2067   -7.3287   17.7772 C   0  0  0  0  0  0  0  0  0  0  0  0
   -0.0206  -10.5585   16.6210 C   0  0  0  0  0  0  0  0  0  0  0  0
    0.3696  -12.7626   16.2169 O   0  0  0  0  0  0  0  0  0  0  0  0
   -0.6895   -9.5676   17.3297 C   0  0  0  0  0  0  0  0  0  0  0  0
    0.8388   -5.8417   27.5264 C   0  0  0  0  0  0  0  0  0  0  0  0
   -2.0709   -7.6637   18.7817 C   0  0  0  0  0  0  0  0  0  0  0  0
   -0.5279   -8.2168   17.0717 C   0  0  0  0  0  0  0  0  0  0  0  0
    6.9694   -4.0191   27.8190 C   0  0  0  0  0  0  0  0  0  0  0  0
    5.1733   -4.5469   29.8123 C   0  0  0  0  0  0  0  0  0  0  0  0
   -1.7508  -11.3016   18.6072 C   0  0  0  0  0  0  0  0  0  0  0  0
    1.7497   -5.6771   26.4971 C   0  0  0  0  0  0  0  0  0  0  0  0
   -1.5799   -9.9322   18.3468 C   0  0  0  0  0  0  0  0  0  0  0  0
   -1.0871  -12.2214   17.8851 C   0  0  0  0  0  0  0  0  0  0  0  0
   -2.2706   -8.9669   19.0691 C   0  0  0  0  0  0  0  0  0  0  0  0
    3.0279   -5.3073   26.8197 C   0  0  0  0  0  0  0  0  0  0  0  0
    7.3282   -3.8948   29.1186 C   0  0  0  0  0  0  0  0  0  0  0  0
  1  3  4  0
  1  7  4  0
  2  3  1  0
  2  6  4  0
  2 16  4  0
  3 22  4  0
  4  9  4  0
  4 10  1  0
  4 20  4  0
  5 16  4  0
  5 23  4  0
  6 15  4  0
  7 12  4  0
  8 13  4  0
  8 14  4  0
  9 11  4  0
 11 14  4  0
 11 19  4  0
 12 18  4  0
 13 21  4  0
 15 23  4  0
 17 19  4  0
 17 20  4  0
 18 22  4  0
 19 21  4  0
M  END
$$$$

 Created by Python create_sdf_string function

 23 25  0  0  0  0  0  0  0  0999 V2000
    2.4610   -5.3070   29.1240 C   0  0  0  0  0  0  0  0  0  0  0  0
    4.7710   -4.6952   28.4803 C   0  0  0  0  0  0  0  0  0  0  0  0
    3.4047   -5.1087   28.1314 C   0  0  0  0  0  0  0  0  0  0  0  0
   -0.2234  -11.8615   16.8874 C   0  0  0  0  0  0  0  0  0  0  0  0
    6.4491   -4.1532   30.1213 C   0  0  0  0  0  0  0  0  0  0  0  0
    5.7060   -4.4340   27.4975 C   0  0  0  0  0  0  0  0  0  0  0  0
    1.1818   -5.6612   28.8399 C   0  0  0  0  0  0  0  0  0  0  0  0
   -1.2067   -7.3287   17.7772 C   0  0  0  0  0  0  0  0  0  0  0  0
   -0.0206  -10.5585   16.6210 C   0  0  0  0  0  0  0  0  0  0  0  0
    0.3696  -12.7626   16.2169 O   0  0  0  0  0  0  0  0  0  0  0  0
   -0.6895   -9.5676   17.3297 C   0  0  0  0  0  0  0  0  0  0  0  0
    0.8388   -5.8417   27.5264 C   0  0  0  0  0  0  0  0  0  0  0  0
   -2.0709   -7.6637   18.7817 C   0  0  0  0  0  0  0  0  0  0  0  0
   -0.5279   -8.2168   17.0717 C   0  0  0  0  0  0  0  0  0  0  0  0
    6.9694   -4.0191   27.8190 C   0  0  0  0  0  0  0  0  0  0  0  0
    5.1733   -4.5469   29.8123 C   0  0  0  0  0  0  0  0  0  0  0  0
   -1.7508  -11.3016   18.6072 C   0  0  0  0  0  0  0  0  0  0  0  0
    1.7497   -5.6771   26.4971 C   0  0  0  0  0  0  0  0  0  0  0  0
   -1.5799   -9.9322   18.3468 C   0  0  0  0  0  0  0  0  0  0  0  0
   -1.0871  -12.2214   17.8851 C   0  0  0  0  0  0  0  0  0  0  0  0
   -2.2706   -8.9669   19.0691 C   0  0  0  0  0  0  0  0  0  0  0  0
    3.0279   -5.3073   26.8197 C   0  0  0  0  0  0  0  0  0  0  0  0
    7.3282   -3.8948   29.1186 C   0  0  0  0  0  0  0  0  0  0  0  0
  1  3  4  0
  1  7  4  0
  2  3  1  0
  2  6  4  0
  2 16  4  0
  3 22  4  0
  4  9  4  0
  4 10  1  0
  4 20  4  0
  5 16  4  0
  5 23  4  0
  6 15  4  0
  7 12  4  0
  8 13  4  0
  8 14  4  0
  9 11  4  0
 11 14  4  0
 11 19  4  0
 12 18  4  0
 13 21  4  0
 15 23  4  0
 17 19  4  0
 17 20  4  0
 18 22  4  0
 19 21  4  0
M  END
$$$$

 Created by Python create_sdf_string function

 23 25  0  0  0  0  0  0  0  0999 V2000
    2.4610   -5.3070   29.1240 C   0  0  0  0  0  0  0  0  0  0  0  0
    4.7710   -4.6952   28.4803 C   0  0  0  0  0  0  0  0  0  0  0  0
    3.4047   -5.1087   28.1314 C   0  0  0  0  0  0  0  0  0  0  0  0
   -0.2234  -11.8615   16.8874 C   0  0  0  0  0  0  0  0  0  0  0  0
    6.4491   -4.1532   30.1213 C   0  0  0  0  0  0  0  0  0  0  0  0
    5.7060   -4.4340   27.4975 C   0  0  0  0  0  0  0  0  0  0  0  0
    1.1818   -5.6612   28.8399 C   0  0  0  0  0  0  0  0  0  0  0  0
   -1.2067   -7.3287   17.7772 C   0  0  0  0  0  0  0  0  0  0  0  0
   -0.0206  -10.5585   16.6210 C   0  0  0  0  0  0  0  0  0  0  0  0
    0.3696  -12.7626   16.2169 O   0  0  0  0  0  0  0  0  0  0  0  0
   -0.6895   -9.5676   17.3297 C   0  0  0  0  0  0  0  0  0  0  0  0
    0.8388   -5.8417   27.5264 C   0  0  0  0  0  0  0  0  0  0  0  0
   -2.0709   -7.6637   18.7817 C   0  0  0  0  0  0  0  0  0  0  0  0
   -0.5279   -8.2168   17.0717 C   0  0  0  0  0  0  0  0  0  0  0  0
    6.9694   -4.0191   27.8190 C   0  0  0  0  0  0  0  0  0  0  0  0
    5.1733   -4.5469   29.8123 C   0  0  0  0  0  0  0  0  0  0  0  0
   -1.7508  -11.3016   18.6072 C   0  0  0  0  0  0  0  0  0  0  0  0
    1.7497   -5.6771   26.4971 C   0  0  0  0  0  0  0  0  0  0  0  0
   -1.5799   -9.9322   18.3468 C   0  0  0  0  0  0  0  0  0  0  0  0
   -1.0871  -12.2214   17.8851 C   0  0  0  0  0  0  0  0  0  0  0  0
   -2.2706   -8.9669   19.0691 C   0  0  0  0  0  0  0  0  0  0  0  0
    3.0279   -5.3073   26.8197 C   0  0  0  0  0  0  0  0  0  0  0  0
    7.3282   -3.8948   29.1186 C   0  0  0  0  0  0  0  0  0  0  0  0
  1  3  4  0
  1  7  4  0
  2  3  1  0
  2  6  4  0
  2 16  4  0
  3 22  4  0
  4  9  4  0
  4 10  1  0
  4 20  4  0
  5 16  4  0
  5 23  4  0
  6 15  4  0
  7 12  4  0
  8 13  4  0
  8 14  4  0
  9 11  4  0
 11 14  4  0
 11 19  4  0
 12 18  4  0
 13 21  4  0
 15 23  4  0
 17 19  4  0
 17 20  4  0
 18 22  4  0
 19 21  4  0
M  END
$$$$

 Created by Python create_sdf_string function

 23 25  0  0  0  0  0  0  0  0999 V2000
    2.4610   -5.3070   29.1240 C   0  0  0  0  0  0  0  0  0  0  0  0
    4.7710   -4.6952   28.4803 C   0  0  0  0  0  0  0  0  0  0  0  0
    3.4047   -5.1087   28.1314 C   0  0  0  0  0  0  0  0  0  0  0  0
   -0.2234  -11.8615   16.8874 C   0  0  0  0  0  0  0  0  0  0  0  0
    6.4491   -4.1532   30.1213 C   0  0  0  0  0  0  0  0  0  0  0  0
    5.7060   -4.4340   27.4975 C   0  0  0  0  0  0  0  0  0  0  0  0
    1.1818   -5.6612   28.8399 C   0  0  0  0  0  0  0  0  0  0  0  0
   -1.2067   -7.3287   17.7772 C   0  0  0  0  0  0  0  0  0  0  0  0
   -0.0206  -10.5585   16.6210 C   0  0  0  0  0  0  0  0  0  0  0  0
    0.3696  -12.7626   16.2169 O   0  0  0  0  0  0  0  0  0  0  0  0
   -0.6895   -9.5676   17.3297 C   0  0  0  0  0  0  0  0  0  0  0  0
    0.8388   -5.8417   27.5264 C   0  0  0  0  0  0  0  0  0  0  0  0
   -2.0709   -7.6637   18.7817 C   0  0  0  0  0  0  0  0  0  0  0  0
   -0.5279   -8.2168   17.0717 C   0  0  0  0  0  0  0  0  0  0  0  0
    6.9694   -4.0191   27.8190 C   0  0  0  0  0  0  0  0  0  0  0  0
    5.1733   -4.5469   29.8123 C   0  0  0  0  0  0  0  0  0  0  0  0
   -1.7508  -11.3016   18.6072 C   0  0  0  0  0  0  0  0  0  0  0  0
    1.7497   -5.6771   26.4971 C   0  0  0  0  0  0  0  0  0  0  0  0
   -1.5799   -9.9322   18.3468 C   0  0  0  0  0  0  0  0  0  0  0  0
   -1.0871  -12.2214   17.8851 C   0  0  0  0  0  0  0  0  0  0  0  0
   -2.2706   -8.9669   19.0691 C   0  0  0  0  0  0  0  0  0  0  0  0
    3.0279   -5.3073   26.8197 C   0  0  0  0  0  0  0  0  0  0  0  0
    7.3282   -3.8948   29.1186 C   0  0  0  0  0  0  0  0  0  0  0  0
  1  3  4  0
  1  7  4  0
  2  3  1  0
  2  6  4  0
  2 16  4  0
  3 22  4  0
  4  9  4  0
  4 10  1  0
  4 20  4  0
  5 16  4  0
  5 23  4  0
  6 15  4  0
  7 12  4  0
  8 13  4  0
  8 14  4  0
  9 11  4  0
 11 14  4  0
 11 19  4  0
 12 18  4  0
 13 21  4  0
 15 23  4  0
 17 19  4  0
 17 20  4  0
 18 22  4  0
 19 21  4  0
M  END
$$$$

 Created by Python create_sdf_string function

 23 25  0  0  0  0  0  0  0  0999 V2000
    2.4610   -5.3070   29.1240 C   0  0  0  0  0  0  0  0  0  0  0  0
    4.7710   -4.6952   28.4803 C   0  0  0  0  0  0  0  0  0  0  0  0
    3.4047   -5.1087   28.1314 C   0  0  0  0  0  0  0  0  0  0  0  0
   -0.2234  -11.8615   16.8874 C   0  0  0  0  0  0  0  0  0  0  0  0
    6.4491   -4.1532   30.1213 C   0  0  0  0  0  0  0  0  0  0  0  0
    5.7060   -4.4340   27.4975 C   0  0  0  0  0  0  0  0  0  0  0  0
    1.1818   -5.6612   28.8399 C   0  0  0  0  0  0  0  0  0  0  0  0
   -1.2067   -7.3287   17.7772 C   0  0  0  0  0  0  0  0  0  0  0  0
   -0.0206  -10.5585   16.6210 C   0  0  0  0  0  0  0  0  0  0  0  0
    0.3696  -12.7626   16.2169 O   0  0  0  0  0  0  0  0  0  0  0  0
   -0.6895   -9.5676   17.3297 C   0  0  0  0  0  0  0  0  0  0  0  0
    0.8388   -5.8417   27.5264 C   0  0  0  0  0  0  0  0  0  0  0  0
   -2.0709   -7.6637   18.7817 C   0  0  0  0  0  0  0  0  0  0  0  0
   -0.5279   -8.2168   17.0717 C   0  0  0  0  0  0  0  0  0  0  0  0
    6.9694   -4.0191   27.8190 C   0  0  0  0  0  0  0  0  0  0  0  0
    5.1733   -4.5469   29.8123 C   0  0  0  0  0  0  0  0  0  0  0  0
   -1.7508  -11.3016   18.6072 C   0  0  0  0  0  0  0  0  0  0  0  0
    1.7497   -5.6771   26.4971 C   0  0  0  0  0  0  0  0  0  0  0  0
   -1.5799   -9.9322   18.3468 C   0  0  0  0  0  0  0  0  0  0  0  0
   -1.0871  -12.2214   17.8851 C   0  0  0  0  0  0  0  0  0  0  0  0
   -2.2706   -8.9669   19.0691 C   0  0  0  0  0  0  0  0  0  0  0  0
    3.0279   -5.3073   26.8197 C   0  0  0  0  0  0  0  0  0  0  0  0
    7.3282   -3.8948   29.1186 C   0  0  0  0  0  0  0  0  0  0  0  0
  1  3  4  0
  1  7  4  0
  2  3  1  0
  2  6  4  0
  2 16  4  0
  3 22  4  0
  4  9  4  0
  4 10  1  0
  4 20  4  0
  5 16  4  0
  5 23  4  0
  6 15  4  0
  7 12  4  0
  8 13  4  0
  8 14  4  0
  9 11  4  0
 11 14  4  0
 11 19  4  0
 12 18  4  0
 13 21  4  0
 15 23  4  0
 17 19  4  0
 17 20  4  0
 18 22  4  0
 19 21  4  0
M  END
$$$$

 Created by Python create_sdf_string function

 23 25  0  0  0  0  0  0  0  0999 V2000
    2.4610   -5.3070   29.1240 C   0  0  0  0  0  0  0  0  0  0  0  0
    4.7710   -4.6952   28.4803 C   0  0  0  0  0  0  0  0  0  0  0  0
    3.4047   -5.1087   28.1314 C   0  0  0  0  0  0  0  0  0  0  0  0
   -0.2234  -11.8615   16.8874 C   0  0  0  0  0  0  0  0  0  0  0  0
    6.4491   -4.1532   30.1213 C   0  0  0  0  0  0  0  0  0  0  0  0
    5.7060   -4.4340   27.4975 C   0  0  0  0  0  0  0  0  0  0  0  0
    1.1818   -5.6612   28.8399 C   0  0  0  0  0  0  0  0  0  0  0  0
   -1.2067   -7.3287   17.7772 C   0  0  0  0  0  0  0  0  0  0  0  0
   -0.0206  -10.5585   16.6210 C   0  0  0  0  0  0  0  0  0  0  0  0
    0.3696  -12.7626   16.2169 O   0  0  0  0  0  0  0  0  0  0  0  0
   -0.6895   -9.5676   17.3297 C   0  0  0  0  0  0  0  0  0  0  0  0
    0.8388   -5.8417   27.5264 C   0  0  0  0  0  0  0  0  0  0  0  0
   -2.0709   -7.6637   18.7817 C   0  0  0  0  0  0  0  0  0  0  0  0
   -0.5279   -8.2168   17.0717 C   0  0  0  0  0  0  0  0  0  0  0  0
    6.9694   -4.0191   27.8190 C   0  0  0  0  0  0  0  0  0  0  0  0
    5.1733   -4.5469   29.8123 C   0  0  0  0  0  0  0  0  0  0  0  0
   -1.7508  -11.3016   18.6072 C   0  0  0  0  0  0  0  0  0  0  0  0
    1.7497   -5.6771   26.4971 C   0  0  0  0  0  0  0  0  0  0  0  0
   -1.5799   -9.9322   18.3468 C   0  0  0  0  0  0  0  0  0  0  0  0
   -1.0871  -12.2214   17.8851 C   0  0  0  0  0  0  0  0  0  0  0  0
   -2.2706   -8.9669   19.0691 C   0  0  0  0  0  0  0  0  0  0  0  0
    3.0279   -5.3073   26.8197 C   0  0  0  0  0  0  0  0  0  0  0  0
    7.3282   -3.8948   29.1186 C   0  0  0  0  0  0  0  0  0  0  0  0
  1  3  4  0
  1  7  4  0
  2  3  1  0
  2  6  4  0
  2 16  4  0
  3 22  4  0
  4  9  4  0
  4 10  1  0
  4 20  4  0
  5 16  4  0
  5 23  4  0
  6 15  4  0
  7 12  4  0
  8 13  4  0
  8 14  4  0
  9 11  4  0
 11 14  4  0
 11 19  4  0
 12 18  4  0
 13 21  4  0
 15 23  4  0
 17 19  4  0
 17 20  4  0
 18 22  4  0
 19 21  4  0
M  END
$$$$

 Created by Python create_sdf_string function

 23 25  0  0  0  0  0  0  0  0999 V2000
    2.4610   -5.3070   29.1240 C   0  0  0  0  0  0  0  0  0  0  0  0
    4.7710   -4.6952   28.4803 C   0  0  0  0  0  0  0  0  0  0  0  0
    3.4047   -5.1087   28.1314 C   0  0  0  0  0  0  0  0  0  0  0  0
   -0.2234  -11.8615   16.8874 C   0  0  0  0  0  0  0  0  0  0  0  0
    6.4491   -4.1532   30.1213 C   0  0  0  0  0  0  0  0  0  0  0  0
    5.7060   -4.4340   27.4975 C   0  0  0  0  0  0  0  0  0  0  0  0
    1.1818   -5.6612   28.8399 C   0  0  0  0  0  0  0  0  0  0  0  0
   -1.2067   -7.3287   17.7772 C   0  0  0  0  0  0  0  0  0  0  0  0
   -0.0206  -10.5585   16.6210 C   0  0  0  0  0  0  0  0  0  0  0  0
    0.3696  -12.7626   16.2169 O   0  0  0  0  0  0  0  0  0  0  0  0
   -0.6895   -9.5676   17.3297 C   0  0  0  0  0  0  0  0  0  0  0  0
    0.8388   -5.8417   27.5264 C   0  0  0  0  0  0  0  0  0  0  0  0
   -2.0709   -7.6637   18.7817 C   0  0  0  0  0  0  0  0  0  0  0  0
   -0.5279   -8.2168   17.0717 C   0  0  0  0  0  0  0  0  0  0  0  0
    6.9694   -4.0191   27.8190 C   0  0  0  0  0  0  0  0  0  0  0  0
    5.1733   -4.5469   29.8123 C   0  0  0  0  0  0  0  0  0  0  0  0
   -1.7508  -11.3016   18.6072 C   0  0  0  0  0  0  0  0  0  0  0  0
    1.7497   -5.6771   26.4971 C   0  0  0  0  0  0  0  0  0  0  0  0
   -1.5799   -9.9322   18.3468 C   0  0  0  0  0  0  0  0  0  0  0  0
   -1.0871  -12.2214   17.8851 C   0  0  0  0  0  0  0  0  0  0  0  0
   -2.2706   -8.9669   19.0691 C   0  0  0  0  0  0  0  0  0  0  0  0
    3.0279   -5.3073   26.8197 C   0  0  0  0  0  0  0  0  0  0  0  0
    7.3282   -3.8948   29.1186 C   0  0  0  0  0  0  0  0  0  0  0  0
  1  3  4  0
  1  7  4  0
  2  3  1  0
  2  6  4  0
  2 16  4  0
  3 22  4  0
  4  9  4  0
  4 10  1  0
  4 20  4  0
  5 16  4  0
  5 23  4  0
  6 15  4  0
  7 12  4  0
  8 13  4  0
  8 14  4  0
  9 11  4  0
 11 14  4  0
 11 19  4  0
 12 18  4  0
 13 21  4  0
 15 23  4  0
 17 19  4  0
 17 20  4  0
 18 22  4  0
 19 21  4  0
M  END
$$$$

 Created by Python create_sdf_string function

 23 25  0  0  0  0  0  0  0  0999 V2000
    2.4610   -5.3070   29.1240 C   0  0  0  0  0  0  0  0  0  0  0  0
    4.7710   -4.6952   28.4803 C   0  0  0  0  0  0  0  0  0  0  0  0
    3.4047   -5.1087   28.1314 C   0  0  0  0  0  0  0  0  0  0  0  0
   -0.2234  -11.8615   16.8874 C   0  0  0  0  0  0  0  0  0  0  0  0
    6.4491   -4.1532   30.1213 C   0  0  0  0  0  0  0  0  0  0  0  0
    5.7060   -4.4340   27.4975 C   0  0  0  0  0  0  0  0  0  0  0  0
    1.1818   -5.6612   28.8399 C   0  0  0  0  0  0  0  0  0  0  0  0
   -1.2067   -7.3287   17.7772 C   0  0  0  0  0  0  0  0  0  0  0  0
   -0.0206  -10.5585   16.6210 C   0  0  0  0  0  0  0  0  0  0  0  0
    0.3696  -12.7626   16.2169 O   0  0  0  0  0  0  0  0  0  0  0  0
   -0.6895   -9.5676   17.3297 C   0  0  0  0  0  0  0  0  0  0  0  0
    0.8388   -5.8417   27.5264 C   0  0  0  0  0  0  0  0  0  0  0  0
   -2.0709   -7.6637   18.7817 C   0  0  0  0  0  0  0  0  0  0  0  0
   -0.5279   -8.2168   17.0717 C   0  0  0  0  0  0  0  0  0  0  0  0
    6.9694   -4.0191   27.8190 C   0  0  0  0  0  0  0  0  0  0  0  0
    5.1733   -4.5469   29.8123 C   0  0  0  0  0  0  0  0  0  0  0  0
   -1.7508  -11.3016   18.6072 C   0  0  0  0  0  0  0  0  0  0  0  0
    1.7497   -5.6771   26.4971 C   0  0  0  0  0  0  0  0  0  0  0  0
   -1.5799   -9.9322   18.3468 C   0  0  0  0  0  0  0  0  0  0  0  0
   -1.0871  -12.2214   17.8851 C   0  0  0  0  0  0  0  0  0  0  0  0
   -2.2706   -8.9669   19.0691 C   0  0  0  0  0  0  0  0  0  0  0  0
    3.0279   -5.3073   26.8197 C   0  0  0  0  0  0  0  0  0  0  0  0
    7.3282   -3.8948   29.1186 C   0  0  0  0  0  0  0  0  0  0  0  0
  1  3  4  0
  1  7  4  0
  2  3  1  0
  2  6  4  0
  2 16  4  0
  3 22  4  0
  4  9  4  0
  4 10  1  0
  4 20  4  0
  5 16  4  0
  5 23  4  0
  6 15  4  0
  7 12  4  0
  8 13  4  0
  8 14  4  0
  9 11  4  0
 11 14  4  0
 11 19  4  0
 12 18  4  0
 13 21  4  0
 15 23  4  0
 17 19  4  0
 17 20  4  0
 18 22  4  0
 19 21  4  0
M  END
$$$$

 Created by Python create_sdf_string function

 23 25  0  0  0  0  0  0  0  0999 V2000
    2.4610   -5.3070   29.1240 C   0  0  0  0  0  0  0  0  0  0  0  0
    4.7710   -4.6952   28.4803 C   0  0  0  0  0  0  0  0  0  0  0  0
    3.4047   -5.1087   28.1314 C   0  0  0  0  0  0  0  0  0  0  0  0
   -0.2234  -11.8615   16.8874 C   0  0  0  0  0  0  0  0  0  0  0  0
    6.4491   -4.1532   30.1213 C   0  0  0  0  0  0  0  0  0  0  0  0
    5.7060   -4.4340   27.4975 C   0  0  0  0  0  0  0  0  0  0  0  0
    1.1818   -5.6612   28.8399 C   0  0  0  0  0  0  0  0  0  0  0  0
   -1.2067   -7.3287   17.7772 C   0  0  0  0  0  0  0  0  0  0  0  0
   -0.0206  -10.5585   16.6210 C   0  0  0  0  0  0  0  0  0  0  0  0
    0.3696  -12.7626   16.2169 O   0  0  0  0  0  0  0  0  0  0  0  0
   -0.6895   -9.5676   17.3297 C   0  0  0  0  0  0  0  0  0  0  0  0
    0.8388   -5.8417   27.5264 C   0  0  0  0  0  0  0  0  0  0  0  0
   -2.0709   -7.6637   18.7817 C   0  0  0  0  0  0  0  0  0  0  0  0
   -0.5279   -8.2168   17.0717 C   0  0  0  0  0  0  0  0  0  0  0  0
    6.9694   -4.0191   27.8190 C   0  0  0  0  0  0  0  0  0  0  0  0
    5.1733   -4.5469   29.8123 C   0  0  0  0  0  0  0  0  0  0  0  0
   -1.7508  -11.3016   18.6072 C   0  0  0  0  0  0  0  0  0  0  0  0
    1.7497   -5.6771   26.4971 C   0  0  0  0  0  0  0  0  0  0  0  0
   -1.5799   -9.9322   18.3468 C   0  0  0  0  0  0  0  0  0  0  0  0
   -1.0871  -12.2214   17.8851 C   0  0  0  0  0  0  0  0  0  0  0  0
   -2.2706   -8.9669   19.0691 C   0  0  0  0  0  0  0  0  0  0  0  0
    3.0279   -5.3073   26.8197 C   0  0  0  0  0  0  0  0  0  0  0  0
    7.3282   -3.8948   29.1186 C   0  0  0  0  0  0  0  0  0  0  0  0
  1  3  4  0
  1  7  4  0
  2  3  1  0
  2  6  4  0
  2 16  4  0
  3 22  4  0
  4  9  4  0
  4 10  1  0
  4 20  4  0
  5 16  4  0
  5 23  4  0
  6 15  4  0
  7 12  4  0
  8 13  4  0
  8 14  4  0
  9 11  4  0
 11 14  4  0
 11 19  4  0
 12 18  4  0
 13 21  4  0
 15 23  4  0
 17 19  4  0
 17 20  4  0
 18 22  4  0
 19 21  4  0
M  END
$$$$

 Created by Python create_sdf_string function

 23 25  0  0  0  0  0  0  0  0999 V2000
    2.4610   -5.3070   29.1240 C   0  0  0  0  0  0  0  0  0  0  0  0
    4.7710   -4.6952   28.4803 C   0  0  0  0  0  0  0  0  0  0  0  0
    3.4047   -5.1087   28.1314 C   0  0  0  0  0  0  0  0  0  0  0  0
   -0.2234  -11.8615   16.8874 C   0  0  0  0  0  0  0  0  0  0  0  0
    6.4491   -4.1532   30.1213 C   0  0  0  0  0  0  0  0  0  0  0  0
    5.7060   -4.4340   27.4975 C   0  0  0  0  0  0  0  0  0  0  0  0
    1.1818   -5.6612   28.8399 C   0  0  0  0  0  0  0  0  0  0  0  0
   -1.2067   -7.3287   17.7772 C   0  0  0  0  0  0  0  0  0  0  0  0
   -0.0206  -10.5585   16.6210 C   0  0  0  0  0  0  0  0  0  0  0  0
    0.3696  -12.7626   16.2169 O   0  0  0  0  0  0  0  0  0  0  0  0
   -0.6895   -9.5676   17.3297 C   0  0  0  0  0  0  0  0  0  0  0  0
    0.8388   -5.8417   27.5264 C   0  0  0  0  0  0  0  0  0  0  0  0
   -2.0709   -7.6637   18.7817 C   0  0  0  0  0  0  0  0  0  0  0  0
   -0.5279   -8.2168   17.0717 C   0  0  0  0  0  0  0  0  0  0  0  0
    6.9694   -4.0191   27.8190 C   0  0  0  0  0  0  0  0  0  0  0  0
    5.1733   -4.5469   29.8123 C   0  0  0  0  0  0  0  0  0  0  0  0
   -1.7508  -11.3016   18.6072 C   0  0  0  0  0  0  0  0  0  0  0  0
    1.7497   -5.6771   26.4971 C   0  0  0  0  0  0  0  0  0  0  0  0
   -1.5799   -9.9322   18.3468 C   0  0  0  0  0  0  0  0  0  0  0  0
   -1.0871  -12.2214   17.8851 C   0  0  0  0  0  0  0  0  0  0  0  0
   -2.2706   -8.9669   19.0691 C   0  0  0  0  0  0  0  0  0  0  0  0
    3.0279   -5.3073   26.8197 C   0  0  0  0  0  0  0  0  0  0  0  0
    7.3282   -3.8948   29.1186 C   0  0  0  0  0  0  0  0  0  0  0  0
  1  3  4  0
  1  7  4  0
  2  3  1  0
  2  6  4  0
  2 16  4  0
  3 22  4  0
  4  9  4  0
  4 10  1  0
  4 20  4  0
  5 16  4  0
  5 23  4  0
  6 15  4  0
  7 12  4  0
  8 13  4  0
  8 14  4  0
  9 11  4  0
 11 14  4  0
 11 19  4  0
 12 18  4  0
 13 21  4  0
 15 23  4  0
 17 19  4  0
 17 20  4  0
 18 22  4  0
 19 21  4  0
M  END
$$$$

 Created by Python create_sdf_string function

 23 25  0  0  0  0  0  0  0  0999 V2000
    2.4610   -5.3070   29.1240 C   0  0  0  0  0  0  0  0  0  0  0  0
    4.7710   -4.6952   28.4803 C   0  0  0  0  0  0  0  0  0  0  0  0
    3.4047   -5.1087   28.1314 C   0  0  0  0  0  0  0  0  0  0  0  0
   -0.2234  -11.8615   16.8874 C   0  0  0  0  0  0  0  0  0  0  0  0
    6.4491   -4.1532   30.1213 C   0  0  0  0  0  0  0  0  0  0  0  0
    5.7060   -4.4340   27.4975 C   0  0  0  0  0  0  0  0  0  0  0  0
    1.1818   -5.6612   28.8399 C   0  0  0  0  0  0  0  0  0  0  0  0
   -1.2067   -7.3287   17.7772 C   0  0  0  0  0  0  0  0  0  0  0  0
   -0.0206  -10.5585   16.6210 C   0  0  0  0  0  0  0  0  0  0  0  0
    0.3696  -12.7626   16.2169 O   0  0  0  0  0  0  0  0  0  0  0  0
   -0.6895   -9.5676   17.3297 C   0  0  0  0  0  0  0  0  0  0  0  0
    0.8388   -5.8417   27.5264 C   0  0  0  0  0  0  0  0  0  0  0  0
   -2.0709   -7.6637   18.7817 C   0  0  0  0  0  0  0  0  0  0  0  0
   -0.5279   -8.2168   17.0717 C   0  0  0  0  0  0  0  0  0  0  0  0
    6.9694   -4.0191   27.8190 C   0  0  0  0  0  0  0  0  0  0  0  0
    5.1733   -4.5469   29.8123 C   0  0  0  0  0  0  0  0  0  0  0  0
   -1.7508  -11.3016   18.6072 C   0  0  0  0  0  0  0  0  0  0  0  0
    1.7497   -5.6771   26.4971 C   0  0  0  0  0  0  0  0  0  0  0  0
   -1.5799   -9.9322   18.3468 C   0  0  0  0  0  0  0  0  0  0  0  0
   -1.0871  -12.2214   17.8851 C   0  0  0  0  0  0  0  0  0  0  0  0
   -2.2706   -8.9669   19.0691 C   0  0  0  0  0  0  0  0  0  0  0  0
    3.0279   -5.3073   26.8197 C   0  0  0  0  0  0  0  0  0  0  0  0
    7.3282   -3.8948   29.1186 C   0  0  0  0  0  0  0  0  0  0  0  0
  1  3  4  0
  1  7  4  0
  2  3  1  0
  2  6  4  0
  2 16  4  0
  3 22  4  0
  4  9  4  0
  4 10  1  0
  4 20  4  0
  5 16  4  0
  5 23  4  0
  6 15  4  0
  7 12  4  0
  8 13  4  0
  8 14  4  0
  9 11  4  0
 11 14  4  0
 11 19  4  0
 12 18  4  0
 13 21  4  0
 15 23  4  0
 17 19  4  0
 17 20  4  0
 18 22  4  0
 19 21  4  0
M  END
$$$$

 Created by Python create_sdf_string function

 23 25  0  0  0  0  0  0  0  0999 V2000
    2.4610   -5.3070   29.1240 C   0  0  0  0  0  0  0  0  0  0  0  0
    4.7710   -4.6952   28.4803 C   0  0  0  0  0  0  0  0  0  0  0  0
    3.4047   -5.1087   28.1314 C   0  0  0  0  0  0  0  0  0  0  0  0
   -0.2234  -11.8615   16.8874 C   0  0  0  0  0  0  0  0  0  0  0  0
    6.4491   -4.1532   30.1213 C   0  0  0  0  0  0  0  0  0  0  0  0
    5.7060   -4.4340   27.4975 C   0  0  0  0  0  0  0  0  0  0  0  0
    1.1818   -5.6612   28.8399 C   0  0  0  0  0  0  0  0  0  0  0  0
   -1.2067   -7.3287   17.7772 C   0  0  0  0  0  0  0  0  0  0  0  0
   -0.0206  -10.5585   16.6210 C   0  0  0  0  0  0  0  0  0  0  0  0
    0.3696  -12.7626   16.2169 O   0  0  0  0  0  0  0  0  0  0  0  0
   -0.6895   -9.5676   17.3297 C   0  0  0  0  0  0  0  0  0  0  0  0
    0.8388   -5.8417   27.5264 C   0  0  0  0  0  0  0  0  0  0  0  0
   -2.0709   -7.6637   18.7817 C   0  0  0  0  0  0  0  0  0  0  0  0
   -0.5279   -8.2168   17.0717 C   0  0  0  0  0  0  0  0  0  0  0  0
    6.9694   -4.0191   27.8190 C   0  0  0  0  0  0  0  0  0  0  0  0
    5.1733   -4.5469   29.8123 C   0  0  0  0  0  0  0  0  0  0  0  0
   -1.7508  -11.3016   18.6072 C   0  0  0  0  0  0  0  0  0  0  0  0
    1.7497   -5.6771   26.4971 C   0  0  0  0  0  0  0  0  0  0  0  0
   -1.5799   -9.9322   18.3468 C   0  0  0  0  0  0  0  0  0  0  0  0
   -1.0871  -12.2214   17.8851 C   0  0  0  0  0  0  0  0  0  0  0  0
   -2.2706   -8.9669   19.0691 C   0  0  0  0  0  0  0  0  0  0  0  0
    3.0279   -5.3073   26.8197 C   0  0  0  0  0  0  0  0  0  0  0  0
    7.3282   -3.8948   29.1186 C   0  0  0  0  0  0  0  0  0  0  0  0
  1  3  4  0
  1  7  4  0
  2  3  1  0
  2  6  4  0
  2 16  4  0
  3 22  4  0
  4  9  4  0
  4 10  1  0
  4 20  4  0
  5 16  4  0
  5 23  4  0
  6 15  4  0
  7 12  4  0
  8 13  4  0
  8 14  4  0
  9 11  4  0
 11 14  4  0
 11 19  4  0
 12 18  4  0
 13 21  4  0
 15 23  4  0
 17 19  4  0
 17 20  4  0
 18 22  4  0
 19 21  4  0
M  END
$$$$

 Created by Python create_sdf_string function

 23 25  0  0  0  0  0  0  0  0999 V2000
    2.4610   -5.3070   29.1240 C   0  0  0  0  0  0  0  0  0  0  0  0
    4.7710   -4.6952   28.4803 C   0  0  0  0  0  0  0  0  0  0  0  0
    3.4047   -5.1087   28.1314 C   0  0  0  0  0  0  0  0  0  0  0  0
   -0.2234  -11.8615   16.8874 C   0  0  0  0  0  0  0  0  0  0  0  0
    6.4491   -4.1532   30.1213 C   0  0  0  0  0  0  0  0  0  0  0  0
    5.7060   -4.4340   27.4975 C   0  0  0  0  0  0  0  0  0  0  0  0
    1.1818   -5.6612   28.8399 C   0  0  0  0  0  0  0  0  0  0  0  0
   -1.2067   -7.3287   17.7772 C   0  0  0  0  0  0  0  0  0  0  0  0
   -0.0206  -10.5585   16.6210 C   0  0  0  0  0  0  0  0  0  0  0  0
    0.3696  -12.7626   16.2169 O   0  0  0  0  0  0  0  0  0  0  0  0
   -0.6895   -9.5676   17.3297 C   0  0  0  0  0  0  0  0  0  0  0  0
    0.8388   -5.8417   27.5264 C   0  0  0  0  0  0  0  0  0  0  0  0
   -2.0709   -7.6637   18.7817 C   0  0  0  0  0  0  0  0  0  0  0  0
   -0.5279   -8.2168   17.0717 C   0  0  0  0  0  0  0  0  0  0  0  0
    6.9694   -4.0191   27.8190 C   0  0  0  0  0  0  0  0  0  0  0  0
    5.1733   -4.5469   29.8123 C   0  0  0  0  0  0  0  0  0  0  0  0
   -1.7508  -11.3016   18.6072 C   0  0  0  0  0  0  0  0  0  0  0  0
    1.7497   -5.6771   26.4971 C   0  0  0  0  0  0  0  0  0  0  0  0
   -1.5799   -9.9322   18.3468 C   0  0  0  0  0  0  0  0  0  0  0  0
   -1.0871  -12.2214   17.8851 C   0  0  0  0  0  0  0  0  0  0  0  0
   -2.2706   -8.9669   19.0691 C   0  0  0  0  0  0  0  0  0  0  0  0
    3.0279   -5.3073   26.8197 C   0  0  0  0  0  0  0  0  0  0  0  0
    7.3282   -3.8948   29.1186 C   0  0  0  0  0  0  0  0  0  0  0  0
  1  3  4  0
  1  7  4  0
  2  3  1  0
  2  6  4  0
  2 16  4  0
  3 22  4  0
  4  9  4  0
  4 10  1  0
  4 20  4  0
  5 16  4  0
  5 23  4  0
  6 15  4  0
  7 12  4  0
  8 13  4  0
  8 14  4  0
  9 11  4  0
 11 14  4  0
 11 19  4  0
 12 18  4  0
 13 21  4  0
 15 23  4  0
 17 19  4  0
 17 20  4  0
 18 22  4  0
 19 21  4  0
M  END
$$$$

 Created by Python create_sdf_string function

 23 25  0  0  0  0  0  0  0  0999 V2000
    2.4610   -5.3070   29.1240 C   0  0  0  0  0  0  0  0  0  0  0  0
    4.7710   -4.6952   28.4803 C   0  0  0  0  0  0  0  0  0  0  0  0
    3.4047   -5.1087   28.1314 C   0  0  0  0  0  0  0  0  0  0  0  0
   -0.2234  -11.8615   16.8874 C   0  0  0  0  0  0  0  0  0  0  0  0
    6.4491   -4.1532   30.1213 C   0  0  0  0  0  0  0  0  0  0  0  0
    5.7060   -4.4340   27.4975 C   0  0  0  0  0  0  0  0  0  0  0  0
    1.1818   -5.6612   28.8399 C   0  0  0  0  0  0  0  0  0  0  0  0
   -1.2067   -7.3287   17.7772 C   0  0  0  0  0  0  0  0  0  0  0  0
   -0.0206  -10.5585   16.6210 C   0  0  0  0  0  0  0  0  0  0  0  0
    0.3696  -12.7626   16.2169 O   0  0  0  0  0  0  0  0  0  0  0  0
   -0.6895   -9.5676   17.3297 C   0  0  0  0  0  0  0  0  0  0  0  0
    0.8388   -5.8417   27.5264 C   0  0  0  0  0  0  0  0  0  0  0  0
   -2.0709   -7.6637   18.7817 C   0  0  0  0  0  0  0  0  0  0  0  0
   -0.5279   -8.2168   17.0717 C   0  0  0  0  0  0  0  0  0  0  0  0
    6.9694   -4.0191   27.8190 C   0  0  0  0  0  0  0  0  0  0  0  0
    5.1733   -4.5469   29.8123 C   0  0  0  0  0  0  0  0  0  0  0  0
   -1.7508  -11.3016   18.6072 C   0  0  0  0  0  0  0  0  0  0  0  0
    1.7497   -5.6771   26.4971 C   0  0  0  0  0  0  0  0  0  0  0  0
   -1.5799   -9.9322   18.3468 C   0  0  0  0  0  0  0  0  0  0  0  0
   -1.0871  -12.2214   17.8851 C   0  0  0  0  0  0  0  0  0  0  0  0
   -2.2706   -8.9669   19.0691 C   0  0  0  0  0  0  0  0  0  0  0  0
    3.0279   -5.3073   26.8197 C   0  0  0  0  0  0  0  0  0  0  0  0
    7.3282   -3.8948   29.1186 C   0  0  0  0  0  0  0  0  0  0  0  0
  1  3  4  0
  1  7  4  0
  2  3  1  0
  2  6  4  0
  2 16  4  0
  3 22  4  0
  4  9  4  0
  4 10  1  0
  4 20  4  0
  5 16  4  0
  5 23  4  0
  6 15  4  0
  7 12  4  0
  8 13  4  0
  8 14  4  0
  9 11  4  0
 11 14  4  0
 11 19  4  0
 12 18  4  0
 13 21  4  0
 15 23  4  0
 17 19  4  0
 17 20  4  0
 18 22  4  0
 19 21  4  0
M  END
$$$$

 Created by Python create_sdf_string function

 23 25  0  0  0  0  0  0  0  0999 V2000
    2.4610   -5.3070   29.1240 C   0  0  0  0  0  0  0  0  0  0  0  0
    4.7710   -4.6952   28.4803 C   0  0  0  0  0  0  0  0  0  0  0  0
    3.4047   -5.1087   28.1314 C   0  0  0  0  0  0  0  0  0  0  0  0
   -0.2234  -11.8615   16.8874 C   0  0  0  0  0  0  0  0  0  0  0  0
    6.4491   -4.1532   30.1213 C   0  0  0  0  0  0  0  0  0  0  0  0
    5.7060   -4.4340   27.4975 C   0  0  0  0  0  0  0  0  0  0  0  0
    1.1818   -5.6612   28.8399 C   0  0  0  0  0  0  0  0  0  0  0  0
   -1.2067   -7.3287   17.7772 C   0  0  0  0  0  0  0  0  0  0  0  0
   -0.0206  -10.5585   16.6210 C   0  0  0  0  0  0  0  0  0  0  0  0
    0.3696  -12.7626   16.2169 O   0  0  0  0  0  0  0  0  0  0  0  0
   -0.6895   -9.5676   17.3297 C   0  0  0  0  0  0  0  0  0  0  0  0
    0.8388   -5.8417   27.5264 C   0  0  0  0  0  0  0  0  0  0  0  0
   -2.0709   -7.6637   18.7817 C   0  0  0  0  0  0  0  0  0  0  0  0
   -0.5279   -8.2168   17.0717 C   0  0  0  0  0  0  0  0  0  0  0  0
    6.9694   -4.0191   27.8190 C   0  0  0  0  0  0  0  0  0  0  0  0
    5.1733   -4.5469   29.8123 C   0  0  0  0  0  0  0  0  0  0  0  0
   -1.7508  -11.3016   18.6072 C   0  0  0  0  0  0  0  0  0  0  0  0
    1.7497   -5.6771   26.4971 C   0  0  0  0  0  0  0  0  0  0  0  0
   -1.5799   -9.9322   18.3468 C   0  0  0  0  0  0  0  0  0  0  0  0
   -1.0871  -12.2214   17.8851 C   0  0  0  0  0  0  0  0  0  0  0  0
   -2.2706   -8.9669   19.0691 C   0  0  0  0  0  0  0  0  0  0  0  0
    3.0279   -5.3073   26.8197 C   0  0  0  0  0  0  0  0  0  0  0  0
    7.3282   -3.8948   29.1186 C   0  0  0  0  0  0  0  0  0  0  0  0
  1  3  4  0
  1  7  4  0
  2  3  1  0
  2  6  4  0
  2 16  4  0
  3 22  4  0
  4  9  4  0
  4 10  1  0
  4 20  4  0
  5 16  4  0
  5 23  4  0
  6 15  4  0
  7 12  4  0
  8 13  4  0
  8 14  4  0
  9 11  4  0
 11 14  4  0
 11 19  4  0
 12 18  4  0
 13 21  4  0
 15 23  4  0
 17 19  4  0
 17 20  4  0
 18 22  4  0
 19 21  4  0
M  END
$$$$

 Created by Python create_sdf_string function

 23 25  0  0  0  0  0  0  0  0999 V2000
    2.4610   -5.3070   29.1240 C   0  0  0  0  0  0  0  0  0  0  0  0
    4.7710   -4.6952   28.4803 C   0  0  0  0  0  0  0  0  0  0  0  0
    3.4047   -5.1087   28.1314 C   0  0  0  0  0  0  0  0  0  0  0  0
   -0.2234  -11.8615   16.8874 C   0  0  0  0  0  0  0  0  0  0  0  0
    6.4491   -4.1532   30.1213 C   0  0  0  0  0  0  0  0  0  0  0  0
    5.7060   -4.4340   27.4975 C   0  0  0  0  0  0  0  0  0  0  0  0
    1.1818   -5.6612   28.8399 C   0  0  0  0  0  0  0  0  0  0  0  0
   -1.2067   -7.3287   17.7772 C   0  0  0  0  0  0  0  0  0  0  0  0
   -0.0206  -10.5585   16.6210 C   0  0  0  0  0  0  0  0  0  0  0  0
    0.3696  -12.7626   16.2169 O   0  0  0  0  0  0  0  0  0  0  0  0
   -0.6895   -9.5676   17.3297 C   0  0  0  0  0  0  0  0  0  0  0  0
    0.8388   -5.8417   27.5264 C   0  0  0  0  0  0  0  0  0  0  0  0
   -2.0709   -7.6637   18.7817 C   0  0  0  0  0  0  0  0  0  0  0  0
   -0.5279   -8.2168   17.0717 C   0  0  0  0  0  0  0  0  0  0  0  0
    6.9694   -4.0191   27.8190 C   0  0  0  0  0  0  0  0  0  0  0  0
    5.1733   -4.5469   29.8123 C   0  0  0  0  0  0  0  0  0  0  0  0
   -1.7508  -11.3016   18.6072 C   0  0  0  0  0  0  0  0  0  0  0  0
    1.7497   -5.6771   26.4971 C   0  0  0  0  0  0  0  0  0  0  0  0
   -1.5799   -9.9322   18.3468 C   0  0  0  0  0  0  0  0  0  0  0  0
   -1.0871  -12.2214   17.8851 C   0  0  0  0  0  0  0  0  0  0  0  0
   -2.2706   -8.9669   19.0691 C   0  0  0  0  0  0  0  0  0  0  0  0
    3.0279   -5.3073   26.8197 C   0  0  0  0  0  0  0  0  0  0  0  0
    7.3282   -3.8948   29.1186 C   0  0  0  0  0  0  0  0  0  0  0  0
  1  3  4  0
  1  7  4  0
  2  3  1  0
  2  6  4  0
  2 16  4  0
  3 22  4  0
  4  9  4  0
  4 10  1  0
  4 20  4  0
  5 16  4  0
  5 23  4  0
  6 15  4  0
  7 12  4  0
  8 13  4  0
  8 14  4  0
  9 11  4  0
 11 14  4  0
 11 19  4  0
 12 18  4  0
 13 21  4  0
 15 23  4  0
 17 19  4  0
 17 20  4  0
 18 22  4  0
 19 21  4  0
M  END
$$$$

 Created by Python create_sdf_string function

 23 25  0  0  0  0  0  0  0  0999 V2000
    2.4610   -5.3070   29.1240 C   0  0  0  0  0  0  0  0  0  0  0  0
    4.7710   -4.6952   28.4803 C   0  0  0  0  0  0  0  0  0  0  0  0
    3.4047   -5.1087   28.1314 C   0  0  0  0  0  0  0  0  0  0  0  0
   -0.2234  -11.8615   16.8874 C   0  0  0  0  0  0  0  0  0  0  0  0
    6.4491   -4.1532   30.1213 C   0  0  0  0  0  0  0  0  0  0  0  0
    5.7060   -4.4340   27.4975 C   0  0  0  0  0  0  0  0  0  0  0  0
    1.1818   -5.6612   28.8399 C   0  0  0  0  0  0  0  0  0  0  0  0
   -1.2067   -7.3287   17.7772 C   0  0  0  0  0  0  0  0  0  0  0  0
   -0.0206  -10.5585   16.6210 C   0  0  0  0  0  0  0  0  0  0  0  0
    0.3696  -12.7626   16.2169 O   0  0  0  0  0  0  0  0  0  0  0  0
   -0.6895   -9.5676   17.3297 C   0  0  0  0  0  0  0  0  0  0  0  0
    0.8388   -5.8417   27.5264 C   0  0  0  0  0  0  0  0  0  0  0  0
   -2.0709   -7.6637   18.7817 C   0  0  0  0  0  0  0  0  0  0  0  0
   -0.5279   -8.2168   17.0717 C   0  0  0  0  0  0  0  0  0  0  0  0
    6.9694   -4.0191   27.8190 C   0  0  0  0  0  0  0  0  0  0  0  0
    5.1733   -4.5469   29.8123 C   0  0  0  0  0  0  0  0  0  0  0  0
   -1.7508  -11.3016   18.6072 C   0  0  0  0  0  0  0  0  0  0  0  0
    1.7497   -5.6771   26.4971 C   0  0  0  0  0  0  0  0  0  0  0  0
   -1.5799   -9.9322   18.3468 C   0  0  0  0  0  0  0  0  0  0  0  0
   -1.0871  -12.2214   17.8851 C   0  0  0  0  0  0  0  0  0  0  0  0
   -2.2706   -8.9669   19.0691 C   0  0  0  0  0  0  0  0  0  0  0  0
    3.0279   -5.3073   26.8197 C   0  0  0  0  0  0  0  0  0  0  0  0
    7.3282   -3.8948   29.1186 C   0  0  0  0  0  0  0  0  0  0  0  0
  1  3  4  0
  1  7  4  0
  2  3  1  0
  2  6  4  0
  2 16  4  0
  3 22  4  0
  4  9  4  0
  4 10  1  0
  4 20  4  0
  5 16  4  0
  5 23  4  0
  6 15  4  0
  7 12  4  0
  8 13  4  0
  8 14  4  0
  9 11  4  0
 11 14  4  0
 11 19  4  0
 12 18  4  0
 13 21  4  0
 15 23  4  0
 17 19  4  0
 17 20  4  0
 18 22  4  0
 19 21  4  0
M  END
$$$$

 Created by Python create_sdf_string function

 23 25  0  0  0  0  0  0  0  0999 V2000
    2.4610   -5.3070   29.1240 C   0  0  0  0  0  0  0  0  0  0  0  0
    4.7710   -4.6952   28.4803 C   0  0  0  0  0  0  0  0  0  0  0  0
    3.4047   -5.1087   28.1314 C   0  0  0  0  0  0  0  0  0  0  0  0
   -0.2234  -11.8615   16.8874 C   0  0  0  0  0  0  0  0  0  0  0  0
    6.4491   -4.1532   30.1213 C   0  0  0  0  0  0  0  0  0  0  0  0
    5.7060   -4.4340   27.4975 C   0  0  0  0  0  0  0  0  0  0  0  0
    1.1818   -5.6612   28.8399 C   0  0  0  0  0  0  0  0  0  0  0  0
   -1.2067   -7.3287   17.7772 C   0  0  0  0  0  0  0  0  0  0  0  0
   -0.0206  -10.5585   16.6210 C   0  0  0  0  0  0  0  0  0  0  0  0
    0.3696  -12.7626   16.2169 O   0  0  0  0  0  0  0  0  0  0  0  0
   -0.6895   -9.5676   17.3297 C   0  0  0  0  0  0  0  0  0  0  0  0
    0.8388   -5.8417   27.5264 C   0  0  0  0  0  0  0  0  0  0  0  0
   -2.0709   -7.6637   18.7817 C   0  0  0  0  0  0  0  0  0  0  0  0
   -0.5279   -8.2168   17.0717 C   0  0  0  0  0  0  0  0  0  0  0  0
    6.9694   -4.0191   27.8190 C   0  0  0  0  0  0  0  0  0  0  0  0
    5.1733   -4.5469   29.8123 C   0  0  0  0  0  0  0  0  0  0  0  0
   -1.7508  -11.3016   18.6072 C   0  0  0  0  0  0  0  0  0  0  0  0
    1.7497   -5.6771   26.4971 C   0  0  0  0  0  0  0  0  0  0  0  0
   -1.5799   -9.9322   18.3468 C   0  0  0  0  0  0  0  0  0  0  0  0
   -1.0871  -12.2214   17.8851 C   0  0  0  0  0  0  0  0  0  0  0  0
   -2.2706   -8.9669   19.0691 C   0  0  0  0  0  0  0  0  0  0  0  0
    3.0279   -5.3073   26.8197 C   0  0  0  0  0  0  0  0  0  0  0  0
    7.3282   -3.8948   29.1186 C   0  0  0  0  0  0  0  0  0  0  0  0
  1  3  4  0
  1  7  4  0
  2  3  1  0
  2  6  4  0
  2 16  4  0
  3 22  4  0
  4  9  4  0
  4 10  1  0
  4 20  4  0
  5 16  4  0
  5 23  4  0
  6 15  4  0
  7 12  4  0
  8 13  4  0
  8 14  4  0
  9 11  4  0
 11 14  4  0
 11 19  4  0
 12 18  4  0
 13 21  4  0
 15 23  4  0
 17 19  4  0
 17 20  4  0
 18 22  4  0
 19 21  4  0
M  END
$$$$

 Created by Python create_sdf_string function

 23 25  0  0  0  0  0  0  0  0999 V2000
    2.4610   -5.3070   29.1240 C   0  0  0  0  0  0  0  0  0  0  0  0
    4.7710   -4.6952   28.4803 C   0  0  0  0  0  0  0  0  0  0  0  0
    3.4047   -5.1087   28.1314 C   0  0  0  0  0  0  0  0  0  0  0  0
   -0.2234  -11.8615   16.8874 C   0  0  0  0  0  0  0  0  0  0  0  0
    6.4491   -4.1532   30.1213 C   0  0  0  0  0  0  0  0  0  0  0  0
    5.7060   -4.4340   27.4975 C   0  0  0  0  0  0  0  0  0  0  0  0
    1.1818   -5.6612   28.8399 C   0  0  0  0  0  0  0  0  0  0  0  0
   -1.2067   -7.3287   17.7772 C   0  0  0  0  0  0  0  0  0  0  0  0
   -0.0206  -10.5585   16.6210 C   0  0  0  0  0  0  0  0  0  0  0  0
    0.3696  -12.7626   16.2169 O   0  0  0  0  0  0  0  0  0  0  0  0
   -0.6895   -9.5676   17.3297 C   0  0  0  0  0  0  0  0  0  0  0  0
    0.8388   -5.8417   27.5264 C   0  0  0  0  0  0  0  0  0  0  0  0
   -2.0709   -7.6637   18.7817 C   0  0  0  0  0  0  0  0  0  0  0  0
   -0.5279   -8.2168   17.0717 C   0  0  0  0  0  0  0  0  0  0  0  0
    6.9694   -4.0191   27.8190 C   0  0  0  0  0  0  0  0  0  0  0  0
    5.1733   -4.5469   29.8123 C   0  0  0  0  0  0  0  0  0  0  0  0
   -1.7508  -11.3016   18.6072 C   0  0  0  0  0  0  0  0  0  0  0  0
    1.7497   -5.6771   26.4971 C   0  0  0  0  0  0  0  0  0  0  0  0
   -1.5799   -9.9322   18.3468 C   0  0  0  0  0  0  0  0  0  0  0  0
   -1.0871  -12.2214   17.8851 C   0  0  0  0  0  0  0  0  0  0  0  0
   -2.2706   -8.9669   19.0691 C   0  0  0  0  0  0  0  0  0  0  0  0
    3.0279   -5.3073   26.8197 C   0  0  0  0  0  0  0  0  0  0  0  0
    7.3282   -3.8948   29.1186 C   0  0  0  0  0  0  0  0  0  0  0  0
  1  3  4  0
  1  7  4  0
  2  3  1  0
  2  6  4  0
  2 16  4  0
  3 22  4  0
  4  9  4  0
  4 10  1  0
  4 20  4  0
  5 16  4  0
  5 23  4  0
  6 15  4  0
  7 12  4  0
  8 13  4  0
  8 14  4  0
  9 11  4  0
 11 14  4  0
 11 19  4  0
 12 18  4  0
 13 21  4  0
 15 23  4  0
 17 19  4  0
 17 20  4  0
 18 22  4  0
 19 21  4  0
M  END
$$$$

 Created by Python create_sdf_string function

 23 25  0  0  0  0  0  0  0  0999 V2000
    2.4610   -5.3070   29.1240 C   0  0  0  0  0  0  0  0  0  0  0  0
    4.7710   -4.6952   28.4803 C   0  0  0  0  0  0  0  0  0  0  0  0
    3.4047   -5.1087   28.1314 C   0  0  0  0  0  0  0  0  0  0  0  0
   -0.2234  -11.8615   16.8874 C   0  0  0  0  0  0  0  0  0  0  0  0
    6.4491   -4.1532   30.1213 C   0  0  0  0  0  0  0  0  0  0  0  0
    5.7060   -4.4340   27.4975 C   0  0  0  0  0  0  0  0  0  0  0  0
    1.1818   -5.6612   28.8399 C   0  0  0  0  0  0  0  0  0  0  0  0
   -1.2067   -7.3287   17.7772 C   0  0  0  0  0  0  0  0  0  0  0  0
   -0.0206  -10.5585   16.6210 C   0  0  0  0  0  0  0  0  0  0  0  0
    0.3696  -12.7626   16.2169 O   0  0  0  0  0  0  0  0  0  0  0  0
   -0.6895   -9.5676   17.3297 C   0  0  0  0  0  0  0  0  0  0  0  0
    0.8388   -5.8417   27.5264 C   0  0  0  0  0  0  0  0  0  0  0  0
   -2.0709   -7.6637   18.7817 C   0  0  0  0  0  0  0  0  0  0  0  0
   -0.5279   -8.2168   17.0717 C   0  0  0  0  0  0  0  0  0  0  0  0
    6.9694   -4.0191   27.8190 C   0  0  0  0  0  0  0  0  0  0  0  0
    5.1733   -4.5469   29.8123 C   0  0  0  0  0  0  0  0  0  0  0  0
   -1.7508  -11.3016   18.6072 C   0  0  0  0  0  0  0  0  0  0  0  0
    1.7497   -5.6771   26.4971 C   0  0  0  0  0  0  0  0  0  0  0  0
   -1.5799   -9.9322   18.3468 C   0  0  0  0  0  0  0  0  0  0  0  0
   -1.0871  -12.2214   17.8851 C   0  0  0  0  0  0  0  0  0  0  0  0
   -2.2706   -8.9669   19.0691 C   0  0  0  0  0  0  0  0  0  0  0  0
    3.0279   -5.3073   26.8197 C   0  0  0  0  0  0  0  0  0  0  0  0
    7.3282   -3.8948   29.1186 C   0  0  0  0  0  0  0  0  0  0  0  0
  1  3  4  0
  1  7  4  0
  2  3  1  0
  2  6  4  0
  2 16  4  0
  3 22  4  0
  4  9  4  0
  4 10  1  0
  4 20  4  0
  5 16  4  0
  5 23  4  0
  6 15  4  0
  7 12  4  0
  8 13  4  0
  8 14  4  0
  9 11  4  0
 11 14  4  0
 11 19  4  0
 12 18  4  0
 13 21  4  0
 15 23  4  0
 17 19  4  0
 17 20  4  0
 18 22  4  0
 19 21  4  0
M  END
$$$$

 Created by Python create_sdf_string function

 23 25  0  0  0  0  0  0  0  0999 V2000
    2.4610   -5.3070   29.1240 C   0  0  0  0  0  0  0  0  0  0  0  0
    4.7710   -4.6952   28.4803 C   0  0  0  0  0  0  0  0  0  0  0  0
    3.4047   -5.1087   28.1314 C   0  0  0  0  0  0  0  0  0  0  0  0
   -0.2234  -11.8615   16.8874 C   0  0  0  0  0  0  0  0  0  0  0  0
    6.4491   -4.1532   30.1213 C   0  0  0  0  0  0  0  0  0  0  0  0
    5.7060   -4.4340   27.4975 C   0  0  0  0  0  0  0  0  0  0  0  0
    1.1818   -5.6612   28.8399 C   0  0  0  0  0  0  0  0  0  0  0  0
   -1.2067   -7.3287   17.7772 C   0  0  0  0  0  0  0  0  0  0  0  0
   -0.0206  -10.5585   16.6210 C   0  0  0  0  0  0  0  0  0  0  0  0
    0.3696  -12.7626   16.2169 O   0  0  0  0  0  0  0  0  0  0  0  0
   -0.6895   -9.5676   17.3297 C   0  0  0  0  0  0  0  0  0  0  0  0
    0.8388   -5.8417   27.5264 C   0  0  0  0  0  0  0  0  0  0  0  0
   -2.0709   -7.6637   18.7817 C   0  0  0  0  0  0  0  0  0  0  0  0
   -0.5279   -8.2168   17.0717 C   0  0  0  0  0  0  0  0  0  0  0  0
    6.9694   -4.0191   27.8190 C   0  0  0  0  0  0  0  0  0  0  0  0
    5.1733   -4.5469   29.8123 C   0  0  0  0  0  0  0  0  0  0  0  0
   -1.7508  -11.3016   18.6072 C   0  0  0  0  0  0  0  0  0  0  0  0
    1.7497   -5.6771   26.4971 C   0  0  0  0  0  0  0  0  0  0  0  0
   -1.5799   -9.9322   18.3468 C   0  0  0  0  0  0  0  0  0  0  0  0
   -1.0871  -12.2214   17.8851 C   0  0  0  0  0  0  0  0  0  0  0  0
   -2.2706   -8.9669   19.0691 C   0  0  0  0  0  0  0  0  0  0  0  0
    3.0279   -5.3073   26.8197 C   0  0  0  0  0  0  0  0  0  0  0  0
    7.3282   -3.8948   29.1186 C   0  0  0  0  0  0  0  0  0  0  0  0
  1  3  4  0
  1  7  4  0
  2  3  1  0
  2  6  4  0
  2 16  4  0
  3 22  4  0
  4  9  4  0
  4 10  1  0
  4 20  4  0
  5 16  4  0
  5 23  4  0
  6 15  4  0
  7 12  4  0
  8 13  4  0
  8 14  4  0
  9 11  4  0
 11 14  4  0
 11 19  4  0
 12 18  4  0
 13 21  4  0
 15 23  4  0
 17 19  4  0
 17 20  4  0
 18 22  4  0
 19 21  4  0
M  END
$$$$

 Created by Python create_sdf_string function

 23 25  0  0  0  0  0  0  0  0999 V2000
    2.4610   -5.3070   29.1240 C   0  0  0  0  0  0  0  0  0  0  0  0
    4.7710   -4.6952   28.4803 C   0  0  0  0  0  0  0  0  0  0  0  0
    3.4047   -5.1087   28.1314 C   0  0  0  0  0  0  0  0  0  0  0  0
   -0.2234  -11.8615   16.8874 C   0  0  0  0  0  0  0  0  0  0  0  0
    6.4491   -4.1532   30.1213 C   0  0  0  0  0  0  0  0  0  0  0  0
    5.7060   -4.4340   27.4975 C   0  0  0  0  0  0  0  0  0  0  0  0
    1.1818   -5.6612   28.8399 C   0  0  0  0  0  0  0  0  0  0  0  0
   -1.2067   -7.3287   17.7772 C   0  0  0  0  0  0  0  0  0  0  0  0
   -0.0206  -10.5585   16.6210 C   0  0  0  0  0  0  0  0  0  0  0  0
    0.3696  -12.7626   16.2169 O   0  0  0  0  0  0  0  0  0  0  0  0
   -0.6895   -9.5676   17.3297 C   0  0  0  0  0  0  0  0  0  0  0  0
    0.8388   -5.8417   27.5264 C   0  0  0  0  0  0  0  0  0  0  0  0
   -2.0709   -7.6637   18.7817 C   0  0  0  0  0  0  0  0  0  0  0  0
   -0.5279   -8.2168   17.0717 C   0  0  0  0  0  0  0  0  0  0  0  0
    6.9694   -4.0191   27.8190 C   0  0  0  0  0  0  0  0  0  0  0  0
    5.1733   -4.5469   29.8123 C   0  0  0  0  0  0  0  0  0  0  0  0
   -1.7508  -11.3016   18.6072 C   0  0  0  0  0  0  0  0  0  0  0  0
    1.7497   -5.6771   26.4971 C   0  0  0  0  0  0  0  0  0  0  0  0
   -1.5799   -9.9322   18.3468 C   0  0  0  0  0  0  0  0  0  0  0  0
   -1.0871  -12.2214   17.8851 C   0  0  0  0  0  0  0  0  0  0  0  0
   -2.2706   -8.9669   19.0691 C   0  0  0  0  0  0  0  0  0  0  0  0
    3.0279   -5.3073   26.8197 C   0  0  0  0  0  0  0  0  0  0  0  0
    7.3282   -3.8948   29.1186 C   0  0  0  0  0  0  0  0  0  0  0  0
  1  3  4  0
  1  7  4  0
  2  3  1  0
  2  6  4  0
  2 16  4  0
  3 22  4  0
  4  9  4  0
  4 10  1  0
  4 20  4  0
  5 16  4  0
  5 23  4  0
  6 15  4  0
  7 12  4  0
  8 13  4  0
  8 14  4  0
  9 11  4  0
 11 14  4  0
 11 19  4  0
 12 18  4  0
 13 21  4  0
 15 23  4  0
 17 19  4  0
 17 20  4  0
 18 22  4  0
 19 21  4  0
M  END
$$$$

 Created by Python create_sdf_string function

 23 25  0  0  0  0  0  0  0  0999 V2000
    2.4610   -5.3070   29.1240 C   0  0  0  0  0  0  0  0  0  0  0  0
    4.7710   -4.6952   28.4803 C   0  0  0  0  0  0  0  0  0  0  0  0
    3.4047   -5.1087   28.1314 C   0  0  0  0  0  0  0  0  0  0  0  0
   -0.2234  -11.8615   16.8874 C   0  0  0  0  0  0  0  0  0  0  0  0
    6.4491   -4.1532   30.1213 C   0  0  0  0  0  0  0  0  0  0  0  0
    5.7060   -4.4340   27.4975 C   0  0  0  0  0  0  0  0  0  0  0  0
    1.1818   -5.6612   28.8399 C   0  0  0  0  0  0  0  0  0  0  0  0
   -1.2067   -7.3287   17.7772 C   0  0  0  0  0  0  0  0  0  0  0  0
   -0.0206  -10.5585   16.6210 C   0  0  0  0  0  0  0  0  0  0  0  0
    0.3696  -12.7626   16.2169 O   0  0  0  0  0  0  0  0  0  0  0  0
   -0.6895   -9.5676   17.3297 C   0  0  0  0  0  0  0  0  0  0  0  0
    0.8388   -5.8417   27.5264 C   0  0  0  0  0  0  0  0  0  0  0  0
   -2.0709   -7.6637   18.7817 C   0  0  0  0  0  0  0  0  0  0  0  0
   -0.5279   -8.2168   17.0717 C   0  0  0  0  0  0  0  0  0  0  0  0
    6.9694   -4.0191   27.8190 C   0  0  0  0  0  0  0  0  0  0  0  0
    5.1733   -4.5469   29.8123 C   0  0  0  0  0  0  0  0  0  0  0  0
   -1.7508  -11.3016   18.6072 C   0  0  0  0  0  0  0  0  0  0  0  0
    1.7497   -5.6771   26.4971 C   0  0  0  0  0  0  0  0  0  0  0  0
   -1.5799   -9.9322   18.3468 C   0  0  0  0  0  0  0  0  0  0  0  0
   -1.0871  -12.2214   17.8851 C   0  0  0  0  0  0  0  0  0  0  0  0
   -2.2706   -8.9669   19.0691 C   0  0  0  0  0  0  0  0  0  0  0  0
    3.0279   -5.3073   26.8197 C   0  0  0  0  0  0  0  0  0  0  0  0
    7.3282   -3.8948   29.1186 C   0  0  0  0  0  0  0  0  0  0  0  0
  1  3  4  0
  1  7  4  0
  2  3  1  0
  2  6  4  0
  2 16  4  0
  3 22  4  0
  4  9  4  0
  4 10  1  0
  4 20  4  0
  5 16  4  0
  5 23  4  0
  6 15  4  0
  7 12  4  0
  8 13  4  0
  8 14  4  0
  9 11  4  0
 11 14  4  0
 11 19  4  0
 12 18  4  0
 13 21  4  0
 15 23  4  0
 17 19  4  0
 17 20  4  0
 18 22  4  0
 19 21  4  0
M  END
$$$$

 Created by Python create_sdf_string function

 23 25  0  0  0  0  0  0  0  0999 V2000
    2.4610   -5.3070   29.1240 C   0  0  0  0  0  0  0  0  0  0  0  0
    4.7710   -4.6952   28.4803 C   0  0  0  0  0  0  0  0  0  0  0  0
    3.4047   -5.1087   28.1314 C   0  0  0  0  0  0  0  0  0  0  0  0
   -0.2234  -11.8615   16.8874 C   0  0  0  0  0  0  0  0  0  0  0  0
    6.4491   -4.1532   30.1213 C   0  0  0  0  0  0  0  0  0  0  0  0
    5.7060   -4.4340   27.4975 C   0  0  0  0  0  0  0  0  0  0  0  0
    1.1818   -5.6612   28.8399 C   0  0  0  0  0  0  0  0  0  0  0  0
   -1.2067   -7.3287   17.7772 C   0  0  0  0  0  0  0  0  0  0  0  0
   -0.0206  -10.5585   16.6210 C   0  0  0  0  0  0  0  0  0  0  0  0
    0.3696  -12.7626   16.2169 O   0  0  0  0  0  0  0  0  0  0  0  0
   -0.6895   -9.5676   17.3297 C   0  0  0  0  0  0  0  0  0  0  0  0
    0.8388   -5.8417   27.5264 C   0  0  0  0  0  0  0  0  0  0  0  0
   -2.0709   -7.6637   18.7817 C   0  0  0  0  0  0  0  0  0  0  0  0
   -0.5279   -8.2168   17.0717 C   0  0  0  0  0  0  0  0  0  0  0  0
    6.9694   -4.0191   27.8190 C   0  0  0  0  0  0  0  0  0  0  0  0
    5.1733   -4.5469   29.8123 C   0  0  0  0  0  0  0  0  0  0  0  0
   -1.7508  -11.3016   18.6072 C   0  0  0  0  0  0  0  0  0  0  0  0
    1.7497   -5.6771   26.4971 C   0  0  0  0  0  0  0  0  0  0  0  0
   -1.5799   -9.9322   18.3468 C   0  0  0  0  0  0  0  0  0  0  0  0
   -1.0871  -12.2214   17.8851 C   0  0  0  0  0  0  0  0  0  0  0  0
   -2.2706   -8.9669   19.0691 C   0  0  0  0  0  0  0  0  0  0  0  0
    3.0279   -5.3073   26.8197 C   0  0  0  0  0  0  0  0  0  0  0  0
    7.3282   -3.8948   29.1186 C   0  0  0  0  0  0  0  0  0  0  0  0
  1  3  4  0
  1  7  4  0
  2  3  1  0
  2  6  4  0
  2 16  4  0
  3 22  4  0
  4  9  4  0
  4 10  1  0
  4 20  4  0
  5 16  4  0
  5 23  4  0
  6 15  4  0
  7 12  4  0
  8 13  4  0
  8 14  4  0
  9 11  4  0
 11 14  4  0
 11 19  4  0
 12 18  4  0
 13 21  4  0
 15 23  4  0
 17 19  4  0
 17 20  4  0
 18 22  4  0
 19 21  4  0
M  END
$$$$

 Created by Python create_sdf_string function

 23 25  0  0  0  0  0  0  0  0999 V2000
    2.4610   -5.3070   29.1240 C   0  0  0  0  0  0  0  0  0  0  0  0
    4.7710   -4.6952   28.4803 C   0  0  0  0  0  0  0  0  0  0  0  0
    3.4047   -5.1087   28.1314 C   0  0  0  0  0  0  0  0  0  0  0  0
   -0.2234  -11.8615   16.8874 C   0  0  0  0  0  0  0  0  0  0  0  0
    6.4491   -4.1532   30.1213 C   0  0  0  0  0  0  0  0  0  0  0  0
    5.7060   -4.4340   27.4975 C   0  0  0  0  0  0  0  0  0  0  0  0
    1.1818   -5.6612   28.8399 C   0  0  0  0  0  0  0  0  0  0  0  0
   -1.2067   -7.3287   17.7772 C   0  0  0  0  0  0  0  0  0  0  0  0
   -0.0206  -10.5585   16.6210 C   0  0  0  0  0  0  0  0  0  0  0  0
    0.3696  -12.7626   16.2169 O   0  0  0  0  0  0  0  0  0  0  0  0
   -0.6895   -9.5676   17.3297 C   0  0  0  0  0  0  0  0  0  0  0  0
    0.8388   -5.8417   27.5264 C   0  0  0  0  0  0  0  0  0  0  0  0
   -2.0709   -7.6637   18.7817 C   0  0  0  0  0  0  0  0  0  0  0  0
   -0.5279   -8.2168   17.0717 C   0  0  0  0  0  0  0  0  0  0  0  0
    6.9694   -4.0191   27.8190 C   0  0  0  0  0  0  0  0  0  0  0  0
    5.1733   -4.5469   29.8123 C   0  0  0  0  0  0  0  0  0  0  0  0
   -1.7508  -11.3016   18.6072 C   0  0  0  0  0  0  0  0  0  0  0  0
    1.7497   -5.6771   26.4971 C   0  0  0  0  0  0  0  0  0  0  0  0
   -1.5799   -9.9322   18.3468 C   0  0  0  0  0  0  0  0  0  0  0  0
   -1.0871  -12.2214   17.8851 C   0  0  0  0  0  0  0  0  0  0  0  0
   -2.2706   -8.9669   19.0691 C   0  0  0  0  0  0  0  0  0  0  0  0
    3.0279   -5.3073   26.8197 C   0  0  0  0  0  0  0  0  0  0  0  0
    7.3282   -3.8948   29.1186 C   0  0  0  0  0  0  0  0  0  0  0  0
  1  3  4  0
  1  7  4  0
  2  3  1  0
  2  6  4  0
  2 16  4  0
  3 22  4  0
  4  9  4  0
  4 10  1  0
  4 20  4  0
  5 16  4  0
  5 23  4  0
  6 15  4  0
  7 12  4  0
  8 13  4  0
  8 14  4  0
  9 11  4  0
 11 14  4  0
 11 19  4  0
 12 18  4  0
 13 21  4  0
 15 23  4  0
 17 19  4  0
 17 20  4  0
 18 22  4  0
 19 21  4  0
M  END
$$$$

 Created by Python create_sdf_string function

 23 25  0  0  0  0  0  0  0  0999 V2000
    2.4610   -5.3070   29.1240 C   0  0  0  0  0  0  0  0  0  0  0  0
    4.7710   -4.6952   28.4803 C   0  0  0  0  0  0  0  0  0  0  0  0
    3.4047   -5.1087   28.1314 C   0  0  0  0  0  0  0  0  0  0  0  0
   -0.2234  -11.8615   16.8874 C   0  0  0  0  0  0  0  0  0  0  0  0
    6.4491   -4.1532   30.1213 C   0  0  0  0  0  0  0  0  0  0  0  0
    5.7060   -4.4340   27.4975 C   0  0  0  0  0  0  0  0  0  0  0  0
    1.1818   -5.6612   28.8399 C   0  0  0  0  0  0  0  0  0  0  0  0
   -1.2067   -7.3287   17.7772 C   0  0  0  0  0  0  0  0  0  0  0  0
   -0.0206  -10.5585   16.6210 C   0  0  0  0  0  0  0  0  0  0  0  0
    0.3696  -12.7626   16.2169 O   0  0  0  0  0  0  0  0  0  0  0  0
   -0.6895   -9.5676   17.3297 C   0  0  0  0  0  0  0  0  0  0  0  0
    0.8388   -5.8417   27.5264 C   0  0  0  0  0  0  0  0  0  0  0  0
   -2.0709   -7.6637   18.7817 C   0  0  0  0  0  0  0  0  0  0  0  0
   -0.5279   -8.2168   17.0717 C   0  0  0  0  0  0  0  0  0  0  0  0
    6.9694   -4.0191   27.8190 C   0  0  0  0  0  0  0  0  0  0  0  0
    5.1733   -4.5469   29.8123 C   0  0  0  0  0  0  0  0  0  0  0  0
   -1.7508  -11.3016   18.6072 C   0  0  0  0  0  0  0  0  0  0  0  0
    1.7497   -5.6771   26.4971 C   0  0  0  0  0  0  0  0  0  0  0  0
   -1.5799   -9.9322   18.3468 C   0  0  0  0  0  0  0  0  0  0  0  0
   -1.0871  -12.2214   17.8851 C   0  0  0  0  0  0  0  0  0  0  0  0
   -2.2706   -8.9669   19.0691 C   0  0  0  0  0  0  0  0  0  0  0  0
    3.0279   -5.3073   26.8197 C   0  0  0  0  0  0  0  0  0  0  0  0
    7.3282   -3.8948   29.1186 C   0  0  0  0  0  0  0  0  0  0  0  0
  1  3  4  0
  1  7  4  0
  2  3  1  0
  2  6  4  0
  2 16  4  0
  3 22  4  0
  4  9  4  0
  4 10  1  0
  4 20  4  0
  5 16  4  0
  5 23  4  0
  6 15  4  0
  7 12  4  0
  8 13  4  0
  8 14  4  0
  9 11  4  0
 11 14  4  0
 11 19  4  0
 12 18  4  0
 13 21  4  0
 15 23  4  0
 17 19  4  0
 17 20  4  0
 18 22  4  0
 19 21  4  0
M  END
$$$$

 Created by Python create_sdf_string function

 23 25  0  0  0  0  0  0  0  0999 V2000
    2.4610   -5.3070   29.1240 C   0  0  0  0  0  0  0  0  0  0  0  0
    4.7710   -4.6952   28.4803 C   0  0  0  0  0  0  0  0  0  0  0  0
    3.4047   -5.1087   28.1314 C   0  0  0  0  0  0  0  0  0  0  0  0
   -0.2234  -11.8615   16.8874 C   0  0  0  0  0  0  0  0  0  0  0  0
    6.4491   -4.1532   30.1213 C   0  0  0  0  0  0  0  0  0  0  0  0
    5.7060   -4.4340   27.4975 C   0  0  0  0  0  0  0  0  0  0  0  0
    1.1818   -5.6612   28.8399 C   0  0  0  0  0  0  0  0  0  0  0  0
   -1.2067   -7.3287   17.7772 C   0  0  0  0  0  0  0  0  0  0  0  0
   -0.0206  -10.5585   16.6210 C   0  0  0  0  0  0  0  0  0  0  0  0
    0.3696  -12.7626   16.2169 O   0  0  0  0  0  0  0  0  0  0  0  0
   -0.6895   -9.5676   17.3297 C   0  0  0  0  0  0  0  0  0  0  0  0
    0.8388   -5.8417   27.5264 C   0  0  0  0  0  0  0  0  0  0  0  0
   -2.0709   -7.6637   18.7817 C   0  0  0  0  0  0  0  0  0  0  0  0
   -0.5279   -8.2168   17.0717 C   0  0  0  0  0  0  0  0  0  0  0  0
    6.9694   -4.0191   27.8190 C   0  0  0  0  0  0  0  0  0  0  0  0
    5.1733   -4.5469   29.8123 C   0  0  0  0  0  0  0  0  0  0  0  0
   -1.7508  -11.3016   18.6072 C   0  0  0  0  0  0  0  0  0  0  0  0
    1.7497   -5.6771   26.4971 C   0  0  0  0  0  0  0  0  0  0  0  0
   -1.5799   -9.9322   18.3468 C   0  0  0  0  0  0  0  0  0  0  0  0
   -1.0871  -12.2214   17.8851 C   0  0  0  0  0  0  0  0  0  0  0  0
   -2.2706   -8.9669   19.0691 C   0  0  0  0  0  0  0  0  0  0  0  0
    3.0279   -5.3073   26.8197 C   0  0  0  0  0  0  0  0  0  0  0  0
    7.3282   -3.8948   29.1186 C   0  0  0  0  0  0  0  0  0  0  0  0
  1  3  4  0
  1  7  4  0
  2  3  1  0
  2  6  4  0
  2 16  4  0
  3 22  4  0
  4  9  4  0
  4 10  1  0
  4 20  4  0
  5 16  4  0
  5 23  4  0
  6 15  4  0
  7 12  4  0
  8 13  4  0
  8 14  4  0
  9 11  4  0
 11 14  4  0
 11 19  4  0
 12 18  4  0
 13 21  4  0
 15 23  4  0
 17 19  4  0
 17 20  4  0
 18 22  4  0
 19 21  4  0
M  END
$$$$

 Created by Python create_sdf_string function

 23 25  0  0  0  0  0  0  0  0999 V2000
    2.4610   -5.3070   29.1240 C   0  0  0  0  0  0  0  0  0  0  0  0
    4.7710   -4.6952   28.4803 C   0  0  0  0  0  0  0  0  0  0  0  0
    3.4047   -5.1087   28.1314 C   0  0  0  0  0  0  0  0  0  0  0  0
   -0.2234  -11.8615   16.8874 C   0  0  0  0  0  0  0  0  0  0  0  0
    6.4491   -4.1532   30.1213 C   0  0  0  0  0  0  0  0  0  0  0  0
    5.7060   -4.4340   27.4975 C   0  0  0  0  0  0  0  0  0  0  0  0
    1.1818   -5.6612   28.8399 C   0  0  0  0  0  0  0  0  0  0  0  0
   -1.2067   -7.3287   17.7772 C   0  0  0  0  0  0  0  0  0  0  0  0
   -0.0206  -10.5585   16.6210 C   0  0  0  0  0  0  0  0  0  0  0  0
    0.3696  -12.7626   16.2169 O   0  0  0  0  0  0  0  0  0  0  0  0
   -0.6895   -9.5676   17.3297 C   0  0  0  0  0  0  0  0  0  0  0  0
    0.8388   -5.8417   27.5264 C   0  0  0  0  0  0  0  0  0  0  0  0
   -2.0709   -7.6637   18.7817 C   0  0  0  0  0  0  0  0  0  0  0  0
   -0.5279   -8.2168   17.0717 C   0  0  0  0  0  0  0  0  0  0  0  0
    6.9694   -4.0191   27.8190 C   0  0  0  0  0  0  0  0  0  0  0  0
    5.1733   -4.5469   29.8123 C   0  0  0  0  0  0  0  0  0  0  0  0
   -1.7508  -11.3016   18.6072 C   0  0  0  0  0  0  0  0  0  0  0  0
    1.7497   -5.6771   26.4971 C   0  0  0  0  0  0  0  0  0  0  0  0
   -1.5799   -9.9322   18.3468 C   0  0  0  0  0  0  0  0  0  0  0  0
   -1.0871  -12.2214   17.8851 C   0  0  0  0  0  0  0  0  0  0  0  0
   -2.2706   -8.9669   19.0691 C   0  0  0  0  0  0  0  0  0  0  0  0
    3.0279   -5.3073   26.8197 C   0  0  0  0  0  0  0  0  0  0  0  0
    7.3282   -3.8948   29.1186 C   0  0  0  0  0  0  0  0  0  0  0  0
  1  3  4  0
  1  7  4  0
  2  3  1  0
  2  6  4  0
  2 16  4  0
  3 22  4  0
  4  9  4  0
  4 10  1  0
  4 20  4  0
  5 16  4  0
  5 23  4  0
  6 15  4  0
  7 12  4  0
  8 13  4  0
  8 14  4  0
  9 11  4  0
 11 14  4  0
 11 19  4  0
 12 18  4  0
 13 21  4  0
 15 23  4  0
 17 19  4  0
 17 20  4  0
 18 22  4  0
 19 21  4  0
M  END
$$$$

 Created by Python create_sdf_string function

 23 25  0  0  0  0  0  0  0  0999 V2000
    2.4610   -5.3070   29.1240 C   0  0  0  0  0  0  0  0  0  0  0  0
    4.7710   -4.6952   28.4803 C   0  0  0  0  0  0  0  0  0  0  0  0
    3.4047   -5.1087   28.1314 C   0  0  0  0  0  0  0  0  0  0  0  0
   -0.2234  -11.8615   16.8874 C   0  0  0  0  0  0  0  0  0  0  0  0
    6.4491   -4.1532   30.1213 C   0  0  0  0  0  0  0  0  0  0  0  0
    5.7060   -4.4340   27.4975 C   0  0  0  0  0  0  0  0  0  0  0  0
    1.1818   -5.6612   28.8399 C   0  0  0  0  0  0  0  0  0  0  0  0
   -1.2067   -7.3287   17.7772 C   0  0  0  0  0  0  0  0  0  0  0  0
   -0.0206  -10.5585   16.6210 C   0  0  0  0  0  0  0  0  0  0  0  0
    0.3696  -12.7626   16.2169 O   0  0  0  0  0  0  0  0  0  0  0  0
   -0.6895   -9.5676   17.3297 C   0  0  0  0  0  0  0  0  0  0  0  0
    0.8388   -5.8417   27.5264 C   0  0  0  0  0  0  0  0  0  0  0  0
   -2.0709   -7.6637   18.7817 C   0  0  0  0  0  0  0  0  0  0  0  0
   -0.5279   -8.2168   17.0717 C   0  0  0  0  0  0  0  0  0  0  0  0
    6.9694   -4.0191   27.8190 C   0  0  0  0  0  0  0  0  0  0  0  0
    5.1733   -4.5469   29.8123 C   0  0  0  0  0  0  0  0  0  0  0  0
   -1.7508  -11.3016   18.6072 C   0  0  0  0  0  0  0  0  0  0  0  0
    1.7497   -5.6771   26.4971 C   0  0  0  0  0  0  0  0  0  0  0  0
   -1.5799   -9.9322   18.3468 C   0  0  0  0  0  0  0  0  0  0  0  0
   -1.0871  -12.2214   17.8851 C   0  0  0  0  0  0  0  0  0  0  0  0
   -2.2706   -8.9669   19.0691 C   0  0  0  0  0  0  0  0  0  0  0  0
    3.0279   -5.3073   26.8197 C   0  0  0  0  0  0  0  0  0  0  0  0
    7.3282   -3.8948   29.1186 C   0  0  0  0  0  0  0  0  0  0  0  0
  1  3  4  0
  1  7  4  0
  2  3  1  0
  2  6  4  0
  2 16  4  0
  3 22  4  0
  4  9  4  0
  4 10  1  0
  4 20  4  0
  5 16  4  0
  5 23  4  0
  6 15  4  0
  7 12  4  0
  8 13  4  0
  8 14  4  0
  9 11  4  0
 11 14  4  0
 11 19  4  0
 12 18  4  0
 13 21  4  0
 15 23  4  0
 17 19  4  0
 17 20  4  0
 18 22  4  0
 19 21  4  0
M  END
$$$$

 Created by Python create_sdf_string function

 23 25  0  0  0  0  0  0  0  0999 V2000
    2.4610   -5.3070   29.1240 C   0  0  0  0  0  0  0  0  0  0  0  0
    4.7710   -4.6952   28.4803 C   0  0  0  0  0  0  0  0  0  0  0  0
    3.4047   -5.1087   28.1314 C   0  0  0  0  0  0  0  0  0  0  0  0
   -0.2234  -11.8615   16.8874 C   0  0  0  0  0  0  0  0  0  0  0  0
    6.4491   -4.1532   30.1213 C   0  0  0  0  0  0  0  0  0  0  0  0
    5.7060   -4.4340   27.4975 C   0  0  0  0  0  0  0  0  0  0  0  0
    1.1818   -5.6612   28.8399 C   0  0  0  0  0  0  0  0  0  0  0  0
   -1.2067   -7.3287   17.7772 C   0  0  0  0  0  0  0  0  0  0  0  0
   -0.0206  -10.5585   16.6210 C   0  0  0  0  0  0  0  0  0  0  0  0
    0.3696  -12.7626   16.2169 O   0  0  0  0  0  0  0  0  0  0  0  0
   -0.6895   -9.5676   17.3297 C   0  0  0  0  0  0  0  0  0  0  0  0
    0.8388   -5.8417   27.5264 C   0  0  0  0  0  0  0  0  0  0  0  0
   -2.0709   -7.6637   18.7817 C   0  0  0  0  0  0  0  0  0  0  0  0
   -0.5279   -8.2168   17.0717 C   0  0  0  0  0  0  0  0  0  0  0  0
    6.9694   -4.0191   27.8190 C   0  0  0  0  0  0  0  0  0  0  0  0
    5.1733   -4.5469   29.8123 C   0  0  0  0  0  0  0  0  0  0  0  0
   -1.7508  -11.3016   18.6072 C   0  0  0  0  0  0  0  0  0  0  0  0
    1.7497   -5.6771   26.4971 C   0  0  0  0  0  0  0  0  0  0  0  0
   -1.5799   -9.9322   18.3468 C   0  0  0  0  0  0  0  0  0  0  0  0
   -1.0871  -12.2214   17.8851 C   0  0  0  0  0  0  0  0  0  0  0  0
   -2.2706   -8.9669   19.0691 C   0  0  0  0  0  0  0  0  0  0  0  0
    3.0279   -5.3073   26.8197 C   0  0  0  0  0  0  0  0  0  0  0  0
    7.3282   -3.8948   29.1186 C   0  0  0  0  0  0  0  0  0  0  0  0
  1  3  4  0
  1  7  4  0
  2  3  1  0
  2  6  4  0
  2 16  4  0
  3 22  4  0
  4  9  4  0
  4 10  1  0
  4 20  4  0
  5 16  4  0
  5 23  4  0
  6 15  4  0
  7 12  4  0
  8 13  4  0
  8 14  4  0
  9 11  4  0
 11 14  4  0
 11 19  4  0
 12 18  4  0
 13 21  4  0
 15 23  4  0
 17 19  4  0
 17 20  4  0
 18 22  4  0
 19 21  4  0
M  END
$$$$

 Created by Python create_sdf_string function

 23 25  0  0  0  0  0  0  0  0999 V2000
    2.4610   -5.3070   29.1240 C   0  0  0  0  0  0  0  0  0  0  0  0
    4.7710   -4.6952   28.4803 C   0  0  0  0  0  0  0  0  0  0  0  0
    3.4047   -5.1087   28.1314 C   0  0  0  0  0  0  0  0  0  0  0  0
   -0.2234  -11.8615   16.8874 C   0  0  0  0  0  0  0  0  0  0  0  0
    6.4491   -4.1532   30.1213 C   0  0  0  0  0  0  0  0  0  0  0  0
    5.7060   -4.4340   27.4975 C   0  0  0  0  0  0  0  0  0  0  0  0
    1.1818   -5.6612   28.8399 C   0  0  0  0  0  0  0  0  0  0  0  0
   -1.2067   -7.3287   17.7772 C   0  0  0  0  0  0  0  0  0  0  0  0
   -0.0206  -10.5585   16.6210 C   0  0  0  0  0  0  0  0  0  0  0  0
    0.3696  -12.7626   16.2169 O   0  0  0  0  0  0  0  0  0  0  0  0
   -0.6895   -9.5676   17.3297 C   0  0  0  0  0  0  0  0  0  0  0  0
    0.8388   -5.8417   27.5264 C   0  0  0  0  0  0  0  0  0  0  0  0
   -2.0709   -7.6637   18.7817 C   0  0  0  0  0  0  0  0  0  0  0  0
   -0.5279   -8.2168   17.0717 C   0  0  0  0  0  0  0  0  0  0  0  0
    6.9694   -4.0191   27.8190 C   0  0  0  0  0  0  0  0  0  0  0  0
    5.1733   -4.5469   29.8123 C   0  0  0  0  0  0  0  0  0  0  0  0
   -1.7508  -11.3016   18.6072 C   0  0  0  0  0  0  0  0  0  0  0  0
    1.7497   -5.6771   26.4971 C   0  0  0  0  0  0  0  0  0  0  0  0
   -1.5799   -9.9322   18.3468 C   0  0  0  0  0  0  0  0  0  0  0  0
   -1.0871  -12.2214   17.8851 C   0  0  0  0  0  0  0  0  0  0  0  0
   -2.2706   -8.9669   19.0691 C   0  0  0  0  0  0  0  0  0  0  0  0
    3.0279   -5.3073   26.8197 C   0  0  0  0  0  0  0  0  0  0  0  0
    7.3282   -3.8948   29.1186 C   0  0  0  0  0  0  0  0  0  0  0  0
  1  3  4  0
  1  7  4  0
  2  3  1  0
  2  6  4  0
  2 16  4  0
  3 22  4  0
  4  9  4  0
  4 10  1  0
  4 20  4  0
  5 16  4  0
  5 23  4  0
  6 15  4  0
  7 12  4  0
  8 13  4  0
  8 14  4  0
  9 11  4  0
 11 14  4  0
 11 19  4  0
 12 18  4  0
 13 21  4  0
 15 23  4  0
 17 19  4  0
 17 20  4  0
 18 22  4  0
 19 21  4  0
M  END
$$$$

 Created by Python create_sdf_string function

 23 25  0  0  0  0  0  0  0  0999 V2000
    2.4610   -5.3070   29.1240 C   0  0  0  0  0  0  0  0  0  0  0  0
    4.7710   -4.6952   28.4803 C   0  0  0  0  0  0  0  0  0  0  0  0
    3.4047   -5.1087   28.1314 C   0  0  0  0  0  0  0  0  0  0  0  0
   -0.2234  -11.8615   16.8874 C   0  0  0  0  0  0  0  0  0  0  0  0
    6.4491   -4.1532   30.1213 C   0  0  0  0  0  0  0  0  0  0  0  0
    5.7060   -4.4340   27.4975 C   0  0  0  0  0  0  0  0  0  0  0  0
    1.1818   -5.6612   28.8399 C   0  0  0  0  0  0  0  0  0  0  0  0
   -1.2067   -7.3287   17.7772 C   0  0  0  0  0  0  0  0  0  0  0  0
   -0.0206  -10.5585   16.6210 C   0  0  0  0  0  0  0  0  0  0  0  0
    0.3696  -12.7626   16.2169 O   0  0  0  0  0  0  0  0  0  0  0  0
   -0.6895   -9.5676   17.3297 C   0  0  0  0  0  0  0  0  0  0  0  0
    0.8388   -5.8417   27.5264 C   0  0  0  0  0  0  0  0  0  0  0  0
   -2.0709   -7.6637   18.7817 C   0  0  0  0  0  0  0  0  0  0  0  0
   -0.5279   -8.2168   17.0717 C   0  0  0  0  0  0  0  0  0  0  0  0
    6.9694   -4.0191   27.8190 C   0  0  0  0  0  0  0  0  0  0  0  0
    5.1733   -4.5469   29.8123 C   0  0  0  0  0  0  0  0  0  0  0  0
   -1.7508  -11.3016   18.6072 C   0  0  0  0  0  0  0  0  0  0  0  0
    1.7497   -5.6771   26.4971 C   0  0  0  0  0  0  0  0  0  0  0  0
   -1.5799   -9.9322   18.3468 C   0  0  0  0  0  0  0  0  0  0  0  0
   -1.0871  -12.2214   17.8851 C   0  0  0  0  0  0  0  0  0  0  0  0
   -2.2706   -8.9669   19.0691 C   0  0  0  0  0  0  0  0  0  0  0  0
    3.0279   -5.3073   26.8197 C   0  0  0  0  0  0  0  0  0  0  0  0
    7.3282   -3.8948   29.1186 C   0  0  0  0  0  0  0  0  0  0  0  0
  1  3  4  0
  1  7  4  0
  2  3  1  0
  2  6  4  0
  2 16  4  0
  3 22  4  0
  4  9  4  0
  4 10  1  0
  4 20  4  0
  5 16  4  0
  5 23  4  0
  6 15  4  0
  7 12  4  0
  8 13  4  0
  8 14  4  0
  9 11  4  0
 11 14  4  0
 11 19  4  0
 12 18  4  0
 13 21  4  0
 15 23  4  0
 17 19  4  0
 17 20  4  0
 18 22  4  0
 19 21  4  0
M  END
$$$$

 Created by Python create_sdf_string function

 23 25  0  0  0  0  0  0  0  0999 V2000
    2.4610   -5.3070   29.1240 C   0  0  0  0  0  0  0  0  0  0  0  0
    4.7710   -4.6952   28.4803 C   0  0  0  0  0  0  0  0  0  0  0  0
    3.4047   -5.1087   28.1314 C   0  0  0  0  0  0  0  0  0  0  0  0
   -0.2234  -11.8615   16.8874 C   0  0  0  0  0  0  0  0  0  0  0  0
    6.4491   -4.1532   30.1213 C   0  0  0  0  0  0  0  0  0  0  0  0
    5.7060   -4.4340   27.4975 C   0  0  0  0  0  0  0  0  0  0  0  0
    1.1818   -5.6612   28.8399 C   0  0  0  0  0  0  0  0  0  0  0  0
   -1.2067   -7.3287   17.7772 C   0  0  0  0  0  0  0  0  0  0  0  0
   -0.0206  -10.5585   16.6210 C   0  0  0  0  0  0  0  0  0  0  0  0
    0.3696  -12.7626   16.2169 O   0  0  0  0  0  0  0  0  0  0  0  0
   -0.6895   -9.5676   17.3297 C   0  0  0  0  0  0  0  0  0  0  0  0
    0.8388   -5.8417   27.5264 C   0  0  0  0  0  0  0  0  0  0  0  0
   -2.0709   -7.6637   18.7817 C   0  0  0  0  0  0  0  0  0  0  0  0
   -0.5279   -8.2168   17.0717 C   0  0  0  0  0  0  0  0  0  0  0  0
    6.9694   -4.0191   27.8190 C   0  0  0  0  0  0  0  0  0  0  0  0
    5.1733   -4.5469   29.8123 C   0  0  0  0  0  0  0  0  0  0  0  0
   -1.7508  -11.3016   18.6072 C   0  0  0  0  0  0  0  0  0  0  0  0
    1.7497   -5.6771   26.4971 C   0  0  0  0  0  0  0  0  0  0  0  0
   -1.5799   -9.9322   18.3468 C   0  0  0  0  0  0  0  0  0  0  0  0
   -1.0871  -12.2214   17.8851 C   0  0  0  0  0  0  0  0  0  0  0  0
   -2.2706   -8.9669   19.0691 C   0  0  0  0  0  0  0  0  0  0  0  0
    3.0279   -5.3073   26.8197 C   0  0  0  0  0  0  0  0  0  0  0  0
    7.3282   -3.8948   29.1186 C   0  0  0  0  0  0  0  0  0  0  0  0
  1  3  4  0
  1  7  4  0
  2  3  1  0
  2  6  4  0
  2 16  4  0
  3 22  4  0
  4  9  4  0
  4 10  1  0
  4 20  4  0
  5 16  4  0
  5 23  4  0
  6 15  4  0
  7 12  4  0
  8 13  4  0
  8 14  4  0
  9 11  4  0
 11 14  4  0
 11 19  4  0
 12 18  4  0
 13 21  4  0
 15 23  4  0
 17 19  4  0
 17 20  4  0
 18 22  4  0
 19 21  4  0
M  END
$$$$

 Created by Python create_sdf_string function

 23 25  0  0  0  0  0  0  0  0999 V2000
    2.4610   -5.3070   29.1240 C   0  0  0  0  0  0  0  0  0  0  0  0
    4.7710   -4.6952   28.4803 C   0  0  0  0  0  0  0  0  0  0  0  0
    3.4047   -5.1087   28.1314 C   0  0  0  0  0  0  0  0  0  0  0  0
   -0.2234  -11.8615   16.8874 C   0  0  0  0  0  0  0  0  0  0  0  0
    6.4491   -4.1532   30.1213 C   0  0  0  0  0  0  0  0  0  0  0  0
    5.7060   -4.4340   27.4975 C   0  0  0  0  0  0  0  0  0  0  0  0
    1.1818   -5.6612   28.8399 C   0  0  0  0  0  0  0  0  0  0  0  0
   -1.2067   -7.3287   17.7772 C   0  0  0  0  0  0  0  0  0  0  0  0
   -0.0206  -10.5585   16.6210 C   0  0  0  0  0  0  0  0  0  0  0  0
    0.3696  -12.7626   16.2169 O   0  0  0  0  0  0  0  0  0  0  0  0
   -0.6895   -9.5676   17.3297 C   0  0  0  0  0  0  0  0  0  0  0  0
    0.8388   -5.8417   27.5264 C   0  0  0  0  0  0  0  0  0  0  0  0
   -2.0709   -7.6637   18.7817 C   0  0  0  0  0  0  0  0  0  0  0  0
   -0.5279   -8.2168   17.0717 C   0  0  0  0  0  0  0  0  0  0  0  0
    6.9694   -4.0191   27.8190 C   0  0  0  0  0  0  0  0  0  0  0  0
    5.1733   -4.5469   29.8123 C   0  0  0  0  0  0  0  0  0  0  0  0
   -1.7508  -11.3016   18.6072 C   0  0  0  0  0  0  0  0  0  0  0  0
    1.7497   -5.6771   26.4971 C   0  0  0  0  0  0  0  0  0  0  0  0
   -1.5799   -9.9322   18.3468 C   0  0  0  0  0  0  0  0  0  0  0  0
   -1.0871  -12.2214   17.8851 C   0  0  0  0  0  0  0  0  0  0  0  0
   -2.2706   -8.9669   19.0691 C   0  0  0  0  0  0  0  0  0  0  0  0
    3.0279   -5.3073   26.8197 C   0  0  0  0  0  0  0  0  0  0  0  0
    7.3282   -3.8948   29.1186 C   0  0  0  0  0  0  0  0  0  0  0  0
  1  3  4  0
  1  7  4  0
  2  3  1  0
  2  6  4  0
  2 16  4  0
  3 22  4  0
  4  9  4  0
  4 10  1  0
  4 20  4  0
  5 16  4  0
  5 23  4  0
  6 15  4  0
  7 12  4  0
  8 13  4  0
  8 14  4  0
  9 11  4  0
 11 14  4  0
 11 19  4  0
 12 18  4  0
 13 21  4  0
 15 23  4  0
 17 19  4  0
 17 20  4  0
 18 22  4  0
 19 21  4  0
M  END
$$$$

 Created by Python create_sdf_string function

 23 25  0  0  0  0  0  0  0  0999 V2000
    2.4610   -5.3070   29.1240 C   0  0  0  0  0  0  0  0  0  0  0  0
    4.7710   -4.6952   28.4803 C   0  0  0  0  0  0  0  0  0  0  0  0
    3.4047   -5.1087   28.1314 C   0  0  0  0  0  0  0  0  0  0  0  0
   -0.2234  -11.8615   16.8874 C   0  0  0  0  0  0  0  0  0  0  0  0
    6.4491   -4.1532   30.1213 C   0  0  0  0  0  0  0  0  0  0  0  0
    5.7060   -4.4340   27.4975 C   0  0  0  0  0  0  0  0  0  0  0  0
    1.1818   -5.6612   28.8399 C   0  0  0  0  0  0  0  0  0  0  0  0
   -1.2067   -7.3287   17.7772 C   0  0  0  0  0  0  0  0  0  0  0  0
   -0.0206  -10.5585   16.6210 C   0  0  0  0  0  0  0  0  0  0  0  0
    0.3696  -12.7626   16.2169 O   0  0  0  0  0  0  0  0  0  0  0  0
   -0.6895   -9.5676   17.3297 C   0  0  0  0  0  0  0  0  0  0  0  0
    0.8388   -5.8417   27.5264 C   0  0  0  0  0  0  0  0  0  0  0  0
   -2.0709   -7.6637   18.7817 C   0  0  0  0  0  0  0  0  0  0  0  0
   -0.5279   -8.2168   17.0717 C   0  0  0  0  0  0  0  0  0  0  0  0
    6.9694   -4.0191   27.8190 C   0  0  0  0  0  0  0  0  0  0  0  0
    5.1733   -4.5469   29.8123 C   0  0  0  0  0  0  0  0  0  0  0  0
   -1.7508  -11.3016   18.6072 C   0  0  0  0  0  0  0  0  0  0  0  0
    1.7497   -5.6771   26.4971 C   0  0  0  0  0  0  0  0  0  0  0  0
   -1.5799   -9.9322   18.3468 C   0  0  0  0  0  0  0  0  0  0  0  0
   -1.0871  -12.2214   17.8851 C   0  0  0  0  0  0  0  0  0  0  0  0
   -2.2706   -8.9669   19.0691 C   0  0  0  0  0  0  0  0  0  0  0  0
    3.0279   -5.3073   26.8197 C   0  0  0  0  0  0  0  0  0  0  0  0
    7.3282   -3.8948   29.1186 C   0  0  0  0  0  0  0  0  0  0  0  0
  1  3  4  0
  1  7  4  0
  2  3  1  0
  2  6  4  0
  2 16  4  0
  3 22  4  0
  4  9  4  0
  4 10  1  0
  4 20  4  0
  5 16  4  0
  5 23  4  0
  6 15  4  0
  7 12  4  0
  8 13  4  0
  8 14  4  0
  9 11  4  0
 11 14  4  0
 11 19  4  0
 12 18  4  0
 13 21  4  0
 15 23  4  0
 17 19  4  0
 17 20  4  0
 18 22  4  0
 19 21  4  0
M  END
$$$$

 Created by Python create_sdf_string function

 23 25  0  0  0  0  0  0  0  0999 V2000
    2.4610   -5.3070   29.1240 C   0  0  0  0  0  0  0  0  0  0  0  0
    4.7710   -4.6952   28.4803 C   0  0  0  0  0  0  0  0  0  0  0  0
    3.4047   -5.1087   28.1314 C   0  0  0  0  0  0  0  0  0  0  0  0
   -0.2234  -11.8615   16.8874 C   0  0  0  0  0  0  0  0  0  0  0  0
    6.4491   -4.1532   30.1213 C   0  0  0  0  0  0  0  0  0  0  0  0
    5.7060   -4.4340   27.4975 C   0  0  0  0  0  0  0  0  0  0  0  0
    1.1818   -5.6612   28.8399 C   0  0  0  0  0  0  0  0  0  0  0  0
   -1.2067   -7.3287   17.7772 C   0  0  0  0  0  0  0  0  0  0  0  0
   -0.0206  -10.5585   16.6210 C   0  0  0  0  0  0  0  0  0  0  0  0
    0.3696  -12.7626   16.2169 O   0  0  0  0  0  0  0  0  0  0  0  0
   -0.6895   -9.5676   17.3297 C   0  0  0  0  0  0  0  0  0  0  0  0
    0.8388   -5.8417   27.5264 C   0  0  0  0  0  0  0  0  0  0  0  0
   -2.0709   -7.6637   18.7817 C   0  0  0  0  0  0  0  0  0  0  0  0
   -0.5279   -8.2168   17.0717 C   0  0  0  0  0  0  0  0  0  0  0  0
    6.9694   -4.0191   27.8190 C   0  0  0  0  0  0  0  0  0  0  0  0
    5.1733   -4.5469   29.8123 C   0  0  0  0  0  0  0  0  0  0  0  0
   -1.7508  -11.3016   18.6072 C   0  0  0  0  0  0  0  0  0  0  0  0
    1.7497   -5.6771   26.4971 C   0  0  0  0  0  0  0  0  0  0  0  0
   -1.5799   -9.9322   18.3468 C   0  0  0  0  0  0  0  0  0  0  0  0
   -1.0871  -12.2214   17.8851 C   0  0  0  0  0  0  0  0  0  0  0  0
   -2.2706   -8.9669   19.0691 C   0  0  0  0  0  0  0  0  0  0  0  0
    3.0279   -5.3073   26.8197 C   0  0  0  0  0  0  0  0  0  0  0  0
    7.3282   -3.8948   29.1186 C   0  0  0  0  0  0  0  0  0  0  0  0
  1  3  4  0
  1  7  4  0
  2  3  1  0
  2  6  4  0
  2 16  4  0
  3 22  4  0
  4  9  4  0
  4 10  1  0
  4 20  4  0
  5 16  4  0
  5 23  4  0
  6 15  4  0
  7 12  4  0
  8 13  4  0
  8 14  4  0
  9 11  4  0
 11 14  4  0
 11 19  4  0
 12 18  4  0
 13 21  4  0
 15 23  4  0
 17 19  4  0
 17 20  4  0
 18 22  4  0
 19 21  4  0
M  END
$$$$

 Created by Python create_sdf_string function

 23 25  0  0  0  0  0  0  0  0999 V2000
    2.4610   -5.3070   29.1240 C   0  0  0  0  0  0  0  0  0  0  0  0
    4.7710   -4.6952   28.4803 C   0  0  0  0  0  0  0  0  0  0  0  0
    3.4047   -5.1087   28.1314 C   0  0  0  0  0  0  0  0  0  0  0  0
   -0.2234  -11.8615   16.8874 C   0  0  0  0  0  0  0  0  0  0  0  0
    6.4491   -4.1532   30.1213 C   0  0  0  0  0  0  0  0  0  0  0  0
    5.7060   -4.4340   27.4975 C   0  0  0  0  0  0  0  0  0  0  0  0
    1.1818   -5.6612   28.8399 C   0  0  0  0  0  0  0  0  0  0  0  0
   -1.2067   -7.3287   17.7772 C   0  0  0  0  0  0  0  0  0  0  0  0
   -0.0206  -10.5585   16.6210 C   0  0  0  0  0  0  0  0  0  0  0  0
    0.3696  -12.7626   16.2169 O   0  0  0  0  0  0  0  0  0  0  0  0
   -0.6895   -9.5676   17.3297 C   0  0  0  0  0  0  0  0  0  0  0  0
    0.8388   -5.8417   27.5264 C   0  0  0  0  0  0  0  0  0  0  0  0
   -2.0709   -7.6637   18.7817 C   0  0  0  0  0  0  0  0  0  0  0  0
   -0.5279   -8.2168   17.0717 C   0  0  0  0  0  0  0  0  0  0  0  0
    6.9694   -4.0191   27.8190 C   0  0  0  0  0  0  0  0  0  0  0  0
    5.1733   -4.5469   29.8123 C   0  0  0  0  0  0  0  0  0  0  0  0
   -1.7508  -11.3016   18.6072 C   0  0  0  0  0  0  0  0  0  0  0  0
    1.7497   -5.6771   26.4971 C   0  0  0  0  0  0  0  0  0  0  0  0
   -1.5799   -9.9322   18.3468 C   0  0  0  0  0  0  0  0  0  0  0  0
   -1.0871  -12.2214   17.8851 C   0  0  0  0  0  0  0  0  0  0  0  0
   -2.2706   -8.9669   19.0691 C   0  0  0  0  0  0  0  0  0  0  0  0
    3.0279   -5.3073   26.8197 C   0  0  0  0  0  0  0  0  0  0  0  0
    7.3282   -3.8948   29.1186 C   0  0  0  0  0  0  0  0  0  0  0  0
  1  3  4  0
  1  7  4  0
  2  3  1  0
  2  6  4  0
  2 16  4  0
  3 22  4  0
  4  9  4  0
  4 10  1  0
  4 20  4  0
  5 16  4  0
  5 23  4  0
  6 15  4  0
  7 12  4  0
  8 13  4  0
  8 14  4  0
  9 11  4  0
 11 14  4  0
 11 19  4  0
 12 18  4  0
 13 21  4  0
 15 23  4  0
 17 19  4  0
 17 20  4  0
 18 22  4  0
 19 21  4  0
M  END
$$$$

 Created by Python create_sdf_string function

 23 25  0  0  0  0  0  0  0  0999 V2000
    2.4610   -5.3070   29.1240 C   0  0  0  0  0  0  0  0  0  0  0  0
    4.7710   -4.6952   28.4803 C   0  0  0  0  0  0  0  0  0  0  0  0
    3.4047   -5.1087   28.1314 C   0  0  0  0  0  0  0  0  0  0  0  0
   -0.2234  -11.8615   16.8874 C   0  0  0  0  0  0  0  0  0  0  0  0
    6.4491   -4.1532   30.1213 C   0  0  0  0  0  0  0  0  0  0  0  0
    5.7060   -4.4340   27.4975 C   0  0  0  0  0  0  0  0  0  0  0  0
    1.1818   -5.6612   28.8399 C   0  0  0  0  0  0  0  0  0  0  0  0
   -1.2067   -7.3287   17.7772 C   0  0  0  0  0  0  0  0  0  0  0  0
   -0.0206  -10.5585   16.6210 C   0  0  0  0  0  0  0  0  0  0  0  0
    0.3696  -12.7626   16.2169 O   0  0  0  0  0  0  0  0  0  0  0  0
   -0.6895   -9.5676   17.3297 C   0  0  0  0  0  0  0  0  0  0  0  0
    0.8388   -5.8417   27.5264 C   0  0  0  0  0  0  0  0  0  0  0  0
   -2.0709   -7.6637   18.7817 C   0  0  0  0  0  0  0  0  0  0  0  0
   -0.5279   -8.2168   17.0717 C   0  0  0  0  0  0  0  0  0  0  0  0
    6.9694   -4.0191   27.8190 C   0  0  0  0  0  0  0  0  0  0  0  0
    5.1733   -4.5469   29.8123 C   0  0  0  0  0  0  0  0  0  0  0  0
   -1.7508  -11.3016   18.6072 C   0  0  0  0  0  0  0  0  0  0  0  0
    1.7497   -5.6771   26.4971 C   0  0  0  0  0  0  0  0  0  0  0  0
   -1.5799   -9.9322   18.3468 C   0  0  0  0  0  0  0  0  0  0  0  0
   -1.0871  -12.2214   17.8851 C   0  0  0  0  0  0  0  0  0  0  0  0
   -2.2706   -8.9669   19.0691 C   0  0  0  0  0  0  0  0  0  0  0  0
    3.0279   -5.3073   26.8197 C   0  0  0  0  0  0  0  0  0  0  0  0
    7.3282   -3.8948   29.1186 C   0  0  0  0  0  0  0  0  0  0  0  0
  1  3  4  0
  1  7  4  0
  2  3  1  0
  2  6  4  0
  2 16  4  0
  3 22  4  0
  4  9  4  0
  4 10  1  0
  4 20  4  0
  5 16  4  0
  5 23  4  0
  6 15  4  0
  7 12  4  0
  8 13  4  0
  8 14  4  0
  9 11  4  0
 11 14  4  0
 11 19  4  0
 12 18  4  0
 13 21  4  0
 15 23  4  0
 17 19  4  0
 17 20  4  0
 18 22  4  0
 19 21  4  0
M  END
$$$$

 Created by Python create_sdf_string function

 23 25  0  0  0  0  0  0  0  0999 V2000
    2.4610   -5.3070   29.1240 C   0  0  0  0  0  0  0  0  0  0  0  0
    4.7710   -4.6952   28.4803 C   0  0  0  0  0  0  0  0  0  0  0  0
    3.4047   -5.1087   28.1314 C   0  0  0  0  0  0  0  0  0  0  0  0
   -0.2234  -11.8615   16.8874 C   0  0  0  0  0  0  0  0  0  0  0  0
    6.4491   -4.1532   30.1213 C   0  0  0  0  0  0  0  0  0  0  0  0
    5.7060   -4.4340   27.4975 C   0  0  0  0  0  0  0  0  0  0  0  0
    1.1818   -5.6612   28.8399 C   0  0  0  0  0  0  0  0  0  0  0  0
   -1.2067   -7.3287   17.7772 C   0  0  0  0  0  0  0  0  0  0  0  0
   -0.0206  -10.5585   16.6210 C   0  0  0  0  0  0  0  0  0  0  0  0
    0.3696  -12.7626   16.2169 O   0  0  0  0  0  0  0  0  0  0  0  0
   -0.6895   -9.5676   17.3297 C   0  0  0  0  0  0  0  0  0  0  0  0
    0.8388   -5.8417   27.5264 C   0  0  0  0  0  0  0  0  0  0  0  0
   -2.0709   -7.6637   18.7817 C   0  0  0  0  0  0  0  0  0  0  0  0
   -0.5279   -8.2168   17.0717 C   0  0  0  0  0  0  0  0  0  0  0  0
    6.9694   -4.0191   27.8190 C   0  0  0  0  0  0  0  0  0  0  0  0
    5.1733   -4.5469   29.8123 C   0  0  0  0  0  0  0  0  0  0  0  0
   -1.7508  -11.3016   18.6072 C   0  0  0  0  0  0  0  0  0  0  0  0
    1.7497   -5.6771   26.4971 C   0  0  0  0  0  0  0  0  0  0  0  0
   -1.5799   -9.9322   18.3468 C   0  0  0  0  0  0  0  0  0  0  0  0
   -1.0871  -12.2214   17.8851 C   0  0  0  0  0  0  0  0  0  0  0  0
   -2.2706   -8.9669   19.0691 C   0  0  0  0  0  0  0  0  0  0  0  0
    3.0279   -5.3073   26.8197 C   0  0  0  0  0  0  0  0  0  0  0  0
    7.3282   -3.8948   29.1186 C   0  0  0  0  0  0  0  0  0  0  0  0
  1  3  4  0
  1  7  4  0
  2  3  1  0
  2  6  4  0
  2 16  4  0
  3 22  4  0
  4  9  4  0
  4 10  1  0
  4 20  4  0
  5 16  4  0
  5 23  4  0
  6 15  4  0
  7 12  4  0
  8 13  4  0
  8 14  4  0
  9 11  4  0
 11 14  4  0
 11 19  4  0
 12 18  4  0
 13 21  4  0
 15 23  4  0
 17 19  4  0
 17 20  4  0
 18 22  4  0
 19 21  4  0
M  END
$$$$

 Created by Python create_sdf_string function

 23 25  0  0  0  0  0  0  0  0999 V2000
    2.4610   -5.3070   29.1240 C   0  0  0  0  0  0  0  0  0  0  0  0
    4.7710   -4.6952   28.4803 C   0  0  0  0  0  0  0  0  0  0  0  0
    3.4047   -5.1087   28.1314 C   0  0  0  0  0  0  0  0  0  0  0  0
   -0.2234  -11.8615   16.8874 C   0  0  0  0  0  0  0  0  0  0  0  0
    6.4491   -4.1532   30.1213 C   0  0  0  0  0  0  0  0  0  0  0  0
    5.7060   -4.4340   27.4975 C   0  0  0  0  0  0  0  0  0  0  0  0
    1.1818   -5.6612   28.8399 C   0  0  0  0  0  0  0  0  0  0  0  0
   -1.2067   -7.3287   17.7772 C   0  0  0  0  0  0  0  0  0  0  0  0
   -0.0206  -10.5585   16.6210 C   0  0  0  0  0  0  0  0  0  0  0  0
    0.3696  -12.7626   16.2169 O   0  0  0  0  0  0  0  0  0  0  0  0
   -0.6895   -9.5676   17.3297 C   0  0  0  0  0  0  0  0  0  0  0  0
    0.8388   -5.8417   27.5264 C   0  0  0  0  0  0  0  0  0  0  0  0
   -2.0709   -7.6637   18.7817 C   0  0  0  0  0  0  0  0  0  0  0  0
   -0.5279   -8.2168   17.0717 C   0  0  0  0  0  0  0  0  0  0  0  0
    6.9694   -4.0191   27.8190 C   0  0  0  0  0  0  0  0  0  0  0  0
    5.1733   -4.5469   29.8123 C   0  0  0  0  0  0  0  0  0  0  0  0
   -1.7508  -11.3016   18.6072 C   0  0  0  0  0  0  0  0  0  0  0  0
    1.7497   -5.6771   26.4971 C   0  0  0  0  0  0  0  0  0  0  0  0
   -1.5799   -9.9322   18.3468 C   0  0  0  0  0  0  0  0  0  0  0  0
   -1.0871  -12.2214   17.8851 C   0  0  0  0  0  0  0  0  0  0  0  0
   -2.2706   -8.9669   19.0691 C   0  0  0  0  0  0  0  0  0  0  0  0
    3.0279   -5.3073   26.8197 C   0  0  0  0  0  0  0  0  0  0  0  0
    7.3282   -3.8948   29.1186 C   0  0  0  0  0  0  0  0  0  0  0  0
  1  3  4  0
  1  7  4  0
  2  3  1  0
  2  6  4  0
  2 16  4  0
  3 22  4  0
  4  9  4  0
  4 10  1  0
  4 20  4  0
  5 16  4  0
  5 23  4  0
  6 15  4  0
  7 12  4  0
  8 13  4  0
  8 14  4  0
  9 11  4  0
 11 14  4  0
 11 19  4  0
 12 18  4  0
 13 21  4  0
 15 23  4  0
 17 19  4  0
 17 20  4  0
 18 22  4  0
 19 21  4  0
M  END
$$$$

 Created by Python create_sdf_string function

 23 25  0  0  0  0  0  0  0  0999 V2000
    2.4610   -5.3070   29.1240 C   0  0  0  0  0  0  0  0  0  0  0  0
    4.7710   -4.6952   28.4803 C   0  0  0  0  0  0  0  0  0  0  0  0
    3.4047   -5.1087   28.1314 C   0  0  0  0  0  0  0  0  0  0  0  0
   -0.2234  -11.8615   16.8874 C   0  0  0  0  0  0  0  0  0  0  0  0
    6.4491   -4.1532   30.1213 C   0  0  0  0  0  0  0  0  0  0  0  0
    5.7060   -4.4340   27.4975 C   0  0  0  0  0  0  0  0  0  0  0  0
    1.1818   -5.6612   28.8399 C   0  0  0  0  0  0  0  0  0  0  0  0
   -1.2067   -7.3287   17.7772 C   0  0  0  0  0  0  0  0  0  0  0  0
   -0.0206  -10.5585   16.6210 C   0  0  0  0  0  0  0  0  0  0  0  0
    0.3696  -12.7626   16.2169 O   0  0  0  0  0  0  0  0  0  0  0  0
   -0.6895   -9.5676   17.3297 C   0  0  0  0  0  0  0  0  0  0  0  0
    0.8388   -5.8417   27.5264 C   0  0  0  0  0  0  0  0  0  0  0  0
   -2.0709   -7.6637   18.7817 C   0  0  0  0  0  0  0  0  0  0  0  0
   -0.5279   -8.2168   17.0717 C   0  0  0  0  0  0  0  0  0  0  0  0
    6.9694   -4.0191   27.8190 C   0  0  0  0  0  0  0  0  0  0  0  0
    5.1733   -4.5469   29.8123 C   0  0  0  0  0  0  0  0  0  0  0  0
   -1.7508  -11.3016   18.6072 C   0  0  0  0  0  0  0  0  0  0  0  0
    1.7497   -5.6771   26.4971 C   0  0  0  0  0  0  0  0  0  0  0  0
   -1.5799   -9.9322   18.3468 C   0  0  0  0  0  0  0  0  0  0  0  0
   -1.0871  -12.2214   17.8851 C   0  0  0  0  0  0  0  0  0  0  0  0
   -2.2706   -8.9669   19.0691 C   0  0  0  0  0  0  0  0  0  0  0  0
    3.0279   -5.3073   26.8197 C   0  0  0  0  0  0  0  0  0  0  0  0
    7.3282   -3.8948   29.1186 C   0  0  0  0  0  0  0  0  0  0  0  0
  1  3  4  0
  1  7  4  0
  2  3  1  0
  2  6  4  0
  2 16  4  0
  3 22  4  0
  4  9  4  0
  4 10  1  0
  4 20  4  0
  5 16  4  0
  5 23  4  0
  6 15  4  0
  7 12  4  0
  8 13  4  0
  8 14  4  0
  9 11  4  0
 11 14  4  0
 11 19  4  0
 12 18  4  0
 13 21  4  0
 15 23  4  0
 17 19  4  0
 17 20  4  0
 18 22  4  0
 19 21  4  0
M  END
$$$$

 Created by Python create_sdf_string function

 23 25  0  0  0  0  0  0  0  0999 V2000
    2.4610   -5.3070   29.1240 C   0  0  0  0  0  0  0  0  0  0  0  0
    4.7710   -4.6952   28.4803 C   0  0  0  0  0  0  0  0  0  0  0  0
    3.4047   -5.1087   28.1314 C   0  0  0  0  0  0  0  0  0  0  0  0
   -0.2234  -11.8615   16.8874 C   0  0  0  0  0  0  0  0  0  0  0  0
    6.4491   -4.1532   30.1213 C   0  0  0  0  0  0  0  0  0  0  0  0
    5.7060   -4.4340   27.4975 C   0  0  0  0  0  0  0  0  0  0  0  0
    1.1818   -5.6612   28.8399 C   0  0  0  0  0  0  0  0  0  0  0  0
   -1.2067   -7.3287   17.7772 C   0  0  0  0  0  0  0  0  0  0  0  0
   -0.0206  -10.5585   16.6210 C   0  0  0  0  0  0  0  0  0  0  0  0
    0.3696  -12.7626   16.2169 O   0  0  0  0  0  0  0  0  0  0  0  0
   -0.6895   -9.5676   17.3297 C   0  0  0  0  0  0  0  0  0  0  0  0
    0.8388   -5.8417   27.5264 C   0  0  0  0  0  0  0  0  0  0  0  0
   -2.0709   -7.6637   18.7817 C   0  0  0  0  0  0  0  0  0  0  0  0
   -0.5279   -8.2168   17.0717 C   0  0  0  0  0  0  0  0  0  0  0  0
    6.9694   -4.0191   27.8190 C   0  0  0  0  0  0  0  0  0  0  0  0
    5.1733   -4.5469   29.8123 C   0  0  0  0  0  0  0  0  0  0  0  0
   -1.7508  -11.3016   18.6072 C   0  0  0  0  0  0  0  0  0  0  0  0
    1.7497   -5.6771   26.4971 C   0  0  0  0  0  0  0  0  0  0  0  0
   -1.5799   -9.9322   18.3468 C   0  0  0  0  0  0  0  0  0  0  0  0
   -1.0871  -12.2214   17.8851 C   0  0  0  0  0  0  0  0  0  0  0  0
   -2.2706   -8.9669   19.0691 C   0  0  0  0  0  0  0  0  0  0  0  0
    3.0279   -5.3073   26.8197 C   0  0  0  0  0  0  0  0  0  0  0  0
    7.3282   -3.8948   29.1186 C   0  0  0  0  0  0  0  0  0  0  0  0
  1  3  4  0
  1  7  4  0
  2  3  1  0
  2  6  4  0
  2 16  4  0
  3 22  4  0
  4  9  4  0
  4 10  1  0
  4 20  4  0
  5 16  4  0
  5 23  4  0
  6 15  4  0
  7 12  4  0
  8 13  4  0
  8 14  4  0
  9 11  4  0
 11 14  4  0
 11 19  4  0
 12 18  4  0
 13 21  4  0
 15 23  4  0
 17 19  4  0
 17 20  4  0
 18 22  4  0
 19 21  4  0
M  END
$$$$

 Created by Python create_sdf_string function

 23 25  0  0  0  0  0  0  0  0999 V2000
    2.4610   -5.3070   29.1240 C   0  0  0  0  0  0  0  0  0  0  0  0
    4.7710   -4.6952   28.4803 C   0  0  0  0  0  0  0  0  0  0  0  0
    3.4047   -5.1087   28.1314 C   0  0  0  0  0  0  0  0  0  0  0  0
   -0.2234  -11.8615   16.8874 C   0  0  0  0  0  0  0  0  0  0  0  0
    6.4491   -4.1532   30.1213 C   0  0  0  0  0  0  0  0  0  0  0  0
    5.7060   -4.4340   27.4975 C   0  0  0  0  0  0  0  0  0  0  0  0
    1.1818   -5.6612   28.8399 C   0  0  0  0  0  0  0  0  0  0  0  0
   -1.2067   -7.3287   17.7772 C   0  0  0  0  0  0  0  0  0  0  0  0
   -0.0206  -10.5585   16.6210 C   0  0  0  0  0  0  0  0  0  0  0  0
    0.3696  -12.7626   16.2169 O   0  0  0  0  0  0  0  0  0  0  0  0
   -0.6895   -9.5676   17.3297 C   0  0  0  0  0  0  0  0  0  0  0  0
    0.8388   -5.8417   27.5264 C   0  0  0  0  0  0  0  0  0  0  0  0
   -2.0709   -7.6637   18.7817 C   0  0  0  0  0  0  0  0  0  0  0  0
   -0.5279   -8.2168   17.0717 C   0  0  0  0  0  0  0  0  0  0  0  0
    6.9694   -4.0191   27.8190 C   0  0  0  0  0  0  0  0  0  0  0  0
    5.1733   -4.5469   29.8123 C   0  0  0  0  0  0  0  0  0  0  0  0
   -1.7508  -11.3016   18.6072 C   0  0  0  0  0  0  0  0  0  0  0  0
    1.7497   -5.6771   26.4971 C   0  0  0  0  0  0  0  0  0  0  0  0
   -1.5799   -9.9322   18.3468 C   0  0  0  0  0  0  0  0  0  0  0  0
   -1.0871  -12.2214   17.8851 C   0  0  0  0  0  0  0  0  0  0  0  0
   -2.2706   -8.9669   19.0691 C   0  0  0  0  0  0  0  0  0  0  0  0
    3.0279   -5.3073   26.8197 C   0  0  0  0  0  0  0  0  0  0  0  0
    7.3282   -3.8948   29.1186 C   0  0  0  0  0  0  0  0  0  0  0  0
  1  3  4  0
  1  7  4  0
  2  3  1  0
  2  6  4  0
  2 16  4  0
  3 22  4  0
  4  9  4  0
  4 10  1  0
  4 20  4  0
  5 16  4  0
  5 23  4  0
  6 15  4  0
  7 12  4  0
  8 13  4  0
  8 14  4  0
  9 11  4  0
 11 14  4  0
 11 19  4  0
 12 18  4  0
 13 21  4  0
 15 23  4  0
 17 19  4  0
 17 20  4  0
 18 22  4  0
 19 21  4  0
M  END
$$$$

 Created by Python create_sdf_string function

 23 25  0  0  0  0  0  0  0  0999 V2000
    2.4610   -5.3070   29.1240 C   0  0  0  0  0  0  0  0  0  0  0  0
    4.7710   -4.6952   28.4803 C   0  0  0  0  0  0  0  0  0  0  0  0
    3.4047   -5.1087   28.1314 C   0  0  0  0  0  0  0  0  0  0  0  0
   -0.2234  -11.8615   16.8874 C   0  0  0  0  0  0  0  0  0  0  0  0
    6.4491   -4.1532   30.1213 C   0  0  0  0  0  0  0  0  0  0  0  0
    5.7060   -4.4340   27.4975 C   0  0  0  0  0  0  0  0  0  0  0  0
    1.1818   -5.6612   28.8399 C   0  0  0  0  0  0  0  0  0  0  0  0
   -1.2067   -7.3287   17.7772 C   0  0  0  0  0  0  0  0  0  0  0  0
   -0.0206  -10.5585   16.6210 C   0  0  0  0  0  0  0  0  0  0  0  0
    0.3696  -12.7626   16.2169 O   0  0  0  0  0  0  0  0  0  0  0  0
   -0.6895   -9.5676   17.3297 C   0  0  0  0  0  0  0  0  0  0  0  0
    0.8388   -5.8417   27.5264 C   0  0  0  0  0  0  0  0  0  0  0  0
   -2.0709   -7.6637   18.7817 C   0  0  0  0  0  0  0  0  0  0  0  0
   -0.5279   -8.2168   17.0717 C   0  0  0  0  0  0  0  0  0  0  0  0
    6.9694   -4.0191   27.8190 C   0  0  0  0  0  0  0  0  0  0  0  0
    5.1733   -4.5469   29.8123 C   0  0  0  0  0  0  0  0  0  0  0  0
   -1.7508  -11.3016   18.6072 C   0  0  0  0  0  0  0  0  0  0  0  0
    1.7497   -5.6771   26.4971 C   0  0  0  0  0  0  0  0  0  0  0  0
   -1.5799   -9.9322   18.3468 C   0  0  0  0  0  0  0  0  0  0  0  0
   -1.0871  -12.2214   17.8851 C   0  0  0  0  0  0  0  0  0  0  0  0
   -2.2706   -8.9669   19.0691 C   0  0  0  0  0  0  0  0  0  0  0  0
    3.0279   -5.3073   26.8197 C   0  0  0  0  0  0  0  0  0  0  0  0
    7.3282   -3.8948   29.1186 C   0  0  0  0  0  0  0  0  0  0  0  0
  1  3  4  0
  1  7  4  0
  2  3  1  0
  2  6  4  0
  2 16  4  0
  3 22  4  0
  4  9  4  0
  4 10  1  0
  4 20  4  0
  5 16  4  0
  5 23  4  0
  6 15  4  0
  7 12  4  0
  8 13  4  0
  8 14  4  0
  9 11  4  0
 11 14  4  0
 11 19  4  0
 12 18  4  0
 13 21  4  0
 15 23  4  0
 17 19  4  0
 17 20  4  0
 18 22  4  0
 19 21  4  0
M  END
$$$$

 Created by Python create_sdf_string function

 23 25  0  0  0  0  0  0  0  0999 V2000
    2.4610   -5.3070   29.1240 C   0  0  0  0  0  0  0  0  0  0  0  0
    4.7710   -4.6952   28.4803 C   0  0  0  0  0  0  0  0  0  0  0  0
    3.4047   -5.1087   28.1314 C   0  0  0  0  0  0  0  0  0  0  0  0
   -0.2234  -11.8615   16.8874 C   0  0  0  0  0  0  0  0  0  0  0  0
    6.4491   -4.1532   30.1213 C   0  0  0  0  0  0  0  0  0  0  0  0
    5.7060   -4.4340   27.4975 C   0  0  0  0  0  0  0  0  0  0  0  0
    1.1818   -5.6612   28.8399 C   0  0  0  0  0  0  0  0  0  0  0  0
   -1.2067   -7.3287   17.7772 C   0  0  0  0  0  0  0  0  0  0  0  0
   -0.0206  -10.5585   16.6210 C   0  0  0  0  0  0  0  0  0  0  0  0
    0.3696  -12.7626   16.2169 O   0  0  0  0  0  0  0  0  0  0  0  0
   -0.6895   -9.5676   17.3297 C   0  0  0  0  0  0  0  0  0  0  0  0
    0.8388   -5.8417   27.5264 C   0  0  0  0  0  0  0  0  0  0  0  0
   -2.0709   -7.6637   18.7817 C   0  0  0  0  0  0  0  0  0  0  0  0
   -0.5279   -8.2168   17.0717 C   0  0  0  0  0  0  0  0  0  0  0  0
    6.9694   -4.0191   27.8190 C   0  0  0  0  0  0  0  0  0  0  0  0
    5.1733   -4.5469   29.8123 C   0  0  0  0  0  0  0  0  0  0  0  0
   -1.7508  -11.3016   18.6072 C   0  0  0  0  0  0  0  0  0  0  0  0
    1.7497   -5.6771   26.4971 C   0  0  0  0  0  0  0  0  0  0  0  0
   -1.5799   -9.9322   18.3468 C   0  0  0  0  0  0  0  0  0  0  0  0
   -1.0871  -12.2214   17.8851 C   0  0  0  0  0  0  0  0  0  0  0  0
   -2.2706   -8.9669   19.0691 C   0  0  0  0  0  0  0  0  0  0  0  0
    3.0279   -5.3073   26.8197 C   0  0  0  0  0  0  0  0  0  0  0  0
    7.3282   -3.8948   29.1186 C   0  0  0  0  0  0  0  0  0  0  0  0
  1  3  4  0
  1  7  4  0
  2  3  1  0
  2  6  4  0
  2 16  4  0
  3 22  4  0
  4  9  4  0
  4 10  1  0
  4 20  4  0
  5 16  4  0
  5 23  4  0
  6 15  4  0
  7 12  4  0
  8 13  4  0
  8 14  4  0
  9 11  4  0
 11 14  4  0
 11 19  4  0
 12 18  4  0
 13 21  4  0
 15 23  4  0
 17 19  4  0
 17 20  4  0
 18 22  4  0
 19 21  4  0
M  END
$$$$

 Created by Python create_sdf_string function

 23 25  0  0  0  0  0  0  0  0999 V2000
    2.4610   -5.3070   29.1240 C   0  0  0  0  0  0  0  0  0  0  0  0
    4.7710   -4.6952   28.4803 C   0  0  0  0  0  0  0  0  0  0  0  0
    3.4047   -5.1087   28.1314 C   0  0  0  0  0  0  0  0  0  0  0  0
   -0.2234  -11.8615   16.8874 C   0  0  0  0  0  0  0  0  0  0  0  0
    6.4491   -4.1532   30.1213 C   0  0  0  0  0  0  0  0  0  0  0  0
    5.7060   -4.4340   27.4975 C   0  0  0  0  0  0  0  0  0  0  0  0
    1.1818   -5.6612   28.8399 C   0  0  0  0  0  0  0  0  0  0  0  0
   -1.2067   -7.3287   17.7772 C   0  0  0  0  0  0  0  0  0  0  0  0
   -0.0206  -10.5585   16.6210 C   0  0  0  0  0  0  0  0  0  0  0  0
    0.3696  -12.7626   16.2169 O   0  0  0  0  0  0  0  0  0  0  0  0
   -0.6895   -9.5676   17.3297 C   0  0  0  0  0  0  0  0  0  0  0  0
    0.8388   -5.8417   27.5264 C   0  0  0  0  0  0  0  0  0  0  0  0
   -2.0709   -7.6637   18.7817 C   0  0  0  0  0  0  0  0  0  0  0  0
   -0.5279   -8.2168   17.0717 C   0  0  0  0  0  0  0  0  0  0  0  0
    6.9694   -4.0191   27.8190 C   0  0  0  0  0  0  0  0  0  0  0  0
    5.1733   -4.5469   29.8123 C   0  0  0  0  0  0  0  0  0  0  0  0
   -1.7508  -11.3016   18.6072 C   0  0  0  0  0  0  0  0  0  0  0  0
    1.7497   -5.6771   26.4971 C   0  0  0  0  0  0  0  0  0  0  0  0
   -1.5799   -9.9322   18.3468 C   0  0  0  0  0  0  0  0  0  0  0  0
   -1.0871  -12.2214   17.8851 C   0  0  0  0  0  0  0  0  0  0  0  0
   -2.2706   -8.9669   19.0691 C   0  0  0  0  0  0  0  0  0  0  0  0
    3.0279   -5.3073   26.8197 C   0  0  0  0  0  0  0  0  0  0  0  0
    7.3282   -3.8948   29.1186 C   0  0  0  0  0  0  0  0  0  0  0  0
  1  3  4  0
  1  7  4  0
  2  3  1  0
  2  6  4  0
  2 16  4  0
  3 22  4  0
  4  9  4  0
  4 10  1  0
  4 20  4  0
  5 16  4  0
  5 23  4  0
  6 15  4  0
  7 12  4  0
  8 13  4  0
  8 14  4  0
  9 11  4  0
 11 14  4  0
 11 19  4  0
 12 18  4  0
 13 21  4  0
 15 23  4  0
 17 19  4  0
 17 20  4  0
 18 22  4  0
 19 21  4  0
M  END
$$$$

 Created by Python create_sdf_string function

 23 25  0  0  0  0  0  0  0  0999 V2000
    2.4610   -5.3070   29.1240 C   0  0  0  0  0  0  0  0  0  0  0  0
    4.7710   -4.6952   28.4803 C   0  0  0  0  0  0  0  0  0  0  0  0
    3.4047   -5.1087   28.1314 C   0  0  0  0  0  0  0  0  0  0  0  0
   -0.2234  -11.8615   16.8874 C   0  0  0  0  0  0  0  0  0  0  0  0
    6.4491   -4.1532   30.1213 C   0  0  0  0  0  0  0  0  0  0  0  0
    5.7060   -4.4340   27.4975 C   0  0  0  0  0  0  0  0  0  0  0  0
    1.1818   -5.6612   28.8399 C   0  0  0  0  0  0  0  0  0  0  0  0
   -1.2067   -7.3287   17.7772 C   0  0  0  0  0  0  0  0  0  0  0  0
   -0.0206  -10.5585   16.6210 C   0  0  0  0  0  0  0  0  0  0  0  0
    0.3696  -12.7626   16.2169 O   0  0  0  0  0  0  0  0  0  0  0  0
   -0.6895   -9.5676   17.3297 C   0  0  0  0  0  0  0  0  0  0  0  0
    0.8388   -5.8417   27.5264 C   0  0  0  0  0  0  0  0  0  0  0  0
   -2.0709   -7.6637   18.7817 C   0  0  0  0  0  0  0  0  0  0  0  0
   -0.5279   -8.2168   17.0717 C   0  0  0  0  0  0  0  0  0  0  0  0
    6.9694   -4.0191   27.8190 C   0  0  0  0  0  0  0  0  0  0  0  0
    5.1733   -4.5469   29.8123 C   0  0  0  0  0  0  0  0  0  0  0  0
   -1.7508  -11.3016   18.6072 C   0  0  0  0  0  0  0  0  0  0  0  0
    1.7497   -5.6771   26.4971 C   0  0  0  0  0  0  0  0  0  0  0  0
   -1.5799   -9.9322   18.3468 C   0  0  0  0  0  0  0  0  0  0  0  0
   -1.0871  -12.2214   17.8851 C   0  0  0  0  0  0  0  0  0  0  0  0
   -2.2706   -8.9669   19.0691 C   0  0  0  0  0  0  0  0  0  0  0  0
    3.0279   -5.3073   26.8197 C   0  0  0  0  0  0  0  0  0  0  0  0
    7.3282   -3.8948   29.1186 C   0  0  0  0  0  0  0  0  0  0  0  0
  1  3  4  0
  1  7  4  0
  2  3  1  0
  2  6  4  0
  2 16  4  0
  3 22  4  0
  4  9  4  0
  4 10  1  0
  4 20  4  0
  5 16  4  0
  5 23  4  0
  6 15  4  0
  7 12  4  0
  8 13  4  0
  8 14  4  0
  9 11  4  0
 11 14  4  0
 11 19  4  0
 12 18  4  0
 13 21  4  0
 15 23  4  0
 17 19  4  0
 17 20  4  0
 18 22  4  0
 19 21  4  0
M  END
$$$$

 Created by Python create_sdf_string function

 23 25  0  0  0  0  0  0  0  0999 V2000
    2.4610   -5.3070   29.1240 C   0  0  0  0  0  0  0  0  0  0  0  0
    4.7710   -4.6952   28.4803 C   0  0  0  0  0  0  0  0  0  0  0  0
    3.4047   -5.1087   28.1314 C   0  0  0  0  0  0  0  0  0  0  0  0
   -0.2234  -11.8615   16.8874 C   0  0  0  0  0  0  0  0  0  0  0  0
    6.4491   -4.1532   30.1213 C   0  0  0  0  0  0  0  0  0  0  0  0
    5.7060   -4.4340   27.4975 C   0  0  0  0  0  0  0  0  0  0  0  0
    1.1818   -5.6612   28.8399 C   0  0  0  0  0  0  0  0  0  0  0  0
   -1.2067   -7.3287   17.7772 C   0  0  0  0  0  0  0  0  0  0  0  0
   -0.0206  -10.5585   16.6210 C   0  0  0  0  0  0  0  0  0  0  0  0
    0.3696  -12.7626   16.2169 O   0  0  0  0  0  0  0  0  0  0  0  0
   -0.6895   -9.5676   17.3297 C   0  0  0  0  0  0  0  0  0  0  0  0
    0.8388   -5.8417   27.5264 C   0  0  0  0  0  0  0  0  0  0  0  0
   -2.0709   -7.6637   18.7817 C   0  0  0  0  0  0  0  0  0  0  0  0
   -0.5279   -8.2168   17.0717 C   0  0  0  0  0  0  0  0  0  0  0  0
    6.9694   -4.0191   27.8190 C   0  0  0  0  0  0  0  0  0  0  0  0
    5.1733   -4.5469   29.8123 C   0  0  0  0  0  0  0  0  0  0  0  0
   -1.7508  -11.3016   18.6072 C   0  0  0  0  0  0  0  0  0  0  0  0
    1.7497   -5.6771   26.4971 C   0  0  0  0  0  0  0  0  0  0  0  0
   -1.5799   -9.9322   18.3468 C   0  0  0  0  0  0  0  0  0  0  0  0
   -1.0871  -12.2214   17.8851 C   0  0  0  0  0  0  0  0  0  0  0  0
   -2.2706   -8.9669   19.0691 C   0  0  0  0  0  0  0  0  0  0  0  0
    3.0279   -5.3073   26.8197 C   0  0  0  0  0  0  0  0  0  0  0  0
    7.3282   -3.8948   29.1186 C   0  0  0  0  0  0  0  0  0  0  0  0
  1  3  4  0
  1  7  4  0
  2  3  1  0
  2  6  4  0
  2 16  4  0
  3 22  4  0
  4  9  4  0
  4 10  1  0
  4 20  4  0
  5 16  4  0
  5 23  4  0
  6 15  4  0
  7 12  4  0
  8 13  4  0
  8 14  4  0
  9 11  4  0
 11 14  4  0
 11 19  4  0
 12 18  4  0
 13 21  4  0
 15 23  4  0
 17 19  4  0
 17 20  4  0
 18 22  4  0
 19 21  4  0
M  END
$$$$

 Created by Python create_sdf_string function

 23 25  0  0  0  0  0  0  0  0999 V2000
    2.4610   -5.3070   29.1240 C   0  0  0  0  0  0  0  0  0  0  0  0
    4.7710   -4.6952   28.4803 C   0  0  0  0  0  0  0  0  0  0  0  0
    3.4047   -5.1087   28.1314 C   0  0  0  0  0  0  0  0  0  0  0  0
   -0.2234  -11.8615   16.8874 C   0  0  0  0  0  0  0  0  0  0  0  0
    6.4491   -4.1532   30.1213 C   0  0  0  0  0  0  0  0  0  0  0  0
    5.7060   -4.4340   27.4975 C   0  0  0  0  0  0  0  0  0  0  0  0
    1.1818   -5.6612   28.8399 C   0  0  0  0  0  0  0  0  0  0  0  0
   -1.2067   -7.3287   17.7772 C   0  0  0  0  0  0  0  0  0  0  0  0
   -0.0206  -10.5585   16.6210 C   0  0  0  0  0  0  0  0  0  0  0  0
    0.3696  -12.7626   16.2169 O   0  0  0  0  0  0  0  0  0  0  0  0
   -0.6895   -9.5676   17.3297 C   0  0  0  0  0  0  0  0  0  0  0  0
    0.8388   -5.8417   27.5264 C   0  0  0  0  0  0  0  0  0  0  0  0
   -2.0709   -7.6637   18.7817 C   0  0  0  0  0  0  0  0  0  0  0  0
   -0.5279   -8.2168   17.0717 C   0  0  0  0  0  0  0  0  0  0  0  0
    6.9694   -4.0191   27.8190 C   0  0  0  0  0  0  0  0  0  0  0  0
    5.1733   -4.5469   29.8123 C   0  0  0  0  0  0  0  0  0  0  0  0
   -1.7508  -11.3016   18.6072 C   0  0  0  0  0  0  0  0  0  0  0  0
    1.7497   -5.6771   26.4971 C   0  0  0  0  0  0  0  0  0  0  0  0
   -1.5799   -9.9322   18.3468 C   0  0  0  0  0  0  0  0  0  0  0  0
   -1.0871  -12.2214   17.8851 C   0  0  0  0  0  0  0  0  0  0  0  0
   -2.2706   -8.9669   19.0691 C   0  0  0  0  0  0  0  0  0  0  0  0
    3.0279   -5.3073   26.8197 C   0  0  0  0  0  0  0  0  0  0  0  0
    7.3282   -3.8948   29.1186 C   0  0  0  0  0  0  0  0  0  0  0  0
  1  3  4  0
  1  7  4  0
  2  3  1  0
  2  6  4  0
  2 16  4  0
  3 22  4  0
  4  9  4  0
  4 10  1  0
  4 20  4  0
  5 16  4  0
  5 23  4  0
  6 15  4  0
  7 12  4  0
  8 13  4  0
  8 14  4  0
  9 11  4  0
 11 14  4  0
 11 19  4  0
 12 18  4  0
 13 21  4  0
 15 23  4  0
 17 19  4  0
 17 20  4  0
 18 22  4  0
 19 21  4  0
M  END
$$$$

 Created by Python create_sdf_string function

 23 25  0  0  0  0  0  0  0  0999 V2000
    2.4610   -5.3070   29.1240 C   0  0  0  0  0  0  0  0  0  0  0  0
    4.7710   -4.6952   28.4803 C   0  0  0  0  0  0  0  0  0  0  0  0
    3.4047   -5.1087   28.1314 C   0  0  0  0  0  0  0  0  0  0  0  0
   -0.2234  -11.8615   16.8874 C   0  0  0  0  0  0  0  0  0  0  0  0
    6.4491   -4.1532   30.1213 C   0  0  0  0  0  0  0  0  0  0  0  0
    5.7060   -4.4340   27.4975 C   0  0  0  0  0  0  0  0  0  0  0  0
    1.1818   -5.6612   28.8399 C   0  0  0  0  0  0  0  0  0  0  0  0
   -1.2067   -7.3287   17.7772 C   0  0  0  0  0  0  0  0  0  0  0  0
   -0.0206  -10.5585   16.6210 C   0  0  0  0  0  0  0  0  0  0  0  0
    0.3696  -12.7626   16.2169 O   0  0  0  0  0  0  0  0  0  0  0  0
   -0.6895   -9.5676   17.3297 C   0  0  0  0  0  0  0  0  0  0  0  0
    0.8388   -5.8417   27.5264 C   0  0  0  0  0  0  0  0  0  0  0  0
   -2.0709   -7.6637   18.7817 C   0  0  0  0  0  0  0  0  0  0  0  0
   -0.5279   -8.2168   17.0717 C   0  0  0  0  0  0  0  0  0  0  0  0
    6.9694   -4.0191   27.8190 C   0  0  0  0  0  0  0  0  0  0  0  0
    5.1733   -4.5469   29.8123 C   0  0  0  0  0  0  0  0  0  0  0  0
   -1.7508  -11.3016   18.6072 C   0  0  0  0  0  0  0  0  0  0  0  0
    1.7497   -5.6771   26.4971 C   0  0  0  0  0  0  0  0  0  0  0  0
   -1.5799   -9.9322   18.3468 C   0  0  0  0  0  0  0  0  0  0  0  0
   -1.0871  -12.2214   17.8851 C   0  0  0  0  0  0  0  0  0  0  0  0
   -2.2706   -8.9669   19.0691 C   0  0  0  0  0  0  0  0  0  0  0  0
    3.0279   -5.3073   26.8197 C   0  0  0  0  0  0  0  0  0  0  0  0
    7.3282   -3.8948   29.1186 C   0  0  0  0  0  0  0  0  0  0  0  0
  1  3  4  0
  1  7  4  0
  2  3  1  0
  2  6  4  0
  2 16  4  0
  3 22  4  0
  4  9  4  0
  4 10  1  0
  4 20  4  0
  5 16  4  0
  5 23  4  0
  6 15  4  0
  7 12  4  0
  8 13  4  0
  8 14  4  0
  9 11  4  0
 11 14  4  0
 11 19  4  0
 12 18  4  0
 13 21  4  0
 15 23  4  0
 17 19  4  0
 17 20  4  0
 18 22  4  0
 19 21  4  0
M  END
$$$$

 Created by Python create_sdf_string function

 23 25  0  0  0  0  0  0  0  0999 V2000
    2.4610   -5.3070   29.1240 C   0  0  0  0  0  0  0  0  0  0  0  0
    4.7710   -4.6952   28.4803 C   0  0  0  0  0  0  0  0  0  0  0  0
    3.4047   -5.1087   28.1314 C   0  0  0  0  0  0  0  0  0  0  0  0
   -0.2234  -11.8615   16.8874 C   0  0  0  0  0  0  0  0  0  0  0  0
    6.4491   -4.1532   30.1213 C   0  0  0  0  0  0  0  0  0  0  0  0
    5.7060   -4.4340   27.4975 C   0  0  0  0  0  0  0  0  0  0  0  0
    1.1818   -5.6612   28.8399 C   0  0  0  0  0  0  0  0  0  0  0  0
   -1.2067   -7.3287   17.7772 C   0  0  0  0  0  0  0  0  0  0  0  0
   -0.0206  -10.5585   16.6210 C   0  0  0  0  0  0  0  0  0  0  0  0
    0.3696  -12.7626   16.2169 O   0  0  0  0  0  0  0  0  0  0  0  0
   -0.6895   -9.5676   17.3297 C   0  0  0  0  0  0  0  0  0  0  0  0
    0.8388   -5.8417   27.5264 C   0  0  0  0  0  0  0  0  0  0  0  0
   -2.0709   -7.6637   18.7817 C   0  0  0  0  0  0  0  0  0  0  0  0
   -0.5279   -8.2168   17.0717 C   0  0  0  0  0  0  0  0  0  0  0  0
    6.9694   -4.0191   27.8190 C   0  0  0  0  0  0  0  0  0  0  0  0
    5.1733   -4.5469   29.8123 C   0  0  0  0  0  0  0  0  0  0  0  0
   -1.7508  -11.3016   18.6072 C   0  0  0  0  0  0  0  0  0  0  0  0
    1.7497   -5.6771   26.4971 C   0  0  0  0  0  0  0  0  0  0  0  0
   -1.5799   -9.9322   18.3468 C   0  0  0  0  0  0  0  0  0  0  0  0
   -1.0871  -12.2214   17.8851 C   0  0  0  0  0  0  0  0  0  0  0  0
   -2.2706   -8.9669   19.0691 C   0  0  0  0  0  0  0  0  0  0  0  0
    3.0279   -5.3073   26.8197 C   0  0  0  0  0  0  0  0  0  0  0  0
    7.3282   -3.8948   29.1186 C   0  0  0  0  0  0  0  0  0  0  0  0
  1  3  4  0
  1  7  4  0
  2  3  1  0
  2  6  4  0
  2 16  4  0
  3 22  4  0
  4  9  4  0
  4 10  1  0
  4 20  4  0
  5 16  4  0
  5 23  4  0
  6 15  4  0
  7 12  4  0
  8 13  4  0
  8 14  4  0
  9 11  4  0
 11 14  4  0
 11 19  4  0
 12 18  4  0
 13 21  4  0
 15 23  4  0
 17 19  4  0
 17 20  4  0
 18 22  4  0
 19 21  4  0
M  END
$$$$

 Created by Python create_sdf_string function

 23 25  0  0  0  0  0  0  0  0999 V2000
    2.4610   -5.3070   29.1240 C   0  0  0  0  0  0  0  0  0  0  0  0
    4.7710   -4.6952   28.4803 C   0  0  0  0  0  0  0  0  0  0  0  0
    3.4047   -5.1087   28.1314 C   0  0  0  0  0  0  0  0  0  0  0  0
   -0.2234  -11.8615   16.8874 C   0  0  0  0  0  0  0  0  0  0  0  0
    6.4491   -4.1532   30.1213 C   0  0  0  0  0  0  0  0  0  0  0  0
    5.7060   -4.4340   27.4975 C   0  0  0  0  0  0  0  0  0  0  0  0
    1.1818   -5.6612   28.8399 C   0  0  0  0  0  0  0  0  0  0  0  0
   -1.2067   -7.3287   17.7772 C   0  0  0  0  0  0  0  0  0  0  0  0
   -0.0206  -10.5585   16.6210 C   0  0  0  0  0  0  0  0  0  0  0  0
    0.3696  -12.7626   16.2169 O   0  0  0  0  0  0  0  0  0  0  0  0
   -0.6895   -9.5676   17.3297 C   0  0  0  0  0  0  0  0  0  0  0  0
    0.8388   -5.8417   27.5264 C   0  0  0  0  0  0  0  0  0  0  0  0
   -2.0709   -7.6637   18.7817 C   0  0  0  0  0  0  0  0  0  0  0  0
   -0.5279   -8.2168   17.0717 C   0  0  0  0  0  0  0  0  0  0  0  0
    6.9694   -4.0191   27.8190 C   0  0  0  0  0  0  0  0  0  0  0  0
    5.1733   -4.5469   29.8123 C   0  0  0  0  0  0  0  0  0  0  0  0
   -1.7508  -11.3016   18.6072 C   0  0  0  0  0  0  0  0  0  0  0  0
    1.7497   -5.6771   26.4971 C   0  0  0  0  0  0  0  0  0  0  0  0
   -1.5799   -9.9322   18.3468 C   0  0  0  0  0  0  0  0  0  0  0  0
   -1.0871  -12.2214   17.8851 C   0  0  0  0  0  0  0  0  0  0  0  0
   -2.2706   -8.9669   19.0691 C   0  0  0  0  0  0  0  0  0  0  0  0
    3.0279   -5.3073   26.8197 C   0  0  0  0  0  0  0  0  0  0  0  0
    7.3282   -3.8948   29.1186 C   0  0  0  0  0  0  0  0  0  0  0  0
  1  3  4  0
  1  7  4  0
  2  3  1  0
  2  6  4  0
  2 16  4  0
  3 22  4  0
  4  9  4  0
  4 10  1  0
  4 20  4  0
  5 16  4  0
  5 23  4  0
  6 15  4  0
  7 12  4  0
  8 13  4  0
  8 14  4  0
  9 11  4  0
 11 14  4  0
 11 19  4  0
 12 18  4  0
 13 21  4  0
 15 23  4  0
 17 19  4  0
 17 20  4  0
 18 22  4  0
 19 21  4  0
M  END
$$$$

 Created by Python create_sdf_string function

 23 25  0  0  0  0  0  0  0  0999 V2000
    2.4610   -5.3070   29.1240 C   0  0  0  0  0  0  0  0  0  0  0  0
    4.7710   -4.6952   28.4803 C   0  0  0  0  0  0  0  0  0  0  0  0
    3.4047   -5.1087   28.1314 C   0  0  0  0  0  0  0  0  0  0  0  0
   -0.2234  -11.8615   16.8874 C   0  0  0  0  0  0  0  0  0  0  0  0
    6.4491   -4.1532   30.1213 C   0  0  0  0  0  0  0  0  0  0  0  0
    5.7060   -4.4340   27.4975 C   0  0  0  0  0  0  0  0  0  0  0  0
    1.1818   -5.6612   28.8399 C   0  0  0  0  0  0  0  0  0  0  0  0
   -1.2067   -7.3287   17.7772 C   0  0  0  0  0  0  0  0  0  0  0  0
   -0.0206  -10.5585   16.6210 C   0  0  0  0  0  0  0  0  0  0  0  0
    0.3696  -12.7626   16.2169 O   0  0  0  0  0  0  0  0  0  0  0  0
   -0.6895   -9.5676   17.3297 C   0  0  0  0  0  0  0  0  0  0  0  0
    0.8388   -5.8417   27.5264 C   0  0  0  0  0  0  0  0  0  0  0  0
   -2.0709   -7.6637   18.7817 C   0  0  0  0  0  0  0  0  0  0  0  0
   -0.5279   -8.2168   17.0717 C   0  0  0  0  0  0  0  0  0  0  0  0
    6.9694   -4.0191   27.8190 C   0  0  0  0  0  0  0  0  0  0  0  0
    5.1733   -4.5469   29.8123 C   0  0  0  0  0  0  0  0  0  0  0  0
   -1.7508  -11.3016   18.6072 C   0  0  0  0  0  0  0  0  0  0  0  0
    1.7497   -5.6771   26.4971 C   0  0  0  0  0  0  0  0  0  0  0  0
   -1.5799   -9.9322   18.3468 C   0  0  0  0  0  0  0  0  0  0  0  0
   -1.0871  -12.2214   17.8851 C   0  0  0  0  0  0  0  0  0  0  0  0
   -2.2706   -8.9669   19.0691 C   0  0  0  0  0  0  0  0  0  0  0  0
    3.0279   -5.3073   26.8197 C   0  0  0  0  0  0  0  0  0  0  0  0
    7.3282   -3.8948   29.1186 C   0  0  0  0  0  0  0  0  0  0  0  0
  1  3  4  0
  1  7  4  0
  2  3  1  0
  2  6  4  0
  2 16  4  0
  3 22  4  0
  4  9  4  0
  4 10  1  0
  4 20  4  0
  5 16  4  0
  5 23  4  0
  6 15  4  0
  7 12  4  0
  8 13  4  0
  8 14  4  0
  9 11  4  0
 11 14  4  0
 11 19  4  0
 12 18  4  0
 13 21  4  0
 15 23  4  0
 17 19  4  0
 17 20  4  0
 18 22  4  0
 19 21  4  0
M  END
$$$$

 Created by Python create_sdf_string function

 23 25  0  0  0  0  0  0  0  0999 V2000
    2.4610   -5.3070   29.1240 C   0  0  0  0  0  0  0  0  0  0  0  0
    4.7710   -4.6952   28.4803 C   0  0  0  0  0  0  0  0  0  0  0  0
    3.4047   -5.1087   28.1314 C   0  0  0  0  0  0  0  0  0  0  0  0
   -0.2234  -11.8615   16.8874 C   0  0  0  0  0  0  0  0  0  0  0  0
    6.4491   -4.1532   30.1213 C   0  0  0  0  0  0  0  0  0  0  0  0
    5.7060   -4.4340   27.4975 C   0  0  0  0  0  0  0  0  0  0  0  0
    1.1818   -5.6612   28.8399 C   0  0  0  0  0  0  0  0  0  0  0  0
   -1.2067   -7.3287   17.7772 C   0  0  0  0  0  0  0  0  0  0  0  0
   -0.0206  -10.5585   16.6210 C   0  0  0  0  0  0  0  0  0  0  0  0
    0.3696  -12.7626   16.2169 O   0  0  0  0  0  0  0  0  0  0  0  0
   -0.6895   -9.5676   17.3297 C   0  0  0  0  0  0  0  0  0  0  0  0
    0.8388   -5.8417   27.5264 C   0  0  0  0  0  0  0  0  0  0  0  0
   -2.0709   -7.6637   18.7817 C   0  0  0  0  0  0  0  0  0  0  0  0
   -0.5279   -8.2168   17.0717 C   0  0  0  0  0  0  0  0  0  0  0  0
    6.9694   -4.0191   27.8190 C   0  0  0  0  0  0  0  0  0  0  0  0
    5.1733   -4.5469   29.8123 C   0  0  0  0  0  0  0  0  0  0  0  0
   -1.7508  -11.3016   18.6072 C   0  0  0  0  0  0  0  0  0  0  0  0
    1.7497   -5.6771   26.4971 C   0  0  0  0  0  0  0  0  0  0  0  0
   -1.5799   -9.9322   18.3468 C   0  0  0  0  0  0  0  0  0  0  0  0
   -1.0871  -12.2214   17.8851 C   0  0  0  0  0  0  0  0  0  0  0  0
   -2.2706   -8.9669   19.0691 C   0  0  0  0  0  0  0  0  0  0  0  0
    3.0279   -5.3073   26.8197 C   0  0  0  0  0  0  0  0  0  0  0  0
    7.3282   -3.8948   29.1186 C   0  0  0  0  0  0  0  0  0  0  0  0
  1  3  4  0
  1  7  4  0
  2  3  1  0
  2  6  4  0
  2 16  4  0
  3 22  4  0
  4  9  4  0
  4 10  1  0
  4 20  4  0
  5 16  4  0
  5 23  4  0
  6 15  4  0
  7 12  4  0
  8 13  4  0
  8 14  4  0
  9 11  4  0
 11 14  4  0
 11 19  4  0
 12 18  4  0
 13 21  4  0
 15 23  4  0
 17 19  4  0
 17 20  4  0
 18 22  4  0
 19 21  4  0
M  END
$$$$

 Created by Python create_sdf_string function

 23 25  0  0  0  0  0  0  0  0999 V2000
    2.4610   -5.3070   29.1240 C   0  0  0  0  0  0  0  0  0  0  0  0
    4.7710   -4.6952   28.4803 C   0  0  0  0  0  0  0  0  0  0  0  0
    3.4047   -5.1087   28.1314 C   0  0  0  0  0  0  0  0  0  0  0  0
   -0.2234  -11.8615   16.8874 C   0  0  0  0  0  0  0  0  0  0  0  0
    6.4491   -4.1532   30.1213 C   0  0  0  0  0  0  0  0  0  0  0  0
    5.7060   -4.4340   27.4975 C   0  0  0  0  0  0  0  0  0  0  0  0
    1.1818   -5.6612   28.8399 C   0  0  0  0  0  0  0  0  0  0  0  0
   -1.2067   -7.3287   17.7772 C   0  0  0  0  0  0  0  0  0  0  0  0
   -0.0206  -10.5585   16.6210 C   0  0  0  0  0  0  0  0  0  0  0  0
    0.3696  -12.7626   16.2169 O   0  0  0  0  0  0  0  0  0  0  0  0
   -0.6895   -9.5676   17.3297 C   0  0  0  0  0  0  0  0  0  0  0  0
    0.8388   -5.8417   27.5264 C   0  0  0  0  0  0  0  0  0  0  0  0
   -2.0709   -7.6637   18.7817 C   0  0  0  0  0  0  0  0  0  0  0  0
   -0.5279   -8.2168   17.0717 C   0  0  0  0  0  0  0  0  0  0  0  0
    6.9694   -4.0191   27.8190 C   0  0  0  0  0  0  0  0  0  0  0  0
    5.1733   -4.5469   29.8123 C   0  0  0  0  0  0  0  0  0  0  0  0
   -1.7508  -11.3016   18.6072 C   0  0  0  0  0  0  0  0  0  0  0  0
    1.7497   -5.6771   26.4971 C   0  0  0  0  0  0  0  0  0  0  0  0
   -1.5799   -9.9322   18.3468 C   0  0  0  0  0  0  0  0  0  0  0  0
   -1.0871  -12.2214   17.8851 C   0  0  0  0  0  0  0  0  0  0  0  0
   -2.2706   -8.9669   19.0691 C   0  0  0  0  0  0  0  0  0  0  0  0
    3.0279   -5.3073   26.8197 C   0  0  0  0  0  0  0  0  0  0  0  0
    7.3282   -3.8948   29.1186 C   0  0  0  0  0  0  0  0  0  0  0  0
  1  3  4  0
  1  7  4  0
  2  3  1  0
  2  6  4  0
  2 16  4  0
  3 22  4  0
  4  9  4  0
  4 10  1  0
  4 20  4  0
  5 16  4  0
  5 23  4  0
  6 15  4  0
  7 12  4  0
  8 13  4  0
  8 14  4  0
  9 11  4  0
 11 14  4  0
 11 19  4  0
 12 18  4  0
 13 21  4  0
 15 23  4  0
 17 19  4  0
 17 20  4  0
 18 22  4  0
 19 21  4  0
M  END
$$$$

 Created by Python create_sdf_string function

 23 25  0  0  0  0  0  0  0  0999 V2000
    2.4610   -5.3070   29.1240 C   0  0  0  0  0  0  0  0  0  0  0  0
    4.7710   -4.6952   28.4803 C   0  0  0  0  0  0  0  0  0  0  0  0
    3.4047   -5.1087   28.1314 C   0  0  0  0  0  0  0  0  0  0  0  0
   -0.2234  -11.8615   16.8874 C   0  0  0  0  0  0  0  0  0  0  0  0
    6.4491   -4.1532   30.1213 C   0  0  0  0  0  0  0  0  0  0  0  0
    5.7060   -4.4340   27.4975 C   0  0  0  0  0  0  0  0  0  0  0  0
    1.1818   -5.6612   28.8399 C   0  0  0  0  0  0  0  0  0  0  0  0
   -1.2067   -7.3287   17.7772 C   0  0  0  0  0  0  0  0  0  0  0  0
   -0.0206  -10.5585   16.6210 C   0  0  0  0  0  0  0  0  0  0  0  0
    0.3696  -12.7626   16.2169 O   0  0  0  0  0  0  0  0  0  0  0  0
   -0.6895   -9.5676   17.3297 C   0  0  0  0  0  0  0  0  0  0  0  0
    0.8388   -5.8417   27.5264 C   0  0  0  0  0  0  0  0  0  0  0  0
   -2.0709   -7.6637   18.7817 C   0  0  0  0  0  0  0  0  0  0  0  0
   -0.5279   -8.2168   17.0717 C   0  0  0  0  0  0  0  0  0  0  0  0
    6.9694   -4.0191   27.8190 C   0  0  0  0  0  0  0  0  0  0  0  0
    5.1733   -4.5469   29.8123 C   0  0  0  0  0  0  0  0  0  0  0  0
   -1.7508  -11.3016   18.6072 C   0  0  0  0  0  0  0  0  0  0  0  0
    1.7497   -5.6771   26.4971 C   0  0  0  0  0  0  0  0  0  0  0  0
   -1.5799   -9.9322   18.3468 C   0  0  0  0  0  0  0  0  0  0  0  0
   -1.0871  -12.2214   17.8851 C   0  0  0  0  0  0  0  0  0  0  0  0
   -2.2706   -8.9669   19.0691 C   0  0  0  0  0  0  0  0  0  0  0  0
    3.0279   -5.3073   26.8197 C   0  0  0  0  0  0  0  0  0  0  0  0
    7.3282   -3.8948   29.1186 C   0  0  0  0  0  0  0  0  0  0  0  0
  1  3  4  0
  1  7  4  0
  2  3  1  0
  2  6  4  0
  2 16  4  0
  3 22  4  0
  4  9  4  0
  4 10  1  0
  4 20  4  0
  5 16  4  0
  5 23  4  0
  6 15  4  0
  7 12  4  0
  8 13  4  0
  8 14  4  0
  9 11  4  0
 11 14  4  0
 11 19  4  0
 12 18  4  0
 13 21  4  0
 15 23  4  0
 17 19  4  0
 17 20  4  0
 18 22  4  0
 19 21  4  0
M  END
$$$$

 Created by Python create_sdf_string function

 23 25  0  0  0  0  0  0  0  0999 V2000
    2.4610   -5.3070   29.1240 C   0  0  0  0  0  0  0  0  0  0  0  0
    4.7710   -4.6952   28.4803 C   0  0  0  0  0  0  0  0  0  0  0  0
    3.4047   -5.1087   28.1314 C   0  0  0  0  0  0  0  0  0  0  0  0
   -0.2234  -11.8615   16.8874 C   0  0  0  0  0  0  0  0  0  0  0  0
    6.4491   -4.1532   30.1213 C   0  0  0  0  0  0  0  0  0  0  0  0
    5.7060   -4.4340   27.4975 C   0  0  0  0  0  0  0  0  0  0  0  0
    1.1818   -5.6612   28.8399 C   0  0  0  0  0  0  0  0  0  0  0  0
   -1.2067   -7.3287   17.7772 C   0  0  0  0  0  0  0  0  0  0  0  0
   -0.0206  -10.5585   16.6210 C   0  0  0  0  0  0  0  0  0  0  0  0
    0.3696  -12.7626   16.2169 O   0  0  0  0  0  0  0  0  0  0  0  0
   -0.6895   -9.5676   17.3297 C   0  0  0  0  0  0  0  0  0  0  0  0
    0.8388   -5.8417   27.5264 C   0  0  0  0  0  0  0  0  0  0  0  0
   -2.0709   -7.6637   18.7817 C   0  0  0  0  0  0  0  0  0  0  0  0
   -0.5279   -8.2168   17.0717 C   0  0  0  0  0  0  0  0  0  0  0  0
    6.9694   -4.0191   27.8190 C   0  0  0  0  0  0  0  0  0  0  0  0
    5.1733   -4.5469   29.8123 C   0  0  0  0  0  0  0  0  0  0  0  0
   -1.7508  -11.3016   18.6072 C   0  0  0  0  0  0  0  0  0  0  0  0
    1.7497   -5.6771   26.4971 C   0  0  0  0  0  0  0  0  0  0  0  0
   -1.5799   -9.9322   18.3468 C   0  0  0  0  0  0  0  0  0  0  0  0
   -1.0871  -12.2214   17.8851 C   0  0  0  0  0  0  0  0  0  0  0  0
   -2.2706   -8.9669   19.0691 C   0  0  0  0  0  0  0  0  0  0  0  0
    3.0279   -5.3073   26.8197 C   0  0  0  0  0  0  0  0  0  0  0  0
    7.3282   -3.8948   29.1186 C   0  0  0  0  0  0  0  0  0  0  0  0
  1  3  4  0
  1  7  4  0
  2  3  1  0
  2  6  4  0
  2 16  4  0
  3 22  4  0
  4  9  4  0
  4 10  1  0
  4 20  4  0
  5 16  4  0
  5 23  4  0
  6 15  4  0
  7 12  4  0
  8 13  4  0
  8 14  4  0
  9 11  4  0
 11 14  4  0
 11 19  4  0
 12 18  4  0
 13 21  4  0
 15 23  4  0
 17 19  4  0
 17 20  4  0
 18 22  4  0
 19 21  4  0
M  END
$$$$

 Created by Python create_sdf_string function

 23 25  0  0  0  0  0  0  0  0999 V2000
    2.4610   -5.3070   29.1240 C   0  0  0  0  0  0  0  0  0  0  0  0
    4.7710   -4.6952   28.4803 C   0  0  0  0  0  0  0  0  0  0  0  0
    3.4047   -5.1087   28.1314 C   0  0  0  0  0  0  0  0  0  0  0  0
   -0.2234  -11.8615   16.8874 C   0  0  0  0  0  0  0  0  0  0  0  0
    6.4491   -4.1532   30.1213 C   0  0  0  0  0  0  0  0  0  0  0  0
    5.7060   -4.4340   27.4975 C   0  0  0  0  0  0  0  0  0  0  0  0
    1.1818   -5.6612   28.8399 C   0  0  0  0  0  0  0  0  0  0  0  0
   -1.2067   -7.3287   17.7772 C   0  0  0  0  0  0  0  0  0  0  0  0
   -0.0206  -10.5585   16.6210 C   0  0  0  0  0  0  0  0  0  0  0  0
    0.3696  -12.7626   16.2169 O   0  0  0  0  0  0  0  0  0  0  0  0
   -0.6895   -9.5676   17.3297 C   0  0  0  0  0  0  0  0  0  0  0  0
    0.8388   -5.8417   27.5264 C   0  0  0  0  0  0  0  0  0  0  0  0
   -2.0709   -7.6637   18.7817 C   0  0  0  0  0  0  0  0  0  0  0  0
   -0.5279   -8.2168   17.0717 C   0  0  0  0  0  0  0  0  0  0  0  0
    6.9694   -4.0191   27.8190 C   0  0  0  0  0  0  0  0  0  0  0  0
    5.1733   -4.5469   29.8123 C   0  0  0  0  0  0  0  0  0  0  0  0
   -1.7508  -11.3016   18.6072 C   0  0  0  0  0  0  0  0  0  0  0  0
    1.7497   -5.6771   26.4971 C   0  0  0  0  0  0  0  0  0  0  0  0
   -1.5799   -9.9322   18.3468 C   0  0  0  0  0  0  0  0  0  0  0  0
   -1.0871  -12.2214   17.8851 C   0  0  0  0  0  0  0  0  0  0  0  0
   -2.2706   -8.9669   19.0691 C   0  0  0  0  0  0  0  0  0  0  0  0
    3.0279   -5.3073   26.8197 C   0  0  0  0  0  0  0  0  0  0  0  0
    7.3282   -3.8948   29.1186 C   0  0  0  0  0  0  0  0  0  0  0  0
  1  3  4  0
  1  7  4  0
  2  3  1  0
  2  6  4  0
  2 16  4  0
  3 22  4  0
  4  9  4  0
  4 10  1  0
  4 20  4  0
  5 16  4  0
  5 23  4  0
  6 15  4  0
  7 12  4  0
  8 13  4  0
  8 14  4  0
  9 11  4  0
 11 14  4  0
 11 19  4  0
 12 18  4  0
 13 21  4  0
 15 23  4  0
 17 19  4  0
 17 20  4  0
 18 22  4  0
 19 21  4  0
M  END
$$$$

 Created by Python create_sdf_string function

 23 25  0  0  0  0  0  0  0  0999 V2000
    2.4610   -5.3070   29.1240 C   0  0  0  0  0  0  0  0  0  0  0  0
    4.7710   -4.6952   28.4803 C   0  0  0  0  0  0  0  0  0  0  0  0
    3.4047   -5.1087   28.1314 C   0  0  0  0  0  0  0  0  0  0  0  0
   -0.2234  -11.8615   16.8874 C   0  0  0  0  0  0  0  0  0  0  0  0
    6.4491   -4.1532   30.1213 C   0  0  0  0  0  0  0  0  0  0  0  0
    5.7060   -4.4340   27.4975 C   0  0  0  0  0  0  0  0  0  0  0  0
    1.1818   -5.6612   28.8399 C   0  0  0  0  0  0  0  0  0  0  0  0
   -1.2067   -7.3287   17.7772 C   0  0  0  0  0  0  0  0  0  0  0  0
   -0.0206  -10.5585   16.6210 C   0  0  0  0  0  0  0  0  0  0  0  0
    0.3696  -12.7626   16.2169 O   0  0  0  0  0  0  0  0  0  0  0  0
   -0.6895   -9.5676   17.3297 C   0  0  0  0  0  0  0  0  0  0  0  0
    0.8388   -5.8417   27.5264 C   0  0  0  0  0  0  0  0  0  0  0  0
   -2.0709   -7.6637   18.7817 C   0  0  0  0  0  0  0  0  0  0  0  0
   -0.5279   -8.2168   17.0717 C   0  0  0  0  0  0  0  0  0  0  0  0
    6.9694   -4.0191   27.8190 C   0  0  0  0  0  0  0  0  0  0  0  0
    5.1733   -4.5469   29.8123 C   0  0  0  0  0  0  0  0  0  0  0  0
   -1.7508  -11.3016   18.6072 C   0  0  0  0  0  0  0  0  0  0  0  0
    1.7497   -5.6771   26.4971 C   0  0  0  0  0  0  0  0  0  0  0  0
   -1.5799   -9.9322   18.3468 C   0  0  0  0  0  0  0  0  0  0  0  0
   -1.0871  -12.2214   17.8851 C   0  0  0  0  0  0  0  0  0  0  0  0
   -2.2706   -8.9669   19.0691 C   0  0  0  0  0  0  0  0  0  0  0  0
    3.0279   -5.3073   26.8197 C   0  0  0  0  0  0  0  0  0  0  0  0
    7.3282   -3.8948   29.1186 C   0  0  0  0  0  0  0  0  0  0  0  0
  1  3  4  0
  1  7  4  0
  2  3  1  0
  2  6  4  0
  2 16  4  0
  3 22  4  0
  4  9  4  0
  4 10  1  0
  4 20  4  0
  5 16  4  0
  5 23  4  0
  6 15  4  0
  7 12  4  0
  8 13  4  0
  8 14  4  0
  9 11  4  0
 11 14  4  0
 11 19  4  0
 12 18  4  0
 13 21  4  0
 15 23  4  0
 17 19  4  0
 17 20  4  0
 18 22  4  0
 19 21  4  0
M  END
$$$$

 Created by Python create_sdf_string function

 23 25  0  0  0  0  0  0  0  0999 V2000
    2.4610   -5.3070   29.1240 C   0  0  0  0  0  0  0  0  0  0  0  0
    4.7710   -4.6952   28.4803 C   0  0  0  0  0  0  0  0  0  0  0  0
    3.4047   -5.1087   28.1314 C   0  0  0  0  0  0  0  0  0  0  0  0
   -0.2234  -11.8615   16.8874 C   0  0  0  0  0  0  0  0  0  0  0  0
    6.4491   -4.1532   30.1213 C   0  0  0  0  0  0  0  0  0  0  0  0
    5.7060   -4.4340   27.4975 C   0  0  0  0  0  0  0  0  0  0  0  0
    1.1818   -5.6612   28.8399 C   0  0  0  0  0  0  0  0  0  0  0  0
   -1.2067   -7.3287   17.7772 C   0  0  0  0  0  0  0  0  0  0  0  0
   -0.0206  -10.5585   16.6210 C   0  0  0  0  0  0  0  0  0  0  0  0
    0.3696  -12.7626   16.2169 O   0  0  0  0  0  0  0  0  0  0  0  0
   -0.6895   -9.5676   17.3297 C   0  0  0  0  0  0  0  0  0  0  0  0
    0.8388   -5.8417   27.5264 C   0  0  0  0  0  0  0  0  0  0  0  0
   -2.0709   -7.6637   18.7817 C   0  0  0  0  0  0  0  0  0  0  0  0
   -0.5279   -8.2168   17.0717 C   0  0  0  0  0  0  0  0  0  0  0  0
    6.9694   -4.0191   27.8190 C   0  0  0  0  0  0  0  0  0  0  0  0
    5.1733   -4.5469   29.8123 C   0  0  0  0  0  0  0  0  0  0  0  0
   -1.7508  -11.3016   18.6072 C   0  0  0  0  0  0  0  0  0  0  0  0
    1.7497   -5.6771   26.4971 C   0  0  0  0  0  0  0  0  0  0  0  0
   -1.5799   -9.9322   18.3468 C   0  0  0  0  0  0  0  0  0  0  0  0
   -1.0871  -12.2214   17.8851 C   0  0  0  0  0  0  0  0  0  0  0  0
   -2.2706   -8.9669   19.0691 C   0  0  0  0  0  0  0  0  0  0  0  0
    3.0279   -5.3073   26.8197 C   0  0  0  0  0  0  0  0  0  0  0  0
    7.3282   -3.8948   29.1186 C   0  0  0  0  0  0  0  0  0  0  0  0
  1  3  4  0
  1  7  4  0
  2  3  1  0
  2  6  4  0
  2 16  4  0
  3 22  4  0
  4  9  4  0
  4 10  1  0
  4 20  4  0
  5 16  4  0
  5 23  4  0
  6 15  4  0
  7 12  4  0
  8 13  4  0
  8 14  4  0
  9 11  4  0
 11 14  4  0
 11 19  4  0
 12 18  4  0
 13 21  4  0
 15 23  4  0
 17 19  4  0
 17 20  4  0
 18 22  4  0
 19 21  4  0
M  END
$$$$

 Created by Python create_sdf_string function

 23 25  0  0  0  0  0  0  0  0999 V2000
    2.4610   -5.3070   29.1240 C   0  0  0  0  0  0  0  0  0  0  0  0
    4.7710   -4.6952   28.4803 C   0  0  0  0  0  0  0  0  0  0  0  0
    3.4047   -5.1087   28.1314 C   0  0  0  0  0  0  0  0  0  0  0  0
   -0.2234  -11.8615   16.8874 C   0  0  0  0  0  0  0  0  0  0  0  0
    6.4491   -4.1532   30.1213 C   0  0  0  0  0  0  0  0  0  0  0  0
    5.7060   -4.4340   27.4975 C   0  0  0  0  0  0  0  0  0  0  0  0
    1.1818   -5.6612   28.8399 C   0  0  0  0  0  0  0  0  0  0  0  0
   -1.2067   -7.3287   17.7772 C   0  0  0  0  0  0  0  0  0  0  0  0
   -0.0206  -10.5585   16.6210 C   0  0  0  0  0  0  0  0  0  0  0  0
    0.3696  -12.7626   16.2169 O   0  0  0  0  0  0  0  0  0  0  0  0
   -0.6895   -9.5676   17.3297 C   0  0  0  0  0  0  0  0  0  0  0  0
    0.8388   -5.8417   27.5264 C   0  0  0  0  0  0  0  0  0  0  0  0
   -2.0709   -7.6637   18.7817 C   0  0  0  0  0  0  0  0  0  0  0  0
   -0.5279   -8.2168   17.0717 C   0  0  0  0  0  0  0  0  0  0  0  0
    6.9694   -4.0191   27.8190 C   0  0  0  0  0  0  0  0  0  0  0  0
    5.1733   -4.5469   29.8123 C   0  0  0  0  0  0  0  0  0  0  0  0
   -1.7508  -11.3016   18.6072 C   0  0  0  0  0  0  0  0  0  0  0  0
    1.7497   -5.6771   26.4971 C   0  0  0  0  0  0  0  0  0  0  0  0
   -1.5799   -9.9322   18.3468 C   0  0  0  0  0  0  0  0  0  0  0  0
   -1.0871  -12.2214   17.8851 C   0  0  0  0  0  0  0  0  0  0  0  0
   -2.2706   -8.9669   19.0691 C   0  0  0  0  0  0  0  0  0  0  0  0
    3.0279   -5.3073   26.8197 C   0  0  0  0  0  0  0  0  0  0  0  0
    7.3282   -3.8948   29.1186 C   0  0  0  0  0  0  0  0  0  0  0  0
  1  3  4  0
  1  7  4  0
  2  3  1  0
  2  6  4  0
  2 16  4  0
  3 22  4  0
  4  9  4  0
  4 10  1  0
  4 20  4  0
  5 16  4  0
  5 23  4  0
  6 15  4  0
  7 12  4  0
  8 13  4  0
  8 14  4  0
  9 11  4  0
 11 14  4  0
 11 19  4  0
 12 18  4  0
 13 21  4  0
 15 23  4  0
 17 19  4  0
 17 20  4  0
 18 22  4  0
 19 21  4  0
M  END
$$$$

 Created by Python create_sdf_string function

 23 25  0  0  0  0  0  0  0  0999 V2000
    2.4610   -5.3070   29.1240 C   0  0  0  0  0  0  0  0  0  0  0  0
    4.7710   -4.6952   28.4803 C   0  0  0  0  0  0  0  0  0  0  0  0
    3.4047   -5.1087   28.1314 C   0  0  0  0  0  0  0  0  0  0  0  0
   -0.2234  -11.8615   16.8874 C   0  0  0  0  0  0  0  0  0  0  0  0
    6.4491   -4.1532   30.1213 C   0  0  0  0  0  0  0  0  0  0  0  0
    5.7060   -4.4340   27.4975 C   0  0  0  0  0  0  0  0  0  0  0  0
    1.1818   -5.6612   28.8399 C   0  0  0  0  0  0  0  0  0  0  0  0
   -1.2067   -7.3287   17.7772 C   0  0  0  0  0  0  0  0  0  0  0  0
   -0.0206  -10.5585   16.6210 C   0  0  0  0  0  0  0  0  0  0  0  0
    0.3696  -12.7626   16.2169 O   0  0  0  0  0  0  0  0  0  0  0  0
   -0.6895   -9.5676   17.3297 C   0  0  0  0  0  0  0  0  0  0  0  0
    0.8388   -5.8417   27.5264 C   0  0  0  0  0  0  0  0  0  0  0  0
   -2.0709   -7.6637   18.7817 C   0  0  0  0  0  0  0  0  0  0  0  0
   -0.5279   -8.2168   17.0717 C   0  0  0  0  0  0  0  0  0  0  0  0
    6.9694   -4.0191   27.8190 C   0  0  0  0  0  0  0  0  0  0  0  0
    5.1733   -4.5469   29.8123 C   0  0  0  0  0  0  0  0  0  0  0  0
   -1.7508  -11.3016   18.6072 C   0  0  0  0  0  0  0  0  0  0  0  0
    1.7497   -5.6771   26.4971 C   0  0  0  0  0  0  0  0  0  0  0  0
   -1.5799   -9.9322   18.3468 C   0  0  0  0  0  0  0  0  0  0  0  0
   -1.0871  -12.2214   17.8851 C   0  0  0  0  0  0  0  0  0  0  0  0
   -2.2706   -8.9669   19.0691 C   0  0  0  0  0  0  0  0  0  0  0  0
    3.0279   -5.3073   26.8197 C   0  0  0  0  0  0  0  0  0  0  0  0
    7.3282   -3.8948   29.1186 C   0  0  0  0  0  0  0  0  0  0  0  0
  1  3  4  0
  1  7  4  0
  2  3  1  0
  2  6  4  0
  2 16  4  0
  3 22  4  0
  4  9  4  0
  4 10  1  0
  4 20  4  0
  5 16  4  0
  5 23  4  0
  6 15  4  0
  7 12  4  0
  8 13  4  0
  8 14  4  0
  9 11  4  0
 11 14  4  0
 11 19  4  0
 12 18  4  0
 13 21  4  0
 15 23  4  0
 17 19  4  0
 17 20  4  0
 18 22  4  0
 19 21  4  0
M  END
$$$$

 Created by Python create_sdf_string function

 23 25  0  0  0  0  0  0  0  0999 V2000
    2.4610   -5.3070   29.1240 C   0  0  0  0  0  0  0  0  0  0  0  0
    4.7710   -4.6952   28.4803 C   0  0  0  0  0  0  0  0  0  0  0  0
    3.4047   -5.1087   28.1314 C   0  0  0  0  0  0  0  0  0  0  0  0
   -0.2234  -11.8615   16.8874 C   0  0  0  0  0  0  0  0  0  0  0  0
    6.4491   -4.1532   30.1213 C   0  0  0  0  0  0  0  0  0  0  0  0
    5.7060   -4.4340   27.4975 C   0  0  0  0  0  0  0  0  0  0  0  0
    1.1818   -5.6612   28.8399 C   0  0  0  0  0  0  0  0  0  0  0  0
   -1.2067   -7.3287   17.7772 C   0  0  0  0  0  0  0  0  0  0  0  0
   -0.0206  -10.5585   16.6210 C   0  0  0  0  0  0  0  0  0  0  0  0
    0.3696  -12.7626   16.2169 O   0  0  0  0  0  0  0  0  0  0  0  0
   -0.6895   -9.5676   17.3297 C   0  0  0  0  0  0  0  0  0  0  0  0
    0.8388   -5.8417   27.5264 C   0  0  0  0  0  0  0  0  0  0  0  0
   -2.0709   -7.6637   18.7817 C   0  0  0  0  0  0  0  0  0  0  0  0
   -0.5279   -8.2168   17.0717 C   0  0  0  0  0  0  0  0  0  0  0  0
    6.9694   -4.0191   27.8190 C   0  0  0  0  0  0  0  0  0  0  0  0
    5.1733   -4.5469   29.8123 C   0  0  0  0  0  0  0  0  0  0  0  0
   -1.7508  -11.3016   18.6072 C   0  0  0  0  0  0  0  0  0  0  0  0
    1.7497   -5.6771   26.4971 C   0  0  0  0  0  0  0  0  0  0  0  0
   -1.5799   -9.9322   18.3468 C   0  0  0  0  0  0  0  0  0  0  0  0
   -1.0871  -12.2214   17.8851 C   0  0  0  0  0  0  0  0  0  0  0  0
   -2.2706   -8.9669   19.0691 C   0  0  0  0  0  0  0  0  0  0  0  0
    3.0279   -5.3073   26.8197 C   0  0  0  0  0  0  0  0  0  0  0  0
    7.3282   -3.8948   29.1186 C   0  0  0  0  0  0  0  0  0  0  0  0
  1  3  4  0
  1  7  4  0
  2  3  1  0
  2  6  4  0
  2 16  4  0
  3 22  4  0
  4  9  4  0
  4 10  1  0
  4 20  4  0
  5 16  4  0
  5 23  4  0
  6 15  4  0
  7 12  4  0
  8 13  4  0
  8 14  4  0
  9 11  4  0
 11 14  4  0
 11 19  4  0
 12 18  4  0
 13 21  4  0
 15 23  4  0
 17 19  4  0
 17 20  4  0
 18 22  4  0
 19 21  4  0
M  END
$$$$

 Created by Python create_sdf_string function

 23 25  0  0  0  0  0  0  0  0999 V2000
    2.4610   -5.3070   29.1240 C   0  0  0  0  0  0  0  0  0  0  0  0
    4.7710   -4.6952   28.4803 C   0  0  0  0  0  0  0  0  0  0  0  0
    3.4047   -5.1087   28.1314 C   0  0  0  0  0  0  0  0  0  0  0  0
   -0.2234  -11.8615   16.8874 C   0  0  0  0  0  0  0  0  0  0  0  0
    6.4491   -4.1532   30.1213 C   0  0  0  0  0  0  0  0  0  0  0  0
    5.7060   -4.4340   27.4975 C   0  0  0  0  0  0  0  0  0  0  0  0
    1.1818   -5.6612   28.8399 C   0  0  0  0  0  0  0  0  0  0  0  0
   -1.2067   -7.3287   17.7772 C   0  0  0  0  0  0  0  0  0  0  0  0
   -0.0206  -10.5585   16.6210 C   0  0  0  0  0  0  0  0  0  0  0  0
    0.3696  -12.7626   16.2169 O   0  0  0  0  0  0  0  0  0  0  0  0
   -0.6895   -9.5676   17.3297 C   0  0  0  0  0  0  0  0  0  0  0  0
    0.8388   -5.8417   27.5264 C   0  0  0  0  0  0  0  0  0  0  0  0
   -2.0709   -7.6637   18.7817 C   0  0  0  0  0  0  0  0  0  0  0  0
   -0.5279   -8.2168   17.0717 C   0  0  0  0  0  0  0  0  0  0  0  0
    6.9694   -4.0191   27.8190 C   0  0  0  0  0  0  0  0  0  0  0  0
    5.1733   -4.5469   29.8123 C   0  0  0  0  0  0  0  0  0  0  0  0
   -1.7508  -11.3016   18.6072 C   0  0  0  0  0  0  0  0  0  0  0  0
    1.7497   -5.6771   26.4971 C   0  0  0  0  0  0  0  0  0  0  0  0
   -1.5799   -9.9322   18.3468 C   0  0  0  0  0  0  0  0  0  0  0  0
   -1.0871  -12.2214   17.8851 C   0  0  0  0  0  0  0  0  0  0  0  0
   -2.2706   -8.9669   19.0691 C   0  0  0  0  0  0  0  0  0  0  0  0
    3.0279   -5.3073   26.8197 C   0  0  0  0  0  0  0  0  0  0  0  0
    7.3282   -3.8948   29.1186 C   0  0  0  0  0  0  0  0  0  0  0  0
  1  3  4  0
  1  7  4  0
  2  3  1  0
  2  6  4  0
  2 16  4  0
  3 22  4  0
  4  9  4  0
  4 10  1  0
  4 20  4  0
  5 16  4  0
  5 23  4  0
  6 15  4  0
  7 12  4  0
  8 13  4  0
  8 14  4  0
  9 11  4  0
 11 14  4  0
 11 19  4  0
 12 18  4  0
 13 21  4  0
 15 23  4  0
 17 19  4  0
 17 20  4  0
 18 22  4  0
 19 21  4  0
M  END
$$$$

 Created by Python create_sdf_string function

 23 25  0  0  0  0  0  0  0  0999 V2000
    2.4610   -5.3070   29.1240 C   0  0  0  0  0  0  0  0  0  0  0  0
    4.7710   -4.6952   28.4803 C   0  0  0  0  0  0  0  0  0  0  0  0
    3.4047   -5.1087   28.1314 C   0  0  0  0  0  0  0  0  0  0  0  0
   -0.2234  -11.8615   16.8874 C   0  0  0  0  0  0  0  0  0  0  0  0
    6.4491   -4.1532   30.1213 C   0  0  0  0  0  0  0  0  0  0  0  0
    5.7060   -4.4340   27.4975 C   0  0  0  0  0  0  0  0  0  0  0  0
    1.1818   -5.6612   28.8399 C   0  0  0  0  0  0  0  0  0  0  0  0
   -1.2067   -7.3287   17.7772 C   0  0  0  0  0  0  0  0  0  0  0  0
   -0.0206  -10.5585   16.6210 C   0  0  0  0  0  0  0  0  0  0  0  0
    0.3696  -12.7626   16.2169 O   0  0  0  0  0  0  0  0  0  0  0  0
   -0.6895   -9.5676   17.3297 C   0  0  0  0  0  0  0  0  0  0  0  0
    0.8388   -5.8417   27.5264 C   0  0  0  0  0  0  0  0  0  0  0  0
   -2.0709   -7.6637   18.7817 C   0  0  0  0  0  0  0  0  0  0  0  0
   -0.5279   -8.2168   17.0717 C   0  0  0  0  0  0  0  0  0  0  0  0
    6.9694   -4.0191   27.8190 C   0  0  0  0  0  0  0  0  0  0  0  0
    5.1733   -4.5469   29.8123 C   0  0  0  0  0  0  0  0  0  0  0  0
   -1.7508  -11.3016   18.6072 C   0  0  0  0  0  0  0  0  0  0  0  0
    1.7497   -5.6771   26.4971 C   0  0  0  0  0  0  0  0  0  0  0  0
   -1.5799   -9.9322   18.3468 C   0  0  0  0  0  0  0  0  0  0  0  0
   -1.0871  -12.2214   17.8851 C   0  0  0  0  0  0  0  0  0  0  0  0
   -2.2706   -8.9669   19.0691 C   0  0  0  0  0  0  0  0  0  0  0  0
    3.0279   -5.3073   26.8197 C   0  0  0  0  0  0  0  0  0  0  0  0
    7.3282   -3.8948   29.1186 C   0  0  0  0  0  0  0  0  0  0  0  0
  1  3  4  0
  1  7  4  0
  2  3  1  0
  2  6  4  0
  2 16  4  0
  3 22  4  0
  4  9  4  0
  4 10  1  0
  4 20  4  0
  5 16  4  0
  5 23  4  0
  6 15  4  0
  7 12  4  0
  8 13  4  0
  8 14  4  0
  9 11  4  0
 11 14  4  0
 11 19  4  0
 12 18  4  0
 13 21  4  0
 15 23  4  0
 17 19  4  0
 17 20  4  0
 18 22  4  0
 19 21  4  0
M  END
$$$$

 Created by Python create_sdf_string function

 23 25  0  0  0  0  0  0  0  0999 V2000
    2.4610   -5.3070   29.1240 C   0  0  0  0  0  0  0  0  0  0  0  0
    4.7710   -4.6952   28.4803 C   0  0  0  0  0  0  0  0  0  0  0  0
    3.4047   -5.1087   28.1314 C   0  0  0  0  0  0  0  0  0  0  0  0
   -0.2234  -11.8615   16.8874 C   0  0  0  0  0  0  0  0  0  0  0  0
    6.4491   -4.1532   30.1213 C   0  0  0  0  0  0  0  0  0  0  0  0
    5.7060   -4.4340   27.4975 C   0  0  0  0  0  0  0  0  0  0  0  0
    1.1818   -5.6612   28.8399 C   0  0  0  0  0  0  0  0  0  0  0  0
   -1.2067   -7.3287   17.7772 C   0  0  0  0  0  0  0  0  0  0  0  0
   -0.0206  -10.5585   16.6210 C   0  0  0  0  0  0  0  0  0  0  0  0
    0.3696  -12.7626   16.2169 O   0  0  0  0  0  0  0  0  0  0  0  0
   -0.6895   -9.5676   17.3297 C   0  0  0  0  0  0  0  0  0  0  0  0
    0.8388   -5.8417   27.5264 C   0  0  0  0  0  0  0  0  0  0  0  0
   -2.0709   -7.6637   18.7817 C   0  0  0  0  0  0  0  0  0  0  0  0
   -0.5279   -8.2168   17.0717 C   0  0  0  0  0  0  0  0  0  0  0  0
    6.9694   -4.0191   27.8190 C   0  0  0  0  0  0  0  0  0  0  0  0
    5.1733   -4.5469   29.8123 C   0  0  0  0  0  0  0  0  0  0  0  0
   -1.7508  -11.3016   18.6072 C   0  0  0  0  0  0  0  0  0  0  0  0
    1.7497   -5.6771   26.4971 C   0  0  0  0  0  0  0  0  0  0  0  0
   -1.5799   -9.9322   18.3468 C   0  0  0  0  0  0  0  0  0  0  0  0
   -1.0871  -12.2214   17.8851 C   0  0  0  0  0  0  0  0  0  0  0  0
   -2.2706   -8.9669   19.0691 C   0  0  0  0  0  0  0  0  0  0  0  0
    3.0279   -5.3073   26.8197 C   0  0  0  0  0  0  0  0  0  0  0  0
    7.3282   -3.8948   29.1186 C   0  0  0  0  0  0  0  0  0  0  0  0
  1  3  4  0
  1  7  4  0
  2  3  1  0
  2  6  4  0
  2 16  4  0
  3 22  4  0
  4  9  4  0
  4 10  1  0
  4 20  4  0
  5 16  4  0
  5 23  4  0
  6 15  4  0
  7 12  4  0
  8 13  4  0
  8 14  4  0
  9 11  4  0
 11 14  4  0
 11 19  4  0
 12 18  4  0
 13 21  4  0
 15 23  4  0
 17 19  4  0
 17 20  4  0
 18 22  4  0
 19 21  4  0
M  END
$$$$

 Created by Python create_sdf_string function

 23 25  0  0  0  0  0  0  0  0999 V2000
    2.4610   -5.3070   29.1240 C   0  0  0  0  0  0  0  0  0  0  0  0
    4.7710   -4.6952   28.4803 C   0  0  0  0  0  0  0  0  0  0  0  0
    3.4047   -5.1087   28.1314 C   0  0  0  0  0  0  0  0  0  0  0  0
   -0.2234  -11.8615   16.8874 C   0  0  0  0  0  0  0  0  0  0  0  0
    6.4491   -4.1532   30.1213 C   0  0  0  0  0  0  0  0  0  0  0  0
    5.7060   -4.4340   27.4975 C   0  0  0  0  0  0  0  0  0  0  0  0
    1.1818   -5.6612   28.8399 C   0  0  0  0  0  0  0  0  0  0  0  0
   -1.2067   -7.3287   17.7772 C   0  0  0  0  0  0  0  0  0  0  0  0
   -0.0206  -10.5585   16.6210 C   0  0  0  0  0  0  0  0  0  0  0  0
    0.3696  -12.7626   16.2169 O   0  0  0  0  0  0  0  0  0  0  0  0
   -0.6895   -9.5676   17.3297 C   0  0  0  0  0  0  0  0  0  0  0  0
    0.8388   -5.8417   27.5264 C   0  0  0  0  0  0  0  0  0  0  0  0
   -2.0709   -7.6637   18.7817 C   0  0  0  0  0  0  0  0  0  0  0  0
   -0.5279   -8.2168   17.0717 C   0  0  0  0  0  0  0  0  0  0  0  0
    6.9694   -4.0191   27.8190 C   0  0  0  0  0  0  0  0  0  0  0  0
    5.1733   -4.5469   29.8123 C   0  0  0  0  0  0  0  0  0  0  0  0
   -1.7508  -11.3016   18.6072 C   0  0  0  0  0  0  0  0  0  0  0  0
    1.7497   -5.6771   26.4971 C   0  0  0  0  0  0  0  0  0  0  0  0
   -1.5799   -9.9322   18.3468 C   0  0  0  0  0  0  0  0  0  0  0  0
   -1.0871  -12.2214   17.8851 C   0  0  0  0  0  0  0  0  0  0  0  0
   -2.2706   -8.9669   19.0691 C   0  0  0  0  0  0  0  0  0  0  0  0
    3.0279   -5.3073   26.8197 C   0  0  0  0  0  0  0  0  0  0  0  0
    7.3282   -3.8948   29.1186 C   0  0  0  0  0  0  0  0  0  0  0  0
  1  3  4  0
  1  7  4  0
  2  3  1  0
  2  6  4  0
  2 16  4  0
  3 22  4  0
  4  9  4  0
  4 10  1  0
  4 20  4  0
  5 16  4  0
  5 23  4  0
  6 15  4  0
  7 12  4  0
  8 13  4  0
  8 14  4  0
  9 11  4  0
 11 14  4  0
 11 19  4  0
 12 18  4  0
 13 21  4  0
 15 23  4  0
 17 19  4  0
 17 20  4  0
 18 22  4  0
 19 21  4  0
M  END
$$$$

 Created by Python create_sdf_string function

 23 25  0  0  0  0  0  0  0  0999 V2000
    2.4610   -5.3070   29.1240 C   0  0  0  0  0  0  0  0  0  0  0  0
    4.7710   -4.6952   28.4803 C   0  0  0  0  0  0  0  0  0  0  0  0
    3.4047   -5.1087   28.1314 C   0  0  0  0  0  0  0  0  0  0  0  0
   -0.2234  -11.8615   16.8874 C   0  0  0  0  0  0  0  0  0  0  0  0
    6.4491   -4.1532   30.1213 C   0  0  0  0  0  0  0  0  0  0  0  0
    5.7060   -4.4340   27.4975 C   0  0  0  0  0  0  0  0  0  0  0  0
    1.1818   -5.6612   28.8399 C   0  0  0  0  0  0  0  0  0  0  0  0
   -1.2067   -7.3287   17.7772 C   0  0  0  0  0  0  0  0  0  0  0  0
   -0.0206  -10.5585   16.6210 C   0  0  0  0  0  0  0  0  0  0  0  0
    0.3696  -12.7626   16.2169 O   0  0  0  0  0  0  0  0  0  0  0  0
   -0.6895   -9.5676   17.3297 C   0  0  0  0  0  0  0  0  0  0  0  0
    0.8388   -5.8417   27.5264 C   0  0  0  0  0  0  0  0  0  0  0  0
   -2.0709   -7.6637   18.7817 C   0  0  0  0  0  0  0  0  0  0  0  0
   -0.5279   -8.2168   17.0717 C   0  0  0  0  0  0  0  0  0  0  0  0
    6.9694   -4.0191   27.8190 C   0  0  0  0  0  0  0  0  0  0  0  0
    5.1733   -4.5469   29.8123 C   0  0  0  0  0  0  0  0  0  0  0  0
   -1.7508  -11.3016   18.6072 C   0  0  0  0  0  0  0  0  0  0  0  0
    1.7497   -5.6771   26.4971 C   0  0  0  0  0  0  0  0  0  0  0  0
   -1.5799   -9.9322   18.3468 C   0  0  0  0  0  0  0  0  0  0  0  0
   -1.0871  -12.2214   17.8851 C   0  0  0  0  0  0  0  0  0  0  0  0
   -2.2706   -8.9669   19.0691 C   0  0  0  0  0  0  0  0  0  0  0  0
    3.0279   -5.3073   26.8197 C   0  0  0  0  0  0  0  0  0  0  0  0
    7.3282   -3.8948   29.1186 C   0  0  0  0  0  0  0  0  0  0  0  0
  1  3  4  0
  1  7  4  0
  2  3  1  0
  2  6  4  0
  2 16  4  0
  3 22  4  0
  4  9  4  0
  4 10  1  0
  4 20  4  0
  5 16  4  0
  5 23  4  0
  6 15  4  0
  7 12  4  0
  8 13  4  0
  8 14  4  0
  9 11  4  0
 11 14  4  0
 11 19  4  0
 12 18  4  0
 13 21  4  0
 15 23  4  0
 17 19  4  0
 17 20  4  0
 18 22  4  0
 19 21  4  0
M  END
$$$$

 Created by Python create_sdf_string function

 23 25  0  0  0  0  0  0  0  0999 V2000
    2.4610   -5.3070   29.1240 C   0  0  0  0  0  0  0  0  0  0  0  0
    4.7710   -4.6952   28.4803 C   0  0  0  0  0  0  0  0  0  0  0  0
    3.4047   -5.1087   28.1314 C   0  0  0  0  0  0  0  0  0  0  0  0
   -0.2234  -11.8615   16.8874 C   0  0  0  0  0  0  0  0  0  0  0  0
    6.4491   -4.1532   30.1213 C   0  0  0  0  0  0  0  0  0  0  0  0
    5.7060   -4.4340   27.4975 C   0  0  0  0  0  0  0  0  0  0  0  0
    1.1818   -5.6612   28.8399 C   0  0  0  0  0  0  0  0  0  0  0  0
   -1.2067   -7.3287   17.7772 C   0  0  0  0  0  0  0  0  0  0  0  0
   -0.0206  -10.5585   16.6210 C   0  0  0  0  0  0  0  0  0  0  0  0
    0.3696  -12.7626   16.2169 O   0  0  0  0  0  0  0  0  0  0  0  0
   -0.6895   -9.5676   17.3297 C   0  0  0  0  0  0  0  0  0  0  0  0
    0.8388   -5.8417   27.5264 C   0  0  0  0  0  0  0  0  0  0  0  0
   -2.0709   -7.6637   18.7817 C   0  0  0  0  0  0  0  0  0  0  0  0
   -0.5279   -8.2168   17.0717 C   0  0  0  0  0  0  0  0  0  0  0  0
    6.9694   -4.0191   27.8190 C   0  0  0  0  0  0  0  0  0  0  0  0
    5.1733   -4.5469   29.8123 C   0  0  0  0  0  0  0  0  0  0  0  0
   -1.7508  -11.3016   18.6072 C   0  0  0  0  0  0  0  0  0  0  0  0
    1.7497   -5.6771   26.4971 C   0  0  0  0  0  0  0  0  0  0  0  0
   -1.5799   -9.9322   18.3468 C   0  0  0  0  0  0  0  0  0  0  0  0
   -1.0871  -12.2214   17.8851 C   0  0  0  0  0  0  0  0  0  0  0  0
   -2.2706   -8.9669   19.0691 C   0  0  0  0  0  0  0  0  0  0  0  0
    3.0279   -5.3073   26.8197 C   0  0  0  0  0  0  0  0  0  0  0  0
    7.3282   -3.8948   29.1186 C   0  0  0  0  0  0  0  0  0  0  0  0
  1  3  4  0
  1  7  4  0
  2  3  1  0
  2  6  4  0
  2 16  4  0
  3 22  4  0
  4  9  4  0
  4 10  1  0
  4 20  4  0
  5 16  4  0
  5 23  4  0
  6 15  4  0
  7 12  4  0
  8 13  4  0
  8 14  4  0
  9 11  4  0
 11 14  4  0
 11 19  4  0
 12 18  4  0
 13 21  4  0
 15 23  4  0
 17 19  4  0
 17 20  4  0
 18 22  4  0
 19 21  4  0
M  END
$$$$

 Created by Python create_sdf_string function

 23 25  0  0  0  0  0  0  0  0999 V2000
    2.4610   -5.3070   29.1240 C   0  0  0  0  0  0  0  0  0  0  0  0
    4.7710   -4.6952   28.4803 C   0  0  0  0  0  0  0  0  0  0  0  0
    3.4047   -5.1087   28.1314 C   0  0  0  0  0  0  0  0  0  0  0  0
   -0.2234  -11.8615   16.8874 C   0  0  0  0  0  0  0  0  0  0  0  0
    6.4491   -4.1532   30.1213 C   0  0  0  0  0  0  0  0  0  0  0  0
    5.7060   -4.4340   27.4975 C   0  0  0  0  0  0  0  0  0  0  0  0
    1.1818   -5.6612   28.8399 C   0  0  0  0  0  0  0  0  0  0  0  0
   -1.2067   -7.3287   17.7772 C   0  0  0  0  0  0  0  0  0  0  0  0
   -0.0206  -10.5585   16.6210 C   0  0  0  0  0  0  0  0  0  0  0  0
    0.3696  -12.7626   16.2169 O   0  0  0  0  0  0  0  0  0  0  0  0
   -0.6895   -9.5676   17.3297 C   0  0  0  0  0  0  0  0  0  0  0  0
    0.8388   -5.8417   27.5264 C   0  0  0  0  0  0  0  0  0  0  0  0
   -2.0709   -7.6637   18.7817 C   0  0  0  0  0  0  0  0  0  0  0  0
   -0.5279   -8.2168   17.0717 C   0  0  0  0  0  0  0  0  0  0  0  0
    6.9694   -4.0191   27.8190 C   0  0  0  0  0  0  0  0  0  0  0  0
    5.1733   -4.5469   29.8123 C   0  0  0  0  0  0  0  0  0  0  0  0
   -1.7508  -11.3016   18.6072 C   0  0  0  0  0  0  0  0  0  0  0  0
    1.7497   -5.6771   26.4971 C   0  0  0  0  0  0  0  0  0  0  0  0
   -1.5799   -9.9322   18.3468 C   0  0  0  0  0  0  0  0  0  0  0  0
   -1.0871  -12.2214   17.8851 C   0  0  0  0  0  0  0  0  0  0  0  0
   -2.2706   -8.9669   19.0691 C   0  0  0  0  0  0  0  0  0  0  0  0
    3.0279   -5.3073   26.8197 C   0  0  0  0  0  0  0  0  0  0  0  0
    7.3282   -3.8948   29.1186 C   0  0  0  0  0  0  0  0  0  0  0  0
  1  3  4  0
  1  7  4  0
  2  3  1  0
  2  6  4  0
  2 16  4  0
  3 22  4  0
  4  9  4  0
  4 10  1  0
  4 20  4  0
  5 16  4  0
  5 23  4  0
  6 15  4  0
  7 12  4  0
  8 13  4  0
  8 14  4  0
  9 11  4  0
 11 14  4  0
 11 19  4  0
 12 18  4  0
 13 21  4  0
 15 23  4  0
 17 19  4  0
 17 20  4  0
 18 22  4  0
 19 21  4  0
M  END
$$$$

 Created by Python create_sdf_string function

 23 25  0  0  0  0  0  0  0  0999 V2000
    2.4610   -5.3070   29.1240 C   0  0  0  0  0  0  0  0  0  0  0  0
    4.7710   -4.6952   28.4803 C   0  0  0  0  0  0  0  0  0  0  0  0
    3.4047   -5.1087   28.1314 C   0  0  0  0  0  0  0  0  0  0  0  0
   -0.2234  -11.8615   16.8874 C   0  0  0  0  0  0  0  0  0  0  0  0
    6.4491   -4.1532   30.1213 C   0  0  0  0  0  0  0  0  0  0  0  0
    5.7060   -4.4340   27.4975 C   0  0  0  0  0  0  0  0  0  0  0  0
    1.1818   -5.6612   28.8399 C   0  0  0  0  0  0  0  0  0  0  0  0
   -1.2067   -7.3287   17.7772 C   0  0  0  0  0  0  0  0  0  0  0  0
   -0.0206  -10.5585   16.6210 C   0  0  0  0  0  0  0  0  0  0  0  0
    0.3696  -12.7626   16.2169 O   0  0  0  0  0  0  0  0  0  0  0  0
   -0.6895   -9.5676   17.3297 C   0  0  0  0  0  0  0  0  0  0  0  0
    0.8388   -5.8417   27.5264 C   0  0  0  0  0  0  0  0  0  0  0  0
   -2.0709   -7.6637   18.7817 C   0  0  0  0  0  0  0  0  0  0  0  0
   -0.5279   -8.2168   17.0717 C   0  0  0  0  0  0  0  0  0  0  0  0
    6.9694   -4.0191   27.8190 C   0  0  0  0  0  0  0  0  0  0  0  0
    5.1733   -4.5469   29.8123 C   0  0  0  0  0  0  0  0  0  0  0  0
   -1.7508  -11.3016   18.6072 C   0  0  0  0  0  0  0  0  0  0  0  0
    1.7497   -5.6771   26.4971 C   0  0  0  0  0  0  0  0  0  0  0  0
   -1.5799   -9.9322   18.3468 C   0  0  0  0  0  0  0  0  0  0  0  0
   -1.0871  -12.2214   17.8851 C   0  0  0  0  0  0  0  0  0  0  0  0
   -2.2706   -8.9669   19.0691 C   0  0  0  0  0  0  0  0  0  0  0  0
    3.0279   -5.3073   26.8197 C   0  0  0  0  0  0  0  0  0  0  0  0
    7.3282   -3.8948   29.1186 C   0  0  0  0  0  0  0  0  0  0  0  0
  1  3  4  0
  1  7  4  0
  2  3  1  0
  2  6  4  0
  2 16  4  0
  3 22  4  0
  4  9  4  0
  4 10  1  0
  4 20  4  0
  5 16  4  0
  5 23  4  0
  6 15  4  0
  7 12  4  0
  8 13  4  0
  8 14  4  0
  9 11  4  0
 11 14  4  0
 11 19  4  0
 12 18  4  0
 13 21  4  0
 15 23  4  0
 17 19  4  0
 17 20  4  0
 18 22  4  0
 19 21  4  0
M  END
$$$$

 Created by Python create_sdf_string function

 23 25  0  0  0  0  0  0  0  0999 V2000
    2.4610   -5.3070   29.1240 C   0  0  0  0  0  0  0  0  0  0  0  0
    4.7710   -4.6952   28.4803 C   0  0  0  0  0  0  0  0  0  0  0  0
    3.4047   -5.1087   28.1314 C   0  0  0  0  0  0  0  0  0  0  0  0
   -0.2234  -11.8615   16.8874 C   0  0  0  0  0  0  0  0  0  0  0  0
    6.4491   -4.1532   30.1213 C   0  0  0  0  0  0  0  0  0  0  0  0
    5.7060   -4.4340   27.4975 C   0  0  0  0  0  0  0  0  0  0  0  0
    1.1818   -5.6612   28.8399 C   0  0  0  0  0  0  0  0  0  0  0  0
   -1.2067   -7.3287   17.7772 C   0  0  0  0  0  0  0  0  0  0  0  0
   -0.0206  -10.5585   16.6210 C   0  0  0  0  0  0  0  0  0  0  0  0
    0.3696  -12.7626   16.2169 O   0  0  0  0  0  0  0  0  0  0  0  0
   -0.6895   -9.5676   17.3297 C   0  0  0  0  0  0  0  0  0  0  0  0
    0.8388   -5.8417   27.5264 C   0  0  0  0  0  0  0  0  0  0  0  0
   -2.0709   -7.6637   18.7817 C   0  0  0  0  0  0  0  0  0  0  0  0
   -0.5279   -8.2168   17.0717 C   0  0  0  0  0  0  0  0  0  0  0  0
    6.9694   -4.0191   27.8190 C   0  0  0  0  0  0  0  0  0  0  0  0
    5.1733   -4.5469   29.8123 C   0  0  0  0  0  0  0  0  0  0  0  0
   -1.7508  -11.3016   18.6072 C   0  0  0  0  0  0  0  0  0  0  0  0
    1.7497   -5.6771   26.4971 C   0  0  0  0  0  0  0  0  0  0  0  0
   -1.5799   -9.9322   18.3468 C   0  0  0  0  0  0  0  0  0  0  0  0
   -1.0871  -12.2214   17.8851 C   0  0  0  0  0  0  0  0  0  0  0  0
   -2.2706   -8.9669   19.0691 C   0  0  0  0  0  0  0  0  0  0  0  0
    3.0279   -5.3073   26.8197 C   0  0  0  0  0  0  0  0  0  0  0  0
    7.3282   -3.8948   29.1186 C   0  0  0  0  0  0  0  0  0  0  0  0
  1  3  4  0
  1  7  4  0
  2  3  1  0
  2  6  4  0
  2 16  4  0
  3 22  4  0
  4  9  4  0
  4 10  1  0
  4 20  4  0
  5 16  4  0
  5 23  4  0
  6 15  4  0
  7 12  4  0
  8 13  4  0
  8 14  4  0
  9 11  4  0
 11 14  4  0
 11 19  4  0
 12 18  4  0
 13 21  4  0
 15 23  4  0
 17 19  4  0
 17 20  4  0
 18 22  4  0
 19 21  4  0
M  END
$$$$

 Created by Python create_sdf_string function

 23 25  0  0  0  0  0  0  0  0999 V2000
    2.4610   -5.3070   29.1240 C   0  0  0  0  0  0  0  0  0  0  0  0
    4.7710   -4.6952   28.4803 C   0  0  0  0  0  0  0  0  0  0  0  0
    3.4047   -5.1087   28.1314 C   0  0  0  0  0  0  0  0  0  0  0  0
   -0.2234  -11.8615   16.8874 C   0  0  0  0  0  0  0  0  0  0  0  0
    6.4491   -4.1532   30.1213 C   0  0  0  0  0  0  0  0  0  0  0  0
    5.7060   -4.4340   27.4975 C   0  0  0  0  0  0  0  0  0  0  0  0
    1.1818   -5.6612   28.8399 C   0  0  0  0  0  0  0  0  0  0  0  0
   -1.2067   -7.3287   17.7772 C   0  0  0  0  0  0  0  0  0  0  0  0
   -0.0206  -10.5585   16.6210 C   0  0  0  0  0  0  0  0  0  0  0  0
    0.3696  -12.7626   16.2169 O   0  0  0  0  0  0  0  0  0  0  0  0
   -0.6895   -9.5676   17.3297 C   0  0  0  0  0  0  0  0  0  0  0  0
    0.8388   -5.8417   27.5264 C   0  0  0  0  0  0  0  0  0  0  0  0
   -2.0709   -7.6637   18.7817 C   0  0  0  0  0  0  0  0  0  0  0  0
   -0.5279   -8.2168   17.0717 C   0  0  0  0  0  0  0  0  0  0  0  0
    6.9694   -4.0191   27.8190 C   0  0  0  0  0  0  0  0  0  0  0  0
    5.1733   -4.5469   29.8123 C   0  0  0  0  0  0  0  0  0  0  0  0
   -1.7508  -11.3016   18.6072 C   0  0  0  0  0  0  0  0  0  0  0  0
    1.7497   -5.6771   26.4971 C   0  0  0  0  0  0  0  0  0  0  0  0
   -1.5799   -9.9322   18.3468 C   0  0  0  0  0  0  0  0  0  0  0  0
   -1.0871  -12.2214   17.8851 C   0  0  0  0  0  0  0  0  0  0  0  0
   -2.2706   -8.9669   19.0691 C   0  0  0  0  0  0  0  0  0  0  0  0
    3.0279   -5.3073   26.8197 C   0  0  0  0  0  0  0  0  0  0  0  0
    7.3282   -3.8948   29.1186 C   0  0  0  0  0  0  0  0  0  0  0  0
  1  3  4  0
  1  7  4  0
  2  3  1  0
  2  6  4  0
  2 16  4  0
  3 22  4  0
  4  9  4  0
  4 10  1  0
  4 20  4  0
  5 16  4  0
  5 23  4  0
  6 15  4  0
  7 12  4  0
  8 13  4  0
  8 14  4  0
  9 11  4  0
 11 14  4  0
 11 19  4  0
 12 18  4  0
 13 21  4  0
 15 23  4  0
 17 19  4  0
 17 20  4  0
 18 22  4  0
 19 21  4  0
M  END
$$$$

 Created by Python create_sdf_string function

 23 25  0  0  0  0  0  0  0  0999 V2000
    2.4610   -5.3070   29.1240 C   0  0  0  0  0  0  0  0  0  0  0  0
    4.7710   -4.6952   28.4803 C   0  0  0  0  0  0  0  0  0  0  0  0
    3.4047   -5.1087   28.1314 C   0  0  0  0  0  0  0  0  0  0  0  0
   -0.2234  -11.8615   16.8874 C   0  0  0  0  0  0  0  0  0  0  0  0
    6.4491   -4.1532   30.1213 C   0  0  0  0  0  0  0  0  0  0  0  0
    5.7060   -4.4340   27.4975 C   0  0  0  0  0  0  0  0  0  0  0  0
    1.1818   -5.6612   28.8399 C   0  0  0  0  0  0  0  0  0  0  0  0
   -1.2067   -7.3287   17.7772 C   0  0  0  0  0  0  0  0  0  0  0  0
   -0.0206  -10.5585   16.6210 C   0  0  0  0  0  0  0  0  0  0  0  0
    0.3696  -12.7626   16.2169 O   0  0  0  0  0  0  0  0  0  0  0  0
   -0.6895   -9.5676   17.3297 C   0  0  0  0  0  0  0  0  0  0  0  0
    0.8388   -5.8417   27.5264 C   0  0  0  0  0  0  0  0  0  0  0  0
   -2.0709   -7.6637   18.7817 C   0  0  0  0  0  0  0  0  0  0  0  0
   -0.5279   -8.2168   17.0717 C   0  0  0  0  0  0  0  0  0  0  0  0
    6.9694   -4.0191   27.8190 C   0  0  0  0  0  0  0  0  0  0  0  0
    5.1733   -4.5469   29.8123 C   0  0  0  0  0  0  0  0  0  0  0  0
   -1.7508  -11.3016   18.6072 C   0  0  0  0  0  0  0  0  0  0  0  0
    1.7497   -5.6771   26.4971 C   0  0  0  0  0  0  0  0  0  0  0  0
   -1.5799   -9.9322   18.3468 C   0  0  0  0  0  0  0  0  0  0  0  0
   -1.0871  -12.2214   17.8851 C   0  0  0  0  0  0  0  0  0  0  0  0
   -2.2706   -8.9669   19.0691 C   0  0  0  0  0  0  0  0  0  0  0  0
    3.0279   -5.3073   26.8197 C   0  0  0  0  0  0  0  0  0  0  0  0
    7.3282   -3.8948   29.1186 C   0  0  0  0  0  0  0  0  0  0  0  0
  1  3  4  0
  1  7  4  0
  2  3  1  0
  2  6  4  0
  2 16  4  0
  3 22  4  0
  4  9  4  0
  4 10  1  0
  4 20  4  0
  5 16  4  0
  5 23  4  0
  6 15  4  0
  7 12  4  0
  8 13  4  0
  8 14  4  0
  9 11  4  0
 11 14  4  0
 11 19  4  0
 12 18  4  0
 13 21  4  0
 15 23  4  0
 17 19  4  0
 17 20  4  0
 18 22  4  0
 19 21  4  0
M  END
$$$$

 Created by Python create_sdf_string function

 23 25  0  0  0  0  0  0  0  0999 V2000
    2.4610   -5.3070   29.1240 C   0  0  0  0  0  0  0  0  0  0  0  0
    4.7710   -4.6952   28.4803 C   0  0  0  0  0  0  0  0  0  0  0  0
    3.4047   -5.1087   28.1314 C   0  0  0  0  0  0  0  0  0  0  0  0
   -0.2234  -11.8615   16.8874 C   0  0  0  0  0  0  0  0  0  0  0  0
    6.4491   -4.1532   30.1213 C   0  0  0  0  0  0  0  0  0  0  0  0
    5.7060   -4.4340   27.4975 C   0  0  0  0  0  0  0  0  0  0  0  0
    1.1818   -5.6612   28.8399 C   0  0  0  0  0  0  0  0  0  0  0  0
   -1.2067   -7.3287   17.7772 C   0  0  0  0  0  0  0  0  0  0  0  0
   -0.0206  -10.5585   16.6210 C   0  0  0  0  0  0  0  0  0  0  0  0
    0.3696  -12.7626   16.2169 O   0  0  0  0  0  0  0  0  0  0  0  0
   -0.6895   -9.5676   17.3297 C   0  0  0  0  0  0  0  0  0  0  0  0
    0.8388   -5.8417   27.5264 C   0  0  0  0  0  0  0  0  0  0  0  0
   -2.0709   -7.6637   18.7817 C   0  0  0  0  0  0  0  0  0  0  0  0
   -0.5279   -8.2168   17.0717 C   0  0  0  0  0  0  0  0  0  0  0  0
    6.9694   -4.0191   27.8190 C   0  0  0  0  0  0  0  0  0  0  0  0
    5.1733   -4.5469   29.8123 C   0  0  0  0  0  0  0  0  0  0  0  0
   -1.7508  -11.3016   18.6072 C   0  0  0  0  0  0  0  0  0  0  0  0
    1.7497   -5.6771   26.4971 C   0  0  0  0  0  0  0  0  0  0  0  0
   -1.5799   -9.9322   18.3468 C   0  0  0  0  0  0  0  0  0  0  0  0
   -1.0871  -12.2214   17.8851 C   0  0  0  0  0  0  0  0  0  0  0  0
   -2.2706   -8.9669   19.0691 C   0  0  0  0  0  0  0  0  0  0  0  0
    3.0279   -5.3073   26.8197 C   0  0  0  0  0  0  0  0  0  0  0  0
    7.3282   -3.8948   29.1186 C   0  0  0  0  0  0  0  0  0  0  0  0
  1  3  4  0
  1  7  4  0
  2  3  1  0
  2  6  4  0
  2 16  4  0
  3 22  4  0
  4  9  4  0
  4 10  1  0
  4 20  4  0
  5 16  4  0
  5 23  4  0
  6 15  4  0
  7 12  4  0
  8 13  4  0
  8 14  4  0
  9 11  4  0
 11 14  4  0
 11 19  4  0
 12 18  4  0
 13 21  4  0
 15 23  4  0
 17 19  4  0
 17 20  4  0
 18 22  4  0
 19 21  4  0
M  END
$$$$

 Created by Python create_sdf_string function

 23 25  0  0  0  0  0  0  0  0999 V2000
    2.4610   -5.3070   29.1240 C   0  0  0  0  0  0  0  0  0  0  0  0
    4.7710   -4.6952   28.4803 C   0  0  0  0  0  0  0  0  0  0  0  0
    3.4047   -5.1087   28.1314 C   0  0  0  0  0  0  0  0  0  0  0  0
   -0.2234  -11.8615   16.8874 C   0  0  0  0  0  0  0  0  0  0  0  0
    6.4491   -4.1532   30.1213 C   0  0  0  0  0  0  0  0  0  0  0  0
    5.7060   -4.4340   27.4975 C   0  0  0  0  0  0  0  0  0  0  0  0
    1.1818   -5.6612   28.8399 C   0  0  0  0  0  0  0  0  0  0  0  0
   -1.2067   -7.3287   17.7772 C   0  0  0  0  0  0  0  0  0  0  0  0
   -0.0206  -10.5585   16.6210 C   0  0  0  0  0  0  0  0  0  0  0  0
    0.3696  -12.7626   16.2169 O   0  0  0  0  0  0  0  0  0  0  0  0
   -0.6895   -9.5676   17.3297 C   0  0  0  0  0  0  0  0  0  0  0  0
    0.8388   -5.8417   27.5264 C   0  0  0  0  0  0  0  0  0  0  0  0
   -2.0709   -7.6637   18.7817 C   0  0  0  0  0  0  0  0  0  0  0  0
   -0.5279   -8.2168   17.0717 C   0  0  0  0  0  0  0  0  0  0  0  0
    6.9694   -4.0191   27.8190 C   0  0  0  0  0  0  0  0  0  0  0  0
    5.1733   -4.5469   29.8123 C   0  0  0  0  0  0  0  0  0  0  0  0
   -1.7508  -11.3016   18.6072 C   0  0  0  0  0  0  0  0  0  0  0  0
    1.7497   -5.6771   26.4971 C   0  0  0  0  0  0  0  0  0  0  0  0
   -1.5799   -9.9322   18.3468 C   0  0  0  0  0  0  0  0  0  0  0  0
   -1.0871  -12.2214   17.8851 C   0  0  0  0  0  0  0  0  0  0  0  0
   -2.2706   -8.9669   19.0691 C   0  0  0  0  0  0  0  0  0  0  0  0
    3.0279   -5.3073   26.8197 C   0  0  0  0  0  0  0  0  0  0  0  0
    7.3282   -3.8948   29.1186 C   0  0  0  0  0  0  0  0  0  0  0  0
  1  3  4  0
  1  7  4  0
  2  3  1  0
  2  6  4  0
  2 16  4  0
  3 22  4  0
  4  9  4  0
  4 10  1  0
  4 20  4  0
  5 16  4  0
  5 23  4  0
  6 15  4  0
  7 12  4  0
  8 13  4  0
  8 14  4  0
  9 11  4  0
 11 14  4  0
 11 19  4  0
 12 18  4  0
 13 21  4  0
 15 23  4  0
 17 19  4  0
 17 20  4  0
 18 22  4  0
 19 21  4  0
M  END
$$$$

 Created by Python create_sdf_string function

 23 25  0  0  0  0  0  0  0  0999 V2000
    2.4610   -5.3070   29.1240 C   0  0  0  0  0  0  0  0  0  0  0  0
    4.7710   -4.6952   28.4803 C   0  0  0  0  0  0  0  0  0  0  0  0
    3.4047   -5.1087   28.1314 C   0  0  0  0  0  0  0  0  0  0  0  0
   -0.2234  -11.8615   16.8874 C   0  0  0  0  0  0  0  0  0  0  0  0
    6.4491   -4.1532   30.1213 C   0  0  0  0  0  0  0  0  0  0  0  0
    5.7060   -4.4340   27.4975 C   0  0  0  0  0  0  0  0  0  0  0  0
    1.1818   -5.6612   28.8399 C   0  0  0  0  0  0  0  0  0  0  0  0
   -1.2067   -7.3287   17.7772 C   0  0  0  0  0  0  0  0  0  0  0  0
   -0.0206  -10.5585   16.6210 C   0  0  0  0  0  0  0  0  0  0  0  0
    0.3696  -12.7626   16.2169 O   0  0  0  0  0  0  0  0  0  0  0  0
   -0.6895   -9.5676   17.3297 C   0  0  0  0  0  0  0  0  0  0  0  0
    0.8388   -5.8417   27.5264 C   0  0  0  0  0  0  0  0  0  0  0  0
   -2.0709   -7.6637   18.7817 C   0  0  0  0  0  0  0  0  0  0  0  0
   -0.5279   -8.2168   17.0717 C   0  0  0  0  0  0  0  0  0  0  0  0
    6.9694   -4.0191   27.8190 C   0  0  0  0  0  0  0  0  0  0  0  0
    5.1733   -4.5469   29.8123 C   0  0  0  0  0  0  0  0  0  0  0  0
   -1.7508  -11.3016   18.6072 C   0  0  0  0  0  0  0  0  0  0  0  0
    1.7497   -5.6771   26.4971 C   0  0  0  0  0  0  0  0  0  0  0  0
   -1.5799   -9.9322   18.3468 C   0  0  0  0  0  0  0  0  0  0  0  0
   -1.0871  -12.2214   17.8851 C   0  0  0  0  0  0  0  0  0  0  0  0
   -2.2706   -8.9669   19.0691 C   0  0  0  0  0  0  0  0  0  0  0  0
    3.0279   -5.3073   26.8197 C   0  0  0  0  0  0  0  0  0  0  0  0
    7.3282   -3.8948   29.1186 C   0  0  0  0  0  0  0  0  0  0  0  0
  1  3  4  0
  1  7  4  0
  2  3  1  0
  2  6  4  0
  2 16  4  0
  3 22  4  0
  4  9  4  0
  4 10  1  0
  4 20  4  0
  5 16  4  0
  5 23  4  0
  6 15  4  0
  7 12  4  0
  8 13  4  0
  8 14  4  0
  9 11  4  0
 11 14  4  0
 11 19  4  0
 12 18  4  0
 13 21  4  0
 15 23  4  0
 17 19  4  0
 17 20  4  0
 18 22  4  0
 19 21  4  0
M  END
$$$$

 Created by Python create_sdf_string function

 23 25  0  0  0  0  0  0  0  0999 V2000
    2.4610   -5.3070   29.1240 C   0  0  0  0  0  0  0  0  0  0  0  0
    4.7710   -4.6952   28.4803 C   0  0  0  0  0  0  0  0  0  0  0  0
    3.4047   -5.1087   28.1314 C   0  0  0  0  0  0  0  0  0  0  0  0
   -0.2234  -11.8615   16.8874 C   0  0  0  0  0  0  0  0  0  0  0  0
    6.4491   -4.1532   30.1213 C   0  0  0  0  0  0  0  0  0  0  0  0
    5.7060   -4.4340   27.4975 C   0  0  0  0  0  0  0  0  0  0  0  0
    1.1818   -5.6612   28.8399 C   0  0  0  0  0  0  0  0  0  0  0  0
   -1.2067   -7.3287   17.7772 C   0  0  0  0  0  0  0  0  0  0  0  0
   -0.0206  -10.5585   16.6210 C   0  0  0  0  0  0  0  0  0  0  0  0
    0.3696  -12.7626   16.2169 O   0  0  0  0  0  0  0  0  0  0  0  0
   -0.6895   -9.5676   17.3297 C   0  0  0  0  0  0  0  0  0  0  0  0
    0.8388   -5.8417   27.5264 C   0  0  0  0  0  0  0  0  0  0  0  0
   -2.0709   -7.6637   18.7817 C   0  0  0  0  0  0  0  0  0  0  0  0
   -0.5279   -8.2168   17.0717 C   0  0  0  0  0  0  0  0  0  0  0  0
    6.9694   -4.0191   27.8190 C   0  0  0  0  0  0  0  0  0  0  0  0
    5.1733   -4.5469   29.8123 C   0  0  0  0  0  0  0  0  0  0  0  0
   -1.7508  -11.3016   18.6072 C   0  0  0  0  0  0  0  0  0  0  0  0
    1.7497   -5.6771   26.4971 C   0  0  0  0  0  0  0  0  0  0  0  0
   -1.5799   -9.9322   18.3468 C   0  0  0  0  0  0  0  0  0  0  0  0
   -1.0871  -12.2214   17.8851 C   0  0  0  0  0  0  0  0  0  0  0  0
   -2.2706   -8.9669   19.0691 C   0  0  0  0  0  0  0  0  0  0  0  0
    3.0279   -5.3073   26.8197 C   0  0  0  0  0  0  0  0  0  0  0  0
    7.3282   -3.8948   29.1186 C   0  0  0  0  0  0  0  0  0  0  0  0
  1  3  4  0
  1  7  4  0
  2  3  1  0
  2  6  4  0
  2 16  4  0
  3 22  4  0
  4  9  4  0
  4 10  1  0
  4 20  4  0
  5 16  4  0
  5 23  4  0
  6 15  4  0
  7 12  4  0
  8 13  4  0
  8 14  4  0
  9 11  4  0
 11 14  4  0
 11 19  4  0
 12 18  4  0
 13 21  4  0
 15 23  4  0
 17 19  4  0
 17 20  4  0
 18 22  4  0
 19 21  4  0
M  END
$$$$

 Created by Python create_sdf_string function

 23 25  0  0  0  0  0  0  0  0999 V2000
    2.4610   -5.3070   29.1240 C   0  0  0  0  0  0  0  0  0  0  0  0
    4.7710   -4.6952   28.4803 C   0  0  0  0  0  0  0  0  0  0  0  0
    3.4047   -5.1087   28.1314 C   0  0  0  0  0  0  0  0  0  0  0  0
   -0.2234  -11.8615   16.8874 C   0  0  0  0  0  0  0  0  0  0  0  0
    6.4491   -4.1532   30.1213 C   0  0  0  0  0  0  0  0  0  0  0  0
    5.7060   -4.4340   27.4975 C   0  0  0  0  0  0  0  0  0  0  0  0
    1.1818   -5.6612   28.8399 C   0  0  0  0  0  0  0  0  0  0  0  0
   -1.2067   -7.3287   17.7772 C   0  0  0  0  0  0  0  0  0  0  0  0
   -0.0206  -10.5585   16.6210 C   0  0  0  0  0  0  0  0  0  0  0  0
    0.3696  -12.7626   16.2169 O   0  0  0  0  0  0  0  0  0  0  0  0
   -0.6895   -9.5676   17.3297 C   0  0  0  0  0  0  0  0  0  0  0  0
    0.8388   -5.8417   27.5264 C   0  0  0  0  0  0  0  0  0  0  0  0
   -2.0709   -7.6637   18.7817 C   0  0  0  0  0  0  0  0  0  0  0  0
   -0.5279   -8.2168   17.0717 C   0  0  0  0  0  0  0  0  0  0  0  0
    6.9694   -4.0191   27.8190 C   0  0  0  0  0  0  0  0  0  0  0  0
    5.1733   -4.5469   29.8123 C   0  0  0  0  0  0  0  0  0  0  0  0
   -1.7508  -11.3016   18.6072 C   0  0  0  0  0  0  0  0  0  0  0  0
    1.7497   -5.6771   26.4971 C   0  0  0  0  0  0  0  0  0  0  0  0
   -1.5799   -9.9322   18.3468 C   0  0  0  0  0  0  0  0  0  0  0  0
   -1.0871  -12.2214   17.8851 C   0  0  0  0  0  0  0  0  0  0  0  0
   -2.2706   -8.9669   19.0691 C   0  0  0  0  0  0  0  0  0  0  0  0
    3.0279   -5.3073   26.8197 C   0  0  0  0  0  0  0  0  0  0  0  0
    7.3282   -3.8948   29.1186 C   0  0  0  0  0  0  0  0  0  0  0  0
  1  3  4  0
  1  7  4  0
  2  3  1  0
  2  6  4  0
  2 16  4  0
  3 22  4  0
  4  9  4  0
  4 10  1  0
  4 20  4  0
  5 16  4  0
  5 23  4  0
  6 15  4  0
  7 12  4  0
  8 13  4  0
  8 14  4  0
  9 11  4  0
 11 14  4  0
 11 19  4  0
 12 18  4  0
 13 21  4  0
 15 23  4  0
 17 19  4  0
 17 20  4  0
 18 22  4  0
 19 21  4  0
M  END
$$$$

 Created by Python create_sdf_string function

 23 25  0  0  0  0  0  0  0  0999 V2000
    2.4610   -5.3070   29.1240 C   0  0  0  0  0  0  0  0  0  0  0  0
    4.7710   -4.6952   28.4803 C   0  0  0  0  0  0  0  0  0  0  0  0
    3.4047   -5.1087   28.1314 C   0  0  0  0  0  0  0  0  0  0  0  0
   -0.2234  -11.8615   16.8874 C   0  0  0  0  0  0  0  0  0  0  0  0
    6.4491   -4.1532   30.1213 C   0  0  0  0  0  0  0  0  0  0  0  0
    5.7060   -4.4340   27.4975 C   0  0  0  0  0  0  0  0  0  0  0  0
    1.1818   -5.6612   28.8399 C   0  0  0  0  0  0  0  0  0  0  0  0
   -1.2067   -7.3287   17.7772 C   0  0  0  0  0  0  0  0  0  0  0  0
   -0.0206  -10.5585   16.6210 C   0  0  0  0  0  0  0  0  0  0  0  0
    0.3696  -12.7626   16.2169 O   0  0  0  0  0  0  0  0  0  0  0  0
   -0.6895   -9.5676   17.3297 C   0  0  0  0  0  0  0  0  0  0  0  0
    0.8388   -5.8417   27.5264 C   0  0  0  0  0  0  0  0  0  0  0  0
   -2.0709   -7.6637   18.7817 C   0  0  0  0  0  0  0  0  0  0  0  0
   -0.5279   -8.2168   17.0717 C   0  0  0  0  0  0  0  0  0  0  0  0
    6.9694   -4.0191   27.8190 C   0  0  0  0  0  0  0  0  0  0  0  0
    5.1733   -4.5469   29.8123 C   0  0  0  0  0  0  0  0  0  0  0  0
   -1.7508  -11.3016   18.6072 C   0  0  0  0  0  0  0  0  0  0  0  0
    1.7497   -5.6771   26.4971 C   0  0  0  0  0  0  0  0  0  0  0  0
   -1.5799   -9.9322   18.3468 C   0  0  0  0  0  0  0  0  0  0  0  0
   -1.0871  -12.2214   17.8851 C   0  0  0  0  0  0  0  0  0  0  0  0
   -2.2706   -8.9669   19.0691 C   0  0  0  0  0  0  0  0  0  0  0  0
    3.0279   -5.3073   26.8197 C   0  0  0  0  0  0  0  0  0  0  0  0
    7.3282   -3.8948   29.1186 C   0  0  0  0  0  0  0  0  0  0  0  0
  1  3  4  0
  1  7  4  0
  2  3  1  0
  2  6  4  0
  2 16  4  0
  3 22  4  0
  4  9  4  0
  4 10  1  0
  4 20  4  0
  5 16  4  0
  5 23  4  0
  6 15  4  0
  7 12  4  0
  8 13  4  0
  8 14  4  0
  9 11  4  0
 11 14  4  0
 11 19  4  0
 12 18  4  0
 13 21  4  0
 15 23  4  0
 17 19  4  0
 17 20  4  0
 18 22  4  0
 19 21  4  0
M  END
$$$$

 Created by Python create_sdf_string function

 23 25  0  0  0  0  0  0  0  0999 V2000
    2.4610   -5.3070   29.1240 C   0  0  0  0  0  0  0  0  0  0  0  0
    4.7710   -4.6952   28.4803 C   0  0  0  0  0  0  0  0  0  0  0  0
    3.4047   -5.1087   28.1314 C   0  0  0  0  0  0  0  0  0  0  0  0
   -0.2234  -11.8615   16.8874 C   0  0  0  0  0  0  0  0  0  0  0  0
    6.4491   -4.1532   30.1213 C   0  0  0  0  0  0  0  0  0  0  0  0
    5.7060   -4.4340   27.4975 C   0  0  0  0  0  0  0  0  0  0  0  0
    1.1818   -5.6612   28.8399 C   0  0  0  0  0  0  0  0  0  0  0  0
   -1.2067   -7.3287   17.7772 C   0  0  0  0  0  0  0  0  0  0  0  0
   -0.0206  -10.5585   16.6210 C   0  0  0  0  0  0  0  0  0  0  0  0
    0.3696  -12.7626   16.2169 O   0  0  0  0  0  0  0  0  0  0  0  0
   -0.6895   -9.5676   17.3297 C   0  0  0  0  0  0  0  0  0  0  0  0
    0.8388   -5.8417   27.5264 C   0  0  0  0  0  0  0  0  0  0  0  0
   -2.0709   -7.6637   18.7817 C   0  0  0  0  0  0  0  0  0  0  0  0
   -0.5279   -8.2168   17.0717 C   0  0  0  0  0  0  0  0  0  0  0  0
    6.9694   -4.0191   27.8190 C   0  0  0  0  0  0  0  0  0  0  0  0
    5.1733   -4.5469   29.8123 C   0  0  0  0  0  0  0  0  0  0  0  0
   -1.7508  -11.3016   18.6072 C   0  0  0  0  0  0  0  0  0  0  0  0
    1.7497   -5.6771   26.4971 C   0  0  0  0  0  0  0  0  0  0  0  0
   -1.5799   -9.9322   18.3468 C   0  0  0  0  0  0  0  0  0  0  0  0
   -1.0871  -12.2214   17.8851 C   0  0  0  0  0  0  0  0  0  0  0  0
   -2.2706   -8.9669   19.0691 C   0  0  0  0  0  0  0  0  0  0  0  0
    3.0279   -5.3073   26.8197 C   0  0  0  0  0  0  0  0  0  0  0  0
    7.3282   -3.8948   29.1186 C   0  0  0  0  0  0  0  0  0  0  0  0
  1  3  4  0
  1  7  4  0
  2  3  1  0
  2  6  4  0
  2 16  4  0
  3 22  4  0
  4  9  4  0
  4 10  1  0
  4 20  4  0
  5 16  4  0
  5 23  4  0
  6 15  4  0
  7 12  4  0
  8 13  4  0
  8 14  4  0
  9 11  4  0
 11 14  4  0
 11 19  4  0
 12 18  4  0
 13 21  4  0
 15 23  4  0
 17 19  4  0
 17 20  4  0
 18 22  4  0
 19 21  4  0
M  END
$$$$

 Created by Python create_sdf_string function

 23 25  0  0  0  0  0  0  0  0999 V2000
    2.4610   -5.3070   29.1240 C   0  0  0  0  0  0  0  0  0  0  0  0
    4.7710   -4.6952   28.4803 C   0  0  0  0  0  0  0  0  0  0  0  0
    3.4047   -5.1087   28.1314 C   0  0  0  0  0  0  0  0  0  0  0  0
   -0.2234  -11.8615   16.8874 C   0  0  0  0  0  0  0  0  0  0  0  0
    6.4491   -4.1532   30.1213 C   0  0  0  0  0  0  0  0  0  0  0  0
    5.7060   -4.4340   27.4975 C   0  0  0  0  0  0  0  0  0  0  0  0
    1.1818   -5.6612   28.8399 C   0  0  0  0  0  0  0  0  0  0  0  0
   -1.2067   -7.3287   17.7772 C   0  0  0  0  0  0  0  0  0  0  0  0
   -0.0206  -10.5585   16.6210 C   0  0  0  0  0  0  0  0  0  0  0  0
    0.3696  -12.7626   16.2169 O   0  0  0  0  0  0  0  0  0  0  0  0
   -0.6895   -9.5676   17.3297 C   0  0  0  0  0  0  0  0  0  0  0  0
    0.8388   -5.8417   27.5264 C   0  0  0  0  0  0  0  0  0  0  0  0
   -2.0709   -7.6637   18.7817 C   0  0  0  0  0  0  0  0  0  0  0  0
   -0.5279   -8.2168   17.0717 C   0  0  0  0  0  0  0  0  0  0  0  0
    6.9694   -4.0191   27.8190 C   0  0  0  0  0  0  0  0  0  0  0  0
    5.1733   -4.5469   29.8123 C   0  0  0  0  0  0  0  0  0  0  0  0
   -1.7508  -11.3016   18.6072 C   0  0  0  0  0  0  0  0  0  0  0  0
    1.7497   -5.6771   26.4971 C   0  0  0  0  0  0  0  0  0  0  0  0
   -1.5799   -9.9322   18.3468 C   0  0  0  0  0  0  0  0  0  0  0  0
   -1.0871  -12.2214   17.8851 C   0  0  0  0  0  0  0  0  0  0  0  0
   -2.2706   -8.9669   19.0691 C   0  0  0  0  0  0  0  0  0  0  0  0
    3.0279   -5.3073   26.8197 C   0  0  0  0  0  0  0  0  0  0  0  0
    7.3282   -3.8948   29.1186 C   0  0  0  0  0  0  0  0  0  0  0  0
  1  3  4  0
  1  7  4  0
  2  3  1  0
  2  6  4  0
  2 16  4  0
  3 22  4  0
  4  9  4  0
  4 10  1  0
  4 20  4  0
  5 16  4  0
  5 23  4  0
  6 15  4  0
  7 12  4  0
  8 13  4  0
  8 14  4  0
  9 11  4  0
 11 14  4  0
 11 19  4  0
 12 18  4  0
 13 21  4  0
 15 23  4  0
 17 19  4  0
 17 20  4  0
 18 22  4  0
 19 21  4  0
M  END
$$$$

 Created by Python create_sdf_string function

 23 25  0  0  0  0  0  0  0  0999 V2000
    2.4610   -5.3070   29.1240 C   0  0  0  0  0  0  0  0  0  0  0  0
    4.7710   -4.6952   28.4803 C   0  0  0  0  0  0  0  0  0  0  0  0
    3.4047   -5.1087   28.1314 C   0  0  0  0  0  0  0  0  0  0  0  0
   -0.2234  -11.8615   16.8874 C   0  0  0  0  0  0  0  0  0  0  0  0
    6.4491   -4.1532   30.1213 C   0  0  0  0  0  0  0  0  0  0  0  0
    5.7060   -4.4340   27.4975 C   0  0  0  0  0  0  0  0  0  0  0  0
    1.1818   -5.6612   28.8399 C   0  0  0  0  0  0  0  0  0  0  0  0
   -1.2067   -7.3287   17.7772 C   0  0  0  0  0  0  0  0  0  0  0  0
   -0.0206  -10.5585   16.6210 C   0  0  0  0  0  0  0  0  0  0  0  0
    0.3696  -12.7626   16.2169 O   0  0  0  0  0  0  0  0  0  0  0  0
   -0.6895   -9.5676   17.3297 C   0  0  0  0  0  0  0  0  0  0  0  0
    0.8388   -5.8417   27.5264 C   0  0  0  0  0  0  0  0  0  0  0  0
   -2.0709   -7.6637   18.7817 C   0  0  0  0  0  0  0  0  0  0  0  0
   -0.5279   -8.2168   17.0717 C   0  0  0  0  0  0  0  0  0  0  0  0
    6.9694   -4.0191   27.8190 C   0  0  0  0  0  0  0  0  0  0  0  0
    5.1733   -4.5469   29.8123 C   0  0  0  0  0  0  0  0  0  0  0  0
   -1.7508  -11.3016   18.6072 C   0  0  0  0  0  0  0  0  0  0  0  0
    1.7497   -5.6771   26.4971 C   0  0  0  0  0  0  0  0  0  0  0  0
   -1.5799   -9.9322   18.3468 C   0  0  0  0  0  0  0  0  0  0  0  0
   -1.0871  -12.2214   17.8851 C   0  0  0  0  0  0  0  0  0  0  0  0
   -2.2706   -8.9669   19.0691 C   0  0  0  0  0  0  0  0  0  0  0  0
    3.0279   -5.3073   26.8197 C   0  0  0  0  0  0  0  0  0  0  0  0
    7.3282   -3.8948   29.1186 C   0  0  0  0  0  0  0  0  0  0  0  0
  1  3  4  0
  1  7  4  0
  2  3  1  0
  2  6  4  0
  2 16  4  0
  3 22  4  0
  4  9  4  0
  4 10  1  0
  4 20  4  0
  5 16  4  0
  5 23  4  0
  6 15  4  0
  7 12  4  0
  8 13  4  0
  8 14  4  0
  9 11  4  0
 11 14  4  0
 11 19  4  0
 12 18  4  0
 13 21  4  0
 15 23  4  0
 17 19  4  0
 17 20  4  0
 18 22  4  0
 19 21  4  0
M  END
$$$$

 Created by Python create_sdf_string function

 23 25  0  0  0  0  0  0  0  0999 V2000
    2.4610   -5.3070   29.1240 C   0  0  0  0  0  0  0  0  0  0  0  0
    4.7710   -4.6952   28.4803 C   0  0  0  0  0  0  0  0  0  0  0  0
    3.4047   -5.1087   28.1314 C   0  0  0  0  0  0  0  0  0  0  0  0
   -0.2234  -11.8615   16.8874 C   0  0  0  0  0  0  0  0  0  0  0  0
    6.4491   -4.1532   30.1213 C   0  0  0  0  0  0  0  0  0  0  0  0
    5.7060   -4.4340   27.4975 C   0  0  0  0  0  0  0  0  0  0  0  0
    1.1818   -5.6612   28.8399 C   0  0  0  0  0  0  0  0  0  0  0  0
   -1.2067   -7.3287   17.7772 C   0  0  0  0  0  0  0  0  0  0  0  0
   -0.0206  -10.5585   16.6210 C   0  0  0  0  0  0  0  0  0  0  0  0
    0.3696  -12.7626   16.2169 O   0  0  0  0  0  0  0  0  0  0  0  0
   -0.6895   -9.5676   17.3297 C   0  0  0  0  0  0  0  0  0  0  0  0
    0.8388   -5.8417   27.5264 C   0  0  0  0  0  0  0  0  0  0  0  0
   -2.0709   -7.6637   18.7817 C   0  0  0  0  0  0  0  0  0  0  0  0
   -0.5279   -8.2168   17.0717 C   0  0  0  0  0  0  0  0  0  0  0  0
    6.9694   -4.0191   27.8190 C   0  0  0  0  0  0  0  0  0  0  0  0
    5.1733   -4.5469   29.8123 C   0  0  0  0  0  0  0  0  0  0  0  0
   -1.7508  -11.3016   18.6072 C   0  0  0  0  0  0  0  0  0  0  0  0
    1.7497   -5.6771   26.4971 C   0  0  0  0  0  0  0  0  0  0  0  0
   -1.5799   -9.9322   18.3468 C   0  0  0  0  0  0  0  0  0  0  0  0
   -1.0871  -12.2214   17.8851 C   0  0  0  0  0  0  0  0  0  0  0  0
   -2.2706   -8.9669   19.0691 C   0  0  0  0  0  0  0  0  0  0  0  0
    3.0279   -5.3073   26.8197 C   0  0  0  0  0  0  0  0  0  0  0  0
    7.3282   -3.8948   29.1186 C   0  0  0  0  0  0  0  0  0  0  0  0
  1  3  4  0
  1  7  4  0
  2  3  1  0
  2  6  4  0
  2 16  4  0
  3 22  4  0
  4  9  4  0
  4 10  1  0
  4 20  4  0
  5 16  4  0
  5 23  4  0
  6 15  4  0
  7 12  4  0
  8 13  4  0
  8 14  4  0
  9 11  4  0
 11 14  4  0
 11 19  4  0
 12 18  4  0
 13 21  4  0
 15 23  4  0
 17 19  4  0
 17 20  4  0
 18 22  4  0
 19 21  4  0
M  END
$$$$

 Created by Python create_sdf_string function

 23 25  0  0  0  0  0  0  0  0999 V2000
    2.4610   -5.3070   29.1240 C   0  0  0  0  0  0  0  0  0  0  0  0
    4.7710   -4.6952   28.4803 C   0  0  0  0  0  0  0  0  0  0  0  0
    3.4047   -5.1087   28.1314 C   0  0  0  0  0  0  0  0  0  0  0  0
   -0.2234  -11.8615   16.8874 C   0  0  0  0  0  0  0  0  0  0  0  0
    6.4491   -4.1532   30.1213 C   0  0  0  0  0  0  0  0  0  0  0  0
    5.7060   -4.4340   27.4975 C   0  0  0  0  0  0  0  0  0  0  0  0
    1.1818   -5.6612   28.8399 C   0  0  0  0  0  0  0  0  0  0  0  0
   -1.2067   -7.3287   17.7772 C   0  0  0  0  0  0  0  0  0  0  0  0
   -0.0206  -10.5585   16.6210 C   0  0  0  0  0  0  0  0  0  0  0  0
    0.3696  -12.7626   16.2169 O   0  0  0  0  0  0  0  0  0  0  0  0
   -0.6895   -9.5676   17.3297 C   0  0  0  0  0  0  0  0  0  0  0  0
    0.8388   -5.8417   27.5264 C   0  0  0  0  0  0  0  0  0  0  0  0
   -2.0709   -7.6637   18.7817 C   0  0  0  0  0  0  0  0  0  0  0  0
   -0.5279   -8.2168   17.0717 C   0  0  0  0  0  0  0  0  0  0  0  0
    6.9694   -4.0191   27.8190 C   0  0  0  0  0  0  0  0  0  0  0  0
    5.1733   -4.5469   29.8123 C   0  0  0  0  0  0  0  0  0  0  0  0
   -1.7508  -11.3016   18.6072 C   0  0  0  0  0  0  0  0  0  0  0  0
    1.7497   -5.6771   26.4971 C   0  0  0  0  0  0  0  0  0  0  0  0
   -1.5799   -9.9322   18.3468 C   0  0  0  0  0  0  0  0  0  0  0  0
   -1.0871  -12.2214   17.8851 C   0  0  0  0  0  0  0  0  0  0  0  0
   -2.2706   -8.9669   19.0691 C   0  0  0  0  0  0  0  0  0  0  0  0
    3.0279   -5.3073   26.8197 C   0  0  0  0  0  0  0  0  0  0  0  0
    7.3282   -3.8948   29.1186 C   0  0  0  0  0  0  0  0  0  0  0  0
  1  3  4  0
  1  7  4  0
  2  3  1  0
  2  6  4  0
  2 16  4  0
  3 22  4  0
  4  9  4  0
  4 10  1  0
  4 20  4  0
  5 16  4  0
  5 23  4  0
  6 15  4  0
  7 12  4  0
  8 13  4  0
  8 14  4  0
  9 11  4  0
 11 14  4  0
 11 19  4  0
 12 18  4  0
 13 21  4  0
 15 23  4  0
 17 19  4  0
 17 20  4  0
 18 22  4  0
 19 21  4  0
M  END
$$$$

 Created by Python create_sdf_string function

 23 25  0  0  0  0  0  0  0  0999 V2000
    2.4610   -5.3070   29.1240 C   0  0  0  0  0  0  0  0  0  0  0  0
    4.7710   -4.6952   28.4803 C   0  0  0  0  0  0  0  0  0  0  0  0
    3.4047   -5.1087   28.1314 C   0  0  0  0  0  0  0  0  0  0  0  0
   -0.2234  -11.8615   16.8874 C   0  0  0  0  0  0  0  0  0  0  0  0
    6.4491   -4.1532   30.1213 C   0  0  0  0  0  0  0  0  0  0  0  0
    5.7060   -4.4340   27.4975 C   0  0  0  0  0  0  0  0  0  0  0  0
    1.1818   -5.6612   28.8399 C   0  0  0  0  0  0  0  0  0  0  0  0
   -1.2067   -7.3287   17.7772 C   0  0  0  0  0  0  0  0  0  0  0  0
   -0.0206  -10.5585   16.6210 C   0  0  0  0  0  0  0  0  0  0  0  0
    0.3696  -12.7626   16.2169 O   0  0  0  0  0  0  0  0  0  0  0  0
   -0.6895   -9.5676   17.3297 C   0  0  0  0  0  0  0  0  0  0  0  0
    0.8388   -5.8417   27.5264 C   0  0  0  0  0  0  0  0  0  0  0  0
   -2.0709   -7.6637   18.7817 C   0  0  0  0  0  0  0  0  0  0  0  0
   -0.5279   -8.2168   17.0717 C   0  0  0  0  0  0  0  0  0  0  0  0
    6.9694   -4.0191   27.8190 C   0  0  0  0  0  0  0  0  0  0  0  0
    5.1733   -4.5469   29.8123 C   0  0  0  0  0  0  0  0  0  0  0  0
   -1.7508  -11.3016   18.6072 C   0  0  0  0  0  0  0  0  0  0  0  0
    1.7497   -5.6771   26.4971 C   0  0  0  0  0  0  0  0  0  0  0  0
   -1.5799   -9.9322   18.3468 C   0  0  0  0  0  0  0  0  0  0  0  0
   -1.0871  -12.2214   17.8851 C   0  0  0  0  0  0  0  0  0  0  0  0
   -2.2706   -8.9669   19.0691 C   0  0  0  0  0  0  0  0  0  0  0  0
    3.0279   -5.3073   26.8197 C   0  0  0  0  0  0  0  0  0  0  0  0
    7.3282   -3.8948   29.1186 C   0  0  0  0  0  0  0  0  0  0  0  0
  1  3  4  0
  1  7  4  0
  2  3  1  0
  2  6  4  0
  2 16  4  0
  3 22  4  0
  4  9  4  0
  4 10  1  0
  4 20  4  0
  5 16  4  0
  5 23  4  0
  6 15  4  0
  7 12  4  0
  8 13  4  0
  8 14  4  0
  9 11  4  0
 11 14  4  0
 11 19  4  0
 12 18  4  0
 13 21  4  0
 15 23  4  0
 17 19  4  0
 17 20  4  0
 18 22  4  0
 19 21  4  0
M  END
$$$$

 Created by Python create_sdf_string function

 23 25  0  0  0  0  0  0  0  0999 V2000
    2.4610   -5.3070   29.1240 C   0  0  0  0  0  0  0  0  0  0  0  0
    4.7710   -4.6952   28.4803 C   0  0  0  0  0  0  0  0  0  0  0  0
    3.4047   -5.1087   28.1314 C   0  0  0  0  0  0  0  0  0  0  0  0
   -0.2234  -11.8615   16.8874 C   0  0  0  0  0  0  0  0  0  0  0  0
    6.4491   -4.1532   30.1213 C   0  0  0  0  0  0  0  0  0  0  0  0
    5.7060   -4.4340   27.4975 C   0  0  0  0  0  0  0  0  0  0  0  0
    1.1818   -5.6612   28.8399 C   0  0  0  0  0  0  0  0  0  0  0  0
   -1.2067   -7.3287   17.7772 C   0  0  0  0  0  0  0  0  0  0  0  0
   -0.0206  -10.5585   16.6210 C   0  0  0  0  0  0  0  0  0  0  0  0
    0.3696  -12.7626   16.2169 O   0  0  0  0  0  0  0  0  0  0  0  0
   -0.6895   -9.5676   17.3297 C   0  0  0  0  0  0  0  0  0  0  0  0
    0.8388   -5.8417   27.5264 C   0  0  0  0  0  0  0  0  0  0  0  0
   -2.0709   -7.6637   18.7817 C   0  0  0  0  0  0  0  0  0  0  0  0
   -0.5279   -8.2168   17.0717 C   0  0  0  0  0  0  0  0  0  0  0  0
    6.9694   -4.0191   27.8190 C   0  0  0  0  0  0  0  0  0  0  0  0
    5.1733   -4.5469   29.8123 C   0  0  0  0  0  0  0  0  0  0  0  0
   -1.7508  -11.3016   18.6072 C   0  0  0  0  0  0  0  0  0  0  0  0
    1.7497   -5.6771   26.4971 C   0  0  0  0  0  0  0  0  0  0  0  0
   -1.5799   -9.9322   18.3468 C   0  0  0  0  0  0  0  0  0  0  0  0
   -1.0871  -12.2214   17.8851 C   0  0  0  0  0  0  0  0  0  0  0  0
   -2.2706   -8.9669   19.0691 C   0  0  0  0  0  0  0  0  0  0  0  0
    3.0279   -5.3073   26.8197 C   0  0  0  0  0  0  0  0  0  0  0  0
    7.3282   -3.8948   29.1186 C   0  0  0  0  0  0  0  0  0  0  0  0
  1  3  4  0
  1  7  4  0
  2  3  1  0
  2  6  4  0
  2 16  4  0
  3 22  4  0
  4  9  4  0
  4 10  1  0
  4 20  4  0
  5 16  4  0
  5 23  4  0
  6 15  4  0
  7 12  4  0
  8 13  4  0
  8 14  4  0
  9 11  4  0
 11 14  4  0
 11 19  4  0
 12 18  4  0
 13 21  4  0
 15 23  4  0
 17 19  4  0
 17 20  4  0
 18 22  4  0
 19 21  4  0
M  END
$$$$

 Created by Python create_sdf_string function

 23 25  0  0  0  0  0  0  0  0999 V2000
    2.4610   -5.3070   29.1240 C   0  0  0  0  0  0  0  0  0  0  0  0
    4.7710   -4.6952   28.4803 C   0  0  0  0  0  0  0  0  0  0  0  0
    3.4047   -5.1087   28.1314 C   0  0  0  0  0  0  0  0  0  0  0  0
   -0.2234  -11.8615   16.8874 C   0  0  0  0  0  0  0  0  0  0  0  0
    6.4491   -4.1532   30.1213 C   0  0  0  0  0  0  0  0  0  0  0  0
    5.7060   -4.4340   27.4975 C   0  0  0  0  0  0  0  0  0  0  0  0
    1.1818   -5.6612   28.8399 C   0  0  0  0  0  0  0  0  0  0  0  0
   -1.2067   -7.3287   17.7772 C   0  0  0  0  0  0  0  0  0  0  0  0
   -0.0206  -10.5585   16.6210 C   0  0  0  0  0  0  0  0  0  0  0  0
    0.3696  -12.7626   16.2169 O   0  0  0  0  0  0  0  0  0  0  0  0
   -0.6895   -9.5676   17.3297 C   0  0  0  0  0  0  0  0  0  0  0  0
    0.8388   -5.8417   27.5264 C   0  0  0  0  0  0  0  0  0  0  0  0
   -2.0709   -7.6637   18.7817 C   0  0  0  0  0  0  0  0  0  0  0  0
   -0.5279   -8.2168   17.0717 C   0  0  0  0  0  0  0  0  0  0  0  0
    6.9694   -4.0191   27.8190 C   0  0  0  0  0  0  0  0  0  0  0  0
    5.1733   -4.5469   29.8123 C   0  0  0  0  0  0  0  0  0  0  0  0
   -1.7508  -11.3016   18.6072 C   0  0  0  0  0  0  0  0  0  0  0  0
    1.7497   -5.6771   26.4971 C   0  0  0  0  0  0  0  0  0  0  0  0
   -1.5799   -9.9322   18.3468 C   0  0  0  0  0  0  0  0  0  0  0  0
   -1.0871  -12.2214   17.8851 C   0  0  0  0  0  0  0  0  0  0  0  0
   -2.2706   -8.9669   19.0691 C   0  0  0  0  0  0  0  0  0  0  0  0
    3.0279   -5.3073   26.8197 C   0  0  0  0  0  0  0  0  0  0  0  0
    7.3282   -3.8948   29.1186 C   0  0  0  0  0  0  0  0  0  0  0  0
  1  3  4  0
  1  7  4  0
  2  3  1  0
  2  6  4  0
  2 16  4  0
  3 22  4  0
  4  9  4  0
  4 10  1  0
  4 20  4  0
  5 16  4  0
  5 23  4  0
  6 15  4  0
  7 12  4  0
  8 13  4  0
  8 14  4  0
  9 11  4  0
 11 14  4  0
 11 19  4  0
 12 18  4  0
 13 21  4  0
 15 23  4  0
 17 19  4  0
 17 20  4  0
 18 22  4  0
 19 21  4  0
M  END
$$$$

 Created by Python create_sdf_string function

 23 25  0  0  0  0  0  0  0  0999 V2000
    2.4610   -5.3070   29.1240 C   0  0  0  0  0  0  0  0  0  0  0  0
    4.7710   -4.6952   28.4803 C   0  0  0  0  0  0  0  0  0  0  0  0
    3.4047   -5.1087   28.1314 C   0  0  0  0  0  0  0  0  0  0  0  0
   -0.2234  -11.8615   16.8874 C   0  0  0  0  0  0  0  0  0  0  0  0
    6.4491   -4.1532   30.1213 C   0  0  0  0  0  0  0  0  0  0  0  0
    5.7060   -4.4340   27.4975 C   0  0  0  0  0  0  0  0  0  0  0  0
    1.1818   -5.6612   28.8399 C   0  0  0  0  0  0  0  0  0  0  0  0
   -1.2067   -7.3287   17.7772 C   0  0  0  0  0  0  0  0  0  0  0  0
   -0.0206  -10.5585   16.6210 C   0  0  0  0  0  0  0  0  0  0  0  0
    0.3696  -12.7626   16.2169 O   0  0  0  0  0  0  0  0  0  0  0  0
   -0.6895   -9.5676   17.3297 C   0  0  0  0  0  0  0  0  0  0  0  0
    0.8388   -5.8417   27.5264 C   0  0  0  0  0  0  0  0  0  0  0  0
   -2.0709   -7.6637   18.7817 C   0  0  0  0  0  0  0  0  0  0  0  0
   -0.5279   -8.2168   17.0717 C   0  0  0  0  0  0  0  0  0  0  0  0
    6.9694   -4.0191   27.8190 C   0  0  0  0  0  0  0  0  0  0  0  0
    5.1733   -4.5469   29.8123 C   0  0  0  0  0  0  0  0  0  0  0  0
   -1.7508  -11.3016   18.6072 C   0  0  0  0  0  0  0  0  0  0  0  0
    1.7497   -5.6771   26.4971 C   0  0  0  0  0  0  0  0  0  0  0  0
   -1.5799   -9.9322   18.3468 C   0  0  0  0  0  0  0  0  0  0  0  0
   -1.0871  -12.2214   17.8851 C   0  0  0  0  0  0  0  0  0  0  0  0
   -2.2706   -8.9669   19.0691 C   0  0  0  0  0  0  0  0  0  0  0  0
    3.0279   -5.3073   26.8197 C   0  0  0  0  0  0  0  0  0  0  0  0
    7.3282   -3.8948   29.1186 C   0  0  0  0  0  0  0  0  0  0  0  0
  1  3  4  0
  1  7  4  0
  2  3  1  0
  2  6  4  0
  2 16  4  0
  3 22  4  0
  4  9  4  0
  4 10  1  0
  4 20  4  0
  5 16  4  0
  5 23  4  0
  6 15  4  0
  7 12  4  0
  8 13  4  0
  8 14  4  0
  9 11  4  0
 11 14  4  0
 11 19  4  0
 12 18  4  0
 13 21  4  0
 15 23  4  0
 17 19  4  0
 17 20  4  0
 18 22  4  0
 19 21  4  0
M  END
$$$$

 Created by Python create_sdf_string function

 23 25  0  0  0  0  0  0  0  0999 V2000
    2.4610   -5.3070   29.1240 C   0  0  0  0  0  0  0  0  0  0  0  0
    4.7710   -4.6952   28.4803 C   0  0  0  0  0  0  0  0  0  0  0  0
    3.4047   -5.1087   28.1314 C   0  0  0  0  0  0  0  0  0  0  0  0
   -0.2234  -11.8615   16.8874 C   0  0  0  0  0  0  0  0  0  0  0  0
    6.4491   -4.1532   30.1213 C   0  0  0  0  0  0  0  0  0  0  0  0
    5.7060   -4.4340   27.4975 C   0  0  0  0  0  0  0  0  0  0  0  0
    1.1818   -5.6612   28.8399 C   0  0  0  0  0  0  0  0  0  0  0  0
   -1.2067   -7.3287   17.7772 C   0  0  0  0  0  0  0  0  0  0  0  0
   -0.0206  -10.5585   16.6210 C   0  0  0  0  0  0  0  0  0  0  0  0
    0.3696  -12.7626   16.2169 O   0  0  0  0  0  0  0  0  0  0  0  0
   -0.6895   -9.5676   17.3297 C   0  0  0  0  0  0  0  0  0  0  0  0
    0.8388   -5.8417   27.5264 C   0  0  0  0  0  0  0  0  0  0  0  0
   -2.0709   -7.6637   18.7817 C   0  0  0  0  0  0  0  0  0  0  0  0
   -0.5279   -8.2168   17.0717 C   0  0  0  0  0  0  0  0  0  0  0  0
    6.9694   -4.0191   27.8190 C   0  0  0  0  0  0  0  0  0  0  0  0
    5.1733   -4.5469   29.8123 C   0  0  0  0  0  0  0  0  0  0  0  0
   -1.7508  -11.3016   18.6072 C   0  0  0  0  0  0  0  0  0  0  0  0
    1.7497   -5.6771   26.4971 C   0  0  0  0  0  0  0  0  0  0  0  0
   -1.5799   -9.9322   18.3468 C   0  0  0  0  0  0  0  0  0  0  0  0
   -1.0871  -12.2214   17.8851 C   0  0  0  0  0  0  0  0  0  0  0  0
   -2.2706   -8.9669   19.0691 C   0  0  0  0  0  0  0  0  0  0  0  0
    3.0279   -5.3073   26.8197 C   0  0  0  0  0  0  0  0  0  0  0  0
    7.3282   -3.8948   29.1186 C   0  0  0  0  0  0  0  0  0  0  0  0
  1  3  4  0
  1  7  4  0
  2  3  1  0
  2  6  4  0
  2 16  4  0
  3 22  4  0
  4  9  4  0
  4 10  1  0
  4 20  4  0
  5 16  4  0
  5 23  4  0
  6 15  4  0
  7 12  4  0
  8 13  4  0
  8 14  4  0
  9 11  4  0
 11 14  4  0
 11 19  4  0
 12 18  4  0
 13 21  4  0
 15 23  4  0
 17 19  4  0
 17 20  4  0
 18 22  4  0
 19 21  4  0
M  END
$$$$

 Created by Python create_sdf_string function

 23 25  0  0  0  0  0  0  0  0999 V2000
    2.4610   -5.3070   29.1240 C   0  0  0  0  0  0  0  0  0  0  0  0
    4.7710   -4.6952   28.4803 C   0  0  0  0  0  0  0  0  0  0  0  0
    3.4047   -5.1087   28.1314 C   0  0  0  0  0  0  0  0  0  0  0  0
   -0.2234  -11.8615   16.8874 C   0  0  0  0  0  0  0  0  0  0  0  0
    6.4491   -4.1532   30.1213 C   0  0  0  0  0  0  0  0  0  0  0  0
    5.7060   -4.4340   27.4975 C   0  0  0  0  0  0  0  0  0  0  0  0
    1.1818   -5.6612   28.8399 C   0  0  0  0  0  0  0  0  0  0  0  0
   -1.2067   -7.3287   17.7772 C   0  0  0  0  0  0  0  0  0  0  0  0
   -0.0206  -10.5585   16.6210 C   0  0  0  0  0  0  0  0  0  0  0  0
    0.3696  -12.7626   16.2169 O   0  0  0  0  0  0  0  0  0  0  0  0
   -0.6895   -9.5676   17.3297 C   0  0  0  0  0  0  0  0  0  0  0  0
    0.8388   -5.8417   27.5264 C   0  0  0  0  0  0  0  0  0  0  0  0
   -2.0709   -7.6637   18.7817 C   0  0  0  0  0  0  0  0  0  0  0  0
   -0.5279   -8.2168   17.0717 C   0  0  0  0  0  0  0  0  0  0  0  0
    6.9694   -4.0191   27.8190 C   0  0  0  0  0  0  0  0  0  0  0  0
    5.1733   -4.5469   29.8123 C   0  0  0  0  0  0  0  0  0  0  0  0
   -1.7508  -11.3016   18.6072 C   0  0  0  0  0  0  0  0  0  0  0  0
    1.7497   -5.6771   26.4971 C   0  0  0  0  0  0  0  0  0  0  0  0
   -1.5799   -9.9322   18.3468 C   0  0  0  0  0  0  0  0  0  0  0  0
   -1.0871  -12.2214   17.8851 C   0  0  0  0  0  0  0  0  0  0  0  0
   -2.2706   -8.9669   19.0691 C   0  0  0  0  0  0  0  0  0  0  0  0
    3.0279   -5.3073   26.8197 C   0  0  0  0  0  0  0  0  0  0  0  0
    7.3282   -3.8948   29.1186 C   0  0  0  0  0  0  0  0  0  0  0  0
  1  3  4  0
  1  7  4  0
  2  3  1  0
  2  6  4  0
  2 16  4  0
  3 22  4  0
  4  9  4  0
  4 10  1  0
  4 20  4  0
  5 16  4  0
  5 23  4  0
  6 15  4  0
  7 12  4  0
  8 13  4  0
  8 14  4  0
  9 11  4  0
 11 14  4  0
 11 19  4  0
 12 18  4  0
 13 21  4  0
 15 23  4  0
 17 19  4  0
 17 20  4  0
 18 22  4  0
 19 21  4  0
M  END
$$$$

 Created by Python create_sdf_string function

 23 25  0  0  0  0  0  0  0  0999 V2000
    2.4610   -5.3070   29.1240 C   0  0  0  0  0  0  0  0  0  0  0  0
    4.7710   -4.6952   28.4803 C   0  0  0  0  0  0  0  0  0  0  0  0
    3.4047   -5.1087   28.1314 C   0  0  0  0  0  0  0  0  0  0  0  0
   -0.2234  -11.8615   16.8874 C   0  0  0  0  0  0  0  0  0  0  0  0
    6.4491   -4.1532   30.1213 C   0  0  0  0  0  0  0  0  0  0  0  0
    5.7060   -4.4340   27.4975 C   0  0  0  0  0  0  0  0  0  0  0  0
    1.1818   -5.6612   28.8399 C   0  0  0  0  0  0  0  0  0  0  0  0
   -1.2067   -7.3287   17.7772 C   0  0  0  0  0  0  0  0  0  0  0  0
   -0.0206  -10.5585   16.6210 C   0  0  0  0  0  0  0  0  0  0  0  0
    0.3696  -12.7626   16.2169 O   0  0  0  0  0  0  0  0  0  0  0  0
   -0.6895   -9.5676   17.3297 C   0  0  0  0  0  0  0  0  0  0  0  0
    0.8388   -5.8417   27.5264 C   0  0  0  0  0  0  0  0  0  0  0  0
   -2.0709   -7.6637   18.7817 C   0  0  0  0  0  0  0  0  0  0  0  0
   -0.5279   -8.2168   17.0717 C   0  0  0  0  0  0  0  0  0  0  0  0
    6.9694   -4.0191   27.8190 C   0  0  0  0  0  0  0  0  0  0  0  0
    5.1733   -4.5469   29.8123 C   0  0  0  0  0  0  0  0  0  0  0  0
   -1.7508  -11.3016   18.6072 C   0  0  0  0  0  0  0  0  0  0  0  0
    1.7497   -5.6771   26.4971 C   0  0  0  0  0  0  0  0  0  0  0  0
   -1.5799   -9.9322   18.3468 C   0  0  0  0  0  0  0  0  0  0  0  0
   -1.0871  -12.2214   17.8851 C   0  0  0  0  0  0  0  0  0  0  0  0
   -2.2706   -8.9669   19.0691 C   0  0  0  0  0  0  0  0  0  0  0  0
    3.0279   -5.3073   26.8197 C   0  0  0  0  0  0  0  0  0  0  0  0
    7.3282   -3.8948   29.1186 C   0  0  0  0  0  0  0  0  0  0  0  0
  1  3  4  0
  1  7  4  0
  2  3  1  0
  2  6  4  0
  2 16  4  0
  3 22  4  0
  4  9  4  0
  4 10  1  0
  4 20  4  0
  5 16  4  0
  5 23  4  0
  6 15  4  0
  7 12  4  0
  8 13  4  0
  8 14  4  0
  9 11  4  0
 11 14  4  0
 11 19  4  0
 12 18  4  0
 13 21  4  0
 15 23  4  0
 17 19  4  0
 17 20  4  0
 18 22  4  0
 19 21  4  0
M  END
$$$$

 Created by Python create_sdf_string function

 23 25  0  0  0  0  0  0  0  0999 V2000
    2.4610   -5.3070   29.1240 C   0  0  0  0  0  0  0  0  0  0  0  0
    4.7710   -4.6952   28.4803 C   0  0  0  0  0  0  0  0  0  0  0  0
    3.4047   -5.1087   28.1314 C   0  0  0  0  0  0  0  0  0  0  0  0
   -0.2234  -11.8615   16.8874 C   0  0  0  0  0  0  0  0  0  0  0  0
    6.4491   -4.1532   30.1213 C   0  0  0  0  0  0  0  0  0  0  0  0
    5.7060   -4.4340   27.4975 C   0  0  0  0  0  0  0  0  0  0  0  0
    1.1818   -5.6612   28.8399 C   0  0  0  0  0  0  0  0  0  0  0  0
   -1.2067   -7.3287   17.7772 C   0  0  0  0  0  0  0  0  0  0  0  0
   -0.0206  -10.5585   16.6210 C   0  0  0  0  0  0  0  0  0  0  0  0
    0.3696  -12.7626   16.2169 O   0  0  0  0  0  0  0  0  0  0  0  0
   -0.6895   -9.5676   17.3297 C   0  0  0  0  0  0  0  0  0  0  0  0
    0.8388   -5.8417   27.5264 C   0  0  0  0  0  0  0  0  0  0  0  0
   -2.0709   -7.6637   18.7817 C   0  0  0  0  0  0  0  0  0  0  0  0
   -0.5279   -8.2168   17.0717 C   0  0  0  0  0  0  0  0  0  0  0  0
    6.9694   -4.0191   27.8190 C   0  0  0  0  0  0  0  0  0  0  0  0
    5.1733   -4.5469   29.8123 C   0  0  0  0  0  0  0  0  0  0  0  0
   -1.7508  -11.3016   18.6072 C   0  0  0  0  0  0  0  0  0  0  0  0
    1.7497   -5.6771   26.4971 C   0  0  0  0  0  0  0  0  0  0  0  0
   -1.5799   -9.9322   18.3468 C   0  0  0  0  0  0  0  0  0  0  0  0
   -1.0871  -12.2214   17.8851 C   0  0  0  0  0  0  0  0  0  0  0  0
   -2.2706   -8.9669   19.0691 C   0  0  0  0  0  0  0  0  0  0  0  0
    3.0279   -5.3073   26.8197 C   0  0  0  0  0  0  0  0  0  0  0  0
    7.3282   -3.8948   29.1186 C   0  0  0  0  0  0  0  0  0  0  0  0
  1  3  4  0
  1  7  4  0
  2  3  1  0
  2  6  4  0
  2 16  4  0
  3 22  4  0
  4  9  4  0
  4 10  1  0
  4 20  4  0
  5 16  4  0
  5 23  4  0
  6 15  4  0
  7 12  4  0
  8 13  4  0
  8 14  4  0
  9 11  4  0
 11 14  4  0
 11 19  4  0
 12 18  4  0
 13 21  4  0
 15 23  4  0
 17 19  4  0
 17 20  4  0
 18 22  4  0
 19 21  4  0
M  END
$$$$

 Created by Python create_sdf_string function

 23 25  0  0  0  0  0  0  0  0999 V2000
    2.4610   -5.3070   29.1240 C   0  0  0  0  0  0  0  0  0  0  0  0
    4.7710   -4.6952   28.4803 C   0  0  0  0  0  0  0  0  0  0  0  0
    3.4047   -5.1087   28.1314 C   0  0  0  0  0  0  0  0  0  0  0  0
   -0.2234  -11.8615   16.8874 C   0  0  0  0  0  0  0  0  0  0  0  0
    6.4491   -4.1532   30.1213 C   0  0  0  0  0  0  0  0  0  0  0  0
    5.7060   -4.4340   27.4975 C   0  0  0  0  0  0  0  0  0  0  0  0
    1.1818   -5.6612   28.8399 C   0  0  0  0  0  0  0  0  0  0  0  0
   -1.2067   -7.3287   17.7772 C   0  0  0  0  0  0  0  0  0  0  0  0
   -0.0206  -10.5585   16.6210 C   0  0  0  0  0  0  0  0  0  0  0  0
    0.3696  -12.7626   16.2169 O   0  0  0  0  0  0  0  0  0  0  0  0
   -0.6895   -9.5676   17.3297 C   0  0  0  0  0  0  0  0  0  0  0  0
    0.8388   -5.8417   27.5264 C   0  0  0  0  0  0  0  0  0  0  0  0
   -2.0709   -7.6637   18.7817 C   0  0  0  0  0  0  0  0  0  0  0  0
   -0.5279   -8.2168   17.0717 C   0  0  0  0  0  0  0  0  0  0  0  0
    6.9694   -4.0191   27.8190 C   0  0  0  0  0  0  0  0  0  0  0  0
    5.1733   -4.5469   29.8123 C   0  0  0  0  0  0  0  0  0  0  0  0
   -1.7508  -11.3016   18.6072 C   0  0  0  0  0  0  0  0  0  0  0  0
    1.7497   -5.6771   26.4971 C   0  0  0  0  0  0  0  0  0  0  0  0
   -1.5799   -9.9322   18.3468 C   0  0  0  0  0  0  0  0  0  0  0  0
   -1.0871  -12.2214   17.8851 C   0  0  0  0  0  0  0  0  0  0  0  0
   -2.2706   -8.9669   19.0691 C   0  0  0  0  0  0  0  0  0  0  0  0
    3.0279   -5.3073   26.8197 C   0  0  0  0  0  0  0  0  0  0  0  0
    7.3282   -3.8948   29.1186 C   0  0  0  0  0  0  0  0  0  0  0  0
  1  3  4  0
  1  7  4  0
  2  3  1  0
  2  6  4  0
  2 16  4  0
  3 22  4  0
  4  9  4  0
  4 10  1  0
  4 20  4  0
  5 16  4  0
  5 23  4  0
  6 15  4  0
  7 12  4  0
  8 13  4  0
  8 14  4  0
  9 11  4  0
 11 14  4  0
 11 19  4  0
 12 18  4  0
 13 21  4  0
 15 23  4  0
 17 19  4  0
 17 20  4  0
 18 22  4  0
 19 21  4  0
M  END
$$$$

 Created by Python create_sdf_string function

 23 25  0  0  0  0  0  0  0  0999 V2000
    2.4610   -5.3070   29.1240 C   0  0  0  0  0  0  0  0  0  0  0  0
    4.7710   -4.6952   28.4803 C   0  0  0  0  0  0  0  0  0  0  0  0
    3.4047   -5.1087   28.1314 C   0  0  0  0  0  0  0  0  0  0  0  0
   -0.2234  -11.8615   16.8874 C   0  0  0  0  0  0  0  0  0  0  0  0
    6.4491   -4.1532   30.1213 C   0  0  0  0  0  0  0  0  0  0  0  0
    5.7060   -4.4340   27.4975 C   0  0  0  0  0  0  0  0  0  0  0  0
    1.1818   -5.6612   28.8399 C   0  0  0  0  0  0  0  0  0  0  0  0
   -1.2067   -7.3287   17.7772 C   0  0  0  0  0  0  0  0  0  0  0  0
   -0.0206  -10.5585   16.6210 C   0  0  0  0  0  0  0  0  0  0  0  0
    0.3696  -12.7626   16.2169 O   0  0  0  0  0  0  0  0  0  0  0  0
   -0.6895   -9.5676   17.3297 C   0  0  0  0  0  0  0  0  0  0  0  0
    0.8388   -5.8417   27.5264 C   0  0  0  0  0  0  0  0  0  0  0  0
   -2.0709   -7.6637   18.7817 C   0  0  0  0  0  0  0  0  0  0  0  0
   -0.5279   -8.2168   17.0717 C   0  0  0  0  0  0  0  0  0  0  0  0
    6.9694   -4.0191   27.8190 C   0  0  0  0  0  0  0  0  0  0  0  0
    5.1733   -4.5469   29.8123 C   0  0  0  0  0  0  0  0  0  0  0  0
   -1.7508  -11.3016   18.6072 C   0  0  0  0  0  0  0  0  0  0  0  0
    1.7497   -5.6771   26.4971 C   0  0  0  0  0  0  0  0  0  0  0  0
   -1.5799   -9.9322   18.3468 C   0  0  0  0  0  0  0  0  0  0  0  0
   -1.0871  -12.2214   17.8851 C   0  0  0  0  0  0  0  0  0  0  0  0
   -2.2706   -8.9669   19.0691 C   0  0  0  0  0  0  0  0  0  0  0  0
    3.0279   -5.3073   26.8197 C   0  0  0  0  0  0  0  0  0  0  0  0
    7.3282   -3.8948   29.1186 C   0  0  0  0  0  0  0  0  0  0  0  0
  1  3  4  0
  1  7  4  0
  2  3  1  0
  2  6  4  0
  2 16  4  0
  3 22  4  0
  4  9  4  0
  4 10  1  0
  4 20  4  0
  5 16  4  0
  5 23  4  0
  6 15  4  0
  7 12  4  0
  8 13  4  0
  8 14  4  0
  9 11  4  0
 11 14  4  0
 11 19  4  0
 12 18  4  0
 13 21  4  0
 15 23  4  0
 17 19  4  0
 17 20  4  0
 18 22  4  0
 19 21  4  0
M  END
$$$$

 Created by Python create_sdf_string function

 23 25  0  0  0  0  0  0  0  0999 V2000
    2.4610   -5.3070   29.1240 C   0  0  0  0  0  0  0  0  0  0  0  0
    4.7710   -4.6952   28.4803 C   0  0  0  0  0  0  0  0  0  0  0  0
    3.4047   -5.1087   28.1314 C   0  0  0  0  0  0  0  0  0  0  0  0
   -0.2234  -11.8615   16.8874 C   0  0  0  0  0  0  0  0  0  0  0  0
    6.4491   -4.1532   30.1213 C   0  0  0  0  0  0  0  0  0  0  0  0
    5.7060   -4.4340   27.4975 C   0  0  0  0  0  0  0  0  0  0  0  0
    1.1818   -5.6612   28.8399 C   0  0  0  0  0  0  0  0  0  0  0  0
   -1.2067   -7.3287   17.7772 C   0  0  0  0  0  0  0  0  0  0  0  0
   -0.0206  -10.5585   16.6210 C   0  0  0  0  0  0  0  0  0  0  0  0
    0.3696  -12.7626   16.2169 O   0  0  0  0  0  0  0  0  0  0  0  0
   -0.6895   -9.5676   17.3297 C   0  0  0  0  0  0  0  0  0  0  0  0
    0.8388   -5.8417   27.5264 C   0  0  0  0  0  0  0  0  0  0  0  0
   -2.0709   -7.6637   18.7817 C   0  0  0  0  0  0  0  0  0  0  0  0
   -0.5279   -8.2168   17.0717 C   0  0  0  0  0  0  0  0  0  0  0  0
    6.9694   -4.0191   27.8190 C   0  0  0  0  0  0  0  0  0  0  0  0
    5.1733   -4.5469   29.8123 C   0  0  0  0  0  0  0  0  0  0  0  0
   -1.7508  -11.3016   18.6072 C   0  0  0  0  0  0  0  0  0  0  0  0
    1.7497   -5.6771   26.4971 C   0  0  0  0  0  0  0  0  0  0  0  0
   -1.5799   -9.9322   18.3468 C   0  0  0  0  0  0  0  0  0  0  0  0
   -1.0871  -12.2214   17.8851 C   0  0  0  0  0  0  0  0  0  0  0  0
   -2.2706   -8.9669   19.0691 C   0  0  0  0  0  0  0  0  0  0  0  0
    3.0279   -5.3073   26.8197 C   0  0  0  0  0  0  0  0  0  0  0  0
    7.3282   -3.8948   29.1186 C   0  0  0  0  0  0  0  0  0  0  0  0
  1  3  4  0
  1  7  4  0
  2  3  1  0
  2  6  4  0
  2 16  4  0
  3 22  4  0
  4  9  4  0
  4 10  1  0
  4 20  4  0
  5 16  4  0
  5 23  4  0
  6 15  4  0
  7 12  4  0
  8 13  4  0
  8 14  4  0
  9 11  4  0
 11 14  4  0
 11 19  4  0
 12 18  4  0
 13 21  4  0
 15 23  4  0
 17 19  4  0
 17 20  4  0
 18 22  4  0
 19 21  4  0
M  END
$$$$

 Created by Python create_sdf_string function

 23 25  0  0  0  0  0  0  0  0999 V2000
    2.4610   -5.3070   29.1240 C   0  0  0  0  0  0  0  0  0  0  0  0
    4.7710   -4.6952   28.4803 C   0  0  0  0  0  0  0  0  0  0  0  0
    3.4047   -5.1087   28.1314 C   0  0  0  0  0  0  0  0  0  0  0  0
   -0.2234  -11.8615   16.8874 C   0  0  0  0  0  0  0  0  0  0  0  0
    6.4491   -4.1532   30.1213 C   0  0  0  0  0  0  0  0  0  0  0  0
    5.7060   -4.4340   27.4975 C   0  0  0  0  0  0  0  0  0  0  0  0
    1.1818   -5.6612   28.8399 C   0  0  0  0  0  0  0  0  0  0  0  0
   -1.2067   -7.3287   17.7772 C   0  0  0  0  0  0  0  0  0  0  0  0
   -0.0206  -10.5585   16.6210 C   0  0  0  0  0  0  0  0  0  0  0  0
    0.3696  -12.7626   16.2169 O   0  0  0  0  0  0  0  0  0  0  0  0
   -0.6895   -9.5676   17.3297 C   0  0  0  0  0  0  0  0  0  0  0  0
    0.8388   -5.8417   27.5264 C   0  0  0  0  0  0  0  0  0  0  0  0
   -2.0709   -7.6637   18.7817 C   0  0  0  0  0  0  0  0  0  0  0  0
   -0.5279   -8.2168   17.0717 C   0  0  0  0  0  0  0  0  0  0  0  0
    6.9694   -4.0191   27.8190 C   0  0  0  0  0  0  0  0  0  0  0  0
    5.1733   -4.5469   29.8123 C   0  0  0  0  0  0  0  0  0  0  0  0
   -1.7508  -11.3016   18.6072 C   0  0  0  0  0  0  0  0  0  0  0  0
    1.7497   -5.6771   26.4971 C   0  0  0  0  0  0  0  0  0  0  0  0
   -1.5799   -9.9322   18.3468 C   0  0  0  0  0  0  0  0  0  0  0  0
   -1.0871  -12.2214   17.8851 C   0  0  0  0  0  0  0  0  0  0  0  0
   -2.2706   -8.9669   19.0691 C   0  0  0  0  0  0  0  0  0  0  0  0
    3.0279   -5.3073   26.8197 C   0  0  0  0  0  0  0  0  0  0  0  0
    7.3282   -3.8948   29.1186 C   0  0  0  0  0  0  0  0  0  0  0  0
  1  3  4  0
  1  7  4  0
  2  3  1  0
  2  6  4  0
  2 16  4  0
  3 22  4  0
  4  9  4  0
  4 10  1  0
  4 20  4  0
  5 16  4  0
  5 23  4  0
  6 15  4  0
  7 12  4  0
  8 13  4  0
  8 14  4  0
  9 11  4  0
 11 14  4  0
 11 19  4  0
 12 18  4  0
 13 21  4  0
 15 23  4  0
 17 19  4  0
 17 20  4  0
 18 22  4  0
 19 21  4  0
M  END
$$$$

 Created by Python create_sdf_string function

 23 25  0  0  0  0  0  0  0  0999 V2000
    2.4610   -5.3070   29.1240 C   0  0  0  0  0  0  0  0  0  0  0  0
    4.7710   -4.6952   28.4803 C   0  0  0  0  0  0  0  0  0  0  0  0
    3.4047   -5.1087   28.1314 C   0  0  0  0  0  0  0  0  0  0  0  0
   -0.2234  -11.8615   16.8874 C   0  0  0  0  0  0  0  0  0  0  0  0
    6.4491   -4.1532   30.1213 C   0  0  0  0  0  0  0  0  0  0  0  0
    5.7060   -4.4340   27.4975 C   0  0  0  0  0  0  0  0  0  0  0  0
    1.1818   -5.6612   28.8399 C   0  0  0  0  0  0  0  0  0  0  0  0
   -1.2067   -7.3287   17.7772 C   0  0  0  0  0  0  0  0  0  0  0  0
   -0.0206  -10.5585   16.6210 C   0  0  0  0  0  0  0  0  0  0  0  0
    0.3696  -12.7626   16.2169 O   0  0  0  0  0  0  0  0  0  0  0  0
   -0.6895   -9.5676   17.3297 C   0  0  0  0  0  0  0  0  0  0  0  0
    0.8388   -5.8417   27.5264 C   0  0  0  0  0  0  0  0  0  0  0  0
   -2.0709   -7.6637   18.7817 C   0  0  0  0  0  0  0  0  0  0  0  0
   -0.5279   -8.2168   17.0717 C   0  0  0  0  0  0  0  0  0  0  0  0
    6.9694   -4.0191   27.8190 C   0  0  0  0  0  0  0  0  0  0  0  0
    5.1733   -4.5469   29.8123 C   0  0  0  0  0  0  0  0  0  0  0  0
   -1.7508  -11.3016   18.6072 C   0  0  0  0  0  0  0  0  0  0  0  0
    1.7497   -5.6771   26.4971 C   0  0  0  0  0  0  0  0  0  0  0  0
   -1.5799   -9.9322   18.3468 C   0  0  0  0  0  0  0  0  0  0  0  0
   -1.0871  -12.2214   17.8851 C   0  0  0  0  0  0  0  0  0  0  0  0
   -2.2706   -8.9669   19.0691 C   0  0  0  0  0  0  0  0  0  0  0  0
    3.0279   -5.3073   26.8197 C   0  0  0  0  0  0  0  0  0  0  0  0
    7.3282   -3.8948   29.1186 C   0  0  0  0  0  0  0  0  0  0  0  0
  1  3  4  0
  1  7  4  0
  2  3  1  0
  2  6  4  0
  2 16  4  0
  3 22  4  0
  4  9  4  0
  4 10  1  0
  4 20  4  0
  5 16  4  0
  5 23  4  0
  6 15  4  0
  7 12  4  0
  8 13  4  0
  8 14  4  0
  9 11  4  0
 11 14  4  0
 11 19  4  0
 12 18  4  0
 13 21  4  0
 15 23  4  0
 17 19  4  0
 17 20  4  0
 18 22  4  0
 19 21  4  0
M  END
$$$$

 Created by Python create_sdf_string function

 23 25  0  0  0  0  0  0  0  0999 V2000
    2.4610   -5.3070   29.1240 C   0  0  0  0  0  0  0  0  0  0  0  0
    4.7710   -4.6952   28.4803 C   0  0  0  0  0  0  0  0  0  0  0  0
    3.4047   -5.1087   28.1314 C   0  0  0  0  0  0  0  0  0  0  0  0
   -0.2234  -11.8615   16.8874 C   0  0  0  0  0  0  0  0  0  0  0  0
    6.4491   -4.1532   30.1213 C   0  0  0  0  0  0  0  0  0  0  0  0
    5.7060   -4.4340   27.4975 C   0  0  0  0  0  0  0  0  0  0  0  0
    1.1818   -5.6612   28.8399 C   0  0  0  0  0  0  0  0  0  0  0  0
   -1.2067   -7.3287   17.7772 C   0  0  0  0  0  0  0  0  0  0  0  0
   -0.0206  -10.5585   16.6210 C   0  0  0  0  0  0  0  0  0  0  0  0
    0.3696  -12.7626   16.2169 O   0  0  0  0  0  0  0  0  0  0  0  0
   -0.6895   -9.5676   17.3297 C   0  0  0  0  0  0  0  0  0  0  0  0
    0.8388   -5.8417   27.5264 C   0  0  0  0  0  0  0  0  0  0  0  0
   -2.0709   -7.6637   18.7817 C   0  0  0  0  0  0  0  0  0  0  0  0
   -0.5279   -8.2168   17.0717 C   0  0  0  0  0  0  0  0  0  0  0  0
    6.9694   -4.0191   27.8190 C   0  0  0  0  0  0  0  0  0  0  0  0
    5.1733   -4.5469   29.8123 C   0  0  0  0  0  0  0  0  0  0  0  0
   -1.7508  -11.3016   18.6072 C   0  0  0  0  0  0  0  0  0  0  0  0
    1.7497   -5.6771   26.4971 C   0  0  0  0  0  0  0  0  0  0  0  0
   -1.5799   -9.9322   18.3468 C   0  0  0  0  0  0  0  0  0  0  0  0
   -1.0871  -12.2214   17.8851 C   0  0  0  0  0  0  0  0  0  0  0  0
   -2.2706   -8.9669   19.0691 C   0  0  0  0  0  0  0  0  0  0  0  0
    3.0279   -5.3073   26.8197 C   0  0  0  0  0  0  0  0  0  0  0  0
    7.3282   -3.8948   29.1186 C   0  0  0  0  0  0  0  0  0  0  0  0
  1  3  4  0
  1  7  4  0
  2  3  1  0
  2  6  4  0
  2 16  4  0
  3 22  4  0
  4  9  4  0
  4 10  1  0
  4 20  4  0
  5 16  4  0
  5 23  4  0
  6 15  4  0
  7 12  4  0
  8 13  4  0
  8 14  4  0
  9 11  4  0
 11 14  4  0
 11 19  4  0
 12 18  4  0
 13 21  4  0
 15 23  4  0
 17 19  4  0
 17 20  4  0
 18 22  4  0
 19 21  4  0
M  END
$$$$

 Created by Python create_sdf_string function

 23 25  0  0  0  0  0  0  0  0999 V2000
    2.4610   -5.3070   29.1240 C   0  0  0  0  0  0  0  0  0  0  0  0
    4.7710   -4.6952   28.4803 C   0  0  0  0  0  0  0  0  0  0  0  0
    3.4047   -5.1087   28.1314 C   0  0  0  0  0  0  0  0  0  0  0  0
   -0.2234  -11.8615   16.8874 C   0  0  0  0  0  0  0  0  0  0  0  0
    6.4491   -4.1532   30.1213 C   0  0  0  0  0  0  0  0  0  0  0  0
    5.7060   -4.4340   27.4975 C   0  0  0  0  0  0  0  0  0  0  0  0
    1.1818   -5.6612   28.8399 C   0  0  0  0  0  0  0  0  0  0  0  0
   -1.2067   -7.3287   17.7772 C   0  0  0  0  0  0  0  0  0  0  0  0
   -0.0206  -10.5585   16.6210 C   0  0  0  0  0  0  0  0  0  0  0  0
    0.3696  -12.7626   16.2169 O   0  0  0  0  0  0  0  0  0  0  0  0
   -0.6895   -9.5676   17.3297 C   0  0  0  0  0  0  0  0  0  0  0  0
    0.8388   -5.8417   27.5264 C   0  0  0  0  0  0  0  0  0  0  0  0
   -2.0709   -7.6637   18.7817 C   0  0  0  0  0  0  0  0  0  0  0  0
   -0.5279   -8.2168   17.0717 C   0  0  0  0  0  0  0  0  0  0  0  0
    6.9694   -4.0191   27.8190 C   0  0  0  0  0  0  0  0  0  0  0  0
    5.1733   -4.5469   29.8123 C   0  0  0  0  0  0  0  0  0  0  0  0
   -1.7508  -11.3016   18.6072 C   0  0  0  0  0  0  0  0  0  0  0  0
    1.7497   -5.6771   26.4971 C   0  0  0  0  0  0  0  0  0  0  0  0
   -1.5799   -9.9322   18.3468 C   0  0  0  0  0  0  0  0  0  0  0  0
   -1.0871  -12.2214   17.8851 C   0  0  0  0  0  0  0  0  0  0  0  0
   -2.2706   -8.9669   19.0691 C   0  0  0  0  0  0  0  0  0  0  0  0
    3.0279   -5.3073   26.8197 C   0  0  0  0  0  0  0  0  0  0  0  0
    7.3282   -3.8948   29.1186 C   0  0  0  0  0  0  0  0  0  0  0  0
  1  3  4  0
  1  7  4  0
  2  3  1  0
  2  6  4  0
  2 16  4  0
  3 22  4  0
  4  9  4  0
  4 10  1  0
  4 20  4  0
  5 16  4  0
  5 23  4  0
  6 15  4  0
  7 12  4  0
  8 13  4  0
  8 14  4  0
  9 11  4  0
 11 14  4  0
 11 19  4  0
 12 18  4  0
 13 21  4  0
 15 23  4  0
 17 19  4  0
 17 20  4  0
 18 22  4  0
 19 21  4  0
M  END
$$$$

 Created by Python create_sdf_string function

 23 25  0  0  0  0  0  0  0  0999 V2000
    2.4610   -5.3070   29.1240 C   0  0  0  0  0  0  0  0  0  0  0  0
    4.7710   -4.6952   28.4803 C   0  0  0  0  0  0  0  0  0  0  0  0
    3.4047   -5.1087   28.1314 C   0  0  0  0  0  0  0  0  0  0  0  0
   -0.2234  -11.8615   16.8874 C   0  0  0  0  0  0  0  0  0  0  0  0
    6.4491   -4.1532   30.1213 C   0  0  0  0  0  0  0  0  0  0  0  0
    5.7060   -4.4340   27.4975 C   0  0  0  0  0  0  0  0  0  0  0  0
    1.1818   -5.6612   28.8399 C   0  0  0  0  0  0  0  0  0  0  0  0
   -1.2067   -7.3287   17.7772 C   0  0  0  0  0  0  0  0  0  0  0  0
   -0.0206  -10.5585   16.6210 C   0  0  0  0  0  0  0  0  0  0  0  0
    0.3696  -12.7626   16.2169 O   0  0  0  0  0  0  0  0  0  0  0  0
   -0.6895   -9.5676   17.3297 C   0  0  0  0  0  0  0  0  0  0  0  0
    0.8388   -5.8417   27.5264 C   0  0  0  0  0  0  0  0  0  0  0  0
   -2.0709   -7.6637   18.7817 C   0  0  0  0  0  0  0  0  0  0  0  0
   -0.5279   -8.2168   17.0717 C   0  0  0  0  0  0  0  0  0  0  0  0
    6.9694   -4.0191   27.8190 C   0  0  0  0  0  0  0  0  0  0  0  0
    5.1733   -4.5469   29.8123 C   0  0  0  0  0  0  0  0  0  0  0  0
   -1.7508  -11.3016   18.6072 C   0  0  0  0  0  0  0  0  0  0  0  0
    1.7497   -5.6771   26.4971 C   0  0  0  0  0  0  0  0  0  0  0  0
   -1.5799   -9.9322   18.3468 C   0  0  0  0  0  0  0  0  0  0  0  0
   -1.0871  -12.2214   17.8851 C   0  0  0  0  0  0  0  0  0  0  0  0
   -2.2706   -8.9669   19.0691 C   0  0  0  0  0  0  0  0  0  0  0  0
    3.0279   -5.3073   26.8197 C   0  0  0  0  0  0  0  0  0  0  0  0
    7.3282   -3.8948   29.1186 C   0  0  0  0  0  0  0  0  0  0  0  0
  1  3  4  0
  1  7  4  0
  2  3  1  0
  2  6  4  0
  2 16  4  0
  3 22  4  0
  4  9  4  0
  4 10  1  0
  4 20  4  0
  5 16  4  0
  5 23  4  0
  6 15  4  0
  7 12  4  0
  8 13  4  0
  8 14  4  0
  9 11  4  0
 11 14  4  0
 11 19  4  0
 12 18  4  0
 13 21  4  0
 15 23  4  0
 17 19  4  0
 17 20  4  0
 18 22  4  0
 19 21  4  0
M  END
$$$$

 Created by Python create_sdf_string function

 23 25  0  0  0  0  0  0  0  0999 V2000
    2.4610   -5.3070   29.1240 C   0  0  0  0  0  0  0  0  0  0  0  0
    4.7710   -4.6952   28.4803 C   0  0  0  0  0  0  0  0  0  0  0  0
    3.4047   -5.1087   28.1314 C   0  0  0  0  0  0  0  0  0  0  0  0
   -0.2234  -11.8615   16.8874 C   0  0  0  0  0  0  0  0  0  0  0  0
    6.4491   -4.1532   30.1213 C   0  0  0  0  0  0  0  0  0  0  0  0
    5.7060   -4.4340   27.4975 C   0  0  0  0  0  0  0  0  0  0  0  0
    1.1818   -5.6612   28.8399 C   0  0  0  0  0  0  0  0  0  0  0  0
   -1.2067   -7.3287   17.7772 C   0  0  0  0  0  0  0  0  0  0  0  0
   -0.0206  -10.5585   16.6210 C   0  0  0  0  0  0  0  0  0  0  0  0
    0.3696  -12.7626   16.2169 O   0  0  0  0  0  0  0  0  0  0  0  0
   -0.6895   -9.5676   17.3297 C   0  0  0  0  0  0  0  0  0  0  0  0
    0.8388   -5.8417   27.5264 C   0  0  0  0  0  0  0  0  0  0  0  0
   -2.0709   -7.6637   18.7817 C   0  0  0  0  0  0  0  0  0  0  0  0
   -0.5279   -8.2168   17.0717 C   0  0  0  0  0  0  0  0  0  0  0  0
    6.9694   -4.0191   27.8190 C   0  0  0  0  0  0  0  0  0  0  0  0
    5.1733   -4.5469   29.8123 C   0  0  0  0  0  0  0  0  0  0  0  0
   -1.7508  -11.3016   18.6072 C   0  0  0  0  0  0  0  0  0  0  0  0
    1.7497   -5.6771   26.4971 C   0  0  0  0  0  0  0  0  0  0  0  0
   -1.5799   -9.9322   18.3468 C   0  0  0  0  0  0  0  0  0  0  0  0
   -1.0871  -12.2214   17.8851 C   0  0  0  0  0  0  0  0  0  0  0  0
   -2.2706   -8.9669   19.0691 C   0  0  0  0  0  0  0  0  0  0  0  0
    3.0279   -5.3073   26.8197 C   0  0  0  0  0  0  0  0  0  0  0  0
    7.3282   -3.8948   29.1186 C   0  0  0  0  0  0  0  0  0  0  0  0
  1  3  4  0
  1  7  4  0
  2  3  1  0
  2  6  4  0
  2 16  4  0
  3 22  4  0
  4  9  4  0
  4 10  1  0
  4 20  4  0
  5 16  4  0
  5 23  4  0
  6 15  4  0
  7 12  4  0
  8 13  4  0
  8 14  4  0
  9 11  4  0
 11 14  4  0
 11 19  4  0
 12 18  4  0
 13 21  4  0
 15 23  4  0
 17 19  4  0
 17 20  4  0
 18 22  4  0
 19 21  4  0
M  END
$$$$

 Created by Python create_sdf_string function

 23 25  0  0  0  0  0  0  0  0999 V2000
    2.4610   -5.3070   29.1240 C   0  0  0  0  0  0  0  0  0  0  0  0
    4.7710   -4.6952   28.4803 C   0  0  0  0  0  0  0  0  0  0  0  0
    3.4047   -5.1087   28.1314 C   0  0  0  0  0  0  0  0  0  0  0  0
   -0.2234  -11.8615   16.8874 C   0  0  0  0  0  0  0  0  0  0  0  0
    6.4491   -4.1532   30.1213 C   0  0  0  0  0  0  0  0  0  0  0  0
    5.7060   -4.4340   27.4975 C   0  0  0  0  0  0  0  0  0  0  0  0
    1.1818   -5.6612   28.8399 C   0  0  0  0  0  0  0  0  0  0  0  0
   -1.2067   -7.3287   17.7772 C   0  0  0  0  0  0  0  0  0  0  0  0
   -0.0206  -10.5585   16.6210 C   0  0  0  0  0  0  0  0  0  0  0  0
    0.3696  -12.7626   16.2169 O   0  0  0  0  0  0  0  0  0  0  0  0
   -0.6895   -9.5676   17.3297 C   0  0  0  0  0  0  0  0  0  0  0  0
    0.8388   -5.8417   27.5264 C   0  0  0  0  0  0  0  0  0  0  0  0
   -2.0709   -7.6637   18.7817 C   0  0  0  0  0  0  0  0  0  0  0  0
   -0.5279   -8.2168   17.0717 C   0  0  0  0  0  0  0  0  0  0  0  0
    6.9694   -4.0191   27.8190 C   0  0  0  0  0  0  0  0  0  0  0  0
    5.1733   -4.5469   29.8123 C   0  0  0  0  0  0  0  0  0  0  0  0
   -1.7508  -11.3016   18.6072 C   0  0  0  0  0  0  0  0  0  0  0  0
    1.7497   -5.6771   26.4971 C   0  0  0  0  0  0  0  0  0  0  0  0
   -1.5799   -9.9322   18.3468 C   0  0  0  0  0  0  0  0  0  0  0  0
   -1.0871  -12.2214   17.8851 C   0  0  0  0  0  0  0  0  0  0  0  0
   -2.2706   -8.9669   19.0691 C   0  0  0  0  0  0  0  0  0  0  0  0
    3.0279   -5.3073   26.8197 C   0  0  0  0  0  0  0  0  0  0  0  0
    7.3282   -3.8948   29.1186 C   0  0  0  0  0  0  0  0  0  0  0  0
  1  3  4  0
  1  7  4  0
  2  3  1  0
  2  6  4  0
  2 16  4  0
  3 22  4  0
  4  9  4  0
  4 10  1  0
  4 20  4  0
  5 16  4  0
  5 23  4  0
  6 15  4  0
  7 12  4  0
  8 13  4  0
  8 14  4  0
  9 11  4  0
 11 14  4  0
 11 19  4  0
 12 18  4  0
 13 21  4  0
 15 23  4  0
 17 19  4  0
 17 20  4  0
 18 22  4  0
 19 21  4  0
M  END
$$$$

 Created by Python create_sdf_string function

 23 25  0  0  0  0  0  0  0  0999 V2000
    2.4610   -5.3070   29.1240 C   0  0  0  0  0  0  0  0  0  0  0  0
    4.7710   -4.6952   28.4803 C   0  0  0  0  0  0  0  0  0  0  0  0
    3.4047   -5.1087   28.1314 C   0  0  0  0  0  0  0  0  0  0  0  0
   -0.2234  -11.8615   16.8874 C   0  0  0  0  0  0  0  0  0  0  0  0
    6.4491   -4.1532   30.1213 C   0  0  0  0  0  0  0  0  0  0  0  0
    5.7060   -4.4340   27.4975 C   0  0  0  0  0  0  0  0  0  0  0  0
    1.1818   -5.6612   28.8399 C   0  0  0  0  0  0  0  0  0  0  0  0
   -1.2067   -7.3287   17.7772 C   0  0  0  0  0  0  0  0  0  0  0  0
   -0.0206  -10.5585   16.6210 C   0  0  0  0  0  0  0  0  0  0  0  0
    0.3696  -12.7626   16.2169 O   0  0  0  0  0  0  0  0  0  0  0  0
   -0.6895   -9.5676   17.3297 C   0  0  0  0  0  0  0  0  0  0  0  0
    0.8388   -5.8417   27.5264 C   0  0  0  0  0  0  0  0  0  0  0  0
   -2.0709   -7.6637   18.7817 C   0  0  0  0  0  0  0  0  0  0  0  0
   -0.5279   -8.2168   17.0717 C   0  0  0  0  0  0  0  0  0  0  0  0
    6.9694   -4.0191   27.8190 C   0  0  0  0  0  0  0  0  0  0  0  0
    5.1733   -4.5469   29.8123 C   0  0  0  0  0  0  0  0  0  0  0  0
   -1.7508  -11.3016   18.6072 C   0  0  0  0  0  0  0  0  0  0  0  0
    1.7497   -5.6771   26.4971 C   0  0  0  0  0  0  0  0  0  0  0  0
   -1.5799   -9.9322   18.3468 C   0  0  0  0  0  0  0  0  0  0  0  0
   -1.0871  -12.2214   17.8851 C   0  0  0  0  0  0  0  0  0  0  0  0
   -2.2706   -8.9669   19.0691 C   0  0  0  0  0  0  0  0  0  0  0  0
    3.0279   -5.3073   26.8197 C   0  0  0  0  0  0  0  0  0  0  0  0
    7.3282   -3.8948   29.1186 C   0  0  0  0  0  0  0  0  0  0  0  0
  1  3  4  0
  1  7  4  0
  2  3  1  0
  2  6  4  0
  2 16  4  0
  3 22  4  0
  4  9  4  0
  4 10  1  0
  4 20  4  0
  5 16  4  0
  5 23  4  0
  6 15  4  0
  7 12  4  0
  8 13  4  0
  8 14  4  0
  9 11  4  0
 11 14  4  0
 11 19  4  0
 12 18  4  0
 13 21  4  0
 15 23  4  0
 17 19  4  0
 17 20  4  0
 18 22  4  0
 19 21  4  0
M  END
$$$$

 Created by Python create_sdf_string function

 23 25  0  0  0  0  0  0  0  0999 V2000
    2.4610   -5.3070   29.1240 C   0  0  0  0  0  0  0  0  0  0  0  0
    4.7710   -4.6952   28.4803 C   0  0  0  0  0  0  0  0  0  0  0  0
    3.4047   -5.1087   28.1314 C   0  0  0  0  0  0  0  0  0  0  0  0
   -0.2234  -11.8615   16.8874 C   0  0  0  0  0  0  0  0  0  0  0  0
    6.4491   -4.1532   30.1213 C   0  0  0  0  0  0  0  0  0  0  0  0
    5.7060   -4.4340   27.4975 C   0  0  0  0  0  0  0  0  0  0  0  0
    1.1818   -5.6612   28.8399 C   0  0  0  0  0  0  0  0  0  0  0  0
   -1.2067   -7.3287   17.7772 C   0  0  0  0  0  0  0  0  0  0  0  0
   -0.0206  -10.5585   16.6210 C   0  0  0  0  0  0  0  0  0  0  0  0
    0.3696  -12.7626   16.2169 O   0  0  0  0  0  0  0  0  0  0  0  0
   -0.6895   -9.5676   17.3297 C   0  0  0  0  0  0  0  0  0  0  0  0
    0.8388   -5.8417   27.5264 C   0  0  0  0  0  0  0  0  0  0  0  0
   -2.0709   -7.6637   18.7817 C   0  0  0  0  0  0  0  0  0  0  0  0
   -0.5279   -8.2168   17.0717 C   0  0  0  0  0  0  0  0  0  0  0  0
    6.9694   -4.0191   27.8190 C   0  0  0  0  0  0  0  0  0  0  0  0
    5.1733   -4.5469   29.8123 C   0  0  0  0  0  0  0  0  0  0  0  0
   -1.7508  -11.3016   18.6072 C   0  0  0  0  0  0  0  0  0  0  0  0
    1.7497   -5.6771   26.4971 C   0  0  0  0  0  0  0  0  0  0  0  0
   -1.5799   -9.9322   18.3468 C   0  0  0  0  0  0  0  0  0  0  0  0
   -1.0871  -12.2214   17.8851 C   0  0  0  0  0  0  0  0  0  0  0  0
   -2.2706   -8.9669   19.0691 C   0  0  0  0  0  0  0  0  0  0  0  0
    3.0279   -5.3073   26.8197 C   0  0  0  0  0  0  0  0  0  0  0  0
    7.3282   -3.8948   29.1186 C   0  0  0  0  0  0  0  0  0  0  0  0
  1  3  4  0
  1  7  4  0
  2  3  1  0
  2  6  4  0
  2 16  4  0
  3 22  4  0
  4  9  4  0
  4 10  1  0
  4 20  4  0
  5 16  4  0
  5 23  4  0
  6 15  4  0
  7 12  4  0
  8 13  4  0
  8 14  4  0
  9 11  4  0
 11 14  4  0
 11 19  4  0
 12 18  4  0
 13 21  4  0
 15 23  4  0
 17 19  4  0
 17 20  4  0
 18 22  4  0
 19 21  4  0
M  END
$$$$

 Created by Python create_sdf_string function

 23 25  0  0  0  0  0  0  0  0999 V2000
    2.4610   -5.3070   29.1240 C   0  0  0  0  0  0  0  0  0  0  0  0
    4.7710   -4.6952   28.4803 C   0  0  0  0  0  0  0  0  0  0  0  0
    3.4047   -5.1087   28.1314 C   0  0  0  0  0  0  0  0  0  0  0  0
   -0.2234  -11.8615   16.8874 C   0  0  0  0  0  0  0  0  0  0  0  0
    6.4491   -4.1532   30.1213 C   0  0  0  0  0  0  0  0  0  0  0  0
    5.7060   -4.4340   27.4975 C   0  0  0  0  0  0  0  0  0  0  0  0
    1.1818   -5.6612   28.8399 C   0  0  0  0  0  0  0  0  0  0  0  0
   -1.2067   -7.3287   17.7772 C   0  0  0  0  0  0  0  0  0  0  0  0
   -0.0206  -10.5585   16.6210 C   0  0  0  0  0  0  0  0  0  0  0  0
    0.3696  -12.7626   16.2169 O   0  0  0  0  0  0  0  0  0  0  0  0
   -0.6895   -9.5676   17.3297 C   0  0  0  0  0  0  0  0  0  0  0  0
    0.8388   -5.8417   27.5264 C   0  0  0  0  0  0  0  0  0  0  0  0
   -2.0709   -7.6637   18.7817 C   0  0  0  0  0  0  0  0  0  0  0  0
   -0.5279   -8.2168   17.0717 C   0  0  0  0  0  0  0  0  0  0  0  0
    6.9694   -4.0191   27.8190 C   0  0  0  0  0  0  0  0  0  0  0  0
    5.1733   -4.5469   29.8123 C   0  0  0  0  0  0  0  0  0  0  0  0
   -1.7508  -11.3016   18.6072 C   0  0  0  0  0  0  0  0  0  0  0  0
    1.7497   -5.6771   26.4971 C   0  0  0  0  0  0  0  0  0  0  0  0
   -1.5799   -9.9322   18.3468 C   0  0  0  0  0  0  0  0  0  0  0  0
   -1.0871  -12.2214   17.8851 C   0  0  0  0  0  0  0  0  0  0  0  0
   -2.2706   -8.9669   19.0691 C   0  0  0  0  0  0  0  0  0  0  0  0
    3.0279   -5.3073   26.8197 C   0  0  0  0  0  0  0  0  0  0  0  0
    7.3282   -3.8948   29.1186 C   0  0  0  0  0  0  0  0  0  0  0  0
  1  3  4  0
  1  7  4  0
  2  3  1  0
  2  6  4  0
  2 16  4  0
  3 22  4  0
  4  9  4  0
  4 10  1  0
  4 20  4  0
  5 16  4  0
  5 23  4  0
  6 15  4  0
  7 12  4  0
  8 13  4  0
  8 14  4  0
  9 11  4  0
 11 14  4  0
 11 19  4  0
 12 18  4  0
 13 21  4  0
 15 23  4  0
 17 19  4  0
 17 20  4  0
 18 22  4  0
 19 21  4  0
M  END
$$$$

 Created by Python create_sdf_string function

 23 25  0  0  0  0  0  0  0  0999 V2000
    2.4610   -5.3070   29.1240 C   0  0  0  0  0  0  0  0  0  0  0  0
    4.7710   -4.6952   28.4803 C   0  0  0  0  0  0  0  0  0  0  0  0
    3.4047   -5.1087   28.1314 C   0  0  0  0  0  0  0  0  0  0  0  0
   -0.2234  -11.8615   16.8874 C   0  0  0  0  0  0  0  0  0  0  0  0
    6.4491   -4.1532   30.1213 C   0  0  0  0  0  0  0  0  0  0  0  0
    5.7060   -4.4340   27.4975 C   0  0  0  0  0  0  0  0  0  0  0  0
    1.1818   -5.6612   28.8399 C   0  0  0  0  0  0  0  0  0  0  0  0
   -1.2067   -7.3287   17.7772 C   0  0  0  0  0  0  0  0  0  0  0  0
   -0.0206  -10.5585   16.6210 C   0  0  0  0  0  0  0  0  0  0  0  0
    0.3696  -12.7626   16.2169 O   0  0  0  0  0  0  0  0  0  0  0  0
   -0.6895   -9.5676   17.3297 C   0  0  0  0  0  0  0  0  0  0  0  0
    0.8388   -5.8417   27.5264 C   0  0  0  0  0  0  0  0  0  0  0  0
   -2.0709   -7.6637   18.7817 C   0  0  0  0  0  0  0  0  0  0  0  0
   -0.5279   -8.2168   17.0717 C   0  0  0  0  0  0  0  0  0  0  0  0
    6.9694   -4.0191   27.8190 C   0  0  0  0  0  0  0  0  0  0  0  0
    5.1733   -4.5469   29.8123 C   0  0  0  0  0  0  0  0  0  0  0  0
   -1.7508  -11.3016   18.6072 C   0  0  0  0  0  0  0  0  0  0  0  0
    1.7497   -5.6771   26.4971 C   0  0  0  0  0  0  0  0  0  0  0  0
   -1.5799   -9.9322   18.3468 C   0  0  0  0  0  0  0  0  0  0  0  0
   -1.0871  -12.2214   17.8851 C   0  0  0  0  0  0  0  0  0  0  0  0
   -2.2706   -8.9669   19.0691 C   0  0  0  0  0  0  0  0  0  0  0  0
    3.0279   -5.3073   26.8197 C   0  0  0  0  0  0  0  0  0  0  0  0
    7.3282   -3.8948   29.1186 C   0  0  0  0  0  0  0  0  0  0  0  0
  1  3  4  0
  1  7  4  0
  2  3  1  0
  2  6  4  0
  2 16  4  0
  3 22  4  0
  4  9  4  0
  4 10  1  0
  4 20  4  0
  5 16  4  0
  5 23  4  0
  6 15  4  0
  7 12  4  0
  8 13  4  0
  8 14  4  0
  9 11  4  0
 11 14  4  0
 11 19  4  0
 12 18  4  0
 13 21  4  0
 15 23  4  0
 17 19  4  0
 17 20  4  0
 18 22  4  0
 19 21  4  0
M  END
$$$$

 Created by Python create_sdf_string function

 23 25  0  0  0  0  0  0  0  0999 V2000
    2.4610   -5.3070   29.1240 C   0  0  0  0  0  0  0  0  0  0  0  0
    4.7710   -4.6952   28.4803 C   0  0  0  0  0  0  0  0  0  0  0  0
    3.4047   -5.1087   28.1314 C   0  0  0  0  0  0  0  0  0  0  0  0
   -0.2234  -11.8615   16.8874 C   0  0  0  0  0  0  0  0  0  0  0  0
    6.4491   -4.1532   30.1213 C   0  0  0  0  0  0  0  0  0  0  0  0
    5.7060   -4.4340   27.4975 C   0  0  0  0  0  0  0  0  0  0  0  0
    1.1818   -5.6612   28.8399 C   0  0  0  0  0  0  0  0  0  0  0  0
   -1.2067   -7.3287   17.7772 C   0  0  0  0  0  0  0  0  0  0  0  0
   -0.0206  -10.5585   16.6210 C   0  0  0  0  0  0  0  0  0  0  0  0
    0.3696  -12.7626   16.2169 O   0  0  0  0  0  0  0  0  0  0  0  0
   -0.6895   -9.5676   17.3297 C   0  0  0  0  0  0  0  0  0  0  0  0
    0.8388   -5.8417   27.5264 C   0  0  0  0  0  0  0  0  0  0  0  0
   -2.0709   -7.6637   18.7817 C   0  0  0  0  0  0  0  0  0  0  0  0
   -0.5279   -8.2168   17.0717 C   0  0  0  0  0  0  0  0  0  0  0  0
    6.9694   -4.0191   27.8190 C   0  0  0  0  0  0  0  0  0  0  0  0
    5.1733   -4.5469   29.8123 C   0  0  0  0  0  0  0  0  0  0  0  0
   -1.7508  -11.3016   18.6072 C   0  0  0  0  0  0  0  0  0  0  0  0
    1.7497   -5.6771   26.4971 C   0  0  0  0  0  0  0  0  0  0  0  0
   -1.5799   -9.9322   18.3468 C   0  0  0  0  0  0  0  0  0  0  0  0
   -1.0871  -12.2214   17.8851 C   0  0  0  0  0  0  0  0  0  0  0  0
   -2.2706   -8.9669   19.0691 C   0  0  0  0  0  0  0  0  0  0  0  0
    3.0279   -5.3073   26.8197 C   0  0  0  0  0  0  0  0  0  0  0  0
    7.3282   -3.8948   29.1186 C   0  0  0  0  0  0  0  0  0  0  0  0
  1  3  4  0
  1  7  4  0
  2  3  1  0
  2  6  4  0
  2 16  4  0
  3 22  4  0
  4  9  4  0
  4 10  1  0
  4 20  4  0
  5 16  4  0
  5 23  4  0
  6 15  4  0
  7 12  4  0
  8 13  4  0
  8 14  4  0
  9 11  4  0
 11 14  4  0
 11 19  4  0
 12 18  4  0
 13 21  4  0
 15 23  4  0
 17 19  4  0
 17 20  4  0
 18 22  4  0
 19 21  4  0
M  END
$$$$

 Created by Python create_sdf_string function

 23 25  0  0  0  0  0  0  0  0999 V2000
    2.4610   -5.3070   29.1240 C   0  0  0  0  0  0  0  0  0  0  0  0
    4.7710   -4.6952   28.4803 C   0  0  0  0  0  0  0  0  0  0  0  0
    3.4047   -5.1087   28.1314 C   0  0  0  0  0  0  0  0  0  0  0  0
   -0.2234  -11.8615   16.8874 C   0  0  0  0  0  0  0  0  0  0  0  0
    6.4491   -4.1532   30.1213 C   0  0  0  0  0  0  0  0  0  0  0  0
    5.7060   -4.4340   27.4975 C   0  0  0  0  0  0  0  0  0  0  0  0
    1.1818   -5.6612   28.8399 C   0  0  0  0  0  0  0  0  0  0  0  0
   -1.2067   -7.3287   17.7772 C   0  0  0  0  0  0  0  0  0  0  0  0
   -0.0206  -10.5585   16.6210 C   0  0  0  0  0  0  0  0  0  0  0  0
    0.3696  -12.7626   16.2169 O   0  0  0  0  0  0  0  0  0  0  0  0
   -0.6895   -9.5676   17.3297 C   0  0  0  0  0  0  0  0  0  0  0  0
    0.8388   -5.8417   27.5264 C   0  0  0  0  0  0  0  0  0  0  0  0
   -2.0709   -7.6637   18.7817 C   0  0  0  0  0  0  0  0  0  0  0  0
   -0.5279   -8.2168   17.0717 C   0  0  0  0  0  0  0  0  0  0  0  0
    6.9694   -4.0191   27.8190 C   0  0  0  0  0  0  0  0  0  0  0  0
    5.1733   -4.5469   29.8123 C   0  0  0  0  0  0  0  0  0  0  0  0
   -1.7508  -11.3016   18.6072 C   0  0  0  0  0  0  0  0  0  0  0  0
    1.7497   -5.6771   26.4971 C   0  0  0  0  0  0  0  0  0  0  0  0
   -1.5799   -9.9322   18.3468 C   0  0  0  0  0  0  0  0  0  0  0  0
   -1.0871  -12.2214   17.8851 C   0  0  0  0  0  0  0  0  0  0  0  0
   -2.2706   -8.9669   19.0691 C   0  0  0  0  0  0  0  0  0  0  0  0
    3.0279   -5.3073   26.8197 C   0  0  0  0  0  0  0  0  0  0  0  0
    7.3282   -3.8948   29.1186 C   0  0  0  0  0  0  0  0  0  0  0  0
  1  3  4  0
  1  7  4  0
  2  3  1  0
  2  6  4  0
  2 16  4  0
  3 22  4  0
  4  9  4  0
  4 10  1  0
  4 20  4  0
  5 16  4  0
  5 23  4  0
  6 15  4  0
  7 12  4  0
  8 13  4  0
  8 14  4  0
  9 11  4  0
 11 14  4  0
 11 19  4  0
 12 18  4  0
 13 21  4  0
 15 23  4  0
 17 19  4  0
 17 20  4  0
 18 22  4  0
 19 21  4  0
M  END
$$$$

 Created by Python create_sdf_string function

 23 25  0  0  0  0  0  0  0  0999 V2000
    2.4610   -5.3070   29.1240 C   0  0  0  0  0  0  0  0  0  0  0  0
    4.7710   -4.6952   28.4803 C   0  0  0  0  0  0  0  0  0  0  0  0
    3.4047   -5.1087   28.1314 C   0  0  0  0  0  0  0  0  0  0  0  0
   -0.2234  -11.8615   16.8874 C   0  0  0  0  0  0  0  0  0  0  0  0
    6.4491   -4.1532   30.1213 C   0  0  0  0  0  0  0  0  0  0  0  0
    5.7060   -4.4340   27.4975 C   0  0  0  0  0  0  0  0  0  0  0  0
    1.1818   -5.6612   28.8399 C   0  0  0  0  0  0  0  0  0  0  0  0
   -1.2067   -7.3287   17.7772 C   0  0  0  0  0  0  0  0  0  0  0  0
   -0.0206  -10.5585   16.6210 C   0  0  0  0  0  0  0  0  0  0  0  0
    0.3696  -12.7626   16.2169 O   0  0  0  0  0  0  0  0  0  0  0  0
   -0.6895   -9.5676   17.3297 C   0  0  0  0  0  0  0  0  0  0  0  0
    0.8388   -5.8417   27.5264 C   0  0  0  0  0  0  0  0  0  0  0  0
   -2.0709   -7.6637   18.7817 C   0  0  0  0  0  0  0  0  0  0  0  0
   -0.5279   -8.2168   17.0717 C   0  0  0  0  0  0  0  0  0  0  0  0
    6.9694   -4.0191   27.8190 C   0  0  0  0  0  0  0  0  0  0  0  0
    5.1733   -4.5469   29.8123 C   0  0  0  0  0  0  0  0  0  0  0  0
   -1.7508  -11.3016   18.6072 C   0  0  0  0  0  0  0  0  0  0  0  0
    1.7497   -5.6771   26.4971 C   0  0  0  0  0  0  0  0  0  0  0  0
   -1.5799   -9.9322   18.3468 C   0  0  0  0  0  0  0  0  0  0  0  0
   -1.0871  -12.2214   17.8851 C   0  0  0  0  0  0  0  0  0  0  0  0
   -2.2706   -8.9669   19.0691 C   0  0  0  0  0  0  0  0  0  0  0  0
    3.0279   -5.3073   26.8197 C   0  0  0  0  0  0  0  0  0  0  0  0
    7.3282   -3.8948   29.1186 C   0  0  0  0  0  0  0  0  0  0  0  0
  1  3  4  0
  1  7  4  0
  2  3  1  0
  2  6  4  0
  2 16  4  0
  3 22  4  0
  4  9  4  0
  4 10  1  0
  4 20  4  0
  5 16  4  0
  5 23  4  0
  6 15  4  0
  7 12  4  0
  8 13  4  0
  8 14  4  0
  9 11  4  0
 11 14  4  0
 11 19  4  0
 12 18  4  0
 13 21  4  0
 15 23  4  0
 17 19  4  0
 17 20  4  0
 18 22  4  0
 19 21  4  0
M  END
$$$$

 Created by Python create_sdf_string function

 23 25  0  0  0  0  0  0  0  0999 V2000
    2.4610   -5.3070   29.1240 C   0  0  0  0  0  0  0  0  0  0  0  0
    4.7710   -4.6952   28.4803 C   0  0  0  0  0  0  0  0  0  0  0  0
    3.4047   -5.1087   28.1314 C   0  0  0  0  0  0  0  0  0  0  0  0
   -0.2234  -11.8615   16.8874 C   0  0  0  0  0  0  0  0  0  0  0  0
    6.4491   -4.1532   30.1213 C   0  0  0  0  0  0  0  0  0  0  0  0
    5.7060   -4.4340   27.4975 C   0  0  0  0  0  0  0  0  0  0  0  0
    1.1818   -5.6612   28.8399 C   0  0  0  0  0  0  0  0  0  0  0  0
   -1.2067   -7.3287   17.7772 C   0  0  0  0  0  0  0  0  0  0  0  0
   -0.0206  -10.5585   16.6210 C   0  0  0  0  0  0  0  0  0  0  0  0
    0.3696  -12.7626   16.2169 O   0  0  0  0  0  0  0  0  0  0  0  0
   -0.6895   -9.5676   17.3297 C   0  0  0  0  0  0  0  0  0  0  0  0
    0.8388   -5.8417   27.5264 C   0  0  0  0  0  0  0  0  0  0  0  0
   -2.0709   -7.6637   18.7817 C   0  0  0  0  0  0  0  0  0  0  0  0
   -0.5279   -8.2168   17.0717 C   0  0  0  0  0  0  0  0  0  0  0  0
    6.9694   -4.0191   27.8190 C   0  0  0  0  0  0  0  0  0  0  0  0
    5.1733   -4.5469   29.8123 C   0  0  0  0  0  0  0  0  0  0  0  0
   -1.7508  -11.3016   18.6072 C   0  0  0  0  0  0  0  0  0  0  0  0
    1.7497   -5.6771   26.4971 C   0  0  0  0  0  0  0  0  0  0  0  0
   -1.5799   -9.9322   18.3468 C   0  0  0  0  0  0  0  0  0  0  0  0
   -1.0871  -12.2214   17.8851 C   0  0  0  0  0  0  0  0  0  0  0  0
   -2.2706   -8.9669   19.0691 C   0  0  0  0  0  0  0  0  0  0  0  0
    3.0279   -5.3073   26.8197 C   0  0  0  0  0  0  0  0  0  0  0  0
    7.3282   -3.8948   29.1186 C   0  0  0  0  0  0  0  0  0  0  0  0
  1  3  4  0
  1  7  4  0
  2  3  1  0
  2  6  4  0
  2 16  4  0
  3 22  4  0
  4  9  4  0
  4 10  1  0
  4 20  4  0
  5 16  4  0
  5 23  4  0
  6 15  4  0
  7 12  4  0
  8 13  4  0
  8 14  4  0
  9 11  4  0
 11 14  4  0
 11 19  4  0
 12 18  4  0
 13 21  4  0
 15 23  4  0
 17 19  4  0
 17 20  4  0
 18 22  4  0
 19 21  4  0
M  END
$$$$

 Created by Python create_sdf_string function

 23 25  0  0  0  0  0  0  0  0999 V2000
    2.4610   -5.3070   29.1240 C   0  0  0  0  0  0  0  0  0  0  0  0
    4.7710   -4.6952   28.4803 C   0  0  0  0  0  0  0  0  0  0  0  0
    3.4047   -5.1087   28.1314 C   0  0  0  0  0  0  0  0  0  0  0  0
   -0.2234  -11.8615   16.8874 C   0  0  0  0  0  0  0  0  0  0  0  0
    6.4491   -4.1532   30.1213 C   0  0  0  0  0  0  0  0  0  0  0  0
    5.7060   -4.4340   27.4975 C   0  0  0  0  0  0  0  0  0  0  0  0
    1.1818   -5.6612   28.8399 C   0  0  0  0  0  0  0  0  0  0  0  0
   -1.2067   -7.3287   17.7772 C   0  0  0  0  0  0  0  0  0  0  0  0
   -0.0206  -10.5585   16.6210 C   0  0  0  0  0  0  0  0  0  0  0  0
    0.3696  -12.7626   16.2169 O   0  0  0  0  0  0  0  0  0  0  0  0
   -0.6895   -9.5676   17.3297 C   0  0  0  0  0  0  0  0  0  0  0  0
    0.8388   -5.8417   27.5264 C   0  0  0  0  0  0  0  0  0  0  0  0
   -2.0709   -7.6637   18.7817 C   0  0  0  0  0  0  0  0  0  0  0  0
   -0.5279   -8.2168   17.0717 C   0  0  0  0  0  0  0  0  0  0  0  0
    6.9694   -4.0191   27.8190 C   0  0  0  0  0  0  0  0  0  0  0  0
    5.1733   -4.5469   29.8123 C   0  0  0  0  0  0  0  0  0  0  0  0
   -1.7508  -11.3016   18.6072 C   0  0  0  0  0  0  0  0  0  0  0  0
    1.7497   -5.6771   26.4971 C   0  0  0  0  0  0  0  0  0  0  0  0
   -1.5799   -9.9322   18.3468 C   0  0  0  0  0  0  0  0  0  0  0  0
   -1.0871  -12.2214   17.8851 C   0  0  0  0  0  0  0  0  0  0  0  0
   -2.2706   -8.9669   19.0691 C   0  0  0  0  0  0  0  0  0  0  0  0
    3.0279   -5.3073   26.8197 C   0  0  0  0  0  0  0  0  0  0  0  0
    7.3282   -3.8948   29.1186 C   0  0  0  0  0  0  0  0  0  0  0  0
  1  3  4  0
  1  7  4  0
  2  3  1  0
  2  6  4  0
  2 16  4  0
  3 22  4  0
  4  9  4  0
  4 10  1  0
  4 20  4  0
  5 16  4  0
  5 23  4  0
  6 15  4  0
  7 12  4  0
  8 13  4  0
  8 14  4  0
  9 11  4  0
 11 14  4  0
 11 19  4  0
 12 18  4  0
 13 21  4  0
 15 23  4  0
 17 19  4  0
 17 20  4  0
 18 22  4  0
 19 21  4  0
M  END
$$$$

 Created by Python create_sdf_string function

 23 25  0  0  0  0  0  0  0  0999 V2000
    2.4610   -5.3070   29.1240 C   0  0  0  0  0  0  0  0  0  0  0  0
    4.7710   -4.6952   28.4803 C   0  0  0  0  0  0  0  0  0  0  0  0
    3.4047   -5.1087   28.1314 C   0  0  0  0  0  0  0  0  0  0  0  0
   -0.2234  -11.8615   16.8874 C   0  0  0  0  0  0  0  0  0  0  0  0
    6.4491   -4.1532   30.1213 C   0  0  0  0  0  0  0  0  0  0  0  0
    5.7060   -4.4340   27.4975 C   0  0  0  0  0  0  0  0  0  0  0  0
    1.1818   -5.6612   28.8399 C   0  0  0  0  0  0  0  0  0  0  0  0
   -1.2067   -7.3287   17.7772 C   0  0  0  0  0  0  0  0  0  0  0  0
   -0.0206  -10.5585   16.6210 C   0  0  0  0  0  0  0  0  0  0  0  0
    0.3696  -12.7626   16.2169 O   0  0  0  0  0  0  0  0  0  0  0  0
   -0.6895   -9.5676   17.3297 C   0  0  0  0  0  0  0  0  0  0  0  0
    0.8388   -5.8417   27.5264 C   0  0  0  0  0  0  0  0  0  0  0  0
   -2.0709   -7.6637   18.7817 C   0  0  0  0  0  0  0  0  0  0  0  0
   -0.5279   -8.2168   17.0717 C   0  0  0  0  0  0  0  0  0  0  0  0
    6.9694   -4.0191   27.8190 C   0  0  0  0  0  0  0  0  0  0  0  0
    5.1733   -4.5469   29.8123 C   0  0  0  0  0  0  0  0  0  0  0  0
   -1.7508  -11.3016   18.6072 C   0  0  0  0  0  0  0  0  0  0  0  0
    1.7497   -5.6771   26.4971 C   0  0  0  0  0  0  0  0  0  0  0  0
   -1.5799   -9.9322   18.3468 C   0  0  0  0  0  0  0  0  0  0  0  0
   -1.0871  -12.2214   17.8851 C   0  0  0  0  0  0  0  0  0  0  0  0
   -2.2706   -8.9669   19.0691 C   0  0  0  0  0  0  0  0  0  0  0  0
    3.0279   -5.3073   26.8197 C   0  0  0  0  0  0  0  0  0  0  0  0
    7.3282   -3.8948   29.1186 C   0  0  0  0  0  0  0  0  0  0  0  0
  1  3  4  0
  1  7  4  0
  2  3  1  0
  2  6  4  0
  2 16  4  0
  3 22  4  0
  4  9  4  0
  4 10  1  0
  4 20  4  0
  5 16  4  0
  5 23  4  0
  6 15  4  0
  7 12  4  0
  8 13  4  0
  8 14  4  0
  9 11  4  0
 11 14  4  0
 11 19  4  0
 12 18  4  0
 13 21  4  0
 15 23  4  0
 17 19  4  0
 17 20  4  0
 18 22  4  0
 19 21  4  0
M  END
$$$$

 Created by Python create_sdf_string function

 23 25  0  0  0  0  0  0  0  0999 V2000
    2.4610   -5.3070   29.1240 C   0  0  0  0  0  0  0  0  0  0  0  0
    4.7710   -4.6952   28.4803 C   0  0  0  0  0  0  0  0  0  0  0  0
    3.4047   -5.1087   28.1314 C   0  0  0  0  0  0  0  0  0  0  0  0
   -0.2234  -11.8615   16.8874 C   0  0  0  0  0  0  0  0  0  0  0  0
    6.4491   -4.1532   30.1213 C   0  0  0  0  0  0  0  0  0  0  0  0
    5.7060   -4.4340   27.4975 C   0  0  0  0  0  0  0  0  0  0  0  0
    1.1818   -5.6612   28.8399 C   0  0  0  0  0  0  0  0  0  0  0  0
   -1.2067   -7.3287   17.7772 C   0  0  0  0  0  0  0  0  0  0  0  0
   -0.0206  -10.5585   16.6210 C   0  0  0  0  0  0  0  0  0  0  0  0
    0.3696  -12.7626   16.2169 O   0  0  0  0  0  0  0  0  0  0  0  0
   -0.6895   -9.5676   17.3297 C   0  0  0  0  0  0  0  0  0  0  0  0
    0.8388   -5.8417   27.5264 C   0  0  0  0  0  0  0  0  0  0  0  0
   -2.0709   -7.6637   18.7817 C   0  0  0  0  0  0  0  0  0  0  0  0
   -0.5279   -8.2168   17.0717 C   0  0  0  0  0  0  0  0  0  0  0  0
    6.9694   -4.0191   27.8190 C   0  0  0  0  0  0  0  0  0  0  0  0
    5.1733   -4.5469   29.8123 C   0  0  0  0  0  0  0  0  0  0  0  0
   -1.7508  -11.3016   18.6072 C   0  0  0  0  0  0  0  0  0  0  0  0
    1.7497   -5.6771   26.4971 C   0  0  0  0  0  0  0  0  0  0  0  0
   -1.5799   -9.9322   18.3468 C   0  0  0  0  0  0  0  0  0  0  0  0
   -1.0871  -12.2214   17.8851 C   0  0  0  0  0  0  0  0  0  0  0  0
   -2.2706   -8.9669   19.0691 C   0  0  0  0  0  0  0  0  0  0  0  0
    3.0279   -5.3073   26.8197 C   0  0  0  0  0  0  0  0  0  0  0  0
    7.3282   -3.8948   29.1186 C   0  0  0  0  0  0  0  0  0  0  0  0
  1  3  4  0
  1  7  4  0
  2  3  1  0
  2  6  4  0
  2 16  4  0
  3 22  4  0
  4  9  4  0
  4 10  1  0
  4 20  4  0
  5 16  4  0
  5 23  4  0
  6 15  4  0
  7 12  4  0
  8 13  4  0
  8 14  4  0
  9 11  4  0
 11 14  4  0
 11 19  4  0
 12 18  4  0
 13 21  4  0
 15 23  4  0
 17 19  4  0
 17 20  4  0
 18 22  4  0
 19 21  4  0
M  END
$$$$

 Created by Python create_sdf_string function

 23 25  0  0  0  0  0  0  0  0999 V2000
    2.4610   -5.3070   29.1240 C   0  0  0  0  0  0  0  0  0  0  0  0
    4.7710   -4.6952   28.4803 C   0  0  0  0  0  0  0  0  0  0  0  0
    3.4047   -5.1087   28.1314 C   0  0  0  0  0  0  0  0  0  0  0  0
   -0.2234  -11.8615   16.8874 C   0  0  0  0  0  0  0  0  0  0  0  0
    6.4491   -4.1532   30.1213 C   0  0  0  0  0  0  0  0  0  0  0  0
    5.7060   -4.4340   27.4975 C   0  0  0  0  0  0  0  0  0  0  0  0
    1.1818   -5.6612   28.8399 C   0  0  0  0  0  0  0  0  0  0  0  0
   -1.2067   -7.3287   17.7772 C   0  0  0  0  0  0  0  0  0  0  0  0
   -0.0206  -10.5585   16.6210 C   0  0  0  0  0  0  0  0  0  0  0  0
    0.3696  -12.7626   16.2169 O   0  0  0  0  0  0  0  0  0  0  0  0
   -0.6895   -9.5676   17.3297 C   0  0  0  0  0  0  0  0  0  0  0  0
    0.8388   -5.8417   27.5264 C   0  0  0  0  0  0  0  0  0  0  0  0
   -2.0709   -7.6637   18.7817 C   0  0  0  0  0  0  0  0  0  0  0  0
   -0.5279   -8.2168   17.0717 C   0  0  0  0  0  0  0  0  0  0  0  0
    6.9694   -4.0191   27.8190 C   0  0  0  0  0  0  0  0  0  0  0  0
    5.1733   -4.5469   29.8123 C   0  0  0  0  0  0  0  0  0  0  0  0
   -1.7508  -11.3016   18.6072 C   0  0  0  0  0  0  0  0  0  0  0  0
    1.7497   -5.6771   26.4971 C   0  0  0  0  0  0  0  0  0  0  0  0
   -1.5799   -9.9322   18.3468 C   0  0  0  0  0  0  0  0  0  0  0  0
   -1.0871  -12.2214   17.8851 C   0  0  0  0  0  0  0  0  0  0  0  0
   -2.2706   -8.9669   19.0691 C   0  0  0  0  0  0  0  0  0  0  0  0
    3.0279   -5.3073   26.8197 C   0  0  0  0  0  0  0  0  0  0  0  0
    7.3282   -3.8948   29.1186 C   0  0  0  0  0  0  0  0  0  0  0  0
  1  3  4  0
  1  7  4  0
  2  3  1  0
  2  6  4  0
  2 16  4  0
  3 22  4  0
  4  9  4  0
  4 10  1  0
  4 20  4  0
  5 16  4  0
  5 23  4  0
  6 15  4  0
  7 12  4  0
  8 13  4  0
  8 14  4  0
  9 11  4  0
 11 14  4  0
 11 19  4  0
 12 18  4  0
 13 21  4  0
 15 23  4  0
 17 19  4  0
 17 20  4  0
 18 22  4  0
 19 21  4  0
M  END
$$$$

 Created by Python create_sdf_string function

 23 25  0  0  0  0  0  0  0  0999 V2000
    2.4610   -5.3070   29.1240 C   0  0  0  0  0  0  0  0  0  0  0  0
    4.7710   -4.6952   28.4803 C   0  0  0  0  0  0  0  0  0  0  0  0
    3.4047   -5.1087   28.1314 C   0  0  0  0  0  0  0  0  0  0  0  0
   -0.2234  -11.8615   16.8874 C   0  0  0  0  0  0  0  0  0  0  0  0
    6.4491   -4.1532   30.1213 C   0  0  0  0  0  0  0  0  0  0  0  0
    5.7060   -4.4340   27.4975 C   0  0  0  0  0  0  0  0  0  0  0  0
    1.1818   -5.6612   28.8399 C   0  0  0  0  0  0  0  0  0  0  0  0
   -1.2067   -7.3287   17.7772 C   0  0  0  0  0  0  0  0  0  0  0  0
   -0.0206  -10.5585   16.6210 C   0  0  0  0  0  0  0  0  0  0  0  0
    0.3696  -12.7626   16.2169 O   0  0  0  0  0  0  0  0  0  0  0  0
   -0.6895   -9.5676   17.3297 C   0  0  0  0  0  0  0  0  0  0  0  0
    0.8388   -5.8417   27.5264 C   0  0  0  0  0  0  0  0  0  0  0  0
   -2.0709   -7.6637   18.7817 C   0  0  0  0  0  0  0  0  0  0  0  0
   -0.5279   -8.2168   17.0717 C   0  0  0  0  0  0  0  0  0  0  0  0
    6.9694   -4.0191   27.8190 C   0  0  0  0  0  0  0  0  0  0  0  0
    5.1733   -4.5469   29.8123 C   0  0  0  0  0  0  0  0  0  0  0  0
   -1.7508  -11.3016   18.6072 C   0  0  0  0  0  0  0  0  0  0  0  0
    1.7497   -5.6771   26.4971 C   0  0  0  0  0  0  0  0  0  0  0  0
   -1.5799   -9.9322   18.3468 C   0  0  0  0  0  0  0  0  0  0  0  0
   -1.0871  -12.2214   17.8851 C   0  0  0  0  0  0  0  0  0  0  0  0
   -2.2706   -8.9669   19.0691 C   0  0  0  0  0  0  0  0  0  0  0  0
    3.0279   -5.3073   26.8197 C   0  0  0  0  0  0  0  0  0  0  0  0
    7.3282   -3.8948   29.1186 C   0  0  0  0  0  0  0  0  0  0  0  0
  1  3  4  0
  1  7  4  0
  2  3  1  0
  2  6  4  0
  2 16  4  0
  3 22  4  0
  4  9  4  0
  4 10  1  0
  4 20  4  0
  5 16  4  0
  5 23  4  0
  6 15  4  0
  7 12  4  0
  8 13  4  0
  8 14  4  0
  9 11  4  0
 11 14  4  0
 11 19  4  0
 12 18  4  0
 13 21  4  0
 15 23  4  0
 17 19  4  0
 17 20  4  0
 18 22  4  0
 19 21  4  0
M  END
$$$$

 Created by Python create_sdf_string function

 23 25  0  0  0  0  0  0  0  0999 V2000
    2.4610   -5.3070   29.1240 C   0  0  0  0  0  0  0  0  0  0  0  0
    4.7710   -4.6952   28.4803 C   0  0  0  0  0  0  0  0  0  0  0  0
    3.4047   -5.1087   28.1314 C   0  0  0  0  0  0  0  0  0  0  0  0
   -0.2234  -11.8615   16.8874 C   0  0  0  0  0  0  0  0  0  0  0  0
    6.4491   -4.1532   30.1213 C   0  0  0  0  0  0  0  0  0  0  0  0
    5.7060   -4.4340   27.4975 C   0  0  0  0  0  0  0  0  0  0  0  0
    1.1818   -5.6612   28.8399 C   0  0  0  0  0  0  0  0  0  0  0  0
   -1.2067   -7.3287   17.7772 C   0  0  0  0  0  0  0  0  0  0  0  0
   -0.0206  -10.5585   16.6210 C   0  0  0  0  0  0  0  0  0  0  0  0
    0.3696  -12.7626   16.2169 O   0  0  0  0  0  0  0  0  0  0  0  0
   -0.6895   -9.5676   17.3297 C   0  0  0  0  0  0  0  0  0  0  0  0
    0.8388   -5.8417   27.5264 C   0  0  0  0  0  0  0  0  0  0  0  0
   -2.0709   -7.6637   18.7817 C   0  0  0  0  0  0  0  0  0  0  0  0
   -0.5279   -8.2168   17.0717 C   0  0  0  0  0  0  0  0  0  0  0  0
    6.9694   -4.0191   27.8190 C   0  0  0  0  0  0  0  0  0  0  0  0
    5.1733   -4.5469   29.8123 C   0  0  0  0  0  0  0  0  0  0  0  0
   -1.7508  -11.3016   18.6072 C   0  0  0  0  0  0  0  0  0  0  0  0
    1.7497   -5.6771   26.4971 C   0  0  0  0  0  0  0  0  0  0  0  0
   -1.5799   -9.9322   18.3468 C   0  0  0  0  0  0  0  0  0  0  0  0
   -1.0871  -12.2214   17.8851 C   0  0  0  0  0  0  0  0  0  0  0  0
   -2.2706   -8.9669   19.0691 C   0  0  0  0  0  0  0  0  0  0  0  0
    3.0279   -5.3073   26.8197 C   0  0  0  0  0  0  0  0  0  0  0  0
    7.3282   -3.8948   29.1186 C   0  0  0  0  0  0  0  0  0  0  0  0
  1  3  4  0
  1  7  4  0
  2  3  1  0
  2  6  4  0
  2 16  4  0
  3 22  4  0
  4  9  4  0
  4 10  1  0
  4 20  4  0
  5 16  4  0
  5 23  4  0
  6 15  4  0
  7 12  4  0
  8 13  4  0
  8 14  4  0
  9 11  4  0
 11 14  4  0
 11 19  4  0
 12 18  4  0
 13 21  4  0
 15 23  4  0
 17 19  4  0
 17 20  4  0
 18 22  4  0
 19 21  4  0
M  END
$$$$

 Created by Python create_sdf_string function

 23 25  0  0  0  0  0  0  0  0999 V2000
    2.4610   -5.3070   29.1240 C   0  0  0  0  0  0  0  0  0  0  0  0
    4.7710   -4.6952   28.4803 C   0  0  0  0  0  0  0  0  0  0  0  0
    3.4047   -5.1087   28.1314 C   0  0  0  0  0  0  0  0  0  0  0  0
   -0.2234  -11.8615   16.8874 C   0  0  0  0  0  0  0  0  0  0  0  0
    6.4491   -4.1532   30.1213 C   0  0  0  0  0  0  0  0  0  0  0  0
    5.7060   -4.4340   27.4975 C   0  0  0  0  0  0  0  0  0  0  0  0
    1.1818   -5.6612   28.8399 C   0  0  0  0  0  0  0  0  0  0  0  0
   -1.2067   -7.3287   17.7772 C   0  0  0  0  0  0  0  0  0  0  0  0
   -0.0206  -10.5585   16.6210 C   0  0  0  0  0  0  0  0  0  0  0  0
    0.3696  -12.7626   16.2169 O   0  0  0  0  0  0  0  0  0  0  0  0
   -0.6895   -9.5676   17.3297 C   0  0  0  0  0  0  0  0  0  0  0  0
    0.8388   -5.8417   27.5264 C   0  0  0  0  0  0  0  0  0  0  0  0
   -2.0709   -7.6637   18.7817 C   0  0  0  0  0  0  0  0  0  0  0  0
   -0.5279   -8.2168   17.0717 C   0  0  0  0  0  0  0  0  0  0  0  0
    6.9694   -4.0191   27.8190 C   0  0  0  0  0  0  0  0  0  0  0  0
    5.1733   -4.5469   29.8123 C   0  0  0  0  0  0  0  0  0  0  0  0
   -1.7508  -11.3016   18.6072 C   0  0  0  0  0  0  0  0  0  0  0  0
    1.7497   -5.6771   26.4971 C   0  0  0  0  0  0  0  0  0  0  0  0
   -1.5799   -9.9322   18.3468 C   0  0  0  0  0  0  0  0  0  0  0  0
   -1.0871  -12.2214   17.8851 C   0  0  0  0  0  0  0  0  0  0  0  0
   -2.2706   -8.9669   19.0691 C   0  0  0  0  0  0  0  0  0  0  0  0
    3.0279   -5.3073   26.8197 C   0  0  0  0  0  0  0  0  0  0  0  0
    7.3282   -3.8948   29.1186 C   0  0  0  0  0  0  0  0  0  0  0  0
  1  3  4  0
  1  7  4  0
  2  3  1  0
  2  6  4  0
  2 16  4  0
  3 22  4  0
  4  9  4  0
  4 10  1  0
  4 20  4  0
  5 16  4  0
  5 23  4  0
  6 15  4  0
  7 12  4  0
  8 13  4  0
  8 14  4  0
  9 11  4  0
 11 14  4  0
 11 19  4  0
 12 18  4  0
 13 21  4  0
 15 23  4  0
 17 19  4  0
 17 20  4  0
 18 22  4  0
 19 21  4  0
M  END
$$$$

 Created by Python create_sdf_string function

 23 25  0  0  0  0  0  0  0  0999 V2000
    2.4610   -5.3070   29.1240 C   0  0  0  0  0  0  0  0  0  0  0  0
    4.7710   -4.6952   28.4803 C   0  0  0  0  0  0  0  0  0  0  0  0
    3.4047   -5.1087   28.1314 C   0  0  0  0  0  0  0  0  0  0  0  0
   -0.2234  -11.8615   16.8874 C   0  0  0  0  0  0  0  0  0  0  0  0
    6.4491   -4.1532   30.1213 C   0  0  0  0  0  0  0  0  0  0  0  0
    5.7060   -4.4340   27.4975 C   0  0  0  0  0  0  0  0  0  0  0  0
    1.1818   -5.6612   28.8399 C   0  0  0  0  0  0  0  0  0  0  0  0
   -1.2067   -7.3287   17.7772 C   0  0  0  0  0  0  0  0  0  0  0  0
   -0.0206  -10.5585   16.6210 C   0  0  0  0  0  0  0  0  0  0  0  0
    0.3696  -12.7626   16.2169 O   0  0  0  0  0  0  0  0  0  0  0  0
   -0.6895   -9.5676   17.3297 C   0  0  0  0  0  0  0  0  0  0  0  0
    0.8388   -5.8417   27.5264 C   0  0  0  0  0  0  0  0  0  0  0  0
   -2.0709   -7.6637   18.7817 C   0  0  0  0  0  0  0  0  0  0  0  0
   -0.5279   -8.2168   17.0717 C   0  0  0  0  0  0  0  0  0  0  0  0
    6.9694   -4.0191   27.8190 C   0  0  0  0  0  0  0  0  0  0  0  0
    5.1733   -4.5469   29.8123 C   0  0  0  0  0  0  0  0  0  0  0  0
   -1.7508  -11.3016   18.6072 C   0  0  0  0  0  0  0  0  0  0  0  0
    1.7497   -5.6771   26.4971 C   0  0  0  0  0  0  0  0  0  0  0  0
   -1.5799   -9.9322   18.3468 C   0  0  0  0  0  0  0  0  0  0  0  0
   -1.0871  -12.2214   17.8851 C   0  0  0  0  0  0  0  0  0  0  0  0
   -2.2706   -8.9669   19.0691 C   0  0  0  0  0  0  0  0  0  0  0  0
    3.0279   -5.3073   26.8197 C   0  0  0  0  0  0  0  0  0  0  0  0
    7.3282   -3.8948   29.1186 C   0  0  0  0  0  0  0  0  0  0  0  0
  1  3  4  0
  1  7  4  0
  2  3  1  0
  2  6  4  0
  2 16  4  0
  3 22  4  0
  4  9  4  0
  4 10  1  0
  4 20  4  0
  5 16  4  0
  5 23  4  0
  6 15  4  0
  7 12  4  0
  8 13  4  0
  8 14  4  0
  9 11  4  0
 11 14  4  0
 11 19  4  0
 12 18  4  0
 13 21  4  0
 15 23  4  0
 17 19  4  0
 17 20  4  0
 18 22  4  0
 19 21  4  0
M  END
$$$$

 Created by Python create_sdf_string function

 23 25  0  0  0  0  0  0  0  0999 V2000
    2.4610   -5.3070   29.1240 C   0  0  0  0  0  0  0  0  0  0  0  0
    4.7710   -4.6952   28.4803 C   0  0  0  0  0  0  0  0  0  0  0  0
    3.4047   -5.1087   28.1314 C   0  0  0  0  0  0  0  0  0  0  0  0
   -0.2234  -11.8615   16.8874 C   0  0  0  0  0  0  0  0  0  0  0  0
    6.4491   -4.1532   30.1213 C   0  0  0  0  0  0  0  0  0  0  0  0
    5.7060   -4.4340   27.4975 C   0  0  0  0  0  0  0  0  0  0  0  0
    1.1818   -5.6612   28.8399 C   0  0  0  0  0  0  0  0  0  0  0  0
   -1.2067   -7.3287   17.7772 C   0  0  0  0  0  0  0  0  0  0  0  0
   -0.0206  -10.5585   16.6210 C   0  0  0  0  0  0  0  0  0  0  0  0
    0.3696  -12.7626   16.2169 O   0  0  0  0  0  0  0  0  0  0  0  0
   -0.6895   -9.5676   17.3297 C   0  0  0  0  0  0  0  0  0  0  0  0
    0.8388   -5.8417   27.5264 C   0  0  0  0  0  0  0  0  0  0  0  0
   -2.0709   -7.6637   18.7817 C   0  0  0  0  0  0  0  0  0  0  0  0
   -0.5279   -8.2168   17.0717 C   0  0  0  0  0  0  0  0  0  0  0  0
    6.9694   -4.0191   27.8190 C   0  0  0  0  0  0  0  0  0  0  0  0
    5.1733   -4.5469   29.8123 C   0  0  0  0  0  0  0  0  0  0  0  0
   -1.7508  -11.3016   18.6072 C   0  0  0  0  0  0  0  0  0  0  0  0
    1.7497   -5.6771   26.4971 C   0  0  0  0  0  0  0  0  0  0  0  0
   -1.5799   -9.9322   18.3468 C   0  0  0  0  0  0  0  0  0  0  0  0
   -1.0871  -12.2214   17.8851 C   0  0  0  0  0  0  0  0  0  0  0  0
   -2.2706   -8.9669   19.0691 C   0  0  0  0  0  0  0  0  0  0  0  0
    3.0279   -5.3073   26.8197 C   0  0  0  0  0  0  0  0  0  0  0  0
    7.3282   -3.8948   29.1186 C   0  0  0  0  0  0  0  0  0  0  0  0
  1  3  4  0
  1  7  4  0
  2  3  1  0
  2  6  4  0
  2 16  4  0
  3 22  4  0
  4  9  4  0
  4 10  1  0
  4 20  4  0
  5 16  4  0
  5 23  4  0
  6 15  4  0
  7 12  4  0
  8 13  4  0
  8 14  4  0
  9 11  4  0
 11 14  4  0
 11 19  4  0
 12 18  4  0
 13 21  4  0
 15 23  4  0
 17 19  4  0
 17 20  4  0
 18 22  4  0
 19 21  4  0
M  END
$$$$

 Created by Python create_sdf_string function

 23 25  0  0  0  0  0  0  0  0999 V2000
    2.4610   -5.3070   29.1240 C   0  0  0  0  0  0  0  0  0  0  0  0
    4.7710   -4.6952   28.4803 C   0  0  0  0  0  0  0  0  0  0  0  0
    3.4047   -5.1087   28.1314 C   0  0  0  0  0  0  0  0  0  0  0  0
   -0.2234  -11.8615   16.8874 C   0  0  0  0  0  0  0  0  0  0  0  0
    6.4491   -4.1532   30.1213 C   0  0  0  0  0  0  0  0  0  0  0  0
    5.7060   -4.4340   27.4975 C   0  0  0  0  0  0  0  0  0  0  0  0
    1.1818   -5.6612   28.8399 C   0  0  0  0  0  0  0  0  0  0  0  0
   -1.2067   -7.3287   17.7772 C   0  0  0  0  0  0  0  0  0  0  0  0
   -0.0206  -10.5585   16.6210 C   0  0  0  0  0  0  0  0  0  0  0  0
    0.3696  -12.7626   16.2169 O   0  0  0  0  0  0  0  0  0  0  0  0
   -0.6895   -9.5676   17.3297 C   0  0  0  0  0  0  0  0  0  0  0  0
    0.8388   -5.8417   27.5264 C   0  0  0  0  0  0  0  0  0  0  0  0
   -2.0709   -7.6637   18.7817 C   0  0  0  0  0  0  0  0  0  0  0  0
   -0.5279   -8.2168   17.0717 C   0  0  0  0  0  0  0  0  0  0  0  0
    6.9694   -4.0191   27.8190 C   0  0  0  0  0  0  0  0  0  0  0  0
    5.1733   -4.5469   29.8123 C   0  0  0  0  0  0  0  0  0  0  0  0
   -1.7508  -11.3016   18.6072 C   0  0  0  0  0  0  0  0  0  0  0  0
    1.7497   -5.6771   26.4971 C   0  0  0  0  0  0  0  0  0  0  0  0
   -1.5799   -9.9322   18.3468 C   0  0  0  0  0  0  0  0  0  0  0  0
   -1.0871  -12.2214   17.8851 C   0  0  0  0  0  0  0  0  0  0  0  0
   -2.2706   -8.9669   19.0691 C   0  0  0  0  0  0  0  0  0  0  0  0
    3.0279   -5.3073   26.8197 C   0  0  0  0  0  0  0  0  0  0  0  0
    7.3282   -3.8948   29.1186 C   0  0  0  0  0  0  0  0  0  0  0  0
  1  3  4  0
  1  7  4  0
  2  3  1  0
  2  6  4  0
  2 16  4  0
  3 22  4  0
  4  9  4  0
  4 10  1  0
  4 20  4  0
  5 16  4  0
  5 23  4  0
  6 15  4  0
  7 12  4  0
  8 13  4  0
  8 14  4  0
  9 11  4  0
 11 14  4  0
 11 19  4  0
 12 18  4  0
 13 21  4  0
 15 23  4  0
 17 19  4  0
 17 20  4  0
 18 22  4  0
 19 21  4  0
M  END
$$$$

 Created by Python create_sdf_string function

 23 25  0  0  0  0  0  0  0  0999 V2000
    2.4610   -5.3070   29.1240 C   0  0  0  0  0  0  0  0  0  0  0  0
    4.7710   -4.6952   28.4803 C   0  0  0  0  0  0  0  0  0  0  0  0
    3.4047   -5.1087   28.1314 C   0  0  0  0  0  0  0  0  0  0  0  0
   -0.2234  -11.8615   16.8874 C   0  0  0  0  0  0  0  0  0  0  0  0
    6.4491   -4.1532   30.1213 C   0  0  0  0  0  0  0  0  0  0  0  0
    5.7060   -4.4340   27.4975 C   0  0  0  0  0  0  0  0  0  0  0  0
    1.1818   -5.6612   28.8399 C   0  0  0  0  0  0  0  0  0  0  0  0
   -1.2067   -7.3287   17.7772 C   0  0  0  0  0  0  0  0  0  0  0  0
   -0.0206  -10.5585   16.6210 C   0  0  0  0  0  0  0  0  0  0  0  0
    0.3696  -12.7626   16.2169 O   0  0  0  0  0  0  0  0  0  0  0  0
   -0.6895   -9.5676   17.3297 C   0  0  0  0  0  0  0  0  0  0  0  0
    0.8388   -5.8417   27.5264 C   0  0  0  0  0  0  0  0  0  0  0  0
   -2.0709   -7.6637   18.7817 C   0  0  0  0  0  0  0  0  0  0  0  0
   -0.5279   -8.2168   17.0717 C   0  0  0  0  0  0  0  0  0  0  0  0
    6.9694   -4.0191   27.8190 C   0  0  0  0  0  0  0  0  0  0  0  0
    5.1733   -4.5469   29.8123 C   0  0  0  0  0  0  0  0  0  0  0  0
   -1.7508  -11.3016   18.6072 C   0  0  0  0  0  0  0  0  0  0  0  0
    1.7497   -5.6771   26.4971 C   0  0  0  0  0  0  0  0  0  0  0  0
   -1.5799   -9.9322   18.3468 C   0  0  0  0  0  0  0  0  0  0  0  0
   -1.0871  -12.2214   17.8851 C   0  0  0  0  0  0  0  0  0  0  0  0
   -2.2706   -8.9669   19.0691 C   0  0  0  0  0  0  0  0  0  0  0  0
    3.0279   -5.3073   26.8197 C   0  0  0  0  0  0  0  0  0  0  0  0
    7.3282   -3.8948   29.1186 C   0  0  0  0  0  0  0  0  0  0  0  0
  1  3  4  0
  1  7  4  0
  2  3  1  0
  2  6  4  0
  2 16  4  0
  3 22  4  0
  4  9  4  0
  4 10  1  0
  4 20  4  0
  5 16  4  0
  5 23  4  0
  6 15  4  0
  7 12  4  0
  8 13  4  0
  8 14  4  0
  9 11  4  0
 11 14  4  0
 11 19  4  0
 12 18  4  0
 13 21  4  0
 15 23  4  0
 17 19  4  0
 17 20  4  0
 18 22  4  0
 19 21  4  0
M  END
$$$$

 Created by Python create_sdf_string function

 23 25  0  0  0  0  0  0  0  0999 V2000
    2.4610   -5.3070   29.1240 C   0  0  0  0  0  0  0  0  0  0  0  0
    4.7710   -4.6952   28.4803 C   0  0  0  0  0  0  0  0  0  0  0  0
    3.4047   -5.1087   28.1314 C   0  0  0  0  0  0  0  0  0  0  0  0
   -0.2234  -11.8615   16.8874 C   0  0  0  0  0  0  0  0  0  0  0  0
    6.4491   -4.1532   30.1213 C   0  0  0  0  0  0  0  0  0  0  0  0
    5.7060   -4.4340   27.4975 C   0  0  0  0  0  0  0  0  0  0  0  0
    1.1818   -5.6612   28.8399 C   0  0  0  0  0  0  0  0  0  0  0  0
   -1.2067   -7.3287   17.7772 C   0  0  0  0  0  0  0  0  0  0  0  0
   -0.0206  -10.5585   16.6210 C   0  0  0  0  0  0  0  0  0  0  0  0
    0.3696  -12.7626   16.2169 O   0  0  0  0  0  0  0  0  0  0  0  0
   -0.6895   -9.5676   17.3297 C   0  0  0  0  0  0  0  0  0  0  0  0
    0.8388   -5.8417   27.5264 C   0  0  0  0  0  0  0  0  0  0  0  0
   -2.0709   -7.6637   18.7817 C   0  0  0  0  0  0  0  0  0  0  0  0
   -0.5279   -8.2168   17.0717 C   0  0  0  0  0  0  0  0  0  0  0  0
    6.9694   -4.0191   27.8190 C   0  0  0  0  0  0  0  0  0  0  0  0
    5.1733   -4.5469   29.8123 C   0  0  0  0  0  0  0  0  0  0  0  0
   -1.7508  -11.3016   18.6072 C   0  0  0  0  0  0  0  0  0  0  0  0
    1.7497   -5.6771   26.4971 C   0  0  0  0  0  0  0  0  0  0  0  0
   -1.5799   -9.9322   18.3468 C   0  0  0  0  0  0  0  0  0  0  0  0
   -1.0871  -12.2214   17.8851 C   0  0  0  0  0  0  0  0  0  0  0  0
   -2.2706   -8.9669   19.0691 C   0  0  0  0  0  0  0  0  0  0  0  0
    3.0279   -5.3073   26.8197 C   0  0  0  0  0  0  0  0  0  0  0  0
    7.3282   -3.8948   29.1186 C   0  0  0  0  0  0  0  0  0  0  0  0
  1  3  4  0
  1  7  4  0
  2  3  1  0
  2  6  4  0
  2 16  4  0
  3 22  4  0
  4  9  4  0
  4 10  1  0
  4 20  4  0
  5 16  4  0
  5 23  4  0
  6 15  4  0
  7 12  4  0
  8 13  4  0
  8 14  4  0
  9 11  4  0
 11 14  4  0
 11 19  4  0
 12 18  4  0
 13 21  4  0
 15 23  4  0
 17 19  4  0
 17 20  4  0
 18 22  4  0
 19 21  4  0
M  END
$$$$

 Created by Python create_sdf_string function

 23 25  0  0  0  0  0  0  0  0999 V2000
    2.4610   -5.3070   29.1240 C   0  0  0  0  0  0  0  0  0  0  0  0
    4.7710   -4.6952   28.4803 C   0  0  0  0  0  0  0  0  0  0  0  0
    3.4047   -5.1087   28.1314 C   0  0  0  0  0  0  0  0  0  0  0  0
   -0.2234  -11.8615   16.8874 C   0  0  0  0  0  0  0  0  0  0  0  0
    6.4491   -4.1532   30.1213 C   0  0  0  0  0  0  0  0  0  0  0  0
    5.7060   -4.4340   27.4975 C   0  0  0  0  0  0  0  0  0  0  0  0
    1.1818   -5.6612   28.8399 C   0  0  0  0  0  0  0  0  0  0  0  0
   -1.2067   -7.3287   17.7772 C   0  0  0  0  0  0  0  0  0  0  0  0
   -0.0206  -10.5585   16.6210 C   0  0  0  0  0  0  0  0  0  0  0  0
    0.3696  -12.7626   16.2169 O   0  0  0  0  0  0  0  0  0  0  0  0
   -0.6895   -9.5676   17.3297 C   0  0  0  0  0  0  0  0  0  0  0  0
    0.8388   -5.8417   27.5264 C   0  0  0  0  0  0  0  0  0  0  0  0
   -2.0709   -7.6637   18.7817 C   0  0  0  0  0  0  0  0  0  0  0  0
   -0.5279   -8.2168   17.0717 C   0  0  0  0  0  0  0  0  0  0  0  0
    6.9694   -4.0191   27.8190 C   0  0  0  0  0  0  0  0  0  0  0  0
    5.1733   -4.5469   29.8123 C   0  0  0  0  0  0  0  0  0  0  0  0
   -1.7508  -11.3016   18.6072 C   0  0  0  0  0  0  0  0  0  0  0  0
    1.7497   -5.6771   26.4971 C   0  0  0  0  0  0  0  0  0  0  0  0
   -1.5799   -9.9322   18.3468 C   0  0  0  0  0  0  0  0  0  0  0  0
   -1.0871  -12.2214   17.8851 C   0  0  0  0  0  0  0  0  0  0  0  0
   -2.2706   -8.9669   19.0691 C   0  0  0  0  0  0  0  0  0  0  0  0
    3.0279   -5.3073   26.8197 C   0  0  0  0  0  0  0  0  0  0  0  0
    7.3282   -3.8948   29.1186 C   0  0  0  0  0  0  0  0  0  0  0  0
  1  3  4  0
  1  7  4  0
  2  3  1  0
  2  6  4  0
  2 16  4  0
  3 22  4  0
  4  9  4  0
  4 10  1  0
  4 20  4  0
  5 16  4  0
  5 23  4  0
  6 15  4  0
  7 12  4  0
  8 13  4  0
  8 14  4  0
  9 11  4  0
 11 14  4  0
 11 19  4  0
 12 18  4  0
 13 21  4  0
 15 23  4  0
 17 19  4  0
 17 20  4  0
 18 22  4  0
 19 21  4  0
M  END
$$$$

 Created by Python create_sdf_string function

 23 25  0  0  0  0  0  0  0  0999 V2000
    2.4610   -5.3070   29.1240 C   0  0  0  0  0  0  0  0  0  0  0  0
    4.7710   -4.6952   28.4803 C   0  0  0  0  0  0  0  0  0  0  0  0
    3.4047   -5.1087   28.1314 C   0  0  0  0  0  0  0  0  0  0  0  0
   -0.2234  -11.8615   16.8874 C   0  0  0  0  0  0  0  0  0  0  0  0
    6.4491   -4.1532   30.1213 C   0  0  0  0  0  0  0  0  0  0  0  0
    5.7060   -4.4340   27.4975 C   0  0  0  0  0  0  0  0  0  0  0  0
    1.1818   -5.6612   28.8399 C   0  0  0  0  0  0  0  0  0  0  0  0
   -1.2067   -7.3287   17.7772 C   0  0  0  0  0  0  0  0  0  0  0  0
   -0.0206  -10.5585   16.6210 C   0  0  0  0  0  0  0  0  0  0  0  0
    0.3696  -12.7626   16.2169 O   0  0  0  0  0  0  0  0  0  0  0  0
   -0.6895   -9.5676   17.3297 C   0  0  0  0  0  0  0  0  0  0  0  0
    0.8388   -5.8417   27.5264 C   0  0  0  0  0  0  0  0  0  0  0  0
   -2.0709   -7.6637   18.7817 C   0  0  0  0  0  0  0  0  0  0  0  0
   -0.5279   -8.2168   17.0717 C   0  0  0  0  0  0  0  0  0  0  0  0
    6.9694   -4.0191   27.8190 C   0  0  0  0  0  0  0  0  0  0  0  0
    5.1733   -4.5469   29.8123 C   0  0  0  0  0  0  0  0  0  0  0  0
   -1.7508  -11.3016   18.6072 C   0  0  0  0  0  0  0  0  0  0  0  0
    1.7497   -5.6771   26.4971 C   0  0  0  0  0  0  0  0  0  0  0  0
   -1.5799   -9.9322   18.3468 C   0  0  0  0  0  0  0  0  0  0  0  0
   -1.0871  -12.2214   17.8851 C   0  0  0  0  0  0  0  0  0  0  0  0
   -2.2706   -8.9669   19.0691 C   0  0  0  0  0  0  0  0  0  0  0  0
    3.0279   -5.3073   26.8197 C   0  0  0  0  0  0  0  0  0  0  0  0
    7.3282   -3.8948   29.1186 C   0  0  0  0  0  0  0  0  0  0  0  0
  1  3  4  0
  1  7  4  0
  2  3  1  0
  2  6  4  0
  2 16  4  0
  3 22  4  0
  4  9  4  0
  4 10  1  0
  4 20  4  0
  5 16  4  0
  5 23  4  0
  6 15  4  0
  7 12  4  0
  8 13  4  0
  8 14  4  0
  9 11  4  0
 11 14  4  0
 11 19  4  0
 12 18  4  0
 13 21  4  0
 15 23  4  0
 17 19  4  0
 17 20  4  0
 18 22  4  0
 19 21  4  0
M  END
$$$$

 Created by Python create_sdf_string function

 23 25  0  0  0  0  0  0  0  0999 V2000
    2.4610   -5.3070   29.1240 C   0  0  0  0  0  0  0  0  0  0  0  0
    4.7710   -4.6952   28.4803 C   0  0  0  0  0  0  0  0  0  0  0  0
    3.4047   -5.1087   28.1314 C   0  0  0  0  0  0  0  0  0  0  0  0
   -0.2234  -11.8615   16.8874 C   0  0  0  0  0  0  0  0  0  0  0  0
    6.4491   -4.1532   30.1213 C   0  0  0  0  0  0  0  0  0  0  0  0
    5.7060   -4.4340   27.4975 C   0  0  0  0  0  0  0  0  0  0  0  0
    1.1818   -5.6612   28.8399 C   0  0  0  0  0  0  0  0  0  0  0  0
   -1.2067   -7.3287   17.7772 C   0  0  0  0  0  0  0  0  0  0  0  0
   -0.0206  -10.5585   16.6210 C   0  0  0  0  0  0  0  0  0  0  0  0
    0.3696  -12.7626   16.2169 O   0  0  0  0  0  0  0  0  0  0  0  0
   -0.6895   -9.5676   17.3297 C   0  0  0  0  0  0  0  0  0  0  0  0
    0.8388   -5.8417   27.5264 C   0  0  0  0  0  0  0  0  0  0  0  0
   -2.0709   -7.6637   18.7817 C   0  0  0  0  0  0  0  0  0  0  0  0
   -0.5279   -8.2168   17.0717 C   0  0  0  0  0  0  0  0  0  0  0  0
    6.9694   -4.0191   27.8190 C   0  0  0  0  0  0  0  0  0  0  0  0
    5.1733   -4.5469   29.8123 C   0  0  0  0  0  0  0  0  0  0  0  0
   -1.7508  -11.3016   18.6072 C   0  0  0  0  0  0  0  0  0  0  0  0
    1.7497   -5.6771   26.4971 C   0  0  0  0  0  0  0  0  0  0  0  0
   -1.5799   -9.9322   18.3468 C   0  0  0  0  0  0  0  0  0  0  0  0
   -1.0871  -12.2214   17.8851 C   0  0  0  0  0  0  0  0  0  0  0  0
   -2.2706   -8.9669   19.0691 C   0  0  0  0  0  0  0  0  0  0  0  0
    3.0279   -5.3073   26.8197 C   0  0  0  0  0  0  0  0  0  0  0  0
    7.3282   -3.8948   29.1186 C   0  0  0  0  0  0  0  0  0  0  0  0
  1  3  4  0
  1  7  4  0
  2  3  1  0
  2  6  4  0
  2 16  4  0
  3 22  4  0
  4  9  4  0
  4 10  1  0
  4 20  4  0
  5 16  4  0
  5 23  4  0
  6 15  4  0
  7 12  4  0
  8 13  4  0
  8 14  4  0
  9 11  4  0
 11 14  4  0
 11 19  4  0
 12 18  4  0
 13 21  4  0
 15 23  4  0
 17 19  4  0
 17 20  4  0
 18 22  4  0
 19 21  4  0
M  END
$$$$

 Created by Python create_sdf_string function

 23 25  0  0  0  0  0  0  0  0999 V2000
    2.4610   -5.3070   29.1240 C   0  0  0  0  0  0  0  0  0  0  0  0
    4.7710   -4.6952   28.4803 C   0  0  0  0  0  0  0  0  0  0  0  0
    3.4047   -5.1087   28.1314 C   0  0  0  0  0  0  0  0  0  0  0  0
   -0.2234  -11.8615   16.8874 C   0  0  0  0  0  0  0  0  0  0  0  0
    6.4491   -4.1532   30.1213 C   0  0  0  0  0  0  0  0  0  0  0  0
    5.7060   -4.4340   27.4975 C   0  0  0  0  0  0  0  0  0  0  0  0
    1.1818   -5.6612   28.8399 C   0  0  0  0  0  0  0  0  0  0  0  0
   -1.2067   -7.3287   17.7772 C   0  0  0  0  0  0  0  0  0  0  0  0
   -0.0206  -10.5585   16.6210 C   0  0  0  0  0  0  0  0  0  0  0  0
    0.3696  -12.7626   16.2169 O   0  0  0  0  0  0  0  0  0  0  0  0
   -0.6895   -9.5676   17.3297 C   0  0  0  0  0  0  0  0  0  0  0  0
    0.8388   -5.8417   27.5264 C   0  0  0  0  0  0  0  0  0  0  0  0
   -2.0709   -7.6637   18.7817 C   0  0  0  0  0  0  0  0  0  0  0  0
   -0.5279   -8.2168   17.0717 C   0  0  0  0  0  0  0  0  0  0  0  0
    6.9694   -4.0191   27.8190 C   0  0  0  0  0  0  0  0  0  0  0  0
    5.1733   -4.5469   29.8123 C   0  0  0  0  0  0  0  0  0  0  0  0
   -1.7508  -11.3016   18.6072 C   0  0  0  0  0  0  0  0  0  0  0  0
    1.7497   -5.6771   26.4971 C   0  0  0  0  0  0  0  0  0  0  0  0
   -1.5799   -9.9322   18.3468 C   0  0  0  0  0  0  0  0  0  0  0  0
   -1.0871  -12.2214   17.8851 C   0  0  0  0  0  0  0  0  0  0  0  0
   -2.2706   -8.9669   19.0691 C   0  0  0  0  0  0  0  0  0  0  0  0
    3.0279   -5.3073   26.8197 C   0  0  0  0  0  0  0  0  0  0  0  0
    7.3282   -3.8948   29.1186 C   0  0  0  0  0  0  0  0  0  0  0  0
  1  3  4  0
  1  7  4  0
  2  3  1  0
  2  6  4  0
  2 16  4  0
  3 22  4  0
  4  9  4  0
  4 10  1  0
  4 20  4  0
  5 16  4  0
  5 23  4  0
  6 15  4  0
  7 12  4  0
  8 13  4  0
  8 14  4  0
  9 11  4  0
 11 14  4  0
 11 19  4  0
 12 18  4  0
 13 21  4  0
 15 23  4  0
 17 19  4  0
 17 20  4  0
 18 22  4  0
 19 21  4  0
M  END
$$$$

 Created by Python create_sdf_string function

 23 25  0  0  0  0  0  0  0  0999 V2000
    2.4610   -5.3070   29.1240 C   0  0  0  0  0  0  0  0  0  0  0  0
    4.7710   -4.6952   28.4803 C   0  0  0  0  0  0  0  0  0  0  0  0
    3.4047   -5.1087   28.1314 C   0  0  0  0  0  0  0  0  0  0  0  0
   -0.2234  -11.8615   16.8874 C   0  0  0  0  0  0  0  0  0  0  0  0
    6.4491   -4.1532   30.1213 C   0  0  0  0  0  0  0  0  0  0  0  0
    5.7060   -4.4340   27.4975 C   0  0  0  0  0  0  0  0  0  0  0  0
    1.1818   -5.6612   28.8399 C   0  0  0  0  0  0  0  0  0  0  0  0
   -1.2067   -7.3287   17.7772 C   0  0  0  0  0  0  0  0  0  0  0  0
   -0.0206  -10.5585   16.6210 C   0  0  0  0  0  0  0  0  0  0  0  0
    0.3696  -12.7626   16.2169 O   0  0  0  0  0  0  0  0  0  0  0  0
   -0.6895   -9.5676   17.3297 C   0  0  0  0  0  0  0  0  0  0  0  0
    0.8388   -5.8417   27.5264 C   0  0  0  0  0  0  0  0  0  0  0  0
   -2.0709   -7.6637   18.7817 C   0  0  0  0  0  0  0  0  0  0  0  0
   -0.5279   -8.2168   17.0717 C   0  0  0  0  0  0  0  0  0  0  0  0
    6.9694   -4.0191   27.8190 C   0  0  0  0  0  0  0  0  0  0  0  0
    5.1733   -4.5469   29.8123 C   0  0  0  0  0  0  0  0  0  0  0  0
   -1.7508  -11.3016   18.6072 C   0  0  0  0  0  0  0  0  0  0  0  0
    1.7497   -5.6771   26.4971 C   0  0  0  0  0  0  0  0  0  0  0  0
   -1.5799   -9.9322   18.3468 C   0  0  0  0  0  0  0  0  0  0  0  0
   -1.0871  -12.2214   17.8851 C   0  0  0  0  0  0  0  0  0  0  0  0
   -2.2706   -8.9669   19.0691 C   0  0  0  0  0  0  0  0  0  0  0  0
    3.0279   -5.3073   26.8197 C   0  0  0  0  0  0  0  0  0  0  0  0
    7.3282   -3.8948   29.1186 C   0  0  0  0  0  0  0  0  0  0  0  0
  1  3  4  0
  1  7  4  0
  2  3  1  0
  2  6  4  0
  2 16  4  0
  3 22  4  0
  4  9  4  0
  4 10  1  0
  4 20  4  0
  5 16  4  0
  5 23  4  0
  6 15  4  0
  7 12  4  0
  8 13  4  0
  8 14  4  0
  9 11  4  0
 11 14  4  0
 11 19  4  0
 12 18  4  0
 13 21  4  0
 15 23  4  0
 17 19  4  0
 17 20  4  0
 18 22  4  0
 19 21  4  0
M  END
$$$$

 Created by Python create_sdf_string function

 23 25  0  0  0  0  0  0  0  0999 V2000
    2.4610   -5.3070   29.1240 C   0  0  0  0  0  0  0  0  0  0  0  0
    4.7710   -4.6952   28.4803 C   0  0  0  0  0  0  0  0  0  0  0  0
    3.4047   -5.1087   28.1314 C   0  0  0  0  0  0  0  0  0  0  0  0
   -0.2234  -11.8615   16.8874 C   0  0  0  0  0  0  0  0  0  0  0  0
    6.4491   -4.1532   30.1213 C   0  0  0  0  0  0  0  0  0  0  0  0
    5.7060   -4.4340   27.4975 C   0  0  0  0  0  0  0  0  0  0  0  0
    1.1818   -5.6612   28.8399 C   0  0  0  0  0  0  0  0  0  0  0  0
   -1.2067   -7.3287   17.7772 C   0  0  0  0  0  0  0  0  0  0  0  0
   -0.0206  -10.5585   16.6210 C   0  0  0  0  0  0  0  0  0  0  0  0
    0.3696  -12.7626   16.2169 O   0  0  0  0  0  0  0  0  0  0  0  0
   -0.6895   -9.5676   17.3297 C   0  0  0  0  0  0  0  0  0  0  0  0
    0.8388   -5.8417   27.5264 C   0  0  0  0  0  0  0  0  0  0  0  0
   -2.0709   -7.6637   18.7817 C   0  0  0  0  0  0  0  0  0  0  0  0
   -0.5279   -8.2168   17.0717 C   0  0  0  0  0  0  0  0  0  0  0  0
    6.9694   -4.0191   27.8190 C   0  0  0  0  0  0  0  0  0  0  0  0
    5.1733   -4.5469   29.8123 C   0  0  0  0  0  0  0  0  0  0  0  0
   -1.7508  -11.3016   18.6072 C   0  0  0  0  0  0  0  0  0  0  0  0
    1.7497   -5.6771   26.4971 C   0  0  0  0  0  0  0  0  0  0  0  0
   -1.5799   -9.9322   18.3468 C   0  0  0  0  0  0  0  0  0  0  0  0
   -1.0871  -12.2214   17.8851 C   0  0  0  0  0  0  0  0  0  0  0  0
   -2.2706   -8.9669   19.0691 C   0  0  0  0  0  0  0  0  0  0  0  0
    3.0279   -5.3073   26.8197 C   0  0  0  0  0  0  0  0  0  0  0  0
    7.3282   -3.8948   29.1186 C   0  0  0  0  0  0  0  0  0  0  0  0
  1  3  4  0
  1  7  4  0
  2  3  1  0
  2  6  4  0
  2 16  4  0
  3 22  4  0
  4  9  4  0
  4 10  1  0
  4 20  4  0
  5 16  4  0
  5 23  4  0
  6 15  4  0
  7 12  4  0
  8 13  4  0
  8 14  4  0
  9 11  4  0
 11 14  4  0
 11 19  4  0
 12 18  4  0
 13 21  4  0
 15 23  4  0
 17 19  4  0
 17 20  4  0
 18 22  4  0
 19 21  4  0
M  END
$$$$

 Created by Python create_sdf_string function

 23 25  0  0  0  0  0  0  0  0999 V2000
    2.4610   -5.3070   29.1240 C   0  0  0  0  0  0  0  0  0  0  0  0
    4.7710   -4.6952   28.4803 C   0  0  0  0  0  0  0  0  0  0  0  0
    3.4047   -5.1087   28.1314 C   0  0  0  0  0  0  0  0  0  0  0  0
   -0.2234  -11.8615   16.8874 C   0  0  0  0  0  0  0  0  0  0  0  0
    6.4491   -4.1532   30.1213 C   0  0  0  0  0  0  0  0  0  0  0  0
    5.7060   -4.4340   27.4975 C   0  0  0  0  0  0  0  0  0  0  0  0
    1.1818   -5.6612   28.8399 C   0  0  0  0  0  0  0  0  0  0  0  0
   -1.2067   -7.3287   17.7772 C   0  0  0  0  0  0  0  0  0  0  0  0
   -0.0206  -10.5585   16.6210 C   0  0  0  0  0  0  0  0  0  0  0  0
    0.3696  -12.7626   16.2169 O   0  0  0  0  0  0  0  0  0  0  0  0
   -0.6895   -9.5676   17.3297 C   0  0  0  0  0  0  0  0  0  0  0  0
    0.8388   -5.8417   27.5264 C   0  0  0  0  0  0  0  0  0  0  0  0
   -2.0709   -7.6637   18.7817 C   0  0  0  0  0  0  0  0  0  0  0  0
   -0.5279   -8.2168   17.0717 C   0  0  0  0  0  0  0  0  0  0  0  0
    6.9694   -4.0191   27.8190 C   0  0  0  0  0  0  0  0  0  0  0  0
    5.1733   -4.5469   29.8123 C   0  0  0  0  0  0  0  0  0  0  0  0
   -1.7508  -11.3016   18.6072 C   0  0  0  0  0  0  0  0  0  0  0  0
    1.7497   -5.6771   26.4971 C   0  0  0  0  0  0  0  0  0  0  0  0
   -1.5799   -9.9322   18.3468 C   0  0  0  0  0  0  0  0  0  0  0  0
   -1.0871  -12.2214   17.8851 C   0  0  0  0  0  0  0  0  0  0  0  0
   -2.2706   -8.9669   19.0691 C   0  0  0  0  0  0  0  0  0  0  0  0
    3.0279   -5.3073   26.8197 C   0  0  0  0  0  0  0  0  0  0  0  0
    7.3282   -3.8948   29.1186 C   0  0  0  0  0  0  0  0  0  0  0  0
  1  3  4  0
  1  7  4  0
  2  3  1  0
  2  6  4  0
  2 16  4  0
  3 22  4  0
  4  9  4  0
  4 10  1  0
  4 20  4  0
  5 16  4  0
  5 23  4  0
  6 15  4  0
  7 12  4  0
  8 13  4  0
  8 14  4  0
  9 11  4  0
 11 14  4  0
 11 19  4  0
 12 18  4  0
 13 21  4  0
 15 23  4  0
 17 19  4  0
 17 20  4  0
 18 22  4  0
 19 21  4  0
M  END
$$$$

 Created by Python create_sdf_string function

 23 25  0  0  0  0  0  0  0  0999 V2000
    2.4610   -5.3070   29.1240 C   0  0  0  0  0  0  0  0  0  0  0  0
    4.7710   -4.6952   28.4803 C   0  0  0  0  0  0  0  0  0  0  0  0
    3.4047   -5.1087   28.1314 C   0  0  0  0  0  0  0  0  0  0  0  0
   -0.2234  -11.8615   16.8874 C   0  0  0  0  0  0  0  0  0  0  0  0
    6.4491   -4.1532   30.1213 C   0  0  0  0  0  0  0  0  0  0  0  0
    5.7060   -4.4340   27.4975 C   0  0  0  0  0  0  0  0  0  0  0  0
    1.1818   -5.6612   28.8399 C   0  0  0  0  0  0  0  0  0  0  0  0
   -1.2067   -7.3287   17.7772 C   0  0  0  0  0  0  0  0  0  0  0  0
   -0.0206  -10.5585   16.6210 C   0  0  0  0  0  0  0  0  0  0  0  0
    0.3696  -12.7626   16.2169 O   0  0  0  0  0  0  0  0  0  0  0  0
   -0.6895   -9.5676   17.3297 C   0  0  0  0  0  0  0  0  0  0  0  0
    0.8388   -5.8417   27.5264 C   0  0  0  0  0  0  0  0  0  0  0  0
   -2.0709   -7.6637   18.7817 C   0  0  0  0  0  0  0  0  0  0  0  0
   -0.5279   -8.2168   17.0717 C   0  0  0  0  0  0  0  0  0  0  0  0
    6.9694   -4.0191   27.8190 C   0  0  0  0  0  0  0  0  0  0  0  0
    5.1733   -4.5469   29.8123 C   0  0  0  0  0  0  0  0  0  0  0  0
   -1.7508  -11.3016   18.6072 C   0  0  0  0  0  0  0  0  0  0  0  0
    1.7497   -5.6771   26.4971 C   0  0  0  0  0  0  0  0  0  0  0  0
   -1.5799   -9.9322   18.3468 C   0  0  0  0  0  0  0  0  0  0  0  0
   -1.0871  -12.2214   17.8851 C   0  0  0  0  0  0  0  0  0  0  0  0
   -2.2706   -8.9669   19.0691 C   0  0  0  0  0  0  0  0  0  0  0  0
    3.0279   -5.3073   26.8197 C   0  0  0  0  0  0  0  0  0  0  0  0
    7.3282   -3.8948   29.1186 C   0  0  0  0  0  0  0  0  0  0  0  0
  1  3  4  0
  1  7  4  0
  2  3  1  0
  2  6  4  0
  2 16  4  0
  3 22  4  0
  4  9  4  0
  4 10  1  0
  4 20  4  0
  5 16  4  0
  5 23  4  0
  6 15  4  0
  7 12  4  0
  8 13  4  0
  8 14  4  0
  9 11  4  0
 11 14  4  0
 11 19  4  0
 12 18  4  0
 13 21  4  0
 15 23  4  0
 17 19  4  0
 17 20  4  0
 18 22  4  0
 19 21  4  0
M  END
$$$$

 Created by Python create_sdf_string function

 23 25  0  0  0  0  0  0  0  0999 V2000
    2.4610   -5.3070   29.1240 C   0  0  0  0  0  0  0  0  0  0  0  0
    4.7710   -4.6952   28.4803 C   0  0  0  0  0  0  0  0  0  0  0  0
    3.4047   -5.1087   28.1314 C   0  0  0  0  0  0  0  0  0  0  0  0
   -0.2234  -11.8615   16.8874 C   0  0  0  0  0  0  0  0  0  0  0  0
    6.4491   -4.1532   30.1213 C   0  0  0  0  0  0  0  0  0  0  0  0
    5.7060   -4.4340   27.4975 C   0  0  0  0  0  0  0  0  0  0  0  0
    1.1818   -5.6612   28.8399 C   0  0  0  0  0  0  0  0  0  0  0  0
   -1.2067   -7.3287   17.7772 C   0  0  0  0  0  0  0  0  0  0  0  0
   -0.0206  -10.5585   16.6210 C   0  0  0  0  0  0  0  0  0  0  0  0
    0.3696  -12.7626   16.2169 O   0  0  0  0  0  0  0  0  0  0  0  0
   -0.6895   -9.5676   17.3297 C   0  0  0  0  0  0  0  0  0  0  0  0
    0.8388   -5.8417   27.5264 C   0  0  0  0  0  0  0  0  0  0  0  0
   -2.0709   -7.6637   18.7817 C   0  0  0  0  0  0  0  0  0  0  0  0
   -0.5279   -8.2168   17.0717 C   0  0  0  0  0  0  0  0  0  0  0  0
    6.9694   -4.0191   27.8190 C   0  0  0  0  0  0  0  0  0  0  0  0
    5.1733   -4.5469   29.8123 C   0  0  0  0  0  0  0  0  0  0  0  0
   -1.7508  -11.3016   18.6072 C   0  0  0  0  0  0  0  0  0  0  0  0
    1.7497   -5.6771   26.4971 C   0  0  0  0  0  0  0  0  0  0  0  0
   -1.5799   -9.9322   18.3468 C   0  0  0  0  0  0  0  0  0  0  0  0
   -1.0871  -12.2214   17.8851 C   0  0  0  0  0  0  0  0  0  0  0  0
   -2.2706   -8.9669   19.0691 C   0  0  0  0  0  0  0  0  0  0  0  0
    3.0279   -5.3073   26.8197 C   0  0  0  0  0  0  0  0  0  0  0  0
    7.3282   -3.8948   29.1186 C   0  0  0  0  0  0  0  0  0  0  0  0
  1  3  4  0
  1  7  4  0
  2  3  1  0
  2  6  4  0
  2 16  4  0
  3 22  4  0
  4  9  4  0
  4 10  1  0
  4 20  4  0
  5 16  4  0
  5 23  4  0
  6 15  4  0
  7 12  4  0
  8 13  4  0
  8 14  4  0
  9 11  4  0
 11 14  4  0
 11 19  4  0
 12 18  4  0
 13 21  4  0
 15 23  4  0
 17 19  4  0
 17 20  4  0
 18 22  4  0
 19 21  4  0
M  END
$$$$

 Created by Python create_sdf_string function

 23 25  0  0  0  0  0  0  0  0999 V2000
    2.4610   -5.3070   29.1240 C   0  0  0  0  0  0  0  0  0  0  0  0
    4.7710   -4.6952   28.4803 C   0  0  0  0  0  0  0  0  0  0  0  0
    3.4047   -5.1087   28.1314 C   0  0  0  0  0  0  0  0  0  0  0  0
   -0.2234  -11.8615   16.8874 C   0  0  0  0  0  0  0  0  0  0  0  0
    6.4491   -4.1532   30.1213 C   0  0  0  0  0  0  0  0  0  0  0  0
    5.7060   -4.4340   27.4975 C   0  0  0  0  0  0  0  0  0  0  0  0
    1.1818   -5.6612   28.8399 C   0  0  0  0  0  0  0  0  0  0  0  0
   -1.2067   -7.3287   17.7772 C   0  0  0  0  0  0  0  0  0  0  0  0
   -0.0206  -10.5585   16.6210 C   0  0  0  0  0  0  0  0  0  0  0  0
    0.3696  -12.7626   16.2169 O   0  0  0  0  0  0  0  0  0  0  0  0
   -0.6895   -9.5676   17.3297 C   0  0  0  0  0  0  0  0  0  0  0  0
    0.8388   -5.8417   27.5264 C   0  0  0  0  0  0  0  0  0  0  0  0
   -2.0709   -7.6637   18.7817 C   0  0  0  0  0  0  0  0  0  0  0  0
   -0.5279   -8.2168   17.0717 C   0  0  0  0  0  0  0  0  0  0  0  0
    6.9694   -4.0191   27.8190 C   0  0  0  0  0  0  0  0  0  0  0  0
    5.1733   -4.5469   29.8123 C   0  0  0  0  0  0  0  0  0  0  0  0
   -1.7508  -11.3016   18.6072 C   0  0  0  0  0  0  0  0  0  0  0  0
    1.7497   -5.6771   26.4971 C   0  0  0  0  0  0  0  0  0  0  0  0
   -1.5799   -9.9322   18.3468 C   0  0  0  0  0  0  0  0  0  0  0  0
   -1.0871  -12.2214   17.8851 C   0  0  0  0  0  0  0  0  0  0  0  0
   -2.2706   -8.9669   19.0691 C   0  0  0  0  0  0  0  0  0  0  0  0
    3.0279   -5.3073   26.8197 C   0  0  0  0  0  0  0  0  0  0  0  0
    7.3282   -3.8948   29.1186 C   0  0  0  0  0  0  0  0  0  0  0  0
  1  3  4  0
  1  7  4  0
  2  3  1  0
  2  6  4  0
  2 16  4  0
  3 22  4  0
  4  9  4  0
  4 10  1  0
  4 20  4  0
  5 16  4  0
  5 23  4  0
  6 15  4  0
  7 12  4  0
  8 13  4  0
  8 14  4  0
  9 11  4  0
 11 14  4  0
 11 19  4  0
 12 18  4  0
 13 21  4  0
 15 23  4  0
 17 19  4  0
 17 20  4  0
 18 22  4  0
 19 21  4  0
M  END
$$$$

 Created by Python create_sdf_string function

 23 25  0  0  0  0  0  0  0  0999 V2000
    2.4610   -5.3070   29.1240 C   0  0  0  0  0  0  0  0  0  0  0  0
    4.7710   -4.6952   28.4803 C   0  0  0  0  0  0  0  0  0  0  0  0
    3.4047   -5.1087   28.1314 C   0  0  0  0  0  0  0  0  0  0  0  0
   -0.2234  -11.8615   16.8874 C   0  0  0  0  0  0  0  0  0  0  0  0
    6.4491   -4.1532   30.1213 C   0  0  0  0  0  0  0  0  0  0  0  0
    5.7060   -4.4340   27.4975 C   0  0  0  0  0  0  0  0  0  0  0  0
    1.1818   -5.6612   28.8399 C   0  0  0  0  0  0  0  0  0  0  0  0
   -1.2067   -7.3287   17.7772 C   0  0  0  0  0  0  0  0  0  0  0  0
   -0.0206  -10.5585   16.6210 C   0  0  0  0  0  0  0  0  0  0  0  0
    0.3696  -12.7626   16.2169 O   0  0  0  0  0  0  0  0  0  0  0  0
   -0.6895   -9.5676   17.3297 C   0  0  0  0  0  0  0  0  0  0  0  0
    0.8388   -5.8417   27.5264 C   0  0  0  0  0  0  0  0  0  0  0  0
   -2.0709   -7.6637   18.7817 C   0  0  0  0  0  0  0  0  0  0  0  0
   -0.5279   -8.2168   17.0717 C   0  0  0  0  0  0  0  0  0  0  0  0
    6.9694   -4.0191   27.8190 C   0  0  0  0  0  0  0  0  0  0  0  0
    5.1733   -4.5469   29.8123 C   0  0  0  0  0  0  0  0  0  0  0  0
   -1.7508  -11.3016   18.6072 C   0  0  0  0  0  0  0  0  0  0  0  0
    1.7497   -5.6771   26.4971 C   0  0  0  0  0  0  0  0  0  0  0  0
   -1.5799   -9.9322   18.3468 C   0  0  0  0  0  0  0  0  0  0  0  0
   -1.0871  -12.2214   17.8851 C   0  0  0  0  0  0  0  0  0  0  0  0
   -2.2706   -8.9669   19.0691 C   0  0  0  0  0  0  0  0  0  0  0  0
    3.0279   -5.3073   26.8197 C   0  0  0  0  0  0  0  0  0  0  0  0
    7.3282   -3.8948   29.1186 C   0  0  0  0  0  0  0  0  0  0  0  0
  1  3  4  0
  1  7  4  0
  2  3  1  0
  2  6  4  0
  2 16  4  0
  3 22  4  0
  4  9  4  0
  4 10  1  0
  4 20  4  0
  5 16  4  0
  5 23  4  0
  6 15  4  0
  7 12  4  0
  8 13  4  0
  8 14  4  0
  9 11  4  0
 11 14  4  0
 11 19  4  0
 12 18  4  0
 13 21  4  0
 15 23  4  0
 17 19  4  0
 17 20  4  0
 18 22  4  0
 19 21  4  0
M  END
$$$$

 Created by Python create_sdf_string function

 23 25  0  0  0  0  0  0  0  0999 V2000
    2.4610   -5.3070   29.1240 C   0  0  0  0  0  0  0  0  0  0  0  0
    4.7710   -4.6952   28.4803 C   0  0  0  0  0  0  0  0  0  0  0  0
    3.4047   -5.1087   28.1314 C   0  0  0  0  0  0  0  0  0  0  0  0
   -0.2234  -11.8615   16.8874 C   0  0  0  0  0  0  0  0  0  0  0  0
    6.4491   -4.1532   30.1213 C   0  0  0  0  0  0  0  0  0  0  0  0
    5.7060   -4.4340   27.4975 C   0  0  0  0  0  0  0  0  0  0  0  0
    1.1818   -5.6612   28.8399 C   0  0  0  0  0  0  0  0  0  0  0  0
   -1.2067   -7.3287   17.7772 C   0  0  0  0  0  0  0  0  0  0  0  0
   -0.0206  -10.5585   16.6210 C   0  0  0  0  0  0  0  0  0  0  0  0
    0.3696  -12.7626   16.2169 O   0  0  0  0  0  0  0  0  0  0  0  0
   -0.6895   -9.5676   17.3297 C   0  0  0  0  0  0  0  0  0  0  0  0
    0.8388   -5.8417   27.5264 C   0  0  0  0  0  0  0  0  0  0  0  0
   -2.0709   -7.6637   18.7817 C   0  0  0  0  0  0  0  0  0  0  0  0
   -0.5279   -8.2168   17.0717 C   0  0  0  0  0  0  0  0  0  0  0  0
    6.9694   -4.0191   27.8190 C   0  0  0  0  0  0  0  0  0  0  0  0
    5.1733   -4.5469   29.8123 C   0  0  0  0  0  0  0  0  0  0  0  0
   -1.7508  -11.3016   18.6072 C   0  0  0  0  0  0  0  0  0  0  0  0
    1.7497   -5.6771   26.4971 C   0  0  0  0  0  0  0  0  0  0  0  0
   -1.5799   -9.9322   18.3468 C   0  0  0  0  0  0  0  0  0  0  0  0
   -1.0871  -12.2214   17.8851 C   0  0  0  0  0  0  0  0  0  0  0  0
   -2.2706   -8.9669   19.0691 C   0  0  0  0  0  0  0  0  0  0  0  0
    3.0279   -5.3073   26.8197 C   0  0  0  0  0  0  0  0  0  0  0  0
    7.3282   -3.8948   29.1186 C   0  0  0  0  0  0  0  0  0  0  0  0
  1  3  4  0
  1  7  4  0
  2  3  1  0
  2  6  4  0
  2 16  4  0
  3 22  4  0
  4  9  4  0
  4 10  1  0
  4 20  4  0
  5 16  4  0
  5 23  4  0
  6 15  4  0
  7 12  4  0
  8 13  4  0
  8 14  4  0
  9 11  4  0
 11 14  4  0
 11 19  4  0
 12 18  4  0
 13 21  4  0
 15 23  4  0
 17 19  4  0
 17 20  4  0
 18 22  4  0
 19 21  4  0
M  END
$$$$

 Created by Python create_sdf_string function

 23 25  0  0  0  0  0  0  0  0999 V2000
    2.4610   -5.3070   29.1240 C   0  0  0  0  0  0  0  0  0  0  0  0
    4.7710   -4.6952   28.4803 C   0  0  0  0  0  0  0  0  0  0  0  0
    3.4047   -5.1087   28.1314 C   0  0  0  0  0  0  0  0  0  0  0  0
   -0.2234  -11.8615   16.8874 C   0  0  0  0  0  0  0  0  0  0  0  0
    6.4491   -4.1532   30.1213 C   0  0  0  0  0  0  0  0  0  0  0  0
    5.7060   -4.4340   27.4975 C   0  0  0  0  0  0  0  0  0  0  0  0
    1.1818   -5.6612   28.8399 C   0  0  0  0  0  0  0  0  0  0  0  0
   -1.2067   -7.3287   17.7772 C   0  0  0  0  0  0  0  0  0  0  0  0
   -0.0206  -10.5585   16.6210 C   0  0  0  0  0  0  0  0  0  0  0  0
    0.3696  -12.7626   16.2169 O   0  0  0  0  0  0  0  0  0  0  0  0
   -0.6895   -9.5676   17.3297 C   0  0  0  0  0  0  0  0  0  0  0  0
    0.8388   -5.8417   27.5264 C   0  0  0  0  0  0  0  0  0  0  0  0
   -2.0709   -7.6637   18.7817 C   0  0  0  0  0  0  0  0  0  0  0  0
   -0.5279   -8.2168   17.0717 C   0  0  0  0  0  0  0  0  0  0  0  0
    6.9694   -4.0191   27.8190 C   0  0  0  0  0  0  0  0  0  0  0  0
    5.1733   -4.5469   29.8123 C   0  0  0  0  0  0  0  0  0  0  0  0
   -1.7508  -11.3016   18.6072 C   0  0  0  0  0  0  0  0  0  0  0  0
    1.7497   -5.6771   26.4971 C   0  0  0  0  0  0  0  0  0  0  0  0
   -1.5799   -9.9322   18.3468 C   0  0  0  0  0  0  0  0  0  0  0  0
   -1.0871  -12.2214   17.8851 C   0  0  0  0  0  0  0  0  0  0  0  0
   -2.2706   -8.9669   19.0691 C   0  0  0  0  0  0  0  0  0  0  0  0
    3.0279   -5.3073   26.8197 C   0  0  0  0  0  0  0  0  0  0  0  0
    7.3282   -3.8948   29.1186 C   0  0  0  0  0  0  0  0  0  0  0  0
  1  3  4  0
  1  7  4  0
  2  3  1  0
  2  6  4  0
  2 16  4  0
  3 22  4  0
  4  9  4  0
  4 10  1  0
  4 20  4  0
  5 16  4  0
  5 23  4  0
  6 15  4  0
  7 12  4  0
  8 13  4  0
  8 14  4  0
  9 11  4  0
 11 14  4  0
 11 19  4  0
 12 18  4  0
 13 21  4  0
 15 23  4  0
 17 19  4  0
 17 20  4  0
 18 22  4  0
 19 21  4  0
M  END
$$$$

 Created by Python create_sdf_string function

 23 25  0  0  0  0  0  0  0  0999 V2000
    2.4610   -5.3070   29.1240 C   0  0  0  0  0  0  0  0  0  0  0  0
    4.7710   -4.6952   28.4803 C   0  0  0  0  0  0  0  0  0  0  0  0
    3.4047   -5.1087   28.1314 C   0  0  0  0  0  0  0  0  0  0  0  0
   -0.2234  -11.8615   16.8874 C   0  0  0  0  0  0  0  0  0  0  0  0
    6.4491   -4.1532   30.1213 C   0  0  0  0  0  0  0  0  0  0  0  0
    5.7060   -4.4340   27.4975 C   0  0  0  0  0  0  0  0  0  0  0  0
    1.1818   -5.6612   28.8399 C   0  0  0  0  0  0  0  0  0  0  0  0
   -1.2067   -7.3287   17.7772 C   0  0  0  0  0  0  0  0  0  0  0  0
   -0.0206  -10.5585   16.6210 C   0  0  0  0  0  0  0  0  0  0  0  0
    0.3696  -12.7626   16.2169 O   0  0  0  0  0  0  0  0  0  0  0  0
   -0.6895   -9.5676   17.3297 C   0  0  0  0  0  0  0  0  0  0  0  0
    0.8388   -5.8417   27.5264 C   0  0  0  0  0  0  0  0  0  0  0  0
   -2.0709   -7.6637   18.7817 C   0  0  0  0  0  0  0  0  0  0  0  0
   -0.5279   -8.2168   17.0717 C   0  0  0  0  0  0  0  0  0  0  0  0
    6.9694   -4.0191   27.8190 C   0  0  0  0  0  0  0  0  0  0  0  0
    5.1733   -4.5469   29.8123 C   0  0  0  0  0  0  0  0  0  0  0  0
   -1.7508  -11.3016   18.6072 C   0  0  0  0  0  0  0  0  0  0  0  0
    1.7497   -5.6771   26.4971 C   0  0  0  0  0  0  0  0  0  0  0  0
   -1.5799   -9.9322   18.3468 C   0  0  0  0  0  0  0  0  0  0  0  0
   -1.0871  -12.2214   17.8851 C   0  0  0  0  0  0  0  0  0  0  0  0
   -2.2706   -8.9669   19.0691 C   0  0  0  0  0  0  0  0  0  0  0  0
    3.0279   -5.3073   26.8197 C   0  0  0  0  0  0  0  0  0  0  0  0
    7.3282   -3.8948   29.1186 C   0  0  0  0  0  0  0  0  0  0  0  0
  1  3  4  0
  1  7  4  0
  2  3  1  0
  2  6  4  0
  2 16  4  0
  3 22  4  0
  4  9  4  0
  4 10  1  0
  4 20  4  0
  5 16  4  0
  5 23  4  0
  6 15  4  0
  7 12  4  0
  8 13  4  0
  8 14  4  0
  9 11  4  0
 11 14  4  0
 11 19  4  0
 12 18  4  0
 13 21  4  0
 15 23  4  0
 17 19  4  0
 17 20  4  0
 18 22  4  0
 19 21  4  0
M  END
$$$$

 Created by Python create_sdf_string function

 23 25  0  0  0  0  0  0  0  0999 V2000
    2.4610   -5.3070   29.1240 C   0  0  0  0  0  0  0  0  0  0  0  0
    4.7710   -4.6952   28.4803 C   0  0  0  0  0  0  0  0  0  0  0  0
    3.4047   -5.1087   28.1314 C   0  0  0  0  0  0  0  0  0  0  0  0
   -0.2234  -11.8615   16.8874 C   0  0  0  0  0  0  0  0  0  0  0  0
    6.4491   -4.1532   30.1213 C   0  0  0  0  0  0  0  0  0  0  0  0
    5.7060   -4.4340   27.4975 C   0  0  0  0  0  0  0  0  0  0  0  0
    1.1818   -5.6612   28.8399 C   0  0  0  0  0  0  0  0  0  0  0  0
   -1.2067   -7.3287   17.7772 C   0  0  0  0  0  0  0  0  0  0  0  0
   -0.0206  -10.5585   16.6210 C   0  0  0  0  0  0  0  0  0  0  0  0
    0.3696  -12.7626   16.2169 O   0  0  0  0  0  0  0  0  0  0  0  0
   -0.6895   -9.5676   17.3297 C   0  0  0  0  0  0  0  0  0  0  0  0
    0.8388   -5.8417   27.5264 C   0  0  0  0  0  0  0  0  0  0  0  0
   -2.0709   -7.6637   18.7817 C   0  0  0  0  0  0  0  0  0  0  0  0
   -0.5279   -8.2168   17.0717 C   0  0  0  0  0  0  0  0  0  0  0  0
    6.9694   -4.0191   27.8190 C   0  0  0  0  0  0  0  0  0  0  0  0
    5.1733   -4.5469   29.8123 C   0  0  0  0  0  0  0  0  0  0  0  0
   -1.7508  -11.3016   18.6072 C   0  0  0  0  0  0  0  0  0  0  0  0
    1.7497   -5.6771   26.4971 C   0  0  0  0  0  0  0  0  0  0  0  0
   -1.5799   -9.9322   18.3468 C   0  0  0  0  0  0  0  0  0  0  0  0
   -1.0871  -12.2214   17.8851 C   0  0  0  0  0  0  0  0  0  0  0  0
   -2.2706   -8.9669   19.0691 C   0  0  0  0  0  0  0  0  0  0  0  0
    3.0279   -5.3073   26.8197 C   0  0  0  0  0  0  0  0  0  0  0  0
    7.3282   -3.8948   29.1186 C   0  0  0  0  0  0  0  0  0  0  0  0
  1  3  4  0
  1  7  4  0
  2  3  1  0
  2  6  4  0
  2 16  4  0
  3 22  4  0
  4  9  4  0
  4 10  1  0
  4 20  4  0
  5 16  4  0
  5 23  4  0
  6 15  4  0
  7 12  4  0
  8 13  4  0
  8 14  4  0
  9 11  4  0
 11 14  4  0
 11 19  4  0
 12 18  4  0
 13 21  4  0
 15 23  4  0
 17 19  4  0
 17 20  4  0
 18 22  4  0
 19 21  4  0
M  END
$$$$

 Created by Python create_sdf_string function

 23 25  0  0  0  0  0  0  0  0999 V2000
    2.4610   -5.3070   29.1240 C   0  0  0  0  0  0  0  0  0  0  0  0
    4.7710   -4.6952   28.4803 C   0  0  0  0  0  0  0  0  0  0  0  0
    3.4047   -5.1087   28.1314 C   0  0  0  0  0  0  0  0  0  0  0  0
   -0.2234  -11.8615   16.8874 C   0  0  0  0  0  0  0  0  0  0  0  0
    6.4491   -4.1532   30.1213 C   0  0  0  0  0  0  0  0  0  0  0  0
    5.7060   -4.4340   27.4975 C   0  0  0  0  0  0  0  0  0  0  0  0
    1.1818   -5.6612   28.8399 C   0  0  0  0  0  0  0  0  0  0  0  0
   -1.2067   -7.3287   17.7772 C   0  0  0  0  0  0  0  0  0  0  0  0
   -0.0206  -10.5585   16.6210 C   0  0  0  0  0  0  0  0  0  0  0  0
    0.3696  -12.7626   16.2169 O   0  0  0  0  0  0  0  0  0  0  0  0
   -0.6895   -9.5676   17.3297 C   0  0  0  0  0  0  0  0  0  0  0  0
    0.8388   -5.8417   27.5264 C   0  0  0  0  0  0  0  0  0  0  0  0
   -2.0709   -7.6637   18.7817 C   0  0  0  0  0  0  0  0  0  0  0  0
   -0.5279   -8.2168   17.0717 C   0  0  0  0  0  0  0  0  0  0  0  0
    6.9694   -4.0191   27.8190 C   0  0  0  0  0  0  0  0  0  0  0  0
    5.1733   -4.5469   29.8123 C   0  0  0  0  0  0  0  0  0  0  0  0
   -1.7508  -11.3016   18.6072 C   0  0  0  0  0  0  0  0  0  0  0  0
    1.7497   -5.6771   26.4971 C   0  0  0  0  0  0  0  0  0  0  0  0
   -1.5799   -9.9322   18.3468 C   0  0  0  0  0  0  0  0  0  0  0  0
   -1.0871  -12.2214   17.8851 C   0  0  0  0  0  0  0  0  0  0  0  0
   -2.2706   -8.9669   19.0691 C   0  0  0  0  0  0  0  0  0  0  0  0
    3.0279   -5.3073   26.8197 C   0  0  0  0  0  0  0  0  0  0  0  0
    7.3282   -3.8948   29.1186 C   0  0  0  0  0  0  0  0  0  0  0  0
  1  3  4  0
  1  7  4  0
  2  3  1  0
  2  6  4  0
  2 16  4  0
  3 22  4  0
  4  9  4  0
  4 10  1  0
  4 20  4  0
  5 16  4  0
  5 23  4  0
  6 15  4  0
  7 12  4  0
  8 13  4  0
  8 14  4  0
  9 11  4  0
 11 14  4  0
 11 19  4  0
 12 18  4  0
 13 21  4  0
 15 23  4  0
 17 19  4  0
 17 20  4  0
 18 22  4  0
 19 21  4  0
M  END
$$$$

 Created by Python create_sdf_string function

 23 25  0  0  0  0  0  0  0  0999 V2000
    2.4610   -5.3070   29.1240 C   0  0  0  0  0  0  0  0  0  0  0  0
    4.7710   -4.6952   28.4803 C   0  0  0  0  0  0  0  0  0  0  0  0
    3.4047   -5.1087   28.1314 C   0  0  0  0  0  0  0  0  0  0  0  0
   -0.2234  -11.8615   16.8874 C   0  0  0  0  0  0  0  0  0  0  0  0
    6.4491   -4.1532   30.1213 C   0  0  0  0  0  0  0  0  0  0  0  0
    5.7060   -4.4340   27.4975 C   0  0  0  0  0  0  0  0  0  0  0  0
    1.1818   -5.6612   28.8399 C   0  0  0  0  0  0  0  0  0  0  0  0
   -1.2067   -7.3287   17.7772 C   0  0  0  0  0  0  0  0  0  0  0  0
   -0.0206  -10.5585   16.6210 C   0  0  0  0  0  0  0  0  0  0  0  0
    0.3696  -12.7626   16.2169 O   0  0  0  0  0  0  0  0  0  0  0  0
   -0.6895   -9.5676   17.3297 C   0  0  0  0  0  0  0  0  0  0  0  0
    0.8388   -5.8417   27.5264 C   0  0  0  0  0  0  0  0  0  0  0  0
   -2.0709   -7.6637   18.7817 C   0  0  0  0  0  0  0  0  0  0  0  0
   -0.5279   -8.2168   17.0717 C   0  0  0  0  0  0  0  0  0  0  0  0
    6.9694   -4.0191   27.8190 C   0  0  0  0  0  0  0  0  0  0  0  0
    5.1733   -4.5469   29.8123 C   0  0  0  0  0  0  0  0  0  0  0  0
   -1.7508  -11.3016   18.6072 C   0  0  0  0  0  0  0  0  0  0  0  0
    1.7497   -5.6771   26.4971 C   0  0  0  0  0  0  0  0  0  0  0  0
   -1.5799   -9.9322   18.3468 C   0  0  0  0  0  0  0  0  0  0  0  0
   -1.0871  -12.2214   17.8851 C   0  0  0  0  0  0  0  0  0  0  0  0
   -2.2706   -8.9669   19.0691 C   0  0  0  0  0  0  0  0  0  0  0  0
    3.0279   -5.3073   26.8197 C   0  0  0  0  0  0  0  0  0  0  0  0
    7.3282   -3.8948   29.1186 C   0  0  0  0  0  0  0  0  0  0  0  0
  1  3  4  0
  1  7  4  0
  2  3  1  0
  2  6  4  0
  2 16  4  0
  3 22  4  0
  4  9  4  0
  4 10  1  0
  4 20  4  0
  5 16  4  0
  5 23  4  0
  6 15  4  0
  7 12  4  0
  8 13  4  0
  8 14  4  0
  9 11  4  0
 11 14  4  0
 11 19  4  0
 12 18  4  0
 13 21  4  0
 15 23  4  0
 17 19  4  0
 17 20  4  0
 18 22  4  0
 19 21  4  0
M  END
$$$$

 Created by Python create_sdf_string function

 23 25  0  0  0  0  0  0  0  0999 V2000
    2.4610   -5.3070   29.1240 C   0  0  0  0  0  0  0  0  0  0  0  0
    4.7710   -4.6952   28.4803 C   0  0  0  0  0  0  0  0  0  0  0  0
    3.4047   -5.1087   28.1314 C   0  0  0  0  0  0  0  0  0  0  0  0
   -0.2234  -11.8615   16.8874 C   0  0  0  0  0  0  0  0  0  0  0  0
    6.4491   -4.1532   30.1213 C   0  0  0  0  0  0  0  0  0  0  0  0
    5.7060   -4.4340   27.4975 C   0  0  0  0  0  0  0  0  0  0  0  0
    1.1818   -5.6612   28.8399 C   0  0  0  0  0  0  0  0  0  0  0  0
   -1.2067   -7.3287   17.7772 C   0  0  0  0  0  0  0  0  0  0  0  0
   -0.0206  -10.5585   16.6210 C   0  0  0  0  0  0  0  0  0  0  0  0
    0.3696  -12.7626   16.2169 O   0  0  0  0  0  0  0  0  0  0  0  0
   -0.6895   -9.5676   17.3297 C   0  0  0  0  0  0  0  0  0  0  0  0
    0.8388   -5.8417   27.5264 C   0  0  0  0  0  0  0  0  0  0  0  0
   -2.0709   -7.6637   18.7817 C   0  0  0  0  0  0  0  0  0  0  0  0
   -0.5279   -8.2168   17.0717 C   0  0  0  0  0  0  0  0  0  0  0  0
    6.9694   -4.0191   27.8190 C   0  0  0  0  0  0  0  0  0  0  0  0
    5.1733   -4.5469   29.8123 C   0  0  0  0  0  0  0  0  0  0  0  0
   -1.7508  -11.3016   18.6072 C   0  0  0  0  0  0  0  0  0  0  0  0
    1.7497   -5.6771   26.4971 C   0  0  0  0  0  0  0  0  0  0  0  0
   -1.5799   -9.9322   18.3468 C   0  0  0  0  0  0  0  0  0  0  0  0
   -1.0871  -12.2214   17.8851 C   0  0  0  0  0  0  0  0  0  0  0  0
   -2.2706   -8.9669   19.0691 C   0  0  0  0  0  0  0  0  0  0  0  0
    3.0279   -5.3073   26.8197 C   0  0  0  0  0  0  0  0  0  0  0  0
    7.3282   -3.8948   29.1186 C   0  0  0  0  0  0  0  0  0  0  0  0
  1  3  4  0
  1  7  4  0
  2  3  1  0
  2  6  4  0
  2 16  4  0
  3 22  4  0
  4  9  4  0
  4 10  1  0
  4 20  4  0
  5 16  4  0
  5 23  4  0
  6 15  4  0
  7 12  4  0
  8 13  4  0
  8 14  4  0
  9 11  4  0
 11 14  4  0
 11 19  4  0
 12 18  4  0
 13 21  4  0
 15 23  4  0
 17 19  4  0
 17 20  4  0
 18 22  4  0
 19 21  4  0
M  END
$$$$

 Created by Python create_sdf_string function

 23 25  0  0  0  0  0  0  0  0999 V2000
    2.4610   -5.3070   29.1240 C   0  0  0  0  0  0  0  0  0  0  0  0
    4.7710   -4.6952   28.4803 C   0  0  0  0  0  0  0  0  0  0  0  0
    3.4047   -5.1087   28.1314 C   0  0  0  0  0  0  0  0  0  0  0  0
   -0.2234  -11.8615   16.8874 C   0  0  0  0  0  0  0  0  0  0  0  0
    6.4491   -4.1532   30.1213 C   0  0  0  0  0  0  0  0  0  0  0  0
    5.7060   -4.4340   27.4975 C   0  0  0  0  0  0  0  0  0  0  0  0
    1.1818   -5.6612   28.8399 C   0  0  0  0  0  0  0  0  0  0  0  0
   -1.2067   -7.3287   17.7772 C   0  0  0  0  0  0  0  0  0  0  0  0
   -0.0206  -10.5585   16.6210 C   0  0  0  0  0  0  0  0  0  0  0  0
    0.3696  -12.7626   16.2169 O   0  0  0  0  0  0  0  0  0  0  0  0
   -0.6895   -9.5676   17.3297 C   0  0  0  0  0  0  0  0  0  0  0  0
    0.8388   -5.8417   27.5264 C   0  0  0  0  0  0  0  0  0  0  0  0
   -2.0709   -7.6637   18.7817 C   0  0  0  0  0  0  0  0  0  0  0  0
   -0.5279   -8.2168   17.0717 C   0  0  0  0  0  0  0  0  0  0  0  0
    6.9694   -4.0191   27.8190 C   0  0  0  0  0  0  0  0  0  0  0  0
    5.1733   -4.5469   29.8123 C   0  0  0  0  0  0  0  0  0  0  0  0
   -1.7508  -11.3016   18.6072 C   0  0  0  0  0  0  0  0  0  0  0  0
    1.7497   -5.6771   26.4971 C   0  0  0  0  0  0  0  0  0  0  0  0
   -1.5799   -9.9322   18.3468 C   0  0  0  0  0  0  0  0  0  0  0  0
   -1.0871  -12.2214   17.8851 C   0  0  0  0  0  0  0  0  0  0  0  0
   -2.2706   -8.9669   19.0691 C   0  0  0  0  0  0  0  0  0  0  0  0
    3.0279   -5.3073   26.8197 C   0  0  0  0  0  0  0  0  0  0  0  0
    7.3282   -3.8948   29.1186 C   0  0  0  0  0  0  0  0  0  0  0  0
  1  3  4  0
  1  7  4  0
  2  3  1  0
  2  6  4  0
  2 16  4  0
  3 22  4  0
  4  9  4  0
  4 10  1  0
  4 20  4  0
  5 16  4  0
  5 23  4  0
  6 15  4  0
  7 12  4  0
  8 13  4  0
  8 14  4  0
  9 11  4  0
 11 14  4  0
 11 19  4  0
 12 18  4  0
 13 21  4  0
 15 23  4  0
 17 19  4  0
 17 20  4  0
 18 22  4  0
 19 21  4  0
M  END
$$$$

 Created by Python create_sdf_string function

 23 25  0  0  0  0  0  0  0  0999 V2000
    2.4610   -5.3070   29.1240 C   0  0  0  0  0  0  0  0  0  0  0  0
    4.7710   -4.6952   28.4803 C   0  0  0  0  0  0  0  0  0  0  0  0
    3.4047   -5.1087   28.1314 C   0  0  0  0  0  0  0  0  0  0  0  0
   -0.2234  -11.8615   16.8874 C   0  0  0  0  0  0  0  0  0  0  0  0
    6.4491   -4.1532   30.1213 C   0  0  0  0  0  0  0  0  0  0  0  0
    5.7060   -4.4340   27.4975 C   0  0  0  0  0  0  0  0  0  0  0  0
    1.1818   -5.6612   28.8399 C   0  0  0  0  0  0  0  0  0  0  0  0
   -1.2067   -7.3287   17.7772 C   0  0  0  0  0  0  0  0  0  0  0  0
   -0.0206  -10.5585   16.6210 C   0  0  0  0  0  0  0  0  0  0  0  0
    0.3696  -12.7626   16.2169 O   0  0  0  0  0  0  0  0  0  0  0  0
   -0.6895   -9.5676   17.3297 C   0  0  0  0  0  0  0  0  0  0  0  0
    0.8388   -5.8417   27.5264 C   0  0  0  0  0  0  0  0  0  0  0  0
   -2.0709   -7.6637   18.7817 C   0  0  0  0  0  0  0  0  0  0  0  0
   -0.5279   -8.2168   17.0717 C   0  0  0  0  0  0  0  0  0  0  0  0
    6.9694   -4.0191   27.8190 C   0  0  0  0  0  0  0  0  0  0  0  0
    5.1733   -4.5469   29.8123 C   0  0  0  0  0  0  0  0  0  0  0  0
   -1.7508  -11.3016   18.6072 C   0  0  0  0  0  0  0  0  0  0  0  0
    1.7497   -5.6771   26.4971 C   0  0  0  0  0  0  0  0  0  0  0  0
   -1.5799   -9.9322   18.3468 C   0  0  0  0  0  0  0  0  0  0  0  0
   -1.0871  -12.2214   17.8851 C   0  0  0  0  0  0  0  0  0  0  0  0
   -2.2706   -8.9669   19.0691 C   0  0  0  0  0  0  0  0  0  0  0  0
    3.0279   -5.3073   26.8197 C   0  0  0  0  0  0  0  0  0  0  0  0
    7.3282   -3.8948   29.1186 C   0  0  0  0  0  0  0  0  0  0  0  0
  1  3  4  0
  1  7  4  0
  2  3  1  0
  2  6  4  0
  2 16  4  0
  3 22  4  0
  4  9  4  0
  4 10  1  0
  4 20  4  0
  5 16  4  0
  5 23  4  0
  6 15  4  0
  7 12  4  0
  8 13  4  0
  8 14  4  0
  9 11  4  0
 11 14  4  0
 11 19  4  0
 12 18  4  0
 13 21  4  0
 15 23  4  0
 17 19  4  0
 17 20  4  0
 18 22  4  0
 19 21  4  0
M  END
$$$$

 Created by Python create_sdf_string function

 23 25  0  0  0  0  0  0  0  0999 V2000
    2.4610   -5.3070   29.1240 C   0  0  0  0  0  0  0  0  0  0  0  0
    4.7710   -4.6952   28.4803 C   0  0  0  0  0  0  0  0  0  0  0  0
    3.4047   -5.1087   28.1314 C   0  0  0  0  0  0  0  0  0  0  0  0
   -0.2234  -11.8615   16.8874 C   0  0  0  0  0  0  0  0  0  0  0  0
    6.4491   -4.1532   30.1213 C   0  0  0  0  0  0  0  0  0  0  0  0
    5.7060   -4.4340   27.4975 C   0  0  0  0  0  0  0  0  0  0  0  0
    1.1818   -5.6612   28.8399 C   0  0  0  0  0  0  0  0  0  0  0  0
   -1.2067   -7.3287   17.7772 C   0  0  0  0  0  0  0  0  0  0  0  0
   -0.0206  -10.5585   16.6210 C   0  0  0  0  0  0  0  0  0  0  0  0
    0.3696  -12.7626   16.2169 O   0  0  0  0  0  0  0  0  0  0  0  0
   -0.6895   -9.5676   17.3297 C   0  0  0  0  0  0  0  0  0  0  0  0
    0.8388   -5.8417   27.5264 C   0  0  0  0  0  0  0  0  0  0  0  0
   -2.0709   -7.6637   18.7817 C   0  0  0  0  0  0  0  0  0  0  0  0
   -0.5279   -8.2168   17.0717 C   0  0  0  0  0  0  0  0  0  0  0  0
    6.9694   -4.0191   27.8190 C   0  0  0  0  0  0  0  0  0  0  0  0
    5.1733   -4.5469   29.8123 C   0  0  0  0  0  0  0  0  0  0  0  0
   -1.7508  -11.3016   18.6072 C   0  0  0  0  0  0  0  0  0  0  0  0
    1.7497   -5.6771   26.4971 C   0  0  0  0  0  0  0  0  0  0  0  0
   -1.5799   -9.9322   18.3468 C   0  0  0  0  0  0  0  0  0  0  0  0
   -1.0871  -12.2214   17.8851 C   0  0  0  0  0  0  0  0  0  0  0  0
   -2.2706   -8.9669   19.0691 C   0  0  0  0  0  0  0  0  0  0  0  0
    3.0279   -5.3073   26.8197 C   0  0  0  0  0  0  0  0  0  0  0  0
    7.3282   -3.8948   29.1186 C   0  0  0  0  0  0  0  0  0  0  0  0
  1  3  4  0
  1  7  4  0
  2  3  1  0
  2  6  4  0
  2 16  4  0
  3 22  4  0
  4  9  4  0
  4 10  1  0
  4 20  4  0
  5 16  4  0
  5 23  4  0
  6 15  4  0
  7 12  4  0
  8 13  4  0
  8 14  4  0
  9 11  4  0
 11 14  4  0
 11 19  4  0
 12 18  4  0
 13 21  4  0
 15 23  4  0
 17 19  4  0
 17 20  4  0
 18 22  4  0
 19 21  4  0
M  END
$$$$

 Created by Python create_sdf_string function

 23 25  0  0  0  0  0  0  0  0999 V2000
    2.4610   -5.3070   29.1240 C   0  0  0  0  0  0  0  0  0  0  0  0
    4.7710   -4.6952   28.4803 C   0  0  0  0  0  0  0  0  0  0  0  0
    3.4047   -5.1087   28.1314 C   0  0  0  0  0  0  0  0  0  0  0  0
   -0.2234  -11.8615   16.8874 C   0  0  0  0  0  0  0  0  0  0  0  0
    6.4491   -4.1532   30.1213 C   0  0  0  0  0  0  0  0  0  0  0  0
    5.7060   -4.4340   27.4975 C   0  0  0  0  0  0  0  0  0  0  0  0
    1.1818   -5.6612   28.8399 C   0  0  0  0  0  0  0  0  0  0  0  0
   -1.2067   -7.3287   17.7772 C   0  0  0  0  0  0  0  0  0  0  0  0
   -0.0206  -10.5585   16.6210 C   0  0  0  0  0  0  0  0  0  0  0  0
    0.3696  -12.7626   16.2169 O   0  0  0  0  0  0  0  0  0  0  0  0
   -0.6895   -9.5676   17.3297 C   0  0  0  0  0  0  0  0  0  0  0  0
    0.8388   -5.8417   27.5264 C   0  0  0  0  0  0  0  0  0  0  0  0
   -2.0709   -7.6637   18.7817 C   0  0  0  0  0  0  0  0  0  0  0  0
   -0.5279   -8.2168   17.0717 C   0  0  0  0  0  0  0  0  0  0  0  0
    6.9694   -4.0191   27.8190 C   0  0  0  0  0  0  0  0  0  0  0  0
    5.1733   -4.5469   29.8123 C   0  0  0  0  0  0  0  0  0  0  0  0
   -1.7508  -11.3016   18.6072 C   0  0  0  0  0  0  0  0  0  0  0  0
    1.7497   -5.6771   26.4971 C   0  0  0  0  0  0  0  0  0  0  0  0
   -1.5799   -9.9322   18.3468 C   0  0  0  0  0  0  0  0  0  0  0  0
   -1.0871  -12.2214   17.8851 C   0  0  0  0  0  0  0  0  0  0  0  0
   -2.2706   -8.9669   19.0691 C   0  0  0  0  0  0  0  0  0  0  0  0
    3.0279   -5.3073   26.8197 C   0  0  0  0  0  0  0  0  0  0  0  0
    7.3282   -3.8948   29.1186 C   0  0  0  0  0  0  0  0  0  0  0  0
  1  3  4  0
  1  7  4  0
  2  3  1  0
  2  6  4  0
  2 16  4  0
  3 22  4  0
  4  9  4  0
  4 10  1  0
  4 20  4  0
  5 16  4  0
  5 23  4  0
  6 15  4  0
  7 12  4  0
  8 13  4  0
  8 14  4  0
  9 11  4  0
 11 14  4  0
 11 19  4  0
 12 18  4  0
 13 21  4  0
 15 23  4  0
 17 19  4  0
 17 20  4  0
 18 22  4  0
 19 21  4  0
M  END
$$$$

 Created by Python create_sdf_string function

 23 25  0  0  0  0  0  0  0  0999 V2000
    2.4610   -5.3070   29.1240 C   0  0  0  0  0  0  0  0  0  0  0  0
    4.7710   -4.6952   28.4803 C   0  0  0  0  0  0  0  0  0  0  0  0
    3.4047   -5.1087   28.1314 C   0  0  0  0  0  0  0  0  0  0  0  0
   -0.2234  -11.8615   16.8874 C   0  0  0  0  0  0  0  0  0  0  0  0
    6.4491   -4.1532   30.1213 C   0  0  0  0  0  0  0  0  0  0  0  0
    5.7060   -4.4340   27.4975 C   0  0  0  0  0  0  0  0  0  0  0  0
    1.1818   -5.6612   28.8399 C   0  0  0  0  0  0  0  0  0  0  0  0
   -1.2067   -7.3287   17.7772 C   0  0  0  0  0  0  0  0  0  0  0  0
   -0.0206  -10.5585   16.6210 C   0  0  0  0  0  0  0  0  0  0  0  0
    0.3696  -12.7626   16.2169 O   0  0  0  0  0  0  0  0  0  0  0  0
   -0.6895   -9.5676   17.3297 C   0  0  0  0  0  0  0  0  0  0  0  0
    0.8388   -5.8417   27.5264 C   0  0  0  0  0  0  0  0  0  0  0  0
   -2.0709   -7.6637   18.7817 C   0  0  0  0  0  0  0  0  0  0  0  0
   -0.5279   -8.2168   17.0717 C   0  0  0  0  0  0  0  0  0  0  0  0
    6.9694   -4.0191   27.8190 C   0  0  0  0  0  0  0  0  0  0  0  0
    5.1733   -4.5469   29.8123 C   0  0  0  0  0  0  0  0  0  0  0  0
   -1.7508  -11.3016   18.6072 C   0  0  0  0  0  0  0  0  0  0  0  0
    1.7497   -5.6771   26.4971 C   0  0  0  0  0  0  0  0  0  0  0  0
   -1.5799   -9.9322   18.3468 C   0  0  0  0  0  0  0  0  0  0  0  0
   -1.0871  -12.2214   17.8851 C   0  0  0  0  0  0  0  0  0  0  0  0
   -2.2706   -8.9669   19.0691 C   0  0  0  0  0  0  0  0  0  0  0  0
    3.0279   -5.3073   26.8197 C   0  0  0  0  0  0  0  0  0  0  0  0
    7.3282   -3.8948   29.1186 C   0  0  0  0  0  0  0  0  0  0  0  0
  1  3  4  0
  1  7  4  0
  2  3  1  0
  2  6  4  0
  2 16  4  0
  3 22  4  0
  4  9  4  0
  4 10  1  0
  4 20  4  0
  5 16  4  0
  5 23  4  0
  6 15  4  0
  7 12  4  0
  8 13  4  0
  8 14  4  0
  9 11  4  0
 11 14  4  0
 11 19  4  0
 12 18  4  0
 13 21  4  0
 15 23  4  0
 17 19  4  0
 17 20  4  0
 18 22  4  0
 19 21  4  0
M  END
$$$$

 Created by Python create_sdf_string function

 23 25  0  0  0  0  0  0  0  0999 V2000
    2.4610   -5.3070   29.1240 C   0  0  0  0  0  0  0  0  0  0  0  0
    4.7710   -4.6952   28.4803 C   0  0  0  0  0  0  0  0  0  0  0  0
    3.4047   -5.1087   28.1314 C   0  0  0  0  0  0  0  0  0  0  0  0
   -0.2234  -11.8615   16.8874 C   0  0  0  0  0  0  0  0  0  0  0  0
    6.4491   -4.1532   30.1213 C   0  0  0  0  0  0  0  0  0  0  0  0
    5.7060   -4.4340   27.4975 C   0  0  0  0  0  0  0  0  0  0  0  0
    1.1818   -5.6612   28.8399 C   0  0  0  0  0  0  0  0  0  0  0  0
   -1.2067   -7.3287   17.7772 C   0  0  0  0  0  0  0  0  0  0  0  0
   -0.0206  -10.5585   16.6210 C   0  0  0  0  0  0  0  0  0  0  0  0
    0.3696  -12.7626   16.2169 O   0  0  0  0  0  0  0  0  0  0  0  0
   -0.6895   -9.5676   17.3297 C   0  0  0  0  0  0  0  0  0  0  0  0
    0.8388   -5.8417   27.5264 C   0  0  0  0  0  0  0  0  0  0  0  0
   -2.0709   -7.6637   18.7817 C   0  0  0  0  0  0  0  0  0  0  0  0
   -0.5279   -8.2168   17.0717 C   0  0  0  0  0  0  0  0  0  0  0  0
    6.9694   -4.0191   27.8190 C   0  0  0  0  0  0  0  0  0  0  0  0
    5.1733   -4.5469   29.8123 C   0  0  0  0  0  0  0  0  0  0  0  0
   -1.7508  -11.3016   18.6072 C   0  0  0  0  0  0  0  0  0  0  0  0
    1.7497   -5.6771   26.4971 C   0  0  0  0  0  0  0  0  0  0  0  0
   -1.5799   -9.9322   18.3468 C   0  0  0  0  0  0  0  0  0  0  0  0
   -1.0871  -12.2214   17.8851 C   0  0  0  0  0  0  0  0  0  0  0  0
   -2.2706   -8.9669   19.0691 C   0  0  0  0  0  0  0  0  0  0  0  0
    3.0279   -5.3073   26.8197 C   0  0  0  0  0  0  0  0  0  0  0  0
    7.3282   -3.8948   29.1186 C   0  0  0  0  0  0  0  0  0  0  0  0
  1  3  4  0
  1  7  4  0
  2  3  1  0
  2  6  4  0
  2 16  4  0
  3 22  4  0
  4  9  4  0
  4 10  1  0
  4 20  4  0
  5 16  4  0
  5 23  4  0
  6 15  4  0
  7 12  4  0
  8 13  4  0
  8 14  4  0
  9 11  4  0
 11 14  4  0
 11 19  4  0
 12 18  4  0
 13 21  4  0
 15 23  4  0
 17 19  4  0
 17 20  4  0
 18 22  4  0
 19 21  4  0
M  END
$$$$

 Created by Python create_sdf_string function

 23 25  0  0  0  0  0  0  0  0999 V2000
    2.4610   -5.3070   29.1240 C   0  0  0  0  0  0  0  0  0  0  0  0
    4.7710   -4.6952   28.4803 C   0  0  0  0  0  0  0  0  0  0  0  0
    3.4047   -5.1087   28.1314 C   0  0  0  0  0  0  0  0  0  0  0  0
   -0.2234  -11.8615   16.8874 C   0  0  0  0  0  0  0  0  0  0  0  0
    6.4491   -4.1532   30.1213 C   0  0  0  0  0  0  0  0  0  0  0  0
    5.7060   -4.4340   27.4975 C   0  0  0  0  0  0  0  0  0  0  0  0
    1.1818   -5.6612   28.8399 C   0  0  0  0  0  0  0  0  0  0  0  0
   -1.2067   -7.3287   17.7772 C   0  0  0  0  0  0  0  0  0  0  0  0
   -0.0206  -10.5585   16.6210 C   0  0  0  0  0  0  0  0  0  0  0  0
    0.3696  -12.7626   16.2169 O   0  0  0  0  0  0  0  0  0  0  0  0
   -0.6895   -9.5676   17.3297 C   0  0  0  0  0  0  0  0  0  0  0  0
    0.8388   -5.8417   27.5264 C   0  0  0  0  0  0  0  0  0  0  0  0
   -2.0709   -7.6637   18.7817 C   0  0  0  0  0  0  0  0  0  0  0  0
   -0.5279   -8.2168   17.0717 C   0  0  0  0  0  0  0  0  0  0  0  0
    6.9694   -4.0191   27.8190 C   0  0  0  0  0  0  0  0  0  0  0  0
    5.1733   -4.5469   29.8123 C   0  0  0  0  0  0  0  0  0  0  0  0
   -1.7508  -11.3016   18.6072 C   0  0  0  0  0  0  0  0  0  0  0  0
    1.7497   -5.6771   26.4971 C   0  0  0  0  0  0  0  0  0  0  0  0
   -1.5799   -9.9322   18.3468 C   0  0  0  0  0  0  0  0  0  0  0  0
   -1.0871  -12.2214   17.8851 C   0  0  0  0  0  0  0  0  0  0  0  0
   -2.2706   -8.9669   19.0691 C   0  0  0  0  0  0  0  0  0  0  0  0
    3.0279   -5.3073   26.8197 C   0  0  0  0  0  0  0  0  0  0  0  0
    7.3282   -3.8948   29.1186 C   0  0  0  0  0  0  0  0  0  0  0  0
  1  3  4  0
  1  7  4  0
  2  3  1  0
  2  6  4  0
  2 16  4  0
  3 22  4  0
  4  9  4  0
  4 10  1  0
  4 20  4  0
  5 16  4  0
  5 23  4  0
  6 15  4  0
  7 12  4  0
  8 13  4  0
  8 14  4  0
  9 11  4  0
 11 14  4  0
 11 19  4  0
 12 18  4  0
 13 21  4  0
 15 23  4  0
 17 19  4  0
 17 20  4  0
 18 22  4  0
 19 21  4  0
M  END
$$$$

 Created by Python create_sdf_string function

 23 25  0  0  0  0  0  0  0  0999 V2000
    2.4610   -5.3070   29.1240 C   0  0  0  0  0  0  0  0  0  0  0  0
    4.7710   -4.6952   28.4803 C   0  0  0  0  0  0  0  0  0  0  0  0
    3.4047   -5.1087   28.1314 C   0  0  0  0  0  0  0  0  0  0  0  0
   -0.2234  -11.8615   16.8874 C   0  0  0  0  0  0  0  0  0  0  0  0
    6.4491   -4.1532   30.1213 C   0  0  0  0  0  0  0  0  0  0  0  0
    5.7060   -4.4340   27.4975 C   0  0  0  0  0  0  0  0  0  0  0  0
    1.1818   -5.6612   28.8399 C   0  0  0  0  0  0  0  0  0  0  0  0
   -1.2067   -7.3287   17.7772 C   0  0  0  0  0  0  0  0  0  0  0  0
   -0.0206  -10.5585   16.6210 C   0  0  0  0  0  0  0  0  0  0  0  0
    0.3696  -12.7626   16.2169 O   0  0  0  0  0  0  0  0  0  0  0  0
   -0.6895   -9.5676   17.3297 C   0  0  0  0  0  0  0  0  0  0  0  0
    0.8388   -5.8417   27.5264 C   0  0  0  0  0  0  0  0  0  0  0  0
   -2.0709   -7.6637   18.7817 C   0  0  0  0  0  0  0  0  0  0  0  0
   -0.5279   -8.2168   17.0717 C   0  0  0  0  0  0  0  0  0  0  0  0
    6.9694   -4.0191   27.8190 C   0  0  0  0  0  0  0  0  0  0  0  0
    5.1733   -4.5469   29.8123 C   0  0  0  0  0  0  0  0  0  0  0  0
   -1.7508  -11.3016   18.6072 C   0  0  0  0  0  0  0  0  0  0  0  0
    1.7497   -5.6771   26.4971 C   0  0  0  0  0  0  0  0  0  0  0  0
   -1.5799   -9.9322   18.3468 C   0  0  0  0  0  0  0  0  0  0  0  0
   -1.0871  -12.2214   17.8851 C   0  0  0  0  0  0  0  0  0  0  0  0
   -2.2706   -8.9669   19.0691 C   0  0  0  0  0  0  0  0  0  0  0  0
    3.0279   -5.3073   26.8197 C   0  0  0  0  0  0  0  0  0  0  0  0
    7.3282   -3.8948   29.1186 C   0  0  0  0  0  0  0  0  0  0  0  0
  1  3  4  0
  1  7  4  0
  2  3  1  0
  2  6  4  0
  2 16  4  0
  3 22  4  0
  4  9  4  0
  4 10  1  0
  4 20  4  0
  5 16  4  0
  5 23  4  0
  6 15  4  0
  7 12  4  0
  8 13  4  0
  8 14  4  0
  9 11  4  0
 11 14  4  0
 11 19  4  0
 12 18  4  0
 13 21  4  0
 15 23  4  0
 17 19  4  0
 17 20  4  0
 18 22  4  0
 19 21  4  0
M  END
$$$$

 Created by Python create_sdf_string function

 23 25  0  0  0  0  0  0  0  0999 V2000
    2.4610   -5.3070   29.1240 C   0  0  0  0  0  0  0  0  0  0  0  0
    4.7710   -4.6952   28.4803 C   0  0  0  0  0  0  0  0  0  0  0  0
    3.4047   -5.1087   28.1314 C   0  0  0  0  0  0  0  0  0  0  0  0
   -0.2234  -11.8615   16.8874 C   0  0  0  0  0  0  0  0  0  0  0  0
    6.4491   -4.1532   30.1213 C   0  0  0  0  0  0  0  0  0  0  0  0
    5.7060   -4.4340   27.4975 C   0  0  0  0  0  0  0  0  0  0  0  0
    1.1818   -5.6612   28.8399 C   0  0  0  0  0  0  0  0  0  0  0  0
   -1.2067   -7.3287   17.7772 C   0  0  0  0  0  0  0  0  0  0  0  0
   -0.0206  -10.5585   16.6210 C   0  0  0  0  0  0  0  0  0  0  0  0
    0.3696  -12.7626   16.2169 O   0  0  0  0  0  0  0  0  0  0  0  0
   -0.6895   -9.5676   17.3297 C   0  0  0  0  0  0  0  0  0  0  0  0
    0.8388   -5.8417   27.5264 C   0  0  0  0  0  0  0  0  0  0  0  0
   -2.0709   -7.6637   18.7817 C   0  0  0  0  0  0  0  0  0  0  0  0
   -0.5279   -8.2168   17.0717 C   0  0  0  0  0  0  0  0  0  0  0  0
    6.9694   -4.0191   27.8190 C   0  0  0  0  0  0  0  0  0  0  0  0
    5.1733   -4.5469   29.8123 C   0  0  0  0  0  0  0  0  0  0  0  0
   -1.7508  -11.3016   18.6072 C   0  0  0  0  0  0  0  0  0  0  0  0
    1.7497   -5.6771   26.4971 C   0  0  0  0  0  0  0  0  0  0  0  0
   -1.5799   -9.9322   18.3468 C   0  0  0  0  0  0  0  0  0  0  0  0
   -1.0871  -12.2214   17.8851 C   0  0  0  0  0  0  0  0  0  0  0  0
   -2.2706   -8.9669   19.0691 C   0  0  0  0  0  0  0  0  0  0  0  0
    3.0279   -5.3073   26.8197 C   0  0  0  0  0  0  0  0  0  0  0  0
    7.3282   -3.8948   29.1186 C   0  0  0  0  0  0  0  0  0  0  0  0
  1  3  4  0
  1  7  4  0
  2  3  1  0
  2  6  4  0
  2 16  4  0
  3 22  4  0
  4  9  4  0
  4 10  1  0
  4 20  4  0
  5 16  4  0
  5 23  4  0
  6 15  4  0
  7 12  4  0
  8 13  4  0
  8 14  4  0
  9 11  4  0
 11 14  4  0
 11 19  4  0
 12 18  4  0
 13 21  4  0
 15 23  4  0
 17 19  4  0
 17 20  4  0
 18 22  4  0
 19 21  4  0
M  END
$$$$

 Created by Python create_sdf_string function

 23 25  0  0  0  0  0  0  0  0999 V2000
    2.4610   -5.3070   29.1240 C   0  0  0  0  0  0  0  0  0  0  0  0
    4.7710   -4.6952   28.4803 C   0  0  0  0  0  0  0  0  0  0  0  0
    3.4047   -5.1087   28.1314 C   0  0  0  0  0  0  0  0  0  0  0  0
   -0.2234  -11.8615   16.8874 C   0  0  0  0  0  0  0  0  0  0  0  0
    6.4491   -4.1532   30.1213 C   0  0  0  0  0  0  0  0  0  0  0  0
    5.7060   -4.4340   27.4975 C   0  0  0  0  0  0  0  0  0  0  0  0
    1.1818   -5.6612   28.8399 C   0  0  0  0  0  0  0  0  0  0  0  0
   -1.2067   -7.3287   17.7772 C   0  0  0  0  0  0  0  0  0  0  0  0
   -0.0206  -10.5585   16.6210 C   0  0  0  0  0  0  0  0  0  0  0  0
    0.3696  -12.7626   16.2169 O   0  0  0  0  0  0  0  0  0  0  0  0
   -0.6895   -9.5676   17.3297 C   0  0  0  0  0  0  0  0  0  0  0  0
    0.8388   -5.8417   27.5264 C   0  0  0  0  0  0  0  0  0  0  0  0
   -2.0709   -7.6637   18.7817 C   0  0  0  0  0  0  0  0  0  0  0  0
   -0.5279   -8.2168   17.0717 C   0  0  0  0  0  0  0  0  0  0  0  0
    6.9694   -4.0191   27.8190 C   0  0  0  0  0  0  0  0  0  0  0  0
    5.1733   -4.5469   29.8123 C   0  0  0  0  0  0  0  0  0  0  0  0
   -1.7508  -11.3016   18.6072 C   0  0  0  0  0  0  0  0  0  0  0  0
    1.7497   -5.6771   26.4971 C   0  0  0  0  0  0  0  0  0  0  0  0
   -1.5799   -9.9322   18.3468 C   0  0  0  0  0  0  0  0  0  0  0  0
   -1.0871  -12.2214   17.8851 C   0  0  0  0  0  0  0  0  0  0  0  0
   -2.2706   -8.9669   19.0691 C   0  0  0  0  0  0  0  0  0  0  0  0
    3.0279   -5.3073   26.8197 C   0  0  0  0  0  0  0  0  0  0  0  0
    7.3282   -3.8948   29.1186 C   0  0  0  0  0  0  0  0  0  0  0  0
  1  3  4  0
  1  7  4  0
  2  3  1  0
  2  6  4  0
  2 16  4  0
  3 22  4  0
  4  9  4  0
  4 10  1  0
  4 20  4  0
  5 16  4  0
  5 23  4  0
  6 15  4  0
  7 12  4  0
  8 13  4  0
  8 14  4  0
  9 11  4  0
 11 14  4  0
 11 19  4  0
 12 18  4  0
 13 21  4  0
 15 23  4  0
 17 19  4  0
 17 20  4  0
 18 22  4  0
 19 21  4  0
M  END
$$$$

 Created by Python create_sdf_string function

 23 25  0  0  0  0  0  0  0  0999 V2000
    2.4610   -5.3070   29.1240 C   0  0  0  0  0  0  0  0  0  0  0  0
    4.7710   -4.6952   28.4803 C   0  0  0  0  0  0  0  0  0  0  0  0
    3.4047   -5.1087   28.1314 C   0  0  0  0  0  0  0  0  0  0  0  0
   -0.2234  -11.8615   16.8874 C   0  0  0  0  0  0  0  0  0  0  0  0
    6.4491   -4.1532   30.1213 C   0  0  0  0  0  0  0  0  0  0  0  0
    5.7060   -4.4340   27.4975 C   0  0  0  0  0  0  0  0  0  0  0  0
    1.1818   -5.6612   28.8399 C   0  0  0  0  0  0  0  0  0  0  0  0
   -1.2067   -7.3287   17.7772 C   0  0  0  0  0  0  0  0  0  0  0  0
   -0.0206  -10.5585   16.6210 C   0  0  0  0  0  0  0  0  0  0  0  0
    0.3696  -12.7626   16.2169 O   0  0  0  0  0  0  0  0  0  0  0  0
   -0.6895   -9.5676   17.3297 C   0  0  0  0  0  0  0  0  0  0  0  0
    0.8388   -5.8417   27.5264 C   0  0  0  0  0  0  0  0  0  0  0  0
   -2.0709   -7.6637   18.7817 C   0  0  0  0  0  0  0  0  0  0  0  0
   -0.5279   -8.2168   17.0717 C   0  0  0  0  0  0  0  0  0  0  0  0
    6.9694   -4.0191   27.8190 C   0  0  0  0  0  0  0  0  0  0  0  0
    5.1733   -4.5469   29.8123 C   0  0  0  0  0  0  0  0  0  0  0  0
   -1.7508  -11.3016   18.6072 C   0  0  0  0  0  0  0  0  0  0  0  0
    1.7497   -5.6771   26.4971 C   0  0  0  0  0  0  0  0  0  0  0  0
   -1.5799   -9.9322   18.3468 C   0  0  0  0  0  0  0  0  0  0  0  0
   -1.0871  -12.2214   17.8851 C   0  0  0  0  0  0  0  0  0  0  0  0
   -2.2706   -8.9669   19.0691 C   0  0  0  0  0  0  0  0  0  0  0  0
    3.0279   -5.3073   26.8197 C   0  0  0  0  0  0  0  0  0  0  0  0
    7.3282   -3.8948   29.1186 C   0  0  0  0  0  0  0  0  0  0  0  0
  1  3  4  0
  1  7  4  0
  2  3  1  0
  2  6  4  0
  2 16  4  0
  3 22  4  0
  4  9  4  0
  4 10  1  0
  4 20  4  0
  5 16  4  0
  5 23  4  0
  6 15  4  0
  7 12  4  0
  8 13  4  0
  8 14  4  0
  9 11  4  0
 11 14  4  0
 11 19  4  0
 12 18  4  0
 13 21  4  0
 15 23  4  0
 17 19  4  0
 17 20  4  0
 18 22  4  0
 19 21  4  0
M  END
$$$$

 Created by Python create_sdf_string function

 23 25  0  0  0  0  0  0  0  0999 V2000
    2.4610   -5.3070   29.1240 C   0  0  0  0  0  0  0  0  0  0  0  0
    4.7710   -4.6952   28.4803 C   0  0  0  0  0  0  0  0  0  0  0  0
    3.4047   -5.1087   28.1314 C   0  0  0  0  0  0  0  0  0  0  0  0
   -0.2234  -11.8615   16.8874 C   0  0  0  0  0  0  0  0  0  0  0  0
    6.4491   -4.1532   30.1213 C   0  0  0  0  0  0  0  0  0  0  0  0
    5.7060   -4.4340   27.4975 C   0  0  0  0  0  0  0  0  0  0  0  0
    1.1818   -5.6612   28.8399 C   0  0  0  0  0  0  0  0  0  0  0  0
   -1.2067   -7.3287   17.7772 C   0  0  0  0  0  0  0  0  0  0  0  0
   -0.0206  -10.5585   16.6210 C   0  0  0  0  0  0  0  0  0  0  0  0
    0.3696  -12.7626   16.2169 O   0  0  0  0  0  0  0  0  0  0  0  0
   -0.6895   -9.5676   17.3297 C   0  0  0  0  0  0  0  0  0  0  0  0
    0.8388   -5.8417   27.5264 C   0  0  0  0  0  0  0  0  0  0  0  0
   -2.0709   -7.6637   18.7817 C   0  0  0  0  0  0  0  0  0  0  0  0
   -0.5279   -8.2168   17.0717 C   0  0  0  0  0  0  0  0  0  0  0  0
    6.9694   -4.0191   27.8190 C   0  0  0  0  0  0  0  0  0  0  0  0
    5.1733   -4.5469   29.8123 C   0  0  0  0  0  0  0  0  0  0  0  0
   -1.7508  -11.3016   18.6072 C   0  0  0  0  0  0  0  0  0  0  0  0
    1.7497   -5.6771   26.4971 C   0  0  0  0  0  0  0  0  0  0  0  0
   -1.5799   -9.9322   18.3468 C   0  0  0  0  0  0  0  0  0  0  0  0
   -1.0871  -12.2214   17.8851 C   0  0  0  0  0  0  0  0  0  0  0  0
   -2.2706   -8.9669   19.0691 C   0  0  0  0  0  0  0  0  0  0  0  0
    3.0279   -5.3073   26.8197 C   0  0  0  0  0  0  0  0  0  0  0  0
    7.3282   -3.8948   29.1186 C   0  0  0  0  0  0  0  0  0  0  0  0
  1  3  4  0
  1  7  4  0
  2  3  1  0
  2  6  4  0
  2 16  4  0
  3 22  4  0
  4  9  4  0
  4 10  1  0
  4 20  4  0
  5 16  4  0
  5 23  4  0
  6 15  4  0
  7 12  4  0
  8 13  4  0
  8 14  4  0
  9 11  4  0
 11 14  4  0
 11 19  4  0
 12 18  4  0
 13 21  4  0
 15 23  4  0
 17 19  4  0
 17 20  4  0
 18 22  4  0
 19 21  4  0
M  END
$$$$

 Created by Python create_sdf_string function

 23 25  0  0  0  0  0  0  0  0999 V2000
    2.4610   -5.3070   29.1240 C   0  0  0  0  0  0  0  0  0  0  0  0
    4.7710   -4.6952   28.4803 C   0  0  0  0  0  0  0  0  0  0  0  0
    3.4047   -5.1087   28.1314 C   0  0  0  0  0  0  0  0  0  0  0  0
   -0.2234  -11.8615   16.8874 C   0  0  0  0  0  0  0  0  0  0  0  0
    6.4491   -4.1532   30.1213 C   0  0  0  0  0  0  0  0  0  0  0  0
    5.7060   -4.4340   27.4975 C   0  0  0  0  0  0  0  0  0  0  0  0
    1.1818   -5.6612   28.8399 C   0  0  0  0  0  0  0  0  0  0  0  0
   -1.2067   -7.3287   17.7772 C   0  0  0  0  0  0  0  0  0  0  0  0
   -0.0206  -10.5585   16.6210 C   0  0  0  0  0  0  0  0  0  0  0  0
    0.3696  -12.7626   16.2169 O   0  0  0  0  0  0  0  0  0  0  0  0
   -0.6895   -9.5676   17.3297 C   0  0  0  0  0  0  0  0  0  0  0  0
    0.8388   -5.8417   27.5264 C   0  0  0  0  0  0  0  0  0  0  0  0
   -2.0709   -7.6637   18.7817 C   0  0  0  0  0  0  0  0  0  0  0  0
   -0.5279   -8.2168   17.0717 C   0  0  0  0  0  0  0  0  0  0  0  0
    6.9694   -4.0191   27.8190 C   0  0  0  0  0  0  0  0  0  0  0  0
    5.1733   -4.5469   29.8123 C   0  0  0  0  0  0  0  0  0  0  0  0
   -1.7508  -11.3016   18.6072 C   0  0  0  0  0  0  0  0  0  0  0  0
    1.7497   -5.6771   26.4971 C   0  0  0  0  0  0  0  0  0  0  0  0
   -1.5799   -9.9322   18.3468 C   0  0  0  0  0  0  0  0  0  0  0  0
   -1.0871  -12.2214   17.8851 C   0  0  0  0  0  0  0  0  0  0  0  0
   -2.2706   -8.9669   19.0691 C   0  0  0  0  0  0  0  0  0  0  0  0
    3.0279   -5.3073   26.8197 C   0  0  0  0  0  0  0  0  0  0  0  0
    7.3282   -3.8948   29.1186 C   0  0  0  0  0  0  0  0  0  0  0  0
  1  3  4  0
  1  7  4  0
  2  3  1  0
  2  6  4  0
  2 16  4  0
  3 22  4  0
  4  9  4  0
  4 10  1  0
  4 20  4  0
  5 16  4  0
  5 23  4  0
  6 15  4  0
  7 12  4  0
  8 13  4  0
  8 14  4  0
  9 11  4  0
 11 14  4  0
 11 19  4  0
 12 18  4  0
 13 21  4  0
 15 23  4  0
 17 19  4  0
 17 20  4  0
 18 22  4  0
 19 21  4  0
M  END
$$$$

 Created by Python create_sdf_string function

 23 25  0  0  0  0  0  0  0  0999 V2000
    2.4610   -5.3070   29.1240 C   0  0  0  0  0  0  0  0  0  0  0  0
    4.7710   -4.6952   28.4803 C   0  0  0  0  0  0  0  0  0  0  0  0
    3.4047   -5.1087   28.1314 C   0  0  0  0  0  0  0  0  0  0  0  0
   -0.2234  -11.8615   16.8874 C   0  0  0  0  0  0  0  0  0  0  0  0
    6.4491   -4.1532   30.1213 C   0  0  0  0  0  0  0  0  0  0  0  0
    5.7060   -4.4340   27.4975 C   0  0  0  0  0  0  0  0  0  0  0  0
    1.1818   -5.6612   28.8399 C   0  0  0  0  0  0  0  0  0  0  0  0
   -1.2067   -7.3287   17.7772 C   0  0  0  0  0  0  0  0  0  0  0  0
   -0.0206  -10.5585   16.6210 C   0  0  0  0  0  0  0  0  0  0  0  0
    0.3696  -12.7626   16.2169 O   0  0  0  0  0  0  0  0  0  0  0  0
   -0.6895   -9.5676   17.3297 C   0  0  0  0  0  0  0  0  0  0  0  0
    0.8388   -5.8417   27.5264 C   0  0  0  0  0  0  0  0  0  0  0  0
   -2.0709   -7.6637   18.7817 C   0  0  0  0  0  0  0  0  0  0  0  0
   -0.5279   -8.2168   17.0717 C   0  0  0  0  0  0  0  0  0  0  0  0
    6.9694   -4.0191   27.8190 C   0  0  0  0  0  0  0  0  0  0  0  0
    5.1733   -4.5469   29.8123 C   0  0  0  0  0  0  0  0  0  0  0  0
   -1.7508  -11.3016   18.6072 C   0  0  0  0  0  0  0  0  0  0  0  0
    1.7497   -5.6771   26.4971 C   0  0  0  0  0  0  0  0  0  0  0  0
   -1.5799   -9.9322   18.3468 C   0  0  0  0  0  0  0  0  0  0  0  0
   -1.0871  -12.2214   17.8851 C   0  0  0  0  0  0  0  0  0  0  0  0
   -2.2706   -8.9669   19.0691 C   0  0  0  0  0  0  0  0  0  0  0  0
    3.0279   -5.3073   26.8197 C   0  0  0  0  0  0  0  0  0  0  0  0
    7.3282   -3.8948   29.1186 C   0  0  0  0  0  0  0  0  0  0  0  0
  1  3  4  0
  1  7  4  0
  2  3  1  0
  2  6  4  0
  2 16  4  0
  3 22  4  0
  4  9  4  0
  4 10  1  0
  4 20  4  0
  5 16  4  0
  5 23  4  0
  6 15  4  0
  7 12  4  0
  8 13  4  0
  8 14  4  0
  9 11  4  0
 11 14  4  0
 11 19  4  0
 12 18  4  0
 13 21  4  0
 15 23  4  0
 17 19  4  0
 17 20  4  0
 18 22  4  0
 19 21  4  0
M  END
$$$$

 Created by Python create_sdf_string function

 23 25  0  0  0  0  0  0  0  0999 V2000
    2.4610   -5.3070   29.1240 C   0  0  0  0  0  0  0  0  0  0  0  0
    4.7710   -4.6952   28.4803 C   0  0  0  0  0  0  0  0  0  0  0  0
    3.4047   -5.1087   28.1314 C   0  0  0  0  0  0  0  0  0  0  0  0
   -0.2234  -11.8615   16.8874 C   0  0  0  0  0  0  0  0  0  0  0  0
    6.4491   -4.1532   30.1213 C   0  0  0  0  0  0  0  0  0  0  0  0
    5.7060   -4.4340   27.4975 C   0  0  0  0  0  0  0  0  0  0  0  0
    1.1818   -5.6612   28.8399 C   0  0  0  0  0  0  0  0  0  0  0  0
   -1.2067   -7.3287   17.7772 C   0  0  0  0  0  0  0  0  0  0  0  0
   -0.0206  -10.5585   16.6210 C   0  0  0  0  0  0  0  0  0  0  0  0
    0.3696  -12.7626   16.2169 O   0  0  0  0  0  0  0  0  0  0  0  0
   -0.6895   -9.5676   17.3297 C   0  0  0  0  0  0  0  0  0  0  0  0
    0.8388   -5.8417   27.5264 C   0  0  0  0  0  0  0  0  0  0  0  0
   -2.0709   -7.6637   18.7817 C   0  0  0  0  0  0  0  0  0  0  0  0
   -0.5279   -8.2168   17.0717 C   0  0  0  0  0  0  0  0  0  0  0  0
    6.9694   -4.0191   27.8190 C   0  0  0  0  0  0  0  0  0  0  0  0
    5.1733   -4.5469   29.8123 C   0  0  0  0  0  0  0  0  0  0  0  0
   -1.7508  -11.3016   18.6072 C   0  0  0  0  0  0  0  0  0  0  0  0
    1.7497   -5.6771   26.4971 C   0  0  0  0  0  0  0  0  0  0  0  0
   -1.5799   -9.9322   18.3468 C   0  0  0  0  0  0  0  0  0  0  0  0
   -1.0871  -12.2214   17.8851 C   0  0  0  0  0  0  0  0  0  0  0  0
   -2.2706   -8.9669   19.0691 C   0  0  0  0  0  0  0  0  0  0  0  0
    3.0279   -5.3073   26.8197 C   0  0  0  0  0  0  0  0  0  0  0  0
    7.3282   -3.8948   29.1186 C   0  0  0  0  0  0  0  0  0  0  0  0
  1  3  4  0
  1  7  4  0
  2  3  1  0
  2  6  4  0
  2 16  4  0
  3 22  4  0
  4  9  4  0
  4 10  1  0
  4 20  4  0
  5 16  4  0
  5 23  4  0
  6 15  4  0
  7 12  4  0
  8 13  4  0
  8 14  4  0
  9 11  4  0
 11 14  4  0
 11 19  4  0
 12 18  4  0
 13 21  4  0
 15 23  4  0
 17 19  4  0
 17 20  4  0
 18 22  4  0
 19 21  4  0
M  END
$$$$

 Created by Python create_sdf_string function

 23 25  0  0  0  0  0  0  0  0999 V2000
    2.4610   -5.3070   29.1240 C   0  0  0  0  0  0  0  0  0  0  0  0
    4.7710   -4.6952   28.4803 C   0  0  0  0  0  0  0  0  0  0  0  0
    3.4047   -5.1087   28.1314 C   0  0  0  0  0  0  0  0  0  0  0  0
   -0.2234  -11.8615   16.8874 C   0  0  0  0  0  0  0  0  0  0  0  0
    6.4491   -4.1532   30.1213 C   0  0  0  0  0  0  0  0  0  0  0  0
    5.7060   -4.4340   27.4975 C   0  0  0  0  0  0  0  0  0  0  0  0
    1.1818   -5.6612   28.8399 C   0  0  0  0  0  0  0  0  0  0  0  0
   -1.2067   -7.3287   17.7772 C   0  0  0  0  0  0  0  0  0  0  0  0
   -0.0206  -10.5585   16.6210 C   0  0  0  0  0  0  0  0  0  0  0  0
    0.3696  -12.7626   16.2169 O   0  0  0  0  0  0  0  0  0  0  0  0
   -0.6895   -9.5676   17.3297 C   0  0  0  0  0  0  0  0  0  0  0  0
    0.8388   -5.8417   27.5264 C   0  0  0  0  0  0  0  0  0  0  0  0
   -2.0709   -7.6637   18.7817 C   0  0  0  0  0  0  0  0  0  0  0  0
   -0.5279   -8.2168   17.0717 C   0  0  0  0  0  0  0  0  0  0  0  0
    6.9694   -4.0191   27.8190 C   0  0  0  0  0  0  0  0  0  0  0  0
    5.1733   -4.5469   29.8123 C   0  0  0  0  0  0  0  0  0  0  0  0
   -1.7508  -11.3016   18.6072 C   0  0  0  0  0  0  0  0  0  0  0  0
    1.7497   -5.6771   26.4971 C   0  0  0  0  0  0  0  0  0  0  0  0
   -1.5799   -9.9322   18.3468 C   0  0  0  0  0  0  0  0  0  0  0  0
   -1.0871  -12.2214   17.8851 C   0  0  0  0  0  0  0  0  0  0  0  0
   -2.2706   -8.9669   19.0691 C   0  0  0  0  0  0  0  0  0  0  0  0
    3.0279   -5.3073   26.8197 C   0  0  0  0  0  0  0  0  0  0  0  0
    7.3282   -3.8948   29.1186 C   0  0  0  0  0  0  0  0  0  0  0  0
  1  3  4  0
  1  7  4  0
  2  3  1  0
  2  6  4  0
  2 16  4  0
  3 22  4  0
  4  9  4  0
  4 10  1  0
  4 20  4  0
  5 16  4  0
  5 23  4  0
  6 15  4  0
  7 12  4  0
  8 13  4  0
  8 14  4  0
  9 11  4  0
 11 14  4  0
 11 19  4  0
 12 18  4  0
 13 21  4  0
 15 23  4  0
 17 19  4  0
 17 20  4  0
 18 22  4  0
 19 21  4  0
M  END
$$$$

 Created by Python create_sdf_string function

 23 25  0  0  0  0  0  0  0  0999 V2000
    2.4610   -5.3070   29.1240 C   0  0  0  0  0  0  0  0  0  0  0  0
    4.7710   -4.6952   28.4803 C   0  0  0  0  0  0  0  0  0  0  0  0
    3.4047   -5.1087   28.1314 C   0  0  0  0  0  0  0  0  0  0  0  0
   -0.2234  -11.8615   16.8874 C   0  0  0  0  0  0  0  0  0  0  0  0
    6.4491   -4.1532   30.1213 C   0  0  0  0  0  0  0  0  0  0  0  0
    5.7060   -4.4340   27.4975 C   0  0  0  0  0  0  0  0  0  0  0  0
    1.1818   -5.6612   28.8399 C   0  0  0  0  0  0  0  0  0  0  0  0
   -1.2067   -7.3287   17.7772 C   0  0  0  0  0  0  0  0  0  0  0  0
   -0.0206  -10.5585   16.6210 C   0  0  0  0  0  0  0  0  0  0  0  0
    0.3696  -12.7626   16.2169 O   0  0  0  0  0  0  0  0  0  0  0  0
   -0.6895   -9.5676   17.3297 C   0  0  0  0  0  0  0  0  0  0  0  0
    0.8388   -5.8417   27.5264 C   0  0  0  0  0  0  0  0  0  0  0  0
   -2.0709   -7.6637   18.7817 C   0  0  0  0  0  0  0  0  0  0  0  0
   -0.5279   -8.2168   17.0717 C   0  0  0  0  0  0  0  0  0  0  0  0
    6.9694   -4.0191   27.8190 C   0  0  0  0  0  0  0  0  0  0  0  0
    5.1733   -4.5469   29.8123 C   0  0  0  0  0  0  0  0  0  0  0  0
   -1.7508  -11.3016   18.6072 C   0  0  0  0  0  0  0  0  0  0  0  0
    1.7497   -5.6771   26.4971 C   0  0  0  0  0  0  0  0  0  0  0  0
   -1.5799   -9.9322   18.3468 C   0  0  0  0  0  0  0  0  0  0  0  0
   -1.0871  -12.2214   17.8851 C   0  0  0  0  0  0  0  0  0  0  0  0
   -2.2706   -8.9669   19.0691 C   0  0  0  0  0  0  0  0  0  0  0  0
    3.0279   -5.3073   26.8197 C   0  0  0  0  0  0  0  0  0  0  0  0
    7.3282   -3.8948   29.1186 C   0  0  0  0  0  0  0  0  0  0  0  0
  1  3  4  0
  1  7  4  0
  2  3  1  0
  2  6  4  0
  2 16  4  0
  3 22  4  0
  4  9  4  0
  4 10  1  0
  4 20  4  0
  5 16  4  0
  5 23  4  0
  6 15  4  0
  7 12  4  0
  8 13  4  0
  8 14  4  0
  9 11  4  0
 11 14  4  0
 11 19  4  0
 12 18  4  0
 13 21  4  0
 15 23  4  0
 17 19  4  0
 17 20  4  0
 18 22  4  0
 19 21  4  0
M  END
$$$$

 Created by Python create_sdf_string function

 23 25  0  0  0  0  0  0  0  0999 V2000
    2.4610   -5.3070   29.1240 C   0  0  0  0  0  0  0  0  0  0  0  0
    4.7710   -4.6952   28.4803 C   0  0  0  0  0  0  0  0  0  0  0  0
    3.4047   -5.1087   28.1314 C   0  0  0  0  0  0  0  0  0  0  0  0
   -0.2234  -11.8615   16.8874 C   0  0  0  0  0  0  0  0  0  0  0  0
    6.4491   -4.1532   30.1213 C   0  0  0  0  0  0  0  0  0  0  0  0
    5.7060   -4.4340   27.4975 C   0  0  0  0  0  0  0  0  0  0  0  0
    1.1818   -5.6612   28.8399 C   0  0  0  0  0  0  0  0  0  0  0  0
   -1.2067   -7.3287   17.7772 C   0  0  0  0  0  0  0  0  0  0  0  0
   -0.0206  -10.5585   16.6210 C   0  0  0  0  0  0  0  0  0  0  0  0
    0.3696  -12.7626   16.2169 O   0  0  0  0  0  0  0  0  0  0  0  0
   -0.6895   -9.5676   17.3297 C   0  0  0  0  0  0  0  0  0  0  0  0
    0.8388   -5.8417   27.5264 C   0  0  0  0  0  0  0  0  0  0  0  0
   -2.0709   -7.6637   18.7817 C   0  0  0  0  0  0  0  0  0  0  0  0
   -0.5279   -8.2168   17.0717 C   0  0  0  0  0  0  0  0  0  0  0  0
    6.9694   -4.0191   27.8190 C   0  0  0  0  0  0  0  0  0  0  0  0
    5.1733   -4.5469   29.8123 C   0  0  0  0  0  0  0  0  0  0  0  0
   -1.7508  -11.3016   18.6072 C   0  0  0  0  0  0  0  0  0  0  0  0
    1.7497   -5.6771   26.4971 C   0  0  0  0  0  0  0  0  0  0  0  0
   -1.5799   -9.9322   18.3468 C   0  0  0  0  0  0  0  0  0  0  0  0
   -1.0871  -12.2214   17.8851 C   0  0  0  0  0  0  0  0  0  0  0  0
   -2.2706   -8.9669   19.0691 C   0  0  0  0  0  0  0  0  0  0  0  0
    3.0279   -5.3073   26.8197 C   0  0  0  0  0  0  0  0  0  0  0  0
    7.3282   -3.8948   29.1186 C   0  0  0  0  0  0  0  0  0  0  0  0
  1  3  4  0
  1  7  4  0
  2  3  1  0
  2  6  4  0
  2 16  4  0
  3 22  4  0
  4  9  4  0
  4 10  1  0
  4 20  4  0
  5 16  4  0
  5 23  4  0
  6 15  4  0
  7 12  4  0
  8 13  4  0
  8 14  4  0
  9 11  4  0
 11 14  4  0
 11 19  4  0
 12 18  4  0
 13 21  4  0
 15 23  4  0
 17 19  4  0
 17 20  4  0
 18 22  4  0
 19 21  4  0
M  END
$$$$

 Created by Python create_sdf_string function

 23 25  0  0  0  0  0  0  0  0999 V2000
    2.4610   -5.3070   29.1240 C   0  0  0  0  0  0  0  0  0  0  0  0
    4.7710   -4.6952   28.4803 C   0  0  0  0  0  0  0  0  0  0  0  0
    3.4047   -5.1087   28.1314 C   0  0  0  0  0  0  0  0  0  0  0  0
   -0.2234  -11.8615   16.8874 C   0  0  0  0  0  0  0  0  0  0  0  0
    6.4491   -4.1532   30.1213 C   0  0  0  0  0  0  0  0  0  0  0  0
    5.7060   -4.4340   27.4975 C   0  0  0  0  0  0  0  0  0  0  0  0
    1.1818   -5.6612   28.8399 C   0  0  0  0  0  0  0  0  0  0  0  0
   -1.2067   -7.3287   17.7772 C   0  0  0  0  0  0  0  0  0  0  0  0
   -0.0206  -10.5585   16.6210 C   0  0  0  0  0  0  0  0  0  0  0  0
    0.3696  -12.7626   16.2169 O   0  0  0  0  0  0  0  0  0  0  0  0
   -0.6895   -9.5676   17.3297 C   0  0  0  0  0  0  0  0  0  0  0  0
    0.8388   -5.8417   27.5264 C   0  0  0  0  0  0  0  0  0  0  0  0
   -2.0709   -7.6637   18.7817 C   0  0  0  0  0  0  0  0  0  0  0  0
   -0.5279   -8.2168   17.0717 C   0  0  0  0  0  0  0  0  0  0  0  0
    6.9694   -4.0191   27.8190 C   0  0  0  0  0  0  0  0  0  0  0  0
    5.1733   -4.5469   29.8123 C   0  0  0  0  0  0  0  0  0  0  0  0
   -1.7508  -11.3016   18.6072 C   0  0  0  0  0  0  0  0  0  0  0  0
    1.7497   -5.6771   26.4971 C   0  0  0  0  0  0  0  0  0  0  0  0
   -1.5799   -9.9322   18.3468 C   0  0  0  0  0  0  0  0  0  0  0  0
   -1.0871  -12.2214   17.8851 C   0  0  0  0  0  0  0  0  0  0  0  0
   -2.2706   -8.9669   19.0691 C   0  0  0  0  0  0  0  0  0  0  0  0
    3.0279   -5.3073   26.8197 C   0  0  0  0  0  0  0  0  0  0  0  0
    7.3282   -3.8948   29.1186 C   0  0  0  0  0  0  0  0  0  0  0  0
  1  3  4  0
  1  7  4  0
  2  3  1  0
  2  6  4  0
  2 16  4  0
  3 22  4  0
  4  9  4  0
  4 10  1  0
  4 20  4  0
  5 16  4  0
  5 23  4  0
  6 15  4  0
  7 12  4  0
  8 13  4  0
  8 14  4  0
  9 11  4  0
 11 14  4  0
 11 19  4  0
 12 18  4  0
 13 21  4  0
 15 23  4  0
 17 19  4  0
 17 20  4  0
 18 22  4  0
 19 21  4  0
M  END
$$$$

 Created by Python create_sdf_string function

 23 25  0  0  0  0  0  0  0  0999 V2000
    2.4610   -5.3070   29.1240 C   0  0  0  0  0  0  0  0  0  0  0  0
    4.7710   -4.6952   28.4803 C   0  0  0  0  0  0  0  0  0  0  0  0
    3.4047   -5.1087   28.1314 C   0  0  0  0  0  0  0  0  0  0  0  0
   -0.2234  -11.8615   16.8874 C   0  0  0  0  0  0  0  0  0  0  0  0
    6.4491   -4.1532   30.1213 C   0  0  0  0  0  0  0  0  0  0  0  0
    5.7060   -4.4340   27.4975 C   0  0  0  0  0  0  0  0  0  0  0  0
    1.1818   -5.6612   28.8399 C   0  0  0  0  0  0  0  0  0  0  0  0
   -1.2067   -7.3287   17.7772 C   0  0  0  0  0  0  0  0  0  0  0  0
   -0.0206  -10.5585   16.6210 C   0  0  0  0  0  0  0  0  0  0  0  0
    0.3696  -12.7626   16.2169 O   0  0  0  0  0  0  0  0  0  0  0  0
   -0.6895   -9.5676   17.3297 C   0  0  0  0  0  0  0  0  0  0  0  0
    0.8388   -5.8417   27.5264 C   0  0  0  0  0  0  0  0  0  0  0  0
   -2.0709   -7.6637   18.7817 C   0  0  0  0  0  0  0  0  0  0  0  0
   -0.5279   -8.2168   17.0717 C   0  0  0  0  0  0  0  0  0  0  0  0
    6.9694   -4.0191   27.8190 C   0  0  0  0  0  0  0  0  0  0  0  0
    5.1733   -4.5469   29.8123 C   0  0  0  0  0  0  0  0  0  0  0  0
   -1.7508  -11.3016   18.6072 C   0  0  0  0  0  0  0  0  0  0  0  0
    1.7497   -5.6771   26.4971 C   0  0  0  0  0  0  0  0  0  0  0  0
   -1.5799   -9.9322   18.3468 C   0  0  0  0  0  0  0  0  0  0  0  0
   -1.0871  -12.2214   17.8851 C   0  0  0  0  0  0  0  0  0  0  0  0
   -2.2706   -8.9669   19.0691 C   0  0  0  0  0  0  0  0  0  0  0  0
    3.0279   -5.3073   26.8197 C   0  0  0  0  0  0  0  0  0  0  0  0
    7.3282   -3.8948   29.1186 C   0  0  0  0  0  0  0  0  0  0  0  0
  1  3  4  0
  1  7  4  0
  2  3  1  0
  2  6  4  0
  2 16  4  0
  3 22  4  0
  4  9  4  0
  4 10  1  0
  4 20  4  0
  5 16  4  0
  5 23  4  0
  6 15  4  0
  7 12  4  0
  8 13  4  0
  8 14  4  0
  9 11  4  0
 11 14  4  0
 11 19  4  0
 12 18  4  0
 13 21  4  0
 15 23  4  0
 17 19  4  0
 17 20  4  0
 18 22  4  0
 19 21  4  0
M  END
$$$$

 Created by Python create_sdf_string function

 23 25  0  0  0  0  0  0  0  0999 V2000
    2.4610   -5.3070   29.1240 C   0  0  0  0  0  0  0  0  0  0  0  0
    4.7710   -4.6952   28.4803 C   0  0  0  0  0  0  0  0  0  0  0  0
    3.4047   -5.1087   28.1314 C   0  0  0  0  0  0  0  0  0  0  0  0
   -0.2234  -11.8615   16.8874 C   0  0  0  0  0  0  0  0  0  0  0  0
    6.4491   -4.1532   30.1213 C   0  0  0  0  0  0  0  0  0  0  0  0
    5.7060   -4.4340   27.4975 C   0  0  0  0  0  0  0  0  0  0  0  0
    1.1818   -5.6612   28.8399 C   0  0  0  0  0  0  0  0  0  0  0  0
   -1.2067   -7.3287   17.7772 C   0  0  0  0  0  0  0  0  0  0  0  0
   -0.0206  -10.5585   16.6210 C   0  0  0  0  0  0  0  0  0  0  0  0
    0.3696  -12.7626   16.2169 O   0  0  0  0  0  0  0  0  0  0  0  0
   -0.6895   -9.5676   17.3297 C   0  0  0  0  0  0  0  0  0  0  0  0
    0.8388   -5.8417   27.5264 C   0  0  0  0  0  0  0  0  0  0  0  0
   -2.0709   -7.6637   18.7817 C   0  0  0  0  0  0  0  0  0  0  0  0
   -0.5279   -8.2168   17.0717 C   0  0  0  0  0  0  0  0  0  0  0  0
    6.9694   -4.0191   27.8190 C   0  0  0  0  0  0  0  0  0  0  0  0
    5.1733   -4.5469   29.8123 C   0  0  0  0  0  0  0  0  0  0  0  0
   -1.7508  -11.3016   18.6072 C   0  0  0  0  0  0  0  0  0  0  0  0
    1.7497   -5.6771   26.4971 C   0  0  0  0  0  0  0  0  0  0  0  0
   -1.5799   -9.9322   18.3468 C   0  0  0  0  0  0  0  0  0  0  0  0
   -1.0871  -12.2214   17.8851 C   0  0  0  0  0  0  0  0  0  0  0  0
   -2.2706   -8.9669   19.0691 C   0  0  0  0  0  0  0  0  0  0  0  0
    3.0279   -5.3073   26.8197 C   0  0  0  0  0  0  0  0  0  0  0  0
    7.3282   -3.8948   29.1186 C   0  0  0  0  0  0  0  0  0  0  0  0
  1  3  4  0
  1  7  4  0
  2  3  1  0
  2  6  4  0
  2 16  4  0
  3 22  4  0
  4  9  4  0
  4 10  1  0
  4 20  4  0
  5 16  4  0
  5 23  4  0
  6 15  4  0
  7 12  4  0
  8 13  4  0
  8 14  4  0
  9 11  4  0
 11 14  4  0
 11 19  4  0
 12 18  4  0
 13 21  4  0
 15 23  4  0
 17 19  4  0
 17 20  4  0
 18 22  4  0
 19 21  4  0
M  END
$$$$

 Created by Python create_sdf_string function

 23 25  0  0  0  0  0  0  0  0999 V2000
    2.4610   -5.3070   29.1240 C   0  0  0  0  0  0  0  0  0  0  0  0
    4.7710   -4.6952   28.4803 C   0  0  0  0  0  0  0  0  0  0  0  0
    3.4047   -5.1087   28.1314 C   0  0  0  0  0  0  0  0  0  0  0  0
   -0.2234  -11.8615   16.8874 C   0  0  0  0  0  0  0  0  0  0  0  0
    6.4491   -4.1532   30.1213 C   0  0  0  0  0  0  0  0  0  0  0  0
    5.7060   -4.4340   27.4975 C   0  0  0  0  0  0  0  0  0  0  0  0
    1.1818   -5.6612   28.8399 C   0  0  0  0  0  0  0  0  0  0  0  0
   -1.2067   -7.3287   17.7772 C   0  0  0  0  0  0  0  0  0  0  0  0
   -0.0206  -10.5585   16.6210 C   0  0  0  0  0  0  0  0  0  0  0  0
    0.3696  -12.7626   16.2169 O   0  0  0  0  0  0  0  0  0  0  0  0
   -0.6895   -9.5676   17.3297 C   0  0  0  0  0  0  0  0  0  0  0  0
    0.8388   -5.8417   27.5264 C   0  0  0  0  0  0  0  0  0  0  0  0
   -2.0709   -7.6637   18.7817 C   0  0  0  0  0  0  0  0  0  0  0  0
   -0.5279   -8.2168   17.0717 C   0  0  0  0  0  0  0  0  0  0  0  0
    6.9694   -4.0191   27.8190 C   0  0  0  0  0  0  0  0  0  0  0  0
    5.1733   -4.5469   29.8123 C   0  0  0  0  0  0  0  0  0  0  0  0
   -1.7508  -11.3016   18.6072 C   0  0  0  0  0  0  0  0  0  0  0  0
    1.7497   -5.6771   26.4971 C   0  0  0  0  0  0  0  0  0  0  0  0
   -1.5799   -9.9322   18.3468 C   0  0  0  0  0  0  0  0  0  0  0  0
   -1.0871  -12.2214   17.8851 C   0  0  0  0  0  0  0  0  0  0  0  0
   -2.2706   -8.9669   19.0691 C   0  0  0  0  0  0  0  0  0  0  0  0
    3.0279   -5.3073   26.8197 C   0  0  0  0  0  0  0  0  0  0  0  0
    7.3282   -3.8948   29.1186 C   0  0  0  0  0  0  0  0  0  0  0  0
  1  3  4  0
  1  7  4  0
  2  3  1  0
  2  6  4  0
  2 16  4  0
  3 22  4  0
  4  9  4  0
  4 10  1  0
  4 20  4  0
  5 16  4  0
  5 23  4  0
  6 15  4  0
  7 12  4  0
  8 13  4  0
  8 14  4  0
  9 11  4  0
 11 14  4  0
 11 19  4  0
 12 18  4  0
 13 21  4  0
 15 23  4  0
 17 19  4  0
 17 20  4  0
 18 22  4  0
 19 21  4  0
M  END
$$$$

 Created by Python create_sdf_string function

 23 25  0  0  0  0  0  0  0  0999 V2000
    2.4610   -5.3070   29.1240 C   0  0  0  0  0  0  0  0  0  0  0  0
    4.7710   -4.6952   28.4803 C   0  0  0  0  0  0  0  0  0  0  0  0
    3.4047   -5.1087   28.1314 C   0  0  0  0  0  0  0  0  0  0  0  0
   -0.2234  -11.8615   16.8874 C   0  0  0  0  0  0  0  0  0  0  0  0
    6.4491   -4.1532   30.1213 C   0  0  0  0  0  0  0  0  0  0  0  0
    5.7060   -4.4340   27.4975 C   0  0  0  0  0  0  0  0  0  0  0  0
    1.1818   -5.6612   28.8399 C   0  0  0  0  0  0  0  0  0  0  0  0
   -1.2067   -7.3287   17.7772 C   0  0  0  0  0  0  0  0  0  0  0  0
   -0.0206  -10.5585   16.6210 C   0  0  0  0  0  0  0  0  0  0  0  0
    0.3696  -12.7626   16.2169 O   0  0  0  0  0  0  0  0  0  0  0  0
   -0.6895   -9.5676   17.3297 C   0  0  0  0  0  0  0  0  0  0  0  0
    0.8388   -5.8417   27.5264 C   0  0  0  0  0  0  0  0  0  0  0  0
   -2.0709   -7.6637   18.7817 C   0  0  0  0  0  0  0  0  0  0  0  0
   -0.5279   -8.2168   17.0717 C   0  0  0  0  0  0  0  0  0  0  0  0
    6.9694   -4.0191   27.8190 C   0  0  0  0  0  0  0  0  0  0  0  0
    5.1733   -4.5469   29.8123 C   0  0  0  0  0  0  0  0  0  0  0  0
   -1.7508  -11.3016   18.6072 C   0  0  0  0  0  0  0  0  0  0  0  0
    1.7497   -5.6771   26.4971 C   0  0  0  0  0  0  0  0  0  0  0  0
   -1.5799   -9.9322   18.3468 C   0  0  0  0  0  0  0  0  0  0  0  0
   -1.0871  -12.2214   17.8851 C   0  0  0  0  0  0  0  0  0  0  0  0
   -2.2706   -8.9669   19.0691 C   0  0  0  0  0  0  0  0  0  0  0  0
    3.0279   -5.3073   26.8197 C   0  0  0  0  0  0  0  0  0  0  0  0
    7.3282   -3.8948   29.1186 C   0  0  0  0  0  0  0  0  0  0  0  0
  1  3  4  0
  1  7  4  0
  2  3  1  0
  2  6  4  0
  2 16  4  0
  3 22  4  0
  4  9  4  0
  4 10  1  0
  4 20  4  0
  5 16  4  0
  5 23  4  0
  6 15  4  0
  7 12  4  0
  8 13  4  0
  8 14  4  0
  9 11  4  0
 11 14  4  0
 11 19  4  0
 12 18  4  0
 13 21  4  0
 15 23  4  0
 17 19  4  0
 17 20  4  0
 18 22  4  0
 19 21  4  0
M  END
$$$$

 Created by Python create_sdf_string function

 23 25  0  0  0  0  0  0  0  0999 V2000
    2.4610   -5.3070   29.1240 C   0  0  0  0  0  0  0  0  0  0  0  0
    4.7710   -4.6952   28.4803 C   0  0  0  0  0  0  0  0  0  0  0  0
    3.4047   -5.1087   28.1314 C   0  0  0  0  0  0  0  0  0  0  0  0
   -0.2234  -11.8615   16.8874 C   0  0  0  0  0  0  0  0  0  0  0  0
    6.4491   -4.1532   30.1213 C   0  0  0  0  0  0  0  0  0  0  0  0
    5.7060   -4.4340   27.4975 C   0  0  0  0  0  0  0  0  0  0  0  0
    1.1818   -5.6612   28.8399 C   0  0  0  0  0  0  0  0  0  0  0  0
   -1.2067   -7.3287   17.7772 C   0  0  0  0  0  0  0  0  0  0  0  0
   -0.0206  -10.5585   16.6210 C   0  0  0  0  0  0  0  0  0  0  0  0
    0.3696  -12.7626   16.2169 O   0  0  0  0  0  0  0  0  0  0  0  0
   -0.6895   -9.5676   17.3297 C   0  0  0  0  0  0  0  0  0  0  0  0
    0.8388   -5.8417   27.5264 C   0  0  0  0  0  0  0  0  0  0  0  0
   -2.0709   -7.6637   18.7817 C   0  0  0  0  0  0  0  0  0  0  0  0
   -0.5279   -8.2168   17.0717 C   0  0  0  0  0  0  0  0  0  0  0  0
    6.9694   -4.0191   27.8190 C   0  0  0  0  0  0  0  0  0  0  0  0
    5.1733   -4.5469   29.8123 C   0  0  0  0  0  0  0  0  0  0  0  0
   -1.7508  -11.3016   18.6072 C   0  0  0  0  0  0  0  0  0  0  0  0
    1.7497   -5.6771   26.4971 C   0  0  0  0  0  0  0  0  0  0  0  0
   -1.5799   -9.9322   18.3468 C   0  0  0  0  0  0  0  0  0  0  0  0
   -1.0871  -12.2214   17.8851 C   0  0  0  0  0  0  0  0  0  0  0  0
   -2.2706   -8.9669   19.0691 C   0  0  0  0  0  0  0  0  0  0  0  0
    3.0279   -5.3073   26.8197 C   0  0  0  0  0  0  0  0  0  0  0  0
    7.3282   -3.8948   29.1186 C   0  0  0  0  0  0  0  0  0  0  0  0
  1  3  4  0
  1  7  4  0
  2  3  1  0
  2  6  4  0
  2 16  4  0
  3 22  4  0
  4  9  4  0
  4 10  1  0
  4 20  4  0
  5 16  4  0
  5 23  4  0
  6 15  4  0
  7 12  4  0
  8 13  4  0
  8 14  4  0
  9 11  4  0
 11 14  4  0
 11 19  4  0
 12 18  4  0
 13 21  4  0
 15 23  4  0
 17 19  4  0
 17 20  4  0
 18 22  4  0
 19 21  4  0
M  END
$$$$

 Created by Python create_sdf_string function

 23 25  0  0  0  0  0  0  0  0999 V2000
    2.4610   -5.3070   29.1240 C   0  0  0  0  0  0  0  0  0  0  0  0
    4.7710   -4.6952   28.4803 C   0  0  0  0  0  0  0  0  0  0  0  0
    3.4047   -5.1087   28.1314 C   0  0  0  0  0  0  0  0  0  0  0  0
   -0.2234  -11.8615   16.8874 C   0  0  0  0  0  0  0  0  0  0  0  0
    6.4491   -4.1532   30.1213 C   0  0  0  0  0  0  0  0  0  0  0  0
    5.7060   -4.4340   27.4975 C   0  0  0  0  0  0  0  0  0  0  0  0
    1.1818   -5.6612   28.8399 C   0  0  0  0  0  0  0  0  0  0  0  0
   -1.2067   -7.3287   17.7772 C   0  0  0  0  0  0  0  0  0  0  0  0
   -0.0206  -10.5585   16.6210 C   0  0  0  0  0  0  0  0  0  0  0  0
    0.3696  -12.7626   16.2169 O   0  0  0  0  0  0  0  0  0  0  0  0
   -0.6895   -9.5676   17.3297 C   0  0  0  0  0  0  0  0  0  0  0  0
    0.8388   -5.8417   27.5264 C   0  0  0  0  0  0  0  0  0  0  0  0
   -2.0709   -7.6637   18.7817 C   0  0  0  0  0  0  0  0  0  0  0  0
   -0.5279   -8.2168   17.0717 C   0  0  0  0  0  0  0  0  0  0  0  0
    6.9694   -4.0191   27.8190 C   0  0  0  0  0  0  0  0  0  0  0  0
    5.1733   -4.5469   29.8123 C   0  0  0  0  0  0  0  0  0  0  0  0
   -1.7508  -11.3016   18.6072 C   0  0  0  0  0  0  0  0  0  0  0  0
    1.7497   -5.6771   26.4971 C   0  0  0  0  0  0  0  0  0  0  0  0
   -1.5799   -9.9322   18.3468 C   0  0  0  0  0  0  0  0  0  0  0  0
   -1.0871  -12.2214   17.8851 C   0  0  0  0  0  0  0  0  0  0  0  0
   -2.2706   -8.9669   19.0691 C   0  0  0  0  0  0  0  0  0  0  0  0
    3.0279   -5.3073   26.8197 C   0  0  0  0  0  0  0  0  0  0  0  0
    7.3282   -3.8948   29.1186 C   0  0  0  0  0  0  0  0  0  0  0  0
  1  3  4  0
  1  7  4  0
  2  3  1  0
  2  6  4  0
  2 16  4  0
  3 22  4  0
  4  9  4  0
  4 10  1  0
  4 20  4  0
  5 16  4  0
  5 23  4  0
  6 15  4  0
  7 12  4  0
  8 13  4  0
  8 14  4  0
  9 11  4  0
 11 14  4  0
 11 19  4  0
 12 18  4  0
 13 21  4  0
 15 23  4  0
 17 19  4  0
 17 20  4  0
 18 22  4  0
 19 21  4  0
M  END
$$$$

 Created by Python create_sdf_string function

 23 25  0  0  0  0  0  0  0  0999 V2000
    2.4610   -5.3070   29.1240 C   0  0  0  0  0  0  0  0  0  0  0  0
    4.7710   -4.6952   28.4803 C   0  0  0  0  0  0  0  0  0  0  0  0
    3.4047   -5.1087   28.1314 C   0  0  0  0  0  0  0  0  0  0  0  0
   -0.2234  -11.8615   16.8874 C   0  0  0  0  0  0  0  0  0  0  0  0
    6.4491   -4.1532   30.1213 C   0  0  0  0  0  0  0  0  0  0  0  0
    5.7060   -4.4340   27.4975 C   0  0  0  0  0  0  0  0  0  0  0  0
    1.1818   -5.6612   28.8399 C   0  0  0  0  0  0  0  0  0  0  0  0
   -1.2067   -7.3287   17.7772 C   0  0  0  0  0  0  0  0  0  0  0  0
   -0.0206  -10.5585   16.6210 C   0  0  0  0  0  0  0  0  0  0  0  0
    0.3696  -12.7626   16.2169 O   0  0  0  0  0  0  0  0  0  0  0  0
   -0.6895   -9.5676   17.3297 C   0  0  0  0  0  0  0  0  0  0  0  0
    0.8388   -5.8417   27.5264 C   0  0  0  0  0  0  0  0  0  0  0  0
   -2.0709   -7.6637   18.7817 C   0  0  0  0  0  0  0  0  0  0  0  0
   -0.5279   -8.2168   17.0717 C   0  0  0  0  0  0  0  0  0  0  0  0
    6.9694   -4.0191   27.8190 C   0  0  0  0  0  0  0  0  0  0  0  0
    5.1733   -4.5469   29.8123 C   0  0  0  0  0  0  0  0  0  0  0  0
   -1.7508  -11.3016   18.6072 C   0  0  0  0  0  0  0  0  0  0  0  0
    1.7497   -5.6771   26.4971 C   0  0  0  0  0  0  0  0  0  0  0  0
   -1.5799   -9.9322   18.3468 C   0  0  0  0  0  0  0  0  0  0  0  0
   -1.0871  -12.2214   17.8851 C   0  0  0  0  0  0  0  0  0  0  0  0
   -2.2706   -8.9669   19.0691 C   0  0  0  0  0  0  0  0  0  0  0  0
    3.0279   -5.3073   26.8197 C   0  0  0  0  0  0  0  0  0  0  0  0
    7.3282   -3.8948   29.1186 C   0  0  0  0  0  0  0  0  0  0  0  0
  1  3  4  0
  1  7  4  0
  2  3  1  0
  2  6  4  0
  2 16  4  0
  3 22  4  0
  4  9  4  0
  4 10  1  0
  4 20  4  0
  5 16  4  0
  5 23  4  0
  6 15  4  0
  7 12  4  0
  8 13  4  0
  8 14  4  0
  9 11  4  0
 11 14  4  0
 11 19  4  0
 12 18  4  0
 13 21  4  0
 15 23  4  0
 17 19  4  0
 17 20  4  0
 18 22  4  0
 19 21  4  0
M  END
$$$$

 Created by Python create_sdf_string function

 23 25  0  0  0  0  0  0  0  0999 V2000
    2.4610   -5.3070   29.1240 C   0  0  0  0  0  0  0  0  0  0  0  0
    4.7710   -4.6952   28.4803 C   0  0  0  0  0  0  0  0  0  0  0  0
    3.4047   -5.1087   28.1314 C   0  0  0  0  0  0  0  0  0  0  0  0
   -0.2234  -11.8615   16.8874 C   0  0  0  0  0  0  0  0  0  0  0  0
    6.4491   -4.1532   30.1213 C   0  0  0  0  0  0  0  0  0  0  0  0
    5.7060   -4.4340   27.4975 C   0  0  0  0  0  0  0  0  0  0  0  0
    1.1818   -5.6612   28.8399 C   0  0  0  0  0  0  0  0  0  0  0  0
   -1.2067   -7.3287   17.7772 C   0  0  0  0  0  0  0  0  0  0  0  0
   -0.0206  -10.5585   16.6210 C   0  0  0  0  0  0  0  0  0  0  0  0
    0.3696  -12.7626   16.2169 O   0  0  0  0  0  0  0  0  0  0  0  0
   -0.6895   -9.5676   17.3297 C   0  0  0  0  0  0  0  0  0  0  0  0
    0.8388   -5.8417   27.5264 C   0  0  0  0  0  0  0  0  0  0  0  0
   -2.0709   -7.6637   18.7817 C   0  0  0  0  0  0  0  0  0  0  0  0
   -0.5279   -8.2168   17.0717 C   0  0  0  0  0  0  0  0  0  0  0  0
    6.9694   -4.0191   27.8190 C   0  0  0  0  0  0  0  0  0  0  0  0
    5.1733   -4.5469   29.8123 C   0  0  0  0  0  0  0  0  0  0  0  0
   -1.7508  -11.3016   18.6072 C   0  0  0  0  0  0  0  0  0  0  0  0
    1.7497   -5.6771   26.4971 C   0  0  0  0  0  0  0  0  0  0  0  0
   -1.5799   -9.9322   18.3468 C   0  0  0  0  0  0  0  0  0  0  0  0
   -1.0871  -12.2214   17.8851 C   0  0  0  0  0  0  0  0  0  0  0  0
   -2.2706   -8.9669   19.0691 C   0  0  0  0  0  0  0  0  0  0  0  0
    3.0279   -5.3073   26.8197 C   0  0  0  0  0  0  0  0  0  0  0  0
    7.3282   -3.8948   29.1186 C   0  0  0  0  0  0  0  0  0  0  0  0
  1  3  4  0
  1  7  4  0
  2  3  1  0
  2  6  4  0
  2 16  4  0
  3 22  4  0
  4  9  4  0
  4 10  1  0
  4 20  4  0
  5 16  4  0
  5 23  4  0
  6 15  4  0
  7 12  4  0
  8 13  4  0
  8 14  4  0
  9 11  4  0
 11 14  4  0
 11 19  4  0
 12 18  4  0
 13 21  4  0
 15 23  4  0
 17 19  4  0
 17 20  4  0
 18 22  4  0
 19 21  4  0
M  END
$$$$

 Created by Python create_sdf_string function

 23 25  0  0  0  0  0  0  0  0999 V2000
    2.4610   -5.3070   29.1240 C   0  0  0  0  0  0  0  0  0  0  0  0
    4.7710   -4.6952   28.4803 C   0  0  0  0  0  0  0  0  0  0  0  0
    3.4047   -5.1087   28.1314 C   0  0  0  0  0  0  0  0  0  0  0  0
   -0.2234  -11.8615   16.8874 C   0  0  0  0  0  0  0  0  0  0  0  0
    6.4491   -4.1532   30.1213 C   0  0  0  0  0  0  0  0  0  0  0  0
    5.7060   -4.4340   27.4975 C   0  0  0  0  0  0  0  0  0  0  0  0
    1.1818   -5.6612   28.8399 C   0  0  0  0  0  0  0  0  0  0  0  0
   -1.2067   -7.3287   17.7772 C   0  0  0  0  0  0  0  0  0  0  0  0
   -0.0206  -10.5585   16.6210 C   0  0  0  0  0  0  0  0  0  0  0  0
    0.3696  -12.7626   16.2169 O   0  0  0  0  0  0  0  0  0  0  0  0
   -0.6895   -9.5676   17.3297 C   0  0  0  0  0  0  0  0  0  0  0  0
    0.8388   -5.8417   27.5264 C   0  0  0  0  0  0  0  0  0  0  0  0
   -2.0709   -7.6637   18.7817 C   0  0  0  0  0  0  0  0  0  0  0  0
   -0.5279   -8.2168   17.0717 C   0  0  0  0  0  0  0  0  0  0  0  0
    6.9694   -4.0191   27.8190 C   0  0  0  0  0  0  0  0  0  0  0  0
    5.1733   -4.5469   29.8123 C   0  0  0  0  0  0  0  0  0  0  0  0
   -1.7508  -11.3016   18.6072 C   0  0  0  0  0  0  0  0  0  0  0  0
    1.7497   -5.6771   26.4971 C   0  0  0  0  0  0  0  0  0  0  0  0
   -1.5799   -9.9322   18.3468 C   0  0  0  0  0  0  0  0  0  0  0  0
   -1.0871  -12.2214   17.8851 C   0  0  0  0  0  0  0  0  0  0  0  0
   -2.2706   -8.9669   19.0691 C   0  0  0  0  0  0  0  0  0  0  0  0
    3.0279   -5.3073   26.8197 C   0  0  0  0  0  0  0  0  0  0  0  0
    7.3282   -3.8948   29.1186 C   0  0  0  0  0  0  0  0  0  0  0  0
  1  3  4  0
  1  7  4  0
  2  3  1  0
  2  6  4  0
  2 16  4  0
  3 22  4  0
  4  9  4  0
  4 10  1  0
  4 20  4  0
  5 16  4  0
  5 23  4  0
  6 15  4  0
  7 12  4  0
  8 13  4  0
  8 14  4  0
  9 11  4  0
 11 14  4  0
 11 19  4  0
 12 18  4  0
 13 21  4  0
 15 23  4  0
 17 19  4  0
 17 20  4  0
 18 22  4  0
 19 21  4  0
M  END
$$$$

 Created by Python create_sdf_string function

 23 25  0  0  0  0  0  0  0  0999 V2000
    2.4610   -5.3070   29.1240 C   0  0  0  0  0  0  0  0  0  0  0  0
    4.7710   -4.6952   28.4803 C   0  0  0  0  0  0  0  0  0  0  0  0
    3.4047   -5.1087   28.1314 C   0  0  0  0  0  0  0  0  0  0  0  0
   -0.2234  -11.8615   16.8874 C   0  0  0  0  0  0  0  0  0  0  0  0
    6.4491   -4.1532   30.1213 C   0  0  0  0  0  0  0  0  0  0  0  0
    5.7060   -4.4340   27.4975 C   0  0  0  0  0  0  0  0  0  0  0  0
    1.1818   -5.6612   28.8399 C   0  0  0  0  0  0  0  0  0  0  0  0
   -1.2067   -7.3287   17.7772 C   0  0  0  0  0  0  0  0  0  0  0  0
   -0.0206  -10.5585   16.6210 C   0  0  0  0  0  0  0  0  0  0  0  0
    0.3696  -12.7626   16.2169 O   0  0  0  0  0  0  0  0  0  0  0  0
   -0.6895   -9.5676   17.3297 C   0  0  0  0  0  0  0  0  0  0  0  0
    0.8388   -5.8417   27.5264 C   0  0  0  0  0  0  0  0  0  0  0  0
   -2.0709   -7.6637   18.7817 C   0  0  0  0  0  0  0  0  0  0  0  0
   -0.5279   -8.2168   17.0717 C   0  0  0  0  0  0  0  0  0  0  0  0
    6.9694   -4.0191   27.8190 C   0  0  0  0  0  0  0  0  0  0  0  0
    5.1733   -4.5469   29.8123 C   0  0  0  0  0  0  0  0  0  0  0  0
   -1.7508  -11.3016   18.6072 C   0  0  0  0  0  0  0  0  0  0  0  0
    1.7497   -5.6771   26.4971 C   0  0  0  0  0  0  0  0  0  0  0  0
   -1.5799   -9.9322   18.3468 C   0  0  0  0  0  0  0  0  0  0  0  0
   -1.0871  -12.2214   17.8851 C   0  0  0  0  0  0  0  0  0  0  0  0
   -2.2706   -8.9669   19.0691 C   0  0  0  0  0  0  0  0  0  0  0  0
    3.0279   -5.3073   26.8197 C   0  0  0  0  0  0  0  0  0  0  0  0
    7.3282   -3.8948   29.1186 C   0  0  0  0  0  0  0  0  0  0  0  0
  1  3  4  0
  1  7  4  0
  2  3  1  0
  2  6  4  0
  2 16  4  0
  3 22  4  0
  4  9  4  0
  4 10  1  0
  4 20  4  0
  5 16  4  0
  5 23  4  0
  6 15  4  0
  7 12  4  0
  8 13  4  0
  8 14  4  0
  9 11  4  0
 11 14  4  0
 11 19  4  0
 12 18  4  0
 13 21  4  0
 15 23  4  0
 17 19  4  0
 17 20  4  0
 18 22  4  0
 19 21  4  0
M  END
$$$$

 Created by Python create_sdf_string function

 23 25  0  0  0  0  0  0  0  0999 V2000
    2.4610   -5.3070   29.1240 C   0  0  0  0  0  0  0  0  0  0  0  0
    4.7710   -4.6952   28.4803 C   0  0  0  0  0  0  0  0  0  0  0  0
    3.4047   -5.1087   28.1314 C   0  0  0  0  0  0  0  0  0  0  0  0
   -0.2234  -11.8615   16.8874 C   0  0  0  0  0  0  0  0  0  0  0  0
    6.4491   -4.1532   30.1213 C   0  0  0  0  0  0  0  0  0  0  0  0
    5.7060   -4.4340   27.4975 C   0  0  0  0  0  0  0  0  0  0  0  0
    1.1818   -5.6612   28.8399 C   0  0  0  0  0  0  0  0  0  0  0  0
   -1.2067   -7.3287   17.7772 C   0  0  0  0  0  0  0  0  0  0  0  0
   -0.0206  -10.5585   16.6210 C   0  0  0  0  0  0  0  0  0  0  0  0
    0.3696  -12.7626   16.2169 O   0  0  0  0  0  0  0  0  0  0  0  0
   -0.6895   -9.5676   17.3297 C   0  0  0  0  0  0  0  0  0  0  0  0
    0.8388   -5.8417   27.5264 C   0  0  0  0  0  0  0  0  0  0  0  0
   -2.0709   -7.6637   18.7817 C   0  0  0  0  0  0  0  0  0  0  0  0
   -0.5279   -8.2168   17.0717 C   0  0  0  0  0  0  0  0  0  0  0  0
    6.9694   -4.0191   27.8190 C   0  0  0  0  0  0  0  0  0  0  0  0
    5.1733   -4.5469   29.8123 C   0  0  0  0  0  0  0  0  0  0  0  0
   -1.7508  -11.3016   18.6072 C   0  0  0  0  0  0  0  0  0  0  0  0
    1.7497   -5.6771   26.4971 C   0  0  0  0  0  0  0  0  0  0  0  0
   -1.5799   -9.9322   18.3468 C   0  0  0  0  0  0  0  0  0  0  0  0
   -1.0871  -12.2214   17.8851 C   0  0  0  0  0  0  0  0  0  0  0  0
   -2.2706   -8.9669   19.0691 C   0  0  0  0  0  0  0  0  0  0  0  0
    3.0279   -5.3073   26.8197 C   0  0  0  0  0  0  0  0  0  0  0  0
    7.3282   -3.8948   29.1186 C   0  0  0  0  0  0  0  0  0  0  0  0
  1  3  4  0
  1  7  4  0
  2  3  1  0
  2  6  4  0
  2 16  4  0
  3 22  4  0
  4  9  4  0
  4 10  1  0
  4 20  4  0
  5 16  4  0
  5 23  4  0
  6 15  4  0
  7 12  4  0
  8 13  4  0
  8 14  4  0
  9 11  4  0
 11 14  4  0
 11 19  4  0
 12 18  4  0
 13 21  4  0
 15 23  4  0
 17 19  4  0
 17 20  4  0
 18 22  4  0
 19 21  4  0
M  END
$$$$

 Created by Python create_sdf_string function

 23 25  0  0  0  0  0  0  0  0999 V2000
    2.4610   -5.3070   29.1240 C   0  0  0  0  0  0  0  0  0  0  0  0
    4.7710   -4.6952   28.4803 C   0  0  0  0  0  0  0  0  0  0  0  0
    3.4047   -5.1087   28.1314 C   0  0  0  0  0  0  0  0  0  0  0  0
   -0.2234  -11.8615   16.8874 C   0  0  0  0  0  0  0  0  0  0  0  0
    6.4491   -4.1532   30.1213 C   0  0  0  0  0  0  0  0  0  0  0  0
    5.7060   -4.4340   27.4975 C   0  0  0  0  0  0  0  0  0  0  0  0
    1.1818   -5.6612   28.8399 C   0  0  0  0  0  0  0  0  0  0  0  0
   -1.2067   -7.3287   17.7772 C   0  0  0  0  0  0  0  0  0  0  0  0
   -0.0206  -10.5585   16.6210 C   0  0  0  0  0  0  0  0  0  0  0  0
    0.3696  -12.7626   16.2169 O   0  0  0  0  0  0  0  0  0  0  0  0
   -0.6895   -9.5676   17.3297 C   0  0  0  0  0  0  0  0  0  0  0  0
    0.8388   -5.8417   27.5264 C   0  0  0  0  0  0  0  0  0  0  0  0
   -2.0709   -7.6637   18.7817 C   0  0  0  0  0  0  0  0  0  0  0  0
   -0.5279   -8.2168   17.0717 C   0  0  0  0  0  0  0  0  0  0  0  0
    6.9694   -4.0191   27.8190 C   0  0  0  0  0  0  0  0  0  0  0  0
    5.1733   -4.5469   29.8123 C   0  0  0  0  0  0  0  0  0  0  0  0
   -1.7508  -11.3016   18.6072 C   0  0  0  0  0  0  0  0  0  0  0  0
    1.7497   -5.6771   26.4971 C   0  0  0  0  0  0  0  0  0  0  0  0
   -1.5799   -9.9322   18.3468 C   0  0  0  0  0  0  0  0  0  0  0  0
   -1.0871  -12.2214   17.8851 C   0  0  0  0  0  0  0  0  0  0  0  0
   -2.2706   -8.9669   19.0691 C   0  0  0  0  0  0  0  0  0  0  0  0
    3.0279   -5.3073   26.8197 C   0  0  0  0  0  0  0  0  0  0  0  0
    7.3282   -3.8948   29.1186 C   0  0  0  0  0  0  0  0  0  0  0  0
  1  3  4  0
  1  7  4  0
  2  3  1  0
  2  6  4  0
  2 16  4  0
  3 22  4  0
  4  9  4  0
  4 10  1  0
  4 20  4  0
  5 16  4  0
  5 23  4  0
  6 15  4  0
  7 12  4  0
  8 13  4  0
  8 14  4  0
  9 11  4  0
 11 14  4  0
 11 19  4  0
 12 18  4  0
 13 21  4  0
 15 23  4  0
 17 19  4  0
 17 20  4  0
 18 22  4  0
 19 21  4  0
M  END
$$$$

 Created by Python create_sdf_string function

 23 25  0  0  0  0  0  0  0  0999 V2000
    2.4610   -5.3070   29.1240 C   0  0  0  0  0  0  0  0  0  0  0  0
    4.7710   -4.6952   28.4803 C   0  0  0  0  0  0  0  0  0  0  0  0
    3.4047   -5.1087   28.1314 C   0  0  0  0  0  0  0  0  0  0  0  0
   -0.2234  -11.8615   16.8874 C   0  0  0  0  0  0  0  0  0  0  0  0
    6.4491   -4.1532   30.1213 C   0  0  0  0  0  0  0  0  0  0  0  0
    5.7060   -4.4340   27.4975 C   0  0  0  0  0  0  0  0  0  0  0  0
    1.1818   -5.6612   28.8399 C   0  0  0  0  0  0  0  0  0  0  0  0
   -1.2067   -7.3287   17.7772 C   0  0  0  0  0  0  0  0  0  0  0  0
   -0.0206  -10.5585   16.6210 C   0  0  0  0  0  0  0  0  0  0  0  0
    0.3696  -12.7626   16.2169 O   0  0  0  0  0  0  0  0  0  0  0  0
   -0.6895   -9.5676   17.3297 C   0  0  0  0  0  0  0  0  0  0  0  0
    0.8388   -5.8417   27.5264 C   0  0  0  0  0  0  0  0  0  0  0  0
   -2.0709   -7.6637   18.7817 C   0  0  0  0  0  0  0  0  0  0  0  0
   -0.5279   -8.2168   17.0717 C   0  0  0  0  0  0  0  0  0  0  0  0
    6.9694   -4.0191   27.8190 C   0  0  0  0  0  0  0  0  0  0  0  0
    5.1733   -4.5469   29.8123 C   0  0  0  0  0  0  0  0  0  0  0  0
   -1.7508  -11.3016   18.6072 C   0  0  0  0  0  0  0  0  0  0  0  0
    1.7497   -5.6771   26.4971 C   0  0  0  0  0  0  0  0  0  0  0  0
   -1.5799   -9.9322   18.3468 C   0  0  0  0  0  0  0  0  0  0  0  0
   -1.0871  -12.2214   17.8851 C   0  0  0  0  0  0  0  0  0  0  0  0
   -2.2706   -8.9669   19.0691 C   0  0  0  0  0  0  0  0  0  0  0  0
    3.0279   -5.3073   26.8197 C   0  0  0  0  0  0  0  0  0  0  0  0
    7.3282   -3.8948   29.1186 C   0  0  0  0  0  0  0  0  0  0  0  0
  1  3  4  0
  1  7  4  0
  2  3  1  0
  2  6  4  0
  2 16  4  0
  3 22  4  0
  4  9  4  0
  4 10  1  0
  4 20  4  0
  5 16  4  0
  5 23  4  0
  6 15  4  0
  7 12  4  0
  8 13  4  0
  8 14  4  0
  9 11  4  0
 11 14  4  0
 11 19  4  0
 12 18  4  0
 13 21  4  0
 15 23  4  0
 17 19  4  0
 17 20  4  0
 18 22  4  0
 19 21  4  0
M  END
$$$$

 Created by Python create_sdf_string function

 23 25  0  0  0  0  0  0  0  0999 V2000
    2.4610   -5.3070   29.1240 C   0  0  0  0  0  0  0  0  0  0  0  0
    4.7710   -4.6952   28.4803 C   0  0  0  0  0  0  0  0  0  0  0  0
    3.4047   -5.1087   28.1314 C   0  0  0  0  0  0  0  0  0  0  0  0
   -0.2234  -11.8615   16.8874 C   0  0  0  0  0  0  0  0  0  0  0  0
    6.4491   -4.1532   30.1213 C   0  0  0  0  0  0  0  0  0  0  0  0
    5.7060   -4.4340   27.4975 C   0  0  0  0  0  0  0  0  0  0  0  0
    1.1818   -5.6612   28.8399 C   0  0  0  0  0  0  0  0  0  0  0  0
   -1.2067   -7.3287   17.7772 C   0  0  0  0  0  0  0  0  0  0  0  0
   -0.0206  -10.5585   16.6210 C   0  0  0  0  0  0  0  0  0  0  0  0
    0.3696  -12.7626   16.2169 O   0  0  0  0  0  0  0  0  0  0  0  0
   -0.6895   -9.5676   17.3297 C   0  0  0  0  0  0  0  0  0  0  0  0
    0.8388   -5.8417   27.5264 C   0  0  0  0  0  0  0  0  0  0  0  0
   -2.0709   -7.6637   18.7817 C   0  0  0  0  0  0  0  0  0  0  0  0
   -0.5279   -8.2168   17.0717 C   0  0  0  0  0  0  0  0  0  0  0  0
    6.9694   -4.0191   27.8190 C   0  0  0  0  0  0  0  0  0  0  0  0
    5.1733   -4.5469   29.8123 C   0  0  0  0  0  0  0  0  0  0  0  0
   -1.7508  -11.3016   18.6072 C   0  0  0  0  0  0  0  0  0  0  0  0
    1.7497   -5.6771   26.4971 C   0  0  0  0  0  0  0  0  0  0  0  0
   -1.5799   -9.9322   18.3468 C   0  0  0  0  0  0  0  0  0  0  0  0
   -1.0871  -12.2214   17.8851 C   0  0  0  0  0  0  0  0  0  0  0  0
   -2.2706   -8.9669   19.0691 C   0  0  0  0  0  0  0  0  0  0  0  0
    3.0279   -5.3073   26.8197 C   0  0  0  0  0  0  0  0  0  0  0  0
    7.3282   -3.8948   29.1186 C   0  0  0  0  0  0  0  0  0  0  0  0
  1  3  4  0
  1  7  4  0
  2  3  1  0
  2  6  4  0
  2 16  4  0
  3 22  4  0
  4  9  4  0
  4 10  1  0
  4 20  4  0
  5 16  4  0
  5 23  4  0
  6 15  4  0
  7 12  4  0
  8 13  4  0
  8 14  4  0
  9 11  4  0
 11 14  4  0
 11 19  4  0
 12 18  4  0
 13 21  4  0
 15 23  4  0
 17 19  4  0
 17 20  4  0
 18 22  4  0
 19 21  4  0
M  END
$$$$

 Created by Python create_sdf_string function

 23 25  0  0  0  0  0  0  0  0999 V2000
    2.4610   -5.3070   29.1240 C   0  0  0  0  0  0  0  0  0  0  0  0
    4.7710   -4.6952   28.4803 C   0  0  0  0  0  0  0  0  0  0  0  0
    3.4047   -5.1087   28.1314 C   0  0  0  0  0  0  0  0  0  0  0  0
   -0.2234  -11.8615   16.8874 C   0  0  0  0  0  0  0  0  0  0  0  0
    6.4491   -4.1532   30.1213 C   0  0  0  0  0  0  0  0  0  0  0  0
    5.7060   -4.4340   27.4975 C   0  0  0  0  0  0  0  0  0  0  0  0
    1.1818   -5.6612   28.8399 C   0  0  0  0  0  0  0  0  0  0  0  0
   -1.2067   -7.3287   17.7772 C   0  0  0  0  0  0  0  0  0  0  0  0
   -0.0206  -10.5585   16.6210 C   0  0  0  0  0  0  0  0  0  0  0  0
    0.3696  -12.7626   16.2169 O   0  0  0  0  0  0  0  0  0  0  0  0
   -0.6895   -9.5676   17.3297 C   0  0  0  0  0  0  0  0  0  0  0  0
    0.8388   -5.8417   27.5264 C   0  0  0  0  0  0  0  0  0  0  0  0
   -2.0709   -7.6637   18.7817 C   0  0  0  0  0  0  0  0  0  0  0  0
   -0.5279   -8.2168   17.0717 C   0  0  0  0  0  0  0  0  0  0  0  0
    6.9694   -4.0191   27.8190 C   0  0  0  0  0  0  0  0  0  0  0  0
    5.1733   -4.5469   29.8123 C   0  0  0  0  0  0  0  0  0  0  0  0
   -1.7508  -11.3016   18.6072 C   0  0  0  0  0  0  0  0  0  0  0  0
    1.7497   -5.6771   26.4971 C   0  0  0  0  0  0  0  0  0  0  0  0
   -1.5799   -9.9322   18.3468 C   0  0  0  0  0  0  0  0  0  0  0  0
   -1.0871  -12.2214   17.8851 C   0  0  0  0  0  0  0  0  0  0  0  0
   -2.2706   -8.9669   19.0691 C   0  0  0  0  0  0  0  0  0  0  0  0
    3.0279   -5.3073   26.8197 C   0  0  0  0  0  0  0  0  0  0  0  0
    7.3282   -3.8948   29.1186 C   0  0  0  0  0  0  0  0  0  0  0  0
  1  3  4  0
  1  7  4  0
  2  3  1  0
  2  6  4  0
  2 16  4  0
  3 22  4  0
  4  9  4  0
  4 10  1  0
  4 20  4  0
  5 16  4  0
  5 23  4  0
  6 15  4  0
  7 12  4  0
  8 13  4  0
  8 14  4  0
  9 11  4  0
 11 14  4  0
 11 19  4  0
 12 18  4  0
 13 21  4  0
 15 23  4  0
 17 19  4  0
 17 20  4  0
 18 22  4  0
 19 21  4  0
M  END
$$$$

 Created by Python create_sdf_string function

 23 25  0  0  0  0  0  0  0  0999 V2000
    2.4610   -5.3070   29.1240 C   0  0  0  0  0  0  0  0  0  0  0  0
    4.7710   -4.6952   28.4803 C   0  0  0  0  0  0  0  0  0  0  0  0
    3.4047   -5.1087   28.1314 C   0  0  0  0  0  0  0  0  0  0  0  0
   -0.2234  -11.8615   16.8874 C   0  0  0  0  0  0  0  0  0  0  0  0
    6.4491   -4.1532   30.1213 C   0  0  0  0  0  0  0  0  0  0  0  0
    5.7060   -4.4340   27.4975 C   0  0  0  0  0  0  0  0  0  0  0  0
    1.1818   -5.6612   28.8399 C   0  0  0  0  0  0  0  0  0  0  0  0
   -1.2067   -7.3287   17.7772 C   0  0  0  0  0  0  0  0  0  0  0  0
   -0.0206  -10.5585   16.6210 C   0  0  0  0  0  0  0  0  0  0  0  0
    0.3696  -12.7626   16.2169 O   0  0  0  0  0  0  0  0  0  0  0  0
   -0.6895   -9.5676   17.3297 C   0  0  0  0  0  0  0  0  0  0  0  0
    0.8388   -5.8417   27.5264 C   0  0  0  0  0  0  0  0  0  0  0  0
   -2.0709   -7.6637   18.7817 C   0  0  0  0  0  0  0  0  0  0  0  0
   -0.5279   -8.2168   17.0717 C   0  0  0  0  0  0  0  0  0  0  0  0
    6.9694   -4.0191   27.8190 C   0  0  0  0  0  0  0  0  0  0  0  0
    5.1733   -4.5469   29.8123 C   0  0  0  0  0  0  0  0  0  0  0  0
   -1.7508  -11.3016   18.6072 C   0  0  0  0  0  0  0  0  0  0  0  0
    1.7497   -5.6771   26.4971 C   0  0  0  0  0  0  0  0  0  0  0  0
   -1.5799   -9.9322   18.3468 C   0  0  0  0  0  0  0  0  0  0  0  0
   -1.0871  -12.2214   17.8851 C   0  0  0  0  0  0  0  0  0  0  0  0
   -2.2706   -8.9669   19.0691 C   0  0  0  0  0  0  0  0  0  0  0  0
    3.0279   -5.3073   26.8197 C   0  0  0  0  0  0  0  0  0  0  0  0
    7.3282   -3.8948   29.1186 C   0  0  0  0  0  0  0  0  0  0  0  0
  1  3  4  0
  1  7  4  0
  2  3  1  0
  2  6  4  0
  2 16  4  0
  3 22  4  0
  4  9  4  0
  4 10  1  0
  4 20  4  0
  5 16  4  0
  5 23  4  0
  6 15  4  0
  7 12  4  0
  8 13  4  0
  8 14  4  0
  9 11  4  0
 11 14  4  0
 11 19  4  0
 12 18  4  0
 13 21  4  0
 15 23  4  0
 17 19  4  0
 17 20  4  0
 18 22  4  0
 19 21  4  0
M  END
$$$$

 Created by Python create_sdf_string function

 23 25  0  0  0  0  0  0  0  0999 V2000
    2.4610   -5.3070   29.1240 C   0  0  0  0  0  0  0  0  0  0  0  0
    4.7710   -4.6952   28.4803 C   0  0  0  0  0  0  0  0  0  0  0  0
    3.4047   -5.1087   28.1314 C   0  0  0  0  0  0  0  0  0  0  0  0
   -0.2234  -11.8615   16.8874 C   0  0  0  0  0  0  0  0  0  0  0  0
    6.4491   -4.1532   30.1213 C   0  0  0  0  0  0  0  0  0  0  0  0
    5.7060   -4.4340   27.4975 C   0  0  0  0  0  0  0  0  0  0  0  0
    1.1818   -5.6612   28.8399 C   0  0  0  0  0  0  0  0  0  0  0  0
   -1.2067   -7.3287   17.7772 C   0  0  0  0  0  0  0  0  0  0  0  0
   -0.0206  -10.5585   16.6210 C   0  0  0  0  0  0  0  0  0  0  0  0
    0.3696  -12.7626   16.2169 O   0  0  0  0  0  0  0  0  0  0  0  0
   -0.6895   -9.5676   17.3297 C   0  0  0  0  0  0  0  0  0  0  0  0
    0.8388   -5.8417   27.5264 C   0  0  0  0  0  0  0  0  0  0  0  0
   -2.0709   -7.6637   18.7817 C   0  0  0  0  0  0  0  0  0  0  0  0
   -0.5279   -8.2168   17.0717 C   0  0  0  0  0  0  0  0  0  0  0  0
    6.9694   -4.0191   27.8190 C   0  0  0  0  0  0  0  0  0  0  0  0
    5.1733   -4.5469   29.8123 C   0  0  0  0  0  0  0  0  0  0  0  0
   -1.7508  -11.3016   18.6072 C   0  0  0  0  0  0  0  0  0  0  0  0
    1.7497   -5.6771   26.4971 C   0  0  0  0  0  0  0  0  0  0  0  0
   -1.5799   -9.9322   18.3468 C   0  0  0  0  0  0  0  0  0  0  0  0
   -1.0871  -12.2214   17.8851 C   0  0  0  0  0  0  0  0  0  0  0  0
   -2.2706   -8.9669   19.0691 C   0  0  0  0  0  0  0  0  0  0  0  0
    3.0279   -5.3073   26.8197 C   0  0  0  0  0  0  0  0  0  0  0  0
    7.3282   -3.8948   29.1186 C   0  0  0  0  0  0  0  0  0  0  0  0
  1  3  4  0
  1  7  4  0
  2  3  1  0
  2  6  4  0
  2 16  4  0
  3 22  4  0
  4  9  4  0
  4 10  1  0
  4 20  4  0
  5 16  4  0
  5 23  4  0
  6 15  4  0
  7 12  4  0
  8 13  4  0
  8 14  4  0
  9 11  4  0
 11 14  4  0
 11 19  4  0
 12 18  4  0
 13 21  4  0
 15 23  4  0
 17 19  4  0
 17 20  4  0
 18 22  4  0
 19 21  4  0
M  END
$$$$

 Created by Python create_sdf_string function

 23 25  0  0  0  0  0  0  0  0999 V2000
    2.4610   -5.3070   29.1240 C   0  0  0  0  0  0  0  0  0  0  0  0
    4.7710   -4.6952   28.4803 C   0  0  0  0  0  0  0  0  0  0  0  0
    3.4047   -5.1087   28.1314 C   0  0  0  0  0  0  0  0  0  0  0  0
   -0.2234  -11.8615   16.8874 C   0  0  0  0  0  0  0  0  0  0  0  0
    6.4491   -4.1532   30.1213 C   0  0  0  0  0  0  0  0  0  0  0  0
    5.7060   -4.4340   27.4975 C   0  0  0  0  0  0  0  0  0  0  0  0
    1.1818   -5.6612   28.8399 C   0  0  0  0  0  0  0  0  0  0  0  0
   -1.2067   -7.3287   17.7772 C   0  0  0  0  0  0  0  0  0  0  0  0
   -0.0206  -10.5585   16.6210 C   0  0  0  0  0  0  0  0  0  0  0  0
    0.3696  -12.7626   16.2169 O   0  0  0  0  0  0  0  0  0  0  0  0
   -0.6895   -9.5676   17.3297 C   0  0  0  0  0  0  0  0  0  0  0  0
    0.8388   -5.8417   27.5264 C   0  0  0  0  0  0  0  0  0  0  0  0
   -2.0709   -7.6637   18.7817 C   0  0  0  0  0  0  0  0  0  0  0  0
   -0.5279   -8.2168   17.0717 C   0  0  0  0  0  0  0  0  0  0  0  0
    6.9694   -4.0191   27.8190 C   0  0  0  0  0  0  0  0  0  0  0  0
    5.1733   -4.5469   29.8123 C   0  0  0  0  0  0  0  0  0  0  0  0
   -1.7508  -11.3016   18.6072 C   0  0  0  0  0  0  0  0  0  0  0  0
    1.7497   -5.6771   26.4971 C   0  0  0  0  0  0  0  0  0  0  0  0
   -1.5799   -9.9322   18.3468 C   0  0  0  0  0  0  0  0  0  0  0  0
   -1.0871  -12.2214   17.8851 C   0  0  0  0  0  0  0  0  0  0  0  0
   -2.2706   -8.9669   19.0691 C   0  0  0  0  0  0  0  0  0  0  0  0
    3.0279   -5.3073   26.8197 C   0  0  0  0  0  0  0  0  0  0  0  0
    7.3282   -3.8948   29.1186 C   0  0  0  0  0  0  0  0  0  0  0  0
  1  3  4  0
  1  7  4  0
  2  3  1  0
  2  6  4  0
  2 16  4  0
  3 22  4  0
  4  9  4  0
  4 10  1  0
  4 20  4  0
  5 16  4  0
  5 23  4  0
  6 15  4  0
  7 12  4  0
  8 13  4  0
  8 14  4  0
  9 11  4  0
 11 14  4  0
 11 19  4  0
 12 18  4  0
 13 21  4  0
 15 23  4  0
 17 19  4  0
 17 20  4  0
 18 22  4  0
 19 21  4  0
M  END
$$$$

 Created by Python create_sdf_string function

 23 25  0  0  0  0  0  0  0  0999 V2000
    2.4610   -5.3070   29.1240 C   0  0  0  0  0  0  0  0  0  0  0  0
    4.7710   -4.6952   28.4803 C   0  0  0  0  0  0  0  0  0  0  0  0
    3.4047   -5.1087   28.1314 C   0  0  0  0  0  0  0  0  0  0  0  0
   -0.2234  -11.8615   16.8874 C   0  0  0  0  0  0  0  0  0  0  0  0
    6.4491   -4.1532   30.1213 C   0  0  0  0  0  0  0  0  0  0  0  0
    5.7060   -4.4340   27.4975 C   0  0  0  0  0  0  0  0  0  0  0  0
    1.1818   -5.6612   28.8399 C   0  0  0  0  0  0  0  0  0  0  0  0
   -1.2067   -7.3287   17.7772 C   0  0  0  0  0  0  0  0  0  0  0  0
   -0.0206  -10.5585   16.6210 C   0  0  0  0  0  0  0  0  0  0  0  0
    0.3696  -12.7626   16.2169 O   0  0  0  0  0  0  0  0  0  0  0  0
   -0.6895   -9.5676   17.3297 C   0  0  0  0  0  0  0  0  0  0  0  0
    0.8388   -5.8417   27.5264 C   0  0  0  0  0  0  0  0  0  0  0  0
   -2.0709   -7.6637   18.7817 C   0  0  0  0  0  0  0  0  0  0  0  0
   -0.5279   -8.2168   17.0717 C   0  0  0  0  0  0  0  0  0  0  0  0
    6.9694   -4.0191   27.8190 C   0  0  0  0  0  0  0  0  0  0  0  0
    5.1733   -4.5469   29.8123 C   0  0  0  0  0  0  0  0  0  0  0  0
   -1.7508  -11.3016   18.6072 C   0  0  0  0  0  0  0  0  0  0  0  0
    1.7497   -5.6771   26.4971 C   0  0  0  0  0  0  0  0  0  0  0  0
   -1.5799   -9.9322   18.3468 C   0  0  0  0  0  0  0  0  0  0  0  0
   -1.0871  -12.2214   17.8851 C   0  0  0  0  0  0  0  0  0  0  0  0
   -2.2706   -8.9669   19.0691 C   0  0  0  0  0  0  0  0  0  0  0  0
    3.0279   -5.3073   26.8197 C   0  0  0  0  0  0  0  0  0  0  0  0
    7.3282   -3.8948   29.1186 C   0  0  0  0  0  0  0  0  0  0  0  0
  1  3  4  0
  1  7  4  0
  2  3  1  0
  2  6  4  0
  2 16  4  0
  3 22  4  0
  4  9  4  0
  4 10  1  0
  4 20  4  0
  5 16  4  0
  5 23  4  0
  6 15  4  0
  7 12  4  0
  8 13  4  0
  8 14  4  0
  9 11  4  0
 11 14  4  0
 11 19  4  0
 12 18  4  0
 13 21  4  0
 15 23  4  0
 17 19  4  0
 17 20  4  0
 18 22  4  0
 19 21  4  0
M  END
$$$$

 Created by Python create_sdf_string function

 23 25  0  0  0  0  0  0  0  0999 V2000
    2.4610   -5.3070   29.1240 C   0  0  0  0  0  0  0  0  0  0  0  0
    4.7710   -4.6952   28.4803 C   0  0  0  0  0  0  0  0  0  0  0  0
    3.4047   -5.1087   28.1314 C   0  0  0  0  0  0  0  0  0  0  0  0
   -0.2234  -11.8615   16.8874 C   0  0  0  0  0  0  0  0  0  0  0  0
    6.4491   -4.1532   30.1213 C   0  0  0  0  0  0  0  0  0  0  0  0
    5.7060   -4.4340   27.4975 C   0  0  0  0  0  0  0  0  0  0  0  0
    1.1818   -5.6612   28.8399 C   0  0  0  0  0  0  0  0  0  0  0  0
   -1.2067   -7.3287   17.7772 C   0  0  0  0  0  0  0  0  0  0  0  0
   -0.0206  -10.5585   16.6210 C   0  0  0  0  0  0  0  0  0  0  0  0
    0.3696  -12.7626   16.2169 O   0  0  0  0  0  0  0  0  0  0  0  0
   -0.6895   -9.5676   17.3297 C   0  0  0  0  0  0  0  0  0  0  0  0
    0.8388   -5.8417   27.5264 C   0  0  0  0  0  0  0  0  0  0  0  0
   -2.0709   -7.6637   18.7817 C   0  0  0  0  0  0  0  0  0  0  0  0
   -0.5279   -8.2168   17.0717 C   0  0  0  0  0  0  0  0  0  0  0  0
    6.9694   -4.0191   27.8190 C   0  0  0  0  0  0  0  0  0  0  0  0
    5.1733   -4.5469   29.8123 C   0  0  0  0  0  0  0  0  0  0  0  0
   -1.7508  -11.3016   18.6072 C   0  0  0  0  0  0  0  0  0  0  0  0
    1.7497   -5.6771   26.4971 C   0  0  0  0  0  0  0  0  0  0  0  0
   -1.5799   -9.9322   18.3468 C   0  0  0  0  0  0  0  0  0  0  0  0
   -1.0871  -12.2214   17.8851 C   0  0  0  0  0  0  0  0  0  0  0  0
   -2.2706   -8.9669   19.0691 C   0  0  0  0  0  0  0  0  0  0  0  0
    3.0279   -5.3073   26.8197 C   0  0  0  0  0  0  0  0  0  0  0  0
    7.3282   -3.8948   29.1186 C   0  0  0  0  0  0  0  0  0  0  0  0
  1  3  4  0
  1  7  4  0
  2  3  1  0
  2  6  4  0
  2 16  4  0
  3 22  4  0
  4  9  4  0
  4 10  1  0
  4 20  4  0
  5 16  4  0
  5 23  4  0
  6 15  4  0
  7 12  4  0
  8 13  4  0
  8 14  4  0
  9 11  4  0
 11 14  4  0
 11 19  4  0
 12 18  4  0
 13 21  4  0
 15 23  4  0
 17 19  4  0
 17 20  4  0
 18 22  4  0
 19 21  4  0
M  END
$$$$

 Created by Python create_sdf_string function

 23 25  0  0  0  0  0  0  0  0999 V2000
    2.4610   -5.3070   29.1240 C   0  0  0  0  0  0  0  0  0  0  0  0
    4.7710   -4.6952   28.4803 C   0  0  0  0  0  0  0  0  0  0  0  0
    3.4047   -5.1087   28.1314 C   0  0  0  0  0  0  0  0  0  0  0  0
   -0.2234  -11.8615   16.8874 C   0  0  0  0  0  0  0  0  0  0  0  0
    6.4491   -4.1532   30.1213 C   0  0  0  0  0  0  0  0  0  0  0  0
    5.7060   -4.4340   27.4975 C   0  0  0  0  0  0  0  0  0  0  0  0
    1.1818   -5.6612   28.8399 C   0  0  0  0  0  0  0  0  0  0  0  0
   -1.2067   -7.3287   17.7772 C   0  0  0  0  0  0  0  0  0  0  0  0
   -0.0206  -10.5585   16.6210 C   0  0  0  0  0  0  0  0  0  0  0  0
    0.3696  -12.7626   16.2169 O   0  0  0  0  0  0  0  0  0  0  0  0
   -0.6895   -9.5676   17.3297 C   0  0  0  0  0  0  0  0  0  0  0  0
    0.8388   -5.8417   27.5264 C   0  0  0  0  0  0  0  0  0  0  0  0
   -2.0709   -7.6637   18.7817 C   0  0  0  0  0  0  0  0  0  0  0  0
   -0.5279   -8.2168   17.0717 C   0  0  0  0  0  0  0  0  0  0  0  0
    6.9694   -4.0191   27.8190 C   0  0  0  0  0  0  0  0  0  0  0  0
    5.1733   -4.5469   29.8123 C   0  0  0  0  0  0  0  0  0  0  0  0
   -1.7508  -11.3016   18.6072 C   0  0  0  0  0  0  0  0  0  0  0  0
    1.7497   -5.6771   26.4971 C   0  0  0  0  0  0  0  0  0  0  0  0
   -1.5799   -9.9322   18.3468 C   0  0  0  0  0  0  0  0  0  0  0  0
   -1.0871  -12.2214   17.8851 C   0  0  0  0  0  0  0  0  0  0  0  0
   -2.2706   -8.9669   19.0691 C   0  0  0  0  0  0  0  0  0  0  0  0
    3.0279   -5.3073   26.8197 C   0  0  0  0  0  0  0  0  0  0  0  0
    7.3282   -3.8948   29.1186 C   0  0  0  0  0  0  0  0  0  0  0  0
  1  3  4  0
  1  7  4  0
  2  3  1  0
  2  6  4  0
  2 16  4  0
  3 22  4  0
  4  9  4  0
  4 10  1  0
  4 20  4  0
  5 16  4  0
  5 23  4  0
  6 15  4  0
  7 12  4  0
  8 13  4  0
  8 14  4  0
  9 11  4  0
 11 14  4  0
 11 19  4  0
 12 18  4  0
 13 21  4  0
 15 23  4  0
 17 19  4  0
 17 20  4  0
 18 22  4  0
 19 21  4  0
M  END
$$$$

 Created by Python create_sdf_string function

 23 25  0  0  0  0  0  0  0  0999 V2000
    2.4610   -5.3070   29.1240 C   0  0  0  0  0  0  0  0  0  0  0  0
    4.7710   -4.6952   28.4803 C   0  0  0  0  0  0  0  0  0  0  0  0
    3.4047   -5.1087   28.1314 C   0  0  0  0  0  0  0  0  0  0  0  0
   -0.2234  -11.8615   16.8874 C   0  0  0  0  0  0  0  0  0  0  0  0
    6.4491   -4.1532   30.1213 C   0  0  0  0  0  0  0  0  0  0  0  0
    5.7060   -4.4340   27.4975 C   0  0  0  0  0  0  0  0  0  0  0  0
    1.1818   -5.6612   28.8399 C   0  0  0  0  0  0  0  0  0  0  0  0
   -1.2067   -7.3287   17.7772 C   0  0  0  0  0  0  0  0  0  0  0  0
   -0.0206  -10.5585   16.6210 C   0  0  0  0  0  0  0  0  0  0  0  0
    0.3696  -12.7626   16.2169 O   0  0  0  0  0  0  0  0  0  0  0  0
   -0.6895   -9.5676   17.3297 C   0  0  0  0  0  0  0  0  0  0  0  0
    0.8388   -5.8417   27.5264 C   0  0  0  0  0  0  0  0  0  0  0  0
   -2.0709   -7.6637   18.7817 C   0  0  0  0  0  0  0  0  0  0  0  0
   -0.5279   -8.2168   17.0717 C   0  0  0  0  0  0  0  0  0  0  0  0
    6.9694   -4.0191   27.8190 C   0  0  0  0  0  0  0  0  0  0  0  0
    5.1733   -4.5469   29.8123 C   0  0  0  0  0  0  0  0  0  0  0  0
   -1.7508  -11.3016   18.6072 C   0  0  0  0  0  0  0  0  0  0  0  0
    1.7497   -5.6771   26.4971 C   0  0  0  0  0  0  0  0  0  0  0  0
   -1.5799   -9.9322   18.3468 C   0  0  0  0  0  0  0  0  0  0  0  0
   -1.0871  -12.2214   17.8851 C   0  0  0  0  0  0  0  0  0  0  0  0
   -2.2706   -8.9669   19.0691 C   0  0  0  0  0  0  0  0  0  0  0  0
    3.0279   -5.3073   26.8197 C   0  0  0  0  0  0  0  0  0  0  0  0
    7.3282   -3.8948   29.1186 C   0  0  0  0  0  0  0  0  0  0  0  0
  1  3  4  0
  1  7  4  0
  2  3  1  0
  2  6  4  0
  2 16  4  0
  3 22  4  0
  4  9  4  0
  4 10  1  0
  4 20  4  0
  5 16  4  0
  5 23  4  0
  6 15  4  0
  7 12  4  0
  8 13  4  0
  8 14  4  0
  9 11  4  0
 11 14  4  0
 11 19  4  0
 12 18  4  0
 13 21  4  0
 15 23  4  0
 17 19  4  0
 17 20  4  0
 18 22  4  0
 19 21  4  0
M  END
$$$$

 Created by Python create_sdf_string function

 23 25  0  0  0  0  0  0  0  0999 V2000
    2.4610   -5.3070   29.1240 C   0  0  0  0  0  0  0  0  0  0  0  0
    4.7710   -4.6952   28.4803 C   0  0  0  0  0  0  0  0  0  0  0  0
    3.4047   -5.1087   28.1314 C   0  0  0  0  0  0  0  0  0  0  0  0
   -0.2234  -11.8615   16.8874 C   0  0  0  0  0  0  0  0  0  0  0  0
    6.4491   -4.1532   30.1213 C   0  0  0  0  0  0  0  0  0  0  0  0
    5.7060   -4.4340   27.4975 C   0  0  0  0  0  0  0  0  0  0  0  0
    1.1818   -5.6612   28.8399 C   0  0  0  0  0  0  0  0  0  0  0  0
   -1.2067   -7.3287   17.7772 C   0  0  0  0  0  0  0  0  0  0  0  0
   -0.0206  -10.5585   16.6210 C   0  0  0  0  0  0  0  0  0  0  0  0
    0.3696  -12.7626   16.2169 O   0  0  0  0  0  0  0  0  0  0  0  0
   -0.6895   -9.5676   17.3297 C   0  0  0  0  0  0  0  0  0  0  0  0
    0.8388   -5.8417   27.5264 C   0  0  0  0  0  0  0  0  0  0  0  0
   -2.0709   -7.6637   18.7817 C   0  0  0  0  0  0  0  0  0  0  0  0
   -0.5279   -8.2168   17.0717 C   0  0  0  0  0  0  0  0  0  0  0  0
    6.9694   -4.0191   27.8190 C   0  0  0  0  0  0  0  0  0  0  0  0
    5.1733   -4.5469   29.8123 C   0  0  0  0  0  0  0  0  0  0  0  0
   -1.7508  -11.3016   18.6072 C   0  0  0  0  0  0  0  0  0  0  0  0
    1.7497   -5.6771   26.4971 C   0  0  0  0  0  0  0  0  0  0  0  0
   -1.5799   -9.9322   18.3468 C   0  0  0  0  0  0  0  0  0  0  0  0
   -1.0871  -12.2214   17.8851 C   0  0  0  0  0  0  0  0  0  0  0  0
   -2.2706   -8.9669   19.0691 C   0  0  0  0  0  0  0  0  0  0  0  0
    3.0279   -5.3073   26.8197 C   0  0  0  0  0  0  0  0  0  0  0  0
    7.3282   -3.8948   29.1186 C   0  0  0  0  0  0  0  0  0  0  0  0
  1  3  4  0
  1  7  4  0
  2  3  1  0
  2  6  4  0
  2 16  4  0
  3 22  4  0
  4  9  4  0
  4 10  1  0
  4 20  4  0
  5 16  4  0
  5 23  4  0
  6 15  4  0
  7 12  4  0
  8 13  4  0
  8 14  4  0
  9 11  4  0
 11 14  4  0
 11 19  4  0
 12 18  4  0
 13 21  4  0
 15 23  4  0
 17 19  4  0
 17 20  4  0
 18 22  4  0
 19 21  4  0
M  END
$$$$

 Created by Python create_sdf_string function

 23 25  0  0  0  0  0  0  0  0999 V2000
    2.4610   -5.3070   29.1240 C   0  0  0  0  0  0  0  0  0  0  0  0
    4.7710   -4.6952   28.4803 C   0  0  0  0  0  0  0  0  0  0  0  0
    3.4047   -5.1087   28.1314 C   0  0  0  0  0  0  0  0  0  0  0  0
   -0.2234  -11.8615   16.8874 C   0  0  0  0  0  0  0  0  0  0  0  0
    6.4491   -4.1532   30.1213 C   0  0  0  0  0  0  0  0  0  0  0  0
    5.7060   -4.4340   27.4975 C   0  0  0  0  0  0  0  0  0  0  0  0
    1.1818   -5.6612   28.8399 C   0  0  0  0  0  0  0  0  0  0  0  0
   -1.2067   -7.3287   17.7772 C   0  0  0  0  0  0  0  0  0  0  0  0
   -0.0206  -10.5585   16.6210 C   0  0  0  0  0  0  0  0  0  0  0  0
    0.3696  -12.7626   16.2169 O   0  0  0  0  0  0  0  0  0  0  0  0
   -0.6895   -9.5676   17.3297 C   0  0  0  0  0  0  0  0  0  0  0  0
    0.8388   -5.8417   27.5264 C   0  0  0  0  0  0  0  0  0  0  0  0
   -2.0709   -7.6637   18.7817 C   0  0  0  0  0  0  0  0  0  0  0  0
   -0.5279   -8.2168   17.0717 C   0  0  0  0  0  0  0  0  0  0  0  0
    6.9694   -4.0191   27.8190 C   0  0  0  0  0  0  0  0  0  0  0  0
    5.1733   -4.5469   29.8123 C   0  0  0  0  0  0  0  0  0  0  0  0
   -1.7508  -11.3016   18.6072 C   0  0  0  0  0  0  0  0  0  0  0  0
    1.7497   -5.6771   26.4971 C   0  0  0  0  0  0  0  0  0  0  0  0
   -1.5799   -9.9322   18.3468 C   0  0  0  0  0  0  0  0  0  0  0  0
   -1.0871  -12.2214   17.8851 C   0  0  0  0  0  0  0  0  0  0  0  0
   -2.2706   -8.9669   19.0691 C   0  0  0  0  0  0  0  0  0  0  0  0
    3.0279   -5.3073   26.8197 C   0  0  0  0  0  0  0  0  0  0  0  0
    7.3282   -3.8948   29.1186 C   0  0  0  0  0  0  0  0  0  0  0  0
  1  3  4  0
  1  7  4  0
  2  3  1  0
  2  6  4  0
  2 16  4  0
  3 22  4  0
  4  9  4  0
  4 10  1  0
  4 20  4  0
  5 16  4  0
  5 23  4  0
  6 15  4  0
  7 12  4  0
  8 13  4  0
  8 14  4  0
  9 11  4  0
 11 14  4  0
 11 19  4  0
 12 18  4  0
 13 21  4  0
 15 23  4  0
 17 19  4  0
 17 20  4  0
 18 22  4  0
 19 21  4  0
M  END
$$$$

 Created by Python create_sdf_string function

 23 25  0  0  0  0  0  0  0  0999 V2000
    2.4610   -5.3070   29.1240 C   0  0  0  0  0  0  0  0  0  0  0  0
    4.7710   -4.6952   28.4803 C   0  0  0  0  0  0  0  0  0  0  0  0
    3.4047   -5.1087   28.1314 C   0  0  0  0  0  0  0  0  0  0  0  0
   -0.2234  -11.8615   16.8874 C   0  0  0  0  0  0  0  0  0  0  0  0
    6.4491   -4.1532   30.1213 C   0  0  0  0  0  0  0  0  0  0  0  0
    5.7060   -4.4340   27.4975 C   0  0  0  0  0  0  0  0  0  0  0  0
    1.1818   -5.6612   28.8399 C   0  0  0  0  0  0  0  0  0  0  0  0
   -1.2067   -7.3287   17.7772 C   0  0  0  0  0  0  0  0  0  0  0  0
   -0.0206  -10.5585   16.6210 C   0  0  0  0  0  0  0  0  0  0  0  0
    0.3696  -12.7626   16.2169 O   0  0  0  0  0  0  0  0  0  0  0  0
   -0.6895   -9.5676   17.3297 C   0  0  0  0  0  0  0  0  0  0  0  0
    0.8388   -5.8417   27.5264 C   0  0  0  0  0  0  0  0  0  0  0  0
   -2.0709   -7.6637   18.7817 C   0  0  0  0  0  0  0  0  0  0  0  0
   -0.5279   -8.2168   17.0717 C   0  0  0  0  0  0  0  0  0  0  0  0
    6.9694   -4.0191   27.8190 C   0  0  0  0  0  0  0  0  0  0  0  0
    5.1733   -4.5469   29.8123 C   0  0  0  0  0  0  0  0  0  0  0  0
   -1.7508  -11.3016   18.6072 C   0  0  0  0  0  0  0  0  0  0  0  0
    1.7497   -5.6771   26.4971 C   0  0  0  0  0  0  0  0  0  0  0  0
   -1.5799   -9.9322   18.3468 C   0  0  0  0  0  0  0  0  0  0  0  0
   -1.0871  -12.2214   17.8851 C   0  0  0  0  0  0  0  0  0  0  0  0
   -2.2706   -8.9669   19.0691 C   0  0  0  0  0  0  0  0  0  0  0  0
    3.0279   -5.3073   26.8197 C   0  0  0  0  0  0  0  0  0  0  0  0
    7.3282   -3.8948   29.1186 C   0  0  0  0  0  0  0  0  0  0  0  0
  1  3  4  0
  1  7  4  0
  2  3  1  0
  2  6  4  0
  2 16  4  0
  3 22  4  0
  4  9  4  0
  4 10  1  0
  4 20  4  0
  5 16  4  0
  5 23  4  0
  6 15  4  0
  7 12  4  0
  8 13  4  0
  8 14  4  0
  9 11  4  0
 11 14  4  0
 11 19  4  0
 12 18  4  0
 13 21  4  0
 15 23  4  0
 17 19  4  0
 17 20  4  0
 18 22  4  0
 19 21  4  0
M  END
$$$$

 Created by Python create_sdf_string function

 23 25  0  0  0  0  0  0  0  0999 V2000
    2.4610   -5.3070   29.1240 C   0  0  0  0  0  0  0  0  0  0  0  0
    4.7710   -4.6952   28.4803 C   0  0  0  0  0  0  0  0  0  0  0  0
    3.4047   -5.1087   28.1314 C   0  0  0  0  0  0  0  0  0  0  0  0
   -0.2234  -11.8615   16.8874 C   0  0  0  0  0  0  0  0  0  0  0  0
    6.4491   -4.1532   30.1213 C   0  0  0  0  0  0  0  0  0  0  0  0
    5.7060   -4.4340   27.4975 C   0  0  0  0  0  0  0  0  0  0  0  0
    1.1818   -5.6612   28.8399 C   0  0  0  0  0  0  0  0  0  0  0  0
   -1.2067   -7.3287   17.7772 C   0  0  0  0  0  0  0  0  0  0  0  0
   -0.0206  -10.5585   16.6210 C   0  0  0  0  0  0  0  0  0  0  0  0
    0.3696  -12.7626   16.2169 O   0  0  0  0  0  0  0  0  0  0  0  0
   -0.6895   -9.5676   17.3297 C   0  0  0  0  0  0  0  0  0  0  0  0
    0.8388   -5.8417   27.5264 C   0  0  0  0  0  0  0  0  0  0  0  0
   -2.0709   -7.6637   18.7817 C   0  0  0  0  0  0  0  0  0  0  0  0
   -0.5279   -8.2168   17.0717 C   0  0  0  0  0  0  0  0  0  0  0  0
    6.9694   -4.0191   27.8190 C   0  0  0  0  0  0  0  0  0  0  0  0
    5.1733   -4.5469   29.8123 C   0  0  0  0  0  0  0  0  0  0  0  0
   -1.7508  -11.3016   18.6072 C   0  0  0  0  0  0  0  0  0  0  0  0
    1.7497   -5.6771   26.4971 C   0  0  0  0  0  0  0  0  0  0  0  0
   -1.5799   -9.9322   18.3468 C   0  0  0  0  0  0  0  0  0  0  0  0
   -1.0871  -12.2214   17.8851 C   0  0  0  0  0  0  0  0  0  0  0  0
   -2.2706   -8.9669   19.0691 C   0  0  0  0  0  0  0  0  0  0  0  0
    3.0279   -5.3073   26.8197 C   0  0  0  0  0  0  0  0  0  0  0  0
    7.3282   -3.8948   29.1186 C   0  0  0  0  0  0  0  0  0  0  0  0
  1  3  4  0
  1  7  4  0
  2  3  1  0
  2  6  4  0
  2 16  4  0
  3 22  4  0
  4  9  4  0
  4 10  1  0
  4 20  4  0
  5 16  4  0
  5 23  4  0
  6 15  4  0
  7 12  4  0
  8 13  4  0
  8 14  4  0
  9 11  4  0
 11 14  4  0
 11 19  4  0
 12 18  4  0
 13 21  4  0
 15 23  4  0
 17 19  4  0
 17 20  4  0
 18 22  4  0
 19 21  4  0
M  END
$$$$

 Created by Python create_sdf_string function

 23 25  0  0  0  0  0  0  0  0999 V2000
    2.4610   -5.3070   29.1240 C   0  0  0  0  0  0  0  0  0  0  0  0
    4.7710   -4.6952   28.4803 C   0  0  0  0  0  0  0  0  0  0  0  0
    3.4047   -5.1087   28.1314 C   0  0  0  0  0  0  0  0  0  0  0  0
   -0.2234  -11.8615   16.8874 C   0  0  0  0  0  0  0  0  0  0  0  0
    6.4491   -4.1532   30.1213 C   0  0  0  0  0  0  0  0  0  0  0  0
    5.7060   -4.4340   27.4975 C   0  0  0  0  0  0  0  0  0  0  0  0
    1.1818   -5.6612   28.8399 C   0  0  0  0  0  0  0  0  0  0  0  0
   -1.2067   -7.3287   17.7772 C   0  0  0  0  0  0  0  0  0  0  0  0
   -0.0206  -10.5585   16.6210 C   0  0  0  0  0  0  0  0  0  0  0  0
    0.3696  -12.7626   16.2169 O   0  0  0  0  0  0  0  0  0  0  0  0
   -0.6895   -9.5676   17.3297 C   0  0  0  0  0  0  0  0  0  0  0  0
    0.8388   -5.8417   27.5264 C   0  0  0  0  0  0  0  0  0  0  0  0
   -2.0709   -7.6637   18.7817 C   0  0  0  0  0  0  0  0  0  0  0  0
   -0.5279   -8.2168   17.0717 C   0  0  0  0  0  0  0  0  0  0  0  0
    6.9694   -4.0191   27.8190 C   0  0  0  0  0  0  0  0  0  0  0  0
    5.1733   -4.5469   29.8123 C   0  0  0  0  0  0  0  0  0  0  0  0
   -1.7508  -11.3016   18.6072 C   0  0  0  0  0  0  0  0  0  0  0  0
    1.7497   -5.6771   26.4971 C   0  0  0  0  0  0  0  0  0  0  0  0
   -1.5799   -9.9322   18.3468 C   0  0  0  0  0  0  0  0  0  0  0  0
   -1.0871  -12.2214   17.8851 C   0  0  0  0  0  0  0  0  0  0  0  0
   -2.2706   -8.9669   19.0691 C   0  0  0  0  0  0  0  0  0  0  0  0
    3.0279   -5.3073   26.8197 C   0  0  0  0  0  0  0  0  0  0  0  0
    7.3282   -3.8948   29.1186 C   0  0  0  0  0  0  0  0  0  0  0  0
  1  3  4  0
  1  7  4  0
  2  3  1  0
  2  6  4  0
  2 16  4  0
  3 22  4  0
  4  9  4  0
  4 10  1  0
  4 20  4  0
  5 16  4  0
  5 23  4  0
  6 15  4  0
  7 12  4  0
  8 13  4  0
  8 14  4  0
  9 11  4  0
 11 14  4  0
 11 19  4  0
 12 18  4  0
 13 21  4  0
 15 23  4  0
 17 19  4  0
 17 20  4  0
 18 22  4  0
 19 21  4  0
M  END
$$$$

 Created by Python create_sdf_string function

 23 25  0  0  0  0  0  0  0  0999 V2000
    2.4610   -5.3070   29.1240 C   0  0  0  0  0  0  0  0  0  0  0  0
    4.7710   -4.6952   28.4803 C   0  0  0  0  0  0  0  0  0  0  0  0
    3.4047   -5.1087   28.1314 C   0  0  0  0  0  0  0  0  0  0  0  0
   -0.2234  -11.8615   16.8874 C   0  0  0  0  0  0  0  0  0  0  0  0
    6.4491   -4.1532   30.1213 C   0  0  0  0  0  0  0  0  0  0  0  0
    5.7060   -4.4340   27.4975 C   0  0  0  0  0  0  0  0  0  0  0  0
    1.1818   -5.6612   28.8399 C   0  0  0  0  0  0  0  0  0  0  0  0
   -1.2067   -7.3287   17.7772 C   0  0  0  0  0  0  0  0  0  0  0  0
   -0.0206  -10.5585   16.6210 C   0  0  0  0  0  0  0  0  0  0  0  0
    0.3696  -12.7626   16.2169 O   0  0  0  0  0  0  0  0  0  0  0  0
   -0.6895   -9.5676   17.3297 C   0  0  0  0  0  0  0  0  0  0  0  0
    0.8388   -5.8417   27.5264 C   0  0  0  0  0  0  0  0  0  0  0  0
   -2.0709   -7.6637   18.7817 C   0  0  0  0  0  0  0  0  0  0  0  0
   -0.5279   -8.2168   17.0717 C   0  0  0  0  0  0  0  0  0  0  0  0
    6.9694   -4.0191   27.8190 C   0  0  0  0  0  0  0  0  0  0  0  0
    5.1733   -4.5469   29.8123 C   0  0  0  0  0  0  0  0  0  0  0  0
   -1.7508  -11.3016   18.6072 C   0  0  0  0  0  0  0  0  0  0  0  0
    1.7497   -5.6771   26.4971 C   0  0  0  0  0  0  0  0  0  0  0  0
   -1.5799   -9.9322   18.3468 C   0  0  0  0  0  0  0  0  0  0  0  0
   -1.0871  -12.2214   17.8851 C   0  0  0  0  0  0  0  0  0  0  0  0
   -2.2706   -8.9669   19.0691 C   0  0  0  0  0  0  0  0  0  0  0  0
    3.0279   -5.3073   26.8197 C   0  0  0  0  0  0  0  0  0  0  0  0
    7.3282   -3.8948   29.1186 C   0  0  0  0  0  0  0  0  0  0  0  0
  1  3  4  0
  1  7  4  0
  2  3  1  0
  2  6  4  0
  2 16  4  0
  3 22  4  0
  4  9  4  0
  4 10  1  0
  4 20  4  0
  5 16  4  0
  5 23  4  0
  6 15  4  0
  7 12  4  0
  8 13  4  0
  8 14  4  0
  9 11  4  0
 11 14  4  0
 11 19  4  0
 12 18  4  0
 13 21  4  0
 15 23  4  0
 17 19  4  0
 17 20  4  0
 18 22  4  0
 19 21  4  0
M  END
$$$$

 Created by Python create_sdf_string function

 23 25  0  0  0  0  0  0  0  0999 V2000
    2.4610   -5.3070   29.1240 C   0  0  0  0  0  0  0  0  0  0  0  0
    4.7710   -4.6952   28.4803 C   0  0  0  0  0  0  0  0  0  0  0  0
    3.4047   -5.1087   28.1314 C   0  0  0  0  0  0  0  0  0  0  0  0
   -0.2234  -11.8615   16.8874 C   0  0  0  0  0  0  0  0  0  0  0  0
    6.4491   -4.1532   30.1213 C   0  0  0  0  0  0  0  0  0  0  0  0
    5.7060   -4.4340   27.4975 C   0  0  0  0  0  0  0  0  0  0  0  0
    1.1818   -5.6612   28.8399 C   0  0  0  0  0  0  0  0  0  0  0  0
   -1.2067   -7.3287   17.7772 C   0  0  0  0  0  0  0  0  0  0  0  0
   -0.0206  -10.5585   16.6210 C   0  0  0  0  0  0  0  0  0  0  0  0
    0.3696  -12.7626   16.2169 O   0  0  0  0  0  0  0  0  0  0  0  0
   -0.6895   -9.5676   17.3297 C   0  0  0  0  0  0  0  0  0  0  0  0
    0.8388   -5.8417   27.5264 C   0  0  0  0  0  0  0  0  0  0  0  0
   -2.0709   -7.6637   18.7817 C   0  0  0  0  0  0  0  0  0  0  0  0
   -0.5279   -8.2168   17.0717 C   0  0  0  0  0  0  0  0  0  0  0  0
    6.9694   -4.0191   27.8190 C   0  0  0  0  0  0  0  0  0  0  0  0
    5.1733   -4.5469   29.8123 C   0  0  0  0  0  0  0  0  0  0  0  0
   -1.7508  -11.3016   18.6072 C   0  0  0  0  0  0  0  0  0  0  0  0
    1.7497   -5.6771   26.4971 C   0  0  0  0  0  0  0  0  0  0  0  0
   -1.5799   -9.9322   18.3468 C   0  0  0  0  0  0  0  0  0  0  0  0
   -1.0871  -12.2214   17.8851 C   0  0  0  0  0  0  0  0  0  0  0  0
   -2.2706   -8.9669   19.0691 C   0  0  0  0  0  0  0  0  0  0  0  0
    3.0279   -5.3073   26.8197 C   0  0  0  0  0  0  0  0  0  0  0  0
    7.3282   -3.8948   29.1186 C   0  0  0  0  0  0  0  0  0  0  0  0
  1  3  4  0
  1  7  4  0
  2  3  1  0
  2  6  4  0
  2 16  4  0
  3 22  4  0
  4  9  4  0
  4 10  1  0
  4 20  4  0
  5 16  4  0
  5 23  4  0
  6 15  4  0
  7 12  4  0
  8 13  4  0
  8 14  4  0
  9 11  4  0
 11 14  4  0
 11 19  4  0
 12 18  4  0
 13 21  4  0
 15 23  4  0
 17 19  4  0
 17 20  4  0
 18 22  4  0
 19 21  4  0
M  END
$$$$

 Created by Python create_sdf_string function

 23 25  0  0  0  0  0  0  0  0999 V2000
    2.4610   -5.3070   29.1240 C   0  0  0  0  0  0  0  0  0  0  0  0
    4.7710   -4.6952   28.4803 C   0  0  0  0  0  0  0  0  0  0  0  0
    3.4047   -5.1087   28.1314 C   0  0  0  0  0  0  0  0  0  0  0  0
   -0.2234  -11.8615   16.8874 C   0  0  0  0  0  0  0  0  0  0  0  0
    6.4491   -4.1532   30.1213 C   0  0  0  0  0  0  0  0  0  0  0  0
    5.7060   -4.4340   27.4975 C   0  0  0  0  0  0  0  0  0  0  0  0
    1.1818   -5.6612   28.8399 C   0  0  0  0  0  0  0  0  0  0  0  0
   -1.2067   -7.3287   17.7772 C   0  0  0  0  0  0  0  0  0  0  0  0
   -0.0206  -10.5585   16.6210 C   0  0  0  0  0  0  0  0  0  0  0  0
    0.3696  -12.7626   16.2169 O   0  0  0  0  0  0  0  0  0  0  0  0
   -0.6895   -9.5676   17.3297 C   0  0  0  0  0  0  0  0  0  0  0  0
    0.8388   -5.8417   27.5264 C   0  0  0  0  0  0  0  0  0  0  0  0
   -2.0709   -7.6637   18.7817 C   0  0  0  0  0  0  0  0  0  0  0  0
   -0.5279   -8.2168   17.0717 C   0  0  0  0  0  0  0  0  0  0  0  0
    6.9694   -4.0191   27.8190 C   0  0  0  0  0  0  0  0  0  0  0  0
    5.1733   -4.5469   29.8123 C   0  0  0  0  0  0  0  0  0  0  0  0
   -1.7508  -11.3016   18.6072 C   0  0  0  0  0  0  0  0  0  0  0  0
    1.7497   -5.6771   26.4971 C   0  0  0  0  0  0  0  0  0  0  0  0
   -1.5799   -9.9322   18.3468 C   0  0  0  0  0  0  0  0  0  0  0  0
   -1.0871  -12.2214   17.8851 C   0  0  0  0  0  0  0  0  0  0  0  0
   -2.2706   -8.9669   19.0691 C   0  0  0  0  0  0  0  0  0  0  0  0
    3.0279   -5.3073   26.8197 C   0  0  0  0  0  0  0  0  0  0  0  0
    7.3282   -3.8948   29.1186 C   0  0  0  0  0  0  0  0  0  0  0  0
  1  3  4  0
  1  7  4  0
  2  3  1  0
  2  6  4  0
  2 16  4  0
  3 22  4  0
  4  9  4  0
  4 10  1  0
  4 20  4  0
  5 16  4  0
  5 23  4  0
  6 15  4  0
  7 12  4  0
  8 13  4  0
  8 14  4  0
  9 11  4  0
 11 14  4  0
 11 19  4  0
 12 18  4  0
 13 21  4  0
 15 23  4  0
 17 19  4  0
 17 20  4  0
 18 22  4  0
 19 21  4  0
M  END
$$$$

 Created by Python create_sdf_string function

 23 25  0  0  0  0  0  0  0  0999 V2000
    2.4610   -5.3070   29.1240 C   0  0  0  0  0  0  0  0  0  0  0  0
    4.7710   -4.6952   28.4803 C   0  0  0  0  0  0  0  0  0  0  0  0
    3.4047   -5.1087   28.1314 C   0  0  0  0  0  0  0  0  0  0  0  0
   -0.2234  -11.8615   16.8874 C   0  0  0  0  0  0  0  0  0  0  0  0
    6.4491   -4.1532   30.1213 C   0  0  0  0  0  0  0  0  0  0  0  0
    5.7060   -4.4340   27.4975 C   0  0  0  0  0  0  0  0  0  0  0  0
    1.1818   -5.6612   28.8399 C   0  0  0  0  0  0  0  0  0  0  0  0
   -1.2067   -7.3287   17.7772 C   0  0  0  0  0  0  0  0  0  0  0  0
   -0.0206  -10.5585   16.6210 C   0  0  0  0  0  0  0  0  0  0  0  0
    0.3696  -12.7626   16.2169 O   0  0  0  0  0  0  0  0  0  0  0  0
   -0.6895   -9.5676   17.3297 C   0  0  0  0  0  0  0  0  0  0  0  0
    0.8388   -5.8417   27.5264 C   0  0  0  0  0  0  0  0  0  0  0  0
   -2.0709   -7.6637   18.7817 C   0  0  0  0  0  0  0  0  0  0  0  0
   -0.5279   -8.2168   17.0717 C   0  0  0  0  0  0  0  0  0  0  0  0
    6.9694   -4.0191   27.8190 C   0  0  0  0  0  0  0  0  0  0  0  0
    5.1733   -4.5469   29.8123 C   0  0  0  0  0  0  0  0  0  0  0  0
   -1.7508  -11.3016   18.6072 C   0  0  0  0  0  0  0  0  0  0  0  0
    1.7497   -5.6771   26.4971 C   0  0  0  0  0  0  0  0  0  0  0  0
   -1.5799   -9.9322   18.3468 C   0  0  0  0  0  0  0  0  0  0  0  0
   -1.0871  -12.2214   17.8851 C   0  0  0  0  0  0  0  0  0  0  0  0
   -2.2706   -8.9669   19.0691 C   0  0  0  0  0  0  0  0  0  0  0  0
    3.0279   -5.3073   26.8197 C   0  0  0  0  0  0  0  0  0  0  0  0
    7.3282   -3.8948   29.1186 C   0  0  0  0  0  0  0  0  0  0  0  0
  1  3  4  0
  1  7  4  0
  2  3  1  0
  2  6  4  0
  2 16  4  0
  3 22  4  0
  4  9  4  0
  4 10  1  0
  4 20  4  0
  5 16  4  0
  5 23  4  0
  6 15  4  0
  7 12  4  0
  8 13  4  0
  8 14  4  0
  9 11  4  0
 11 14  4  0
 11 19  4  0
 12 18  4  0
 13 21  4  0
 15 23  4  0
 17 19  4  0
 17 20  4  0
 18 22  4  0
 19 21  4  0
M  END
$$$$

 Created by Python create_sdf_string function

 23 25  0  0  0  0  0  0  0  0999 V2000
    2.4610   -5.3070   29.1240 C   0  0  0  0  0  0  0  0  0  0  0  0
    4.7710   -4.6952   28.4803 C   0  0  0  0  0  0  0  0  0  0  0  0
    3.4047   -5.1087   28.1314 C   0  0  0  0  0  0  0  0  0  0  0  0
   -0.2234  -11.8615   16.8874 C   0  0  0  0  0  0  0  0  0  0  0  0
    6.4491   -4.1532   30.1213 C   0  0  0  0  0  0  0  0  0  0  0  0
    5.7060   -4.4340   27.4975 C   0  0  0  0  0  0  0  0  0  0  0  0
    1.1818   -5.6612   28.8399 C   0  0  0  0  0  0  0  0  0  0  0  0
   -1.2067   -7.3287   17.7772 C   0  0  0  0  0  0  0  0  0  0  0  0
   -0.0206  -10.5585   16.6210 C   0  0  0  0  0  0  0  0  0  0  0  0
    0.3696  -12.7626   16.2169 O   0  0  0  0  0  0  0  0  0  0  0  0
   -0.6895   -9.5676   17.3297 C   0  0  0  0  0  0  0  0  0  0  0  0
    0.8388   -5.8417   27.5264 C   0  0  0  0  0  0  0  0  0  0  0  0
   -2.0709   -7.6637   18.7817 C   0  0  0  0  0  0  0  0  0  0  0  0
   -0.5279   -8.2168   17.0717 C   0  0  0  0  0  0  0  0  0  0  0  0
    6.9694   -4.0191   27.8190 C   0  0  0  0  0  0  0  0  0  0  0  0
    5.1733   -4.5469   29.8123 C   0  0  0  0  0  0  0  0  0  0  0  0
   -1.7508  -11.3016   18.6072 C   0  0  0  0  0  0  0  0  0  0  0  0
    1.7497   -5.6771   26.4971 C   0  0  0  0  0  0  0  0  0  0  0  0
   -1.5799   -9.9322   18.3468 C   0  0  0  0  0  0  0  0  0  0  0  0
   -1.0871  -12.2214   17.8851 C   0  0  0  0  0  0  0  0  0  0  0  0
   -2.2706   -8.9669   19.0691 C   0  0  0  0  0  0  0  0  0  0  0  0
    3.0279   -5.3073   26.8197 C   0  0  0  0  0  0  0  0  0  0  0  0
    7.3282   -3.8948   29.1186 C   0  0  0  0  0  0  0  0  0  0  0  0
  1  3  4  0
  1  7  4  0
  2  3  1  0
  2  6  4  0
  2 16  4  0
  3 22  4  0
  4  9  4  0
  4 10  1  0
  4 20  4  0
  5 16  4  0
  5 23  4  0
  6 15  4  0
  7 12  4  0
  8 13  4  0
  8 14  4  0
  9 11  4  0
 11 14  4  0
 11 19  4  0
 12 18  4  0
 13 21  4  0
 15 23  4  0
 17 19  4  0
 17 20  4  0
 18 22  4  0
 19 21  4  0
M  END
$$$$

 Created by Python create_sdf_string function

 23 25  0  0  0  0  0  0  0  0999 V2000
    2.4610   -5.3070   29.1240 C   0  0  0  0  0  0  0  0  0  0  0  0
    4.7710   -4.6952   28.4803 C   0  0  0  0  0  0  0  0  0  0  0  0
    3.4047   -5.1087   28.1314 C   0  0  0  0  0  0  0  0  0  0  0  0
   -0.2234  -11.8615   16.8874 C   0  0  0  0  0  0  0  0  0  0  0  0
    6.4491   -4.1532   30.1213 C   0  0  0  0  0  0  0  0  0  0  0  0
    5.7060   -4.4340   27.4975 C   0  0  0  0  0  0  0  0  0  0  0  0
    1.1818   -5.6612   28.8399 C   0  0  0  0  0  0  0  0  0  0  0  0
   -1.2067   -7.3287   17.7772 C   0  0  0  0  0  0  0  0  0  0  0  0
   -0.0206  -10.5585   16.6210 C   0  0  0  0  0  0  0  0  0  0  0  0
    0.3696  -12.7626   16.2169 O   0  0  0  0  0  0  0  0  0  0  0  0
   -0.6895   -9.5676   17.3297 C   0  0  0  0  0  0  0  0  0  0  0  0
    0.8388   -5.8417   27.5264 C   0  0  0  0  0  0  0  0  0  0  0  0
   -2.0709   -7.6637   18.7817 C   0  0  0  0  0  0  0  0  0  0  0  0
   -0.5279   -8.2168   17.0717 C   0  0  0  0  0  0  0  0  0  0  0  0
    6.9694   -4.0191   27.8190 C   0  0  0  0  0  0  0  0  0  0  0  0
    5.1733   -4.5469   29.8123 C   0  0  0  0  0  0  0  0  0  0  0  0
   -1.7508  -11.3016   18.6072 C   0  0  0  0  0  0  0  0  0  0  0  0
    1.7497   -5.6771   26.4971 C   0  0  0  0  0  0  0  0  0  0  0  0
   -1.5799   -9.9322   18.3468 C   0  0  0  0  0  0  0  0  0  0  0  0
   -1.0871  -12.2214   17.8851 C   0  0  0  0  0  0  0  0  0  0  0  0
   -2.2706   -8.9669   19.0691 C   0  0  0  0  0  0  0  0  0  0  0  0
    3.0279   -5.3073   26.8197 C   0  0  0  0  0  0  0  0  0  0  0  0
    7.3282   -3.8948   29.1186 C   0  0  0  0  0  0  0  0  0  0  0  0
  1  3  4  0
  1  7  4  0
  2  3  1  0
  2  6  4  0
  2 16  4  0
  3 22  4  0
  4  9  4  0
  4 10  1  0
  4 20  4  0
  5 16  4  0
  5 23  4  0
  6 15  4  0
  7 12  4  0
  8 13  4  0
  8 14  4  0
  9 11  4  0
 11 14  4  0
 11 19  4  0
 12 18  4  0
 13 21  4  0
 15 23  4  0
 17 19  4  0
 17 20  4  0
 18 22  4  0
 19 21  4  0
M  END
$$$$

 Created by Python create_sdf_string function

 23 25  0  0  0  0  0  0  0  0999 V2000
    2.4610   -5.3070   29.1240 C   0  0  0  0  0  0  0  0  0  0  0  0
    4.7710   -4.6952   28.4803 C   0  0  0  0  0  0  0  0  0  0  0  0
    3.4047   -5.1087   28.1314 C   0  0  0  0  0  0  0  0  0  0  0  0
   -0.2234  -11.8615   16.8874 C   0  0  0  0  0  0  0  0  0  0  0  0
    6.4491   -4.1532   30.1213 C   0  0  0  0  0  0  0  0  0  0  0  0
    5.7060   -4.4340   27.4975 C   0  0  0  0  0  0  0  0  0  0  0  0
    1.1818   -5.6612   28.8399 C   0  0  0  0  0  0  0  0  0  0  0  0
   -1.2067   -7.3287   17.7772 C   0  0  0  0  0  0  0  0  0  0  0  0
   -0.0206  -10.5585   16.6210 C   0  0  0  0  0  0  0  0  0  0  0  0
    0.3696  -12.7626   16.2169 O   0  0  0  0  0  0  0  0  0  0  0  0
   -0.6895   -9.5676   17.3297 C   0  0  0  0  0  0  0  0  0  0  0  0
    0.8388   -5.8417   27.5264 C   0  0  0  0  0  0  0  0  0  0  0  0
   -2.0709   -7.6637   18.7817 C   0  0  0  0  0  0  0  0  0  0  0  0
   -0.5279   -8.2168   17.0717 C   0  0  0  0  0  0  0  0  0  0  0  0
    6.9694   -4.0191   27.8190 C   0  0  0  0  0  0  0  0  0  0  0  0
    5.1733   -4.5469   29.8123 C   0  0  0  0  0  0  0  0  0  0  0  0
   -1.7508  -11.3016   18.6072 C   0  0  0  0  0  0  0  0  0  0  0  0
    1.7497   -5.6771   26.4971 C   0  0  0  0  0  0  0  0  0  0  0  0
   -1.5799   -9.9322   18.3468 C   0  0  0  0  0  0  0  0  0  0  0  0
   -1.0871  -12.2214   17.8851 C   0  0  0  0  0  0  0  0  0  0  0  0
   -2.2706   -8.9669   19.0691 C   0  0  0  0  0  0  0  0  0  0  0  0
    3.0279   -5.3073   26.8197 C   0  0  0  0  0  0  0  0  0  0  0  0
    7.3282   -3.8948   29.1186 C   0  0  0  0  0  0  0  0  0  0  0  0
  1  3  4  0
  1  7  4  0
  2  3  1  0
  2  6  4  0
  2 16  4  0
  3 22  4  0
  4  9  4  0
  4 10  1  0
  4 20  4  0
  5 16  4  0
  5 23  4  0
  6 15  4  0
  7 12  4  0
  8 13  4  0
  8 14  4  0
  9 11  4  0
 11 14  4  0
 11 19  4  0
 12 18  4  0
 13 21  4  0
 15 23  4  0
 17 19  4  0
 17 20  4  0
 18 22  4  0
 19 21  4  0
M  END
$$$$

 Created by Python create_sdf_string function

 23 25  0  0  0  0  0  0  0  0999 V2000
    2.4610   -5.3070   29.1240 C   0  0  0  0  0  0  0  0  0  0  0  0
    4.7710   -4.6952   28.4803 C   0  0  0  0  0  0  0  0  0  0  0  0
    3.4047   -5.1087   28.1314 C   0  0  0  0  0  0  0  0  0  0  0  0
   -0.2234  -11.8615   16.8874 C   0  0  0  0  0  0  0  0  0  0  0  0
    6.4491   -4.1532   30.1213 C   0  0  0  0  0  0  0  0  0  0  0  0
    5.7060   -4.4340   27.4975 C   0  0  0  0  0  0  0  0  0  0  0  0
    1.1818   -5.6612   28.8399 C   0  0  0  0  0  0  0  0  0  0  0  0
   -1.2067   -7.3287   17.7772 C   0  0  0  0  0  0  0  0  0  0  0  0
   -0.0206  -10.5585   16.6210 C   0  0  0  0  0  0  0  0  0  0  0  0
    0.3696  -12.7626   16.2169 O   0  0  0  0  0  0  0  0  0  0  0  0
   -0.6895   -9.5676   17.3297 C   0  0  0  0  0  0  0  0  0  0  0  0
    0.8388   -5.8417   27.5264 C   0  0  0  0  0  0  0  0  0  0  0  0
   -2.0709   -7.6637   18.7817 C   0  0  0  0  0  0  0  0  0  0  0  0
   -0.5279   -8.2168   17.0717 C   0  0  0  0  0  0  0  0  0  0  0  0
    6.9694   -4.0191   27.8190 C   0  0  0  0  0  0  0  0  0  0  0  0
    5.1733   -4.5469   29.8123 C   0  0  0  0  0  0  0  0  0  0  0  0
   -1.7508  -11.3016   18.6072 C   0  0  0  0  0  0  0  0  0  0  0  0
    1.7497   -5.6771   26.4971 C   0  0  0  0  0  0  0  0  0  0  0  0
   -1.5799   -9.9322   18.3468 C   0  0  0  0  0  0  0  0  0  0  0  0
   -1.0871  -12.2214   17.8851 C   0  0  0  0  0  0  0  0  0  0  0  0
   -2.2706   -8.9669   19.0691 C   0  0  0  0  0  0  0  0  0  0  0  0
    3.0279   -5.3073   26.8197 C   0  0  0  0  0  0  0  0  0  0  0  0
    7.3282   -3.8948   29.1186 C   0  0  0  0  0  0  0  0  0  0  0  0
  1  3  4  0
  1  7  4  0
  2  3  1  0
  2  6  4  0
  2 16  4  0
  3 22  4  0
  4  9  4  0
  4 10  1  0
  4 20  4  0
  5 16  4  0
  5 23  4  0
  6 15  4  0
  7 12  4  0
  8 13  4  0
  8 14  4  0
  9 11  4  0
 11 14  4  0
 11 19  4  0
 12 18  4  0
 13 21  4  0
 15 23  4  0
 17 19  4  0
 17 20  4  0
 18 22  4  0
 19 21  4  0
M  END
$$$$

 Created by Python create_sdf_string function

 23 25  0  0  0  0  0  0  0  0999 V2000
    2.4610   -5.3070   29.1240 C   0  0  0  0  0  0  0  0  0  0  0  0
    4.7710   -4.6952   28.4803 C   0  0  0  0  0  0  0  0  0  0  0  0
    3.4047   -5.1087   28.1314 C   0  0  0  0  0  0  0  0  0  0  0  0
   -0.2234  -11.8615   16.8874 C   0  0  0  0  0  0  0  0  0  0  0  0
    6.4491   -4.1532   30.1213 C   0  0  0  0  0  0  0  0  0  0  0  0
    5.7060   -4.4340   27.4975 C   0  0  0  0  0  0  0  0  0  0  0  0
    1.1818   -5.6612   28.8399 C   0  0  0  0  0  0  0  0  0  0  0  0
   -1.2067   -7.3287   17.7772 C   0  0  0  0  0  0  0  0  0  0  0  0
   -0.0206  -10.5585   16.6210 C   0  0  0  0  0  0  0  0  0  0  0  0
    0.3696  -12.7626   16.2169 O   0  0  0  0  0  0  0  0  0  0  0  0
   -0.6895   -9.5676   17.3297 C   0  0  0  0  0  0  0  0  0  0  0  0
    0.8388   -5.8417   27.5264 C   0  0  0  0  0  0  0  0  0  0  0  0
   -2.0709   -7.6637   18.7817 C   0  0  0  0  0  0  0  0  0  0  0  0
   -0.5279   -8.2168   17.0717 C   0  0  0  0  0  0  0  0  0  0  0  0
    6.9694   -4.0191   27.8190 C   0  0  0  0  0  0  0  0  0  0  0  0
    5.1733   -4.5469   29.8123 C   0  0  0  0  0  0  0  0  0  0  0  0
   -1.7508  -11.3016   18.6072 C   0  0  0  0  0  0  0  0  0  0  0  0
    1.7497   -5.6771   26.4971 C   0  0  0  0  0  0  0  0  0  0  0  0
   -1.5799   -9.9322   18.3468 C   0  0  0  0  0  0  0  0  0  0  0  0
   -1.0871  -12.2214   17.8851 C   0  0  0  0  0  0  0  0  0  0  0  0
   -2.2706   -8.9669   19.0691 C   0  0  0  0  0  0  0  0  0  0  0  0
    3.0279   -5.3073   26.8197 C   0  0  0  0  0  0  0  0  0  0  0  0
    7.3282   -3.8948   29.1186 C   0  0  0  0  0  0  0  0  0  0  0  0
  1  3  4  0
  1  7  4  0
  2  3  1  0
  2  6  4  0
  2 16  4  0
  3 22  4  0
  4  9  4  0
  4 10  1  0
  4 20  4  0
  5 16  4  0
  5 23  4  0
  6 15  4  0
  7 12  4  0
  8 13  4  0
  8 14  4  0
  9 11  4  0
 11 14  4  0
 11 19  4  0
 12 18  4  0
 13 21  4  0
 15 23  4  0
 17 19  4  0
 17 20  4  0
 18 22  4  0
 19 21  4  0
M  END
$$$$

 Created by Python create_sdf_string function

 23 25  0  0  0  0  0  0  0  0999 V2000
    2.4610   -5.3070   29.1240 C   0  0  0  0  0  0  0  0  0  0  0  0
    4.7710   -4.6952   28.4803 C   0  0  0  0  0  0  0  0  0  0  0  0
    3.4047   -5.1087   28.1314 C   0  0  0  0  0  0  0  0  0  0  0  0
   -0.2234  -11.8615   16.8874 C   0  0  0  0  0  0  0  0  0  0  0  0
    6.4491   -4.1532   30.1213 C   0  0  0  0  0  0  0  0  0  0  0  0
    5.7060   -4.4340   27.4975 C   0  0  0  0  0  0  0  0  0  0  0  0
    1.1818   -5.6612   28.8399 C   0  0  0  0  0  0  0  0  0  0  0  0
   -1.2067   -7.3287   17.7772 C   0  0  0  0  0  0  0  0  0  0  0  0
   -0.0206  -10.5585   16.6210 C   0  0  0  0  0  0  0  0  0  0  0  0
    0.3696  -12.7626   16.2169 O   0  0  0  0  0  0  0  0  0  0  0  0
   -0.6895   -9.5676   17.3297 C   0  0  0  0  0  0  0  0  0  0  0  0
    0.8388   -5.8417   27.5264 C   0  0  0  0  0  0  0  0  0  0  0  0
   -2.0709   -7.6637   18.7817 C   0  0  0  0  0  0  0  0  0  0  0  0
   -0.5279   -8.2168   17.0717 C   0  0  0  0  0  0  0  0  0  0  0  0
    6.9694   -4.0191   27.8190 C   0  0  0  0  0  0  0  0  0  0  0  0
    5.1733   -4.5469   29.8123 C   0  0  0  0  0  0  0  0  0  0  0  0
   -1.7508  -11.3016   18.6072 C   0  0  0  0  0  0  0  0  0  0  0  0
    1.7497   -5.6771   26.4971 C   0  0  0  0  0  0  0  0  0  0  0  0
   -1.5799   -9.9322   18.3468 C   0  0  0  0  0  0  0  0  0  0  0  0
   -1.0871  -12.2214   17.8851 C   0  0  0  0  0  0  0  0  0  0  0  0
   -2.2706   -8.9669   19.0691 C   0  0  0  0  0  0  0  0  0  0  0  0
    3.0279   -5.3073   26.8197 C   0  0  0  0  0  0  0  0  0  0  0  0
    7.3282   -3.8948   29.1186 C   0  0  0  0  0  0  0  0  0  0  0  0
  1  3  4  0
  1  7  4  0
  2  3  1  0
  2  6  4  0
  2 16  4  0
  3 22  4  0
  4  9  4  0
  4 10  1  0
  4 20  4  0
  5 16  4  0
  5 23  4  0
  6 15  4  0
  7 12  4  0
  8 13  4  0
  8 14  4  0
  9 11  4  0
 11 14  4  0
 11 19  4  0
 12 18  4  0
 13 21  4  0
 15 23  4  0
 17 19  4  0
 17 20  4  0
 18 22  4  0
 19 21  4  0
M  END
$$$$

 Created by Python create_sdf_string function

 23 25  0  0  0  0  0  0  0  0999 V2000
    2.4610   -5.3070   29.1240 C   0  0  0  0  0  0  0  0  0  0  0  0
    4.7710   -4.6952   28.4803 C   0  0  0  0  0  0  0  0  0  0  0  0
    3.4047   -5.1087   28.1314 C   0  0  0  0  0  0  0  0  0  0  0  0
   -0.2234  -11.8615   16.8874 C   0  0  0  0  0  0  0  0  0  0  0  0
    6.4491   -4.1532   30.1213 C   0  0  0  0  0  0  0  0  0  0  0  0
    5.7060   -4.4340   27.4975 C   0  0  0  0  0  0  0  0  0  0  0  0
    1.1818   -5.6612   28.8399 C   0  0  0  0  0  0  0  0  0  0  0  0
   -1.2067   -7.3287   17.7772 C   0  0  0  0  0  0  0  0  0  0  0  0
   -0.0206  -10.5585   16.6210 C   0  0  0  0  0  0  0  0  0  0  0  0
    0.3696  -12.7626   16.2169 O   0  0  0  0  0  0  0  0  0  0  0  0
   -0.6895   -9.5676   17.3297 C   0  0  0  0  0  0  0  0  0  0  0  0
    0.8388   -5.8417   27.5264 C   0  0  0  0  0  0  0  0  0  0  0  0
   -2.0709   -7.6637   18.7817 C   0  0  0  0  0  0  0  0  0  0  0  0
   -0.5279   -8.2168   17.0717 C   0  0  0  0  0  0  0  0  0  0  0  0
    6.9694   -4.0191   27.8190 C   0  0  0  0  0  0  0  0  0  0  0  0
    5.1733   -4.5469   29.8123 C   0  0  0  0  0  0  0  0  0  0  0  0
   -1.7508  -11.3016   18.6072 C   0  0  0  0  0  0  0  0  0  0  0  0
    1.7497   -5.6771   26.4971 C   0  0  0  0  0  0  0  0  0  0  0  0
   -1.5799   -9.9322   18.3468 C   0  0  0  0  0  0  0  0  0  0  0  0
   -1.0871  -12.2214   17.8851 C   0  0  0  0  0  0  0  0  0  0  0  0
   -2.2706   -8.9669   19.0691 C   0  0  0  0  0  0  0  0  0  0  0  0
    3.0279   -5.3073   26.8197 C   0  0  0  0  0  0  0  0  0  0  0  0
    7.3282   -3.8948   29.1186 C   0  0  0  0  0  0  0  0  0  0  0  0
  1  3  4  0
  1  7  4  0
  2  3  1  0
  2  6  4  0
  2 16  4  0
  3 22  4  0
  4  9  4  0
  4 10  1  0
  4 20  4  0
  5 16  4  0
  5 23  4  0
  6 15  4  0
  7 12  4  0
  8 13  4  0
  8 14  4  0
  9 11  4  0
 11 14  4  0
 11 19  4  0
 12 18  4  0
 13 21  4  0
 15 23  4  0
 17 19  4  0
 17 20  4  0
 18 22  4  0
 19 21  4  0
M  END
$$$$

 Created by Python create_sdf_string function

 23 25  0  0  0  0  0  0  0  0999 V2000
    2.4610   -5.3070   29.1240 C   0  0  0  0  0  0  0  0  0  0  0  0
    4.7710   -4.6952   28.4803 C   0  0  0  0  0  0  0  0  0  0  0  0
    3.4047   -5.1087   28.1314 C   0  0  0  0  0  0  0  0  0  0  0  0
   -0.2234  -11.8615   16.8874 C   0  0  0  0  0  0  0  0  0  0  0  0
    6.4491   -4.1532   30.1213 C   0  0  0  0  0  0  0  0  0  0  0  0
    5.7060   -4.4340   27.4975 C   0  0  0  0  0  0  0  0  0  0  0  0
    1.1818   -5.6612   28.8399 C   0  0  0  0  0  0  0  0  0  0  0  0
   -1.2067   -7.3287   17.7772 C   0  0  0  0  0  0  0  0  0  0  0  0
   -0.0206  -10.5585   16.6210 C   0  0  0  0  0  0  0  0  0  0  0  0
    0.3696  -12.7626   16.2169 O   0  0  0  0  0  0  0  0  0  0  0  0
   -0.6895   -9.5676   17.3297 C   0  0  0  0  0  0  0  0  0  0  0  0
    0.8388   -5.8417   27.5264 C   0  0  0  0  0  0  0  0  0  0  0  0
   -2.0709   -7.6637   18.7817 C   0  0  0  0  0  0  0  0  0  0  0  0
   -0.5279   -8.2168   17.0717 C   0  0  0  0  0  0  0  0  0  0  0  0
    6.9694   -4.0191   27.8190 C   0  0  0  0  0  0  0  0  0  0  0  0
    5.1733   -4.5469   29.8123 C   0  0  0  0  0  0  0  0  0  0  0  0
   -1.7508  -11.3016   18.6072 C   0  0  0  0  0  0  0  0  0  0  0  0
    1.7497   -5.6771   26.4971 C   0  0  0  0  0  0  0  0  0  0  0  0
   -1.5799   -9.9322   18.3468 C   0  0  0  0  0  0  0  0  0  0  0  0
   -1.0871  -12.2214   17.8851 C   0  0  0  0  0  0  0  0  0  0  0  0
   -2.2706   -8.9669   19.0691 C   0  0  0  0  0  0  0  0  0  0  0  0
    3.0279   -5.3073   26.8197 C   0  0  0  0  0  0  0  0  0  0  0  0
    7.3282   -3.8948   29.1186 C   0  0  0  0  0  0  0  0  0  0  0  0
  1  3  4  0
  1  7  4  0
  2  3  1  0
  2  6  4  0
  2 16  4  0
  3 22  4  0
  4  9  4  0
  4 10  1  0
  4 20  4  0
  5 16  4  0
  5 23  4  0
  6 15  4  0
  7 12  4  0
  8 13  4  0
  8 14  4  0
  9 11  4  0
 11 14  4  0
 11 19  4  0
 12 18  4  0
 13 21  4  0
 15 23  4  0
 17 19  4  0
 17 20  4  0
 18 22  4  0
 19 21  4  0
M  END
$$$$

 Created by Python create_sdf_string function

 23 25  0  0  0  0  0  0  0  0999 V2000
    2.4610   -5.3070   29.1240 C   0  0  0  0  0  0  0  0  0  0  0  0
    4.7710   -4.6952   28.4803 C   0  0  0  0  0  0  0  0  0  0  0  0
    3.4047   -5.1087   28.1314 C   0  0  0  0  0  0  0  0  0  0  0  0
   -0.2234  -11.8615   16.8874 C   0  0  0  0  0  0  0  0  0  0  0  0
    6.4491   -4.1532   30.1213 C   0  0  0  0  0  0  0  0  0  0  0  0
    5.7060   -4.4340   27.4975 C   0  0  0  0  0  0  0  0  0  0  0  0
    1.1818   -5.6612   28.8399 C   0  0  0  0  0  0  0  0  0  0  0  0
   -1.2067   -7.3287   17.7772 C   0  0  0  0  0  0  0  0  0  0  0  0
   -0.0206  -10.5585   16.6210 C   0  0  0  0  0  0  0  0  0  0  0  0
    0.3696  -12.7626   16.2169 O   0  0  0  0  0  0  0  0  0  0  0  0
   -0.6895   -9.5676   17.3297 C   0  0  0  0  0  0  0  0  0  0  0  0
    0.8388   -5.8417   27.5264 C   0  0  0  0  0  0  0  0  0  0  0  0
   -2.0709   -7.6637   18.7817 C   0  0  0  0  0  0  0  0  0  0  0  0
   -0.5279   -8.2168   17.0717 C   0  0  0  0  0  0  0  0  0  0  0  0
    6.9694   -4.0191   27.8190 C   0  0  0  0  0  0  0  0  0  0  0  0
    5.1733   -4.5469   29.8123 C   0  0  0  0  0  0  0  0  0  0  0  0
   -1.7508  -11.3016   18.6072 C   0  0  0  0  0  0  0  0  0  0  0  0
    1.7497   -5.6771   26.4971 C   0  0  0  0  0  0  0  0  0  0  0  0
   -1.5799   -9.9322   18.3468 C   0  0  0  0  0  0  0  0  0  0  0  0
   -1.0871  -12.2214   17.8851 C   0  0  0  0  0  0  0  0  0  0  0  0
   -2.2706   -8.9669   19.0691 C   0  0  0  0  0  0  0  0  0  0  0  0
    3.0279   -5.3073   26.8197 C   0  0  0  0  0  0  0  0  0  0  0  0
    7.3282   -3.8948   29.1186 C   0  0  0  0  0  0  0  0  0  0  0  0
  1  3  4  0
  1  7  4  0
  2  3  1  0
  2  6  4  0
  2 16  4  0
  3 22  4  0
  4  9  4  0
  4 10  1  0
  4 20  4  0
  5 16  4  0
  5 23  4  0
  6 15  4  0
  7 12  4  0
  8 13  4  0
  8 14  4  0
  9 11  4  0
 11 14  4  0
 11 19  4  0
 12 18  4  0
 13 21  4  0
 15 23  4  0
 17 19  4  0
 17 20  4  0
 18 22  4  0
 19 21  4  0
M  END
$$$$

 Created by Python create_sdf_string function

 23 25  0  0  0  0  0  0  0  0999 V2000
    2.4610   -5.3070   29.1240 C   0  0  0  0  0  0  0  0  0  0  0  0
    4.7710   -4.6952   28.4803 C   0  0  0  0  0  0  0  0  0  0  0  0
    3.4047   -5.1087   28.1314 C   0  0  0  0  0  0  0  0  0  0  0  0
   -0.2234  -11.8615   16.8874 C   0  0  0  0  0  0  0  0  0  0  0  0
    6.4491   -4.1532   30.1213 C   0  0  0  0  0  0  0  0  0  0  0  0
    5.7060   -4.4340   27.4975 C   0  0  0  0  0  0  0  0  0  0  0  0
    1.1818   -5.6612   28.8399 C   0  0  0  0  0  0  0  0  0  0  0  0
   -1.2067   -7.3287   17.7772 C   0  0  0  0  0  0  0  0  0  0  0  0
   -0.0206  -10.5585   16.6210 C   0  0  0  0  0  0  0  0  0  0  0  0
    0.3696  -12.7626   16.2169 O   0  0  0  0  0  0  0  0  0  0  0  0
   -0.6895   -9.5676   17.3297 C   0  0  0  0  0  0  0  0  0  0  0  0
    0.8388   -5.8417   27.5264 C   0  0  0  0  0  0  0  0  0  0  0  0
   -2.0709   -7.6637   18.7817 C   0  0  0  0  0  0  0  0  0  0  0  0
   -0.5279   -8.2168   17.0717 C   0  0  0  0  0  0  0  0  0  0  0  0
    6.9694   -4.0191   27.8190 C   0  0  0  0  0  0  0  0  0  0  0  0
    5.1733   -4.5469   29.8123 C   0  0  0  0  0  0  0  0  0  0  0  0
   -1.7508  -11.3016   18.6072 C   0  0  0  0  0  0  0  0  0  0  0  0
    1.7497   -5.6771   26.4971 C   0  0  0  0  0  0  0  0  0  0  0  0
   -1.5799   -9.9322   18.3468 C   0  0  0  0  0  0  0  0  0  0  0  0
   -1.0871  -12.2214   17.8851 C   0  0  0  0  0  0  0  0  0  0  0  0
   -2.2706   -8.9669   19.0691 C   0  0  0  0  0  0  0  0  0  0  0  0
    3.0279   -5.3073   26.8197 C   0  0  0  0  0  0  0  0  0  0  0  0
    7.3282   -3.8948   29.1186 C   0  0  0  0  0  0  0  0  0  0  0  0
  1  3  4  0
  1  7  4  0
  2  3  1  0
  2  6  4  0
  2 16  4  0
  3 22  4  0
  4  9  4  0
  4 10  1  0
  4 20  4  0
  5 16  4  0
  5 23  4  0
  6 15  4  0
  7 12  4  0
  8 13  4  0
  8 14  4  0
  9 11  4  0
 11 14  4  0
 11 19  4  0
 12 18  4  0
 13 21  4  0
 15 23  4  0
 17 19  4  0
 17 20  4  0
 18 22  4  0
 19 21  4  0
M  END
$$$$

 Created by Python create_sdf_string function

 23 25  0  0  0  0  0  0  0  0999 V2000
    2.4610   -5.3070   29.1240 C   0  0  0  0  0  0  0  0  0  0  0  0
    4.7710   -4.6952   28.4803 C   0  0  0  0  0  0  0  0  0  0  0  0
    3.4047   -5.1087   28.1314 C   0  0  0  0  0  0  0  0  0  0  0  0
   -0.2234  -11.8615   16.8874 C   0  0  0  0  0  0  0  0  0  0  0  0
    6.4491   -4.1532   30.1213 C   0  0  0  0  0  0  0  0  0  0  0  0
    5.7060   -4.4340   27.4975 C   0  0  0  0  0  0  0  0  0  0  0  0
    1.1818   -5.6612   28.8399 C   0  0  0  0  0  0  0  0  0  0  0  0
   -1.2067   -7.3287   17.7772 C   0  0  0  0  0  0  0  0  0  0  0  0
   -0.0206  -10.5585   16.6210 C   0  0  0  0  0  0  0  0  0  0  0  0
    0.3696  -12.7626   16.2169 O   0  0  0  0  0  0  0  0  0  0  0  0
   -0.6895   -9.5676   17.3297 C   0  0  0  0  0  0  0  0  0  0  0  0
    0.8388   -5.8417   27.5264 C   0  0  0  0  0  0  0  0  0  0  0  0
   -2.0709   -7.6637   18.7817 C   0  0  0  0  0  0  0  0  0  0  0  0
   -0.5279   -8.2168   17.0717 C   0  0  0  0  0  0  0  0  0  0  0  0
    6.9694   -4.0191   27.8190 C   0  0  0  0  0  0  0  0  0  0  0  0
    5.1733   -4.5469   29.8123 C   0  0  0  0  0  0  0  0  0  0  0  0
   -1.7508  -11.3016   18.6072 C   0  0  0  0  0  0  0  0  0  0  0  0
    1.7497   -5.6771   26.4971 C   0  0  0  0  0  0  0  0  0  0  0  0
   -1.5799   -9.9322   18.3468 C   0  0  0  0  0  0  0  0  0  0  0  0
   -1.0871  -12.2214   17.8851 C   0  0  0  0  0  0  0  0  0  0  0  0
   -2.2706   -8.9669   19.0691 C   0  0  0  0  0  0  0  0  0  0  0  0
    3.0279   -5.3073   26.8197 C   0  0  0  0  0  0  0  0  0  0  0  0
    7.3282   -3.8948   29.1186 C   0  0  0  0  0  0  0  0  0  0  0  0
  1  3  4  0
  1  7  4  0
  2  3  1  0
  2  6  4  0
  2 16  4  0
  3 22  4  0
  4  9  4  0
  4 10  1  0
  4 20  4  0
  5 16  4  0
  5 23  4  0
  6 15  4  0
  7 12  4  0
  8 13  4  0
  8 14  4  0
  9 11  4  0
 11 14  4  0
 11 19  4  0
 12 18  4  0
 13 21  4  0
 15 23  4  0
 17 19  4  0
 17 20  4  0
 18 22  4  0
 19 21  4  0
M  END
$$$$

 Created by Python create_sdf_string function

 23 25  0  0  0  0  0  0  0  0999 V2000
    2.4610   -5.3070   29.1240 C   0  0  0  0  0  0  0  0  0  0  0  0
    4.7710   -4.6952   28.4803 C   0  0  0  0  0  0  0  0  0  0  0  0
    3.4047   -5.1087   28.1314 C   0  0  0  0  0  0  0  0  0  0  0  0
   -0.2234  -11.8615   16.8874 C   0  0  0  0  0  0  0  0  0  0  0  0
    6.4491   -4.1532   30.1213 C   0  0  0  0  0  0  0  0  0  0  0  0
    5.7060   -4.4340   27.4975 C   0  0  0  0  0  0  0  0  0  0  0  0
    1.1818   -5.6612   28.8399 C   0  0  0  0  0  0  0  0  0  0  0  0
   -1.2067   -7.3287   17.7772 C   0  0  0  0  0  0  0  0  0  0  0  0
   -0.0206  -10.5585   16.6210 C   0  0  0  0  0  0  0  0  0  0  0  0
    0.3696  -12.7626   16.2169 O   0  0  0  0  0  0  0  0  0  0  0  0
   -0.6895   -9.5676   17.3297 C   0  0  0  0  0  0  0  0  0  0  0  0
    0.8388   -5.8417   27.5264 C   0  0  0  0  0  0  0  0  0  0  0  0
   -2.0709   -7.6637   18.7817 C   0  0  0  0  0  0  0  0  0  0  0  0
   -0.5279   -8.2168   17.0717 C   0  0  0  0  0  0  0  0  0  0  0  0
    6.9694   -4.0191   27.8190 C   0  0  0  0  0  0  0  0  0  0  0  0
    5.1733   -4.5469   29.8123 C   0  0  0  0  0  0  0  0  0  0  0  0
   -1.7508  -11.3016   18.6072 C   0  0  0  0  0  0  0  0  0  0  0  0
    1.7497   -5.6771   26.4971 C   0  0  0  0  0  0  0  0  0  0  0  0
   -1.5799   -9.9322   18.3468 C   0  0  0  0  0  0  0  0  0  0  0  0
   -1.0871  -12.2214   17.8851 C   0  0  0  0  0  0  0  0  0  0  0  0
   -2.2706   -8.9669   19.0691 C   0  0  0  0  0  0  0  0  0  0  0  0
    3.0279   -5.3073   26.8197 C   0  0  0  0  0  0  0  0  0  0  0  0
    7.3282   -3.8948   29.1186 C   0  0  0  0  0  0  0  0  0  0  0  0
  1  3  4  0
  1  7  4  0
  2  3  1  0
  2  6  4  0
  2 16  4  0
  3 22  4  0
  4  9  4  0
  4 10  1  0
  4 20  4  0
  5 16  4  0
  5 23  4  0
  6 15  4  0
  7 12  4  0
  8 13  4  0
  8 14  4  0
  9 11  4  0
 11 14  4  0
 11 19  4  0
 12 18  4  0
 13 21  4  0
 15 23  4  0
 17 19  4  0
 17 20  4  0
 18 22  4  0
 19 21  4  0
M  END
$$$$

 Created by Python create_sdf_string function

 23 25  0  0  0  0  0  0  0  0999 V2000
    2.4610   -5.3070   29.1240 C   0  0  0  0  0  0  0  0  0  0  0  0
    4.7710   -4.6952   28.4803 C   0  0  0  0  0  0  0  0  0  0  0  0
    3.4047   -5.1087   28.1314 C   0  0  0  0  0  0  0  0  0  0  0  0
   -0.2234  -11.8615   16.8874 C   0  0  0  0  0  0  0  0  0  0  0  0
    6.4491   -4.1532   30.1213 C   0  0  0  0  0  0  0  0  0  0  0  0
    5.7060   -4.4340   27.4975 C   0  0  0  0  0  0  0  0  0  0  0  0
    1.1818   -5.6612   28.8399 C   0  0  0  0  0  0  0  0  0  0  0  0
   -1.2067   -7.3287   17.7772 C   0  0  0  0  0  0  0  0  0  0  0  0
   -0.0206  -10.5585   16.6210 C   0  0  0  0  0  0  0  0  0  0  0  0
    0.3696  -12.7626   16.2169 O   0  0  0  0  0  0  0  0  0  0  0  0
   -0.6895   -9.5676   17.3297 C   0  0  0  0  0  0  0  0  0  0  0  0
    0.8388   -5.8417   27.5264 C   0  0  0  0  0  0  0  0  0  0  0  0
   -2.0709   -7.6637   18.7817 C   0  0  0  0  0  0  0  0  0  0  0  0
   -0.5279   -8.2168   17.0717 C   0  0  0  0  0  0  0  0  0  0  0  0
    6.9694   -4.0191   27.8190 C   0  0  0  0  0  0  0  0  0  0  0  0
    5.1733   -4.5469   29.8123 C   0  0  0  0  0  0  0  0  0  0  0  0
   -1.7508  -11.3016   18.6072 C   0  0  0  0  0  0  0  0  0  0  0  0
    1.7497   -5.6771   26.4971 C   0  0  0  0  0  0  0  0  0  0  0  0
   -1.5799   -9.9322   18.3468 C   0  0  0  0  0  0  0  0  0  0  0  0
   -1.0871  -12.2214   17.8851 C   0  0  0  0  0  0  0  0  0  0  0  0
   -2.2706   -8.9669   19.0691 C   0  0  0  0  0  0  0  0  0  0  0  0
    3.0279   -5.3073   26.8197 C   0  0  0  0  0  0  0  0  0  0  0  0
    7.3282   -3.8948   29.1186 C   0  0  0  0  0  0  0  0  0  0  0  0
  1  3  4  0
  1  7  4  0
  2  3  1  0
  2  6  4  0
  2 16  4  0
  3 22  4  0
  4  9  4  0
  4 10  1  0
  4 20  4  0
  5 16  4  0
  5 23  4  0
  6 15  4  0
  7 12  4  0
  8 13  4  0
  8 14  4  0
  9 11  4  0
 11 14  4  0
 11 19  4  0
 12 18  4  0
 13 21  4  0
 15 23  4  0
 17 19  4  0
 17 20  4  0
 18 22  4  0
 19 21  4  0
M  END
$$$$

 Created by Python create_sdf_string function

 23 25  0  0  0  0  0  0  0  0999 V2000
    2.4610   -5.3070   29.1240 C   0  0  0  0  0  0  0  0  0  0  0  0
    4.7710   -4.6952   28.4803 C   0  0  0  0  0  0  0  0  0  0  0  0
    3.4047   -5.1087   28.1314 C   0  0  0  0  0  0  0  0  0  0  0  0
   -0.2234  -11.8615   16.8874 C   0  0  0  0  0  0  0  0  0  0  0  0
    6.4491   -4.1532   30.1213 C   0  0  0  0  0  0  0  0  0  0  0  0
    5.7060   -4.4340   27.4975 C   0  0  0  0  0  0  0  0  0  0  0  0
    1.1818   -5.6612   28.8399 C   0  0  0  0  0  0  0  0  0  0  0  0
   -1.2067   -7.3287   17.7772 C   0  0  0  0  0  0  0  0  0  0  0  0
   -0.0206  -10.5585   16.6210 C   0  0  0  0  0  0  0  0  0  0  0  0
    0.3696  -12.7626   16.2169 O   0  0  0  0  0  0  0  0  0  0  0  0
   -0.6895   -9.5676   17.3297 C   0  0  0  0  0  0  0  0  0  0  0  0
    0.8388   -5.8417   27.5264 C   0  0  0  0  0  0  0  0  0  0  0  0
   -2.0709   -7.6637   18.7817 C   0  0  0  0  0  0  0  0  0  0  0  0
   -0.5279   -8.2168   17.0717 C   0  0  0  0  0  0  0  0  0  0  0  0
    6.9694   -4.0191   27.8190 C   0  0  0  0  0  0  0  0  0  0  0  0
    5.1733   -4.5469   29.8123 C   0  0  0  0  0  0  0  0  0  0  0  0
   -1.7508  -11.3016   18.6072 C   0  0  0  0  0  0  0  0  0  0  0  0
    1.7497   -5.6771   26.4971 C   0  0  0  0  0  0  0  0  0  0  0  0
   -1.5799   -9.9322   18.3468 C   0  0  0  0  0  0  0  0  0  0  0  0
   -1.0871  -12.2214   17.8851 C   0  0  0  0  0  0  0  0  0  0  0  0
   -2.2706   -8.9669   19.0691 C   0  0  0  0  0  0  0  0  0  0  0  0
    3.0279   -5.3073   26.8197 C   0  0  0  0  0  0  0  0  0  0  0  0
    7.3282   -3.8948   29.1186 C   0  0  0  0  0  0  0  0  0  0  0  0
  1  3  4  0
  1  7  4  0
  2  3  1  0
  2  6  4  0
  2 16  4  0
  3 22  4  0
  4  9  4  0
  4 10  1  0
  4 20  4  0
  5 16  4  0
  5 23  4  0
  6 15  4  0
  7 12  4  0
  8 13  4  0
  8 14  4  0
  9 11  4  0
 11 14  4  0
 11 19  4  0
 12 18  4  0
 13 21  4  0
 15 23  4  0
 17 19  4  0
 17 20  4  0
 18 22  4  0
 19 21  4  0
M  END
$$$$

 Created by Python create_sdf_string function

 23 25  0  0  0  0  0  0  0  0999 V2000
    2.4610   -5.3070   29.1240 C   0  0  0  0  0  0  0  0  0  0  0  0
    4.7710   -4.6952   28.4803 C   0  0  0  0  0  0  0  0  0  0  0  0
    3.4047   -5.1087   28.1314 C   0  0  0  0  0  0  0  0  0  0  0  0
   -0.2234  -11.8615   16.8874 C   0  0  0  0  0  0  0  0  0  0  0  0
    6.4491   -4.1532   30.1213 C   0  0  0  0  0  0  0  0  0  0  0  0
    5.7060   -4.4340   27.4975 C   0  0  0  0  0  0  0  0  0  0  0  0
    1.1818   -5.6612   28.8399 C   0  0  0  0  0  0  0  0  0  0  0  0
   -1.2067   -7.3287   17.7772 C   0  0  0  0  0  0  0  0  0  0  0  0
   -0.0206  -10.5585   16.6210 C   0  0  0  0  0  0  0  0  0  0  0  0
    0.3696  -12.7626   16.2169 O   0  0  0  0  0  0  0  0  0  0  0  0
   -0.6895   -9.5676   17.3297 C   0  0  0  0  0  0  0  0  0  0  0  0
    0.8388   -5.8417   27.5264 C   0  0  0  0  0  0  0  0  0  0  0  0
   -2.0709   -7.6637   18.7817 C   0  0  0  0  0  0  0  0  0  0  0  0
   -0.5279   -8.2168   17.0717 C   0  0  0  0  0  0  0  0  0  0  0  0
    6.9694   -4.0191   27.8190 C   0  0  0  0  0  0  0  0  0  0  0  0
    5.1733   -4.5469   29.8123 C   0  0  0  0  0  0  0  0  0  0  0  0
   -1.7508  -11.3016   18.6072 C   0  0  0  0  0  0  0  0  0  0  0  0
    1.7497   -5.6771   26.4971 C   0  0  0  0  0  0  0  0  0  0  0  0
   -1.5799   -9.9322   18.3468 C   0  0  0  0  0  0  0  0  0  0  0  0
   -1.0871  -12.2214   17.8851 C   0  0  0  0  0  0  0  0  0  0  0  0
   -2.2706   -8.9669   19.0691 C   0  0  0  0  0  0  0  0  0  0  0  0
    3.0279   -5.3073   26.8197 C   0  0  0  0  0  0  0  0  0  0  0  0
    7.3282   -3.8948   29.1186 C   0  0  0  0  0  0  0  0  0  0  0  0
  1  3  4  0
  1  7  4  0
  2  3  1  0
  2  6  4  0
  2 16  4  0
  3 22  4  0
  4  9  4  0
  4 10  1  0
  4 20  4  0
  5 16  4  0
  5 23  4  0
  6 15  4  0
  7 12  4  0
  8 13  4  0
  8 14  4  0
  9 11  4  0
 11 14  4  0
 11 19  4  0
 12 18  4  0
 13 21  4  0
 15 23  4  0
 17 19  4  0
 17 20  4  0
 18 22  4  0
 19 21  4  0
M  END
$$$$

 Created by Python create_sdf_string function

 23 25  0  0  0  0  0  0  0  0999 V2000
    2.4610   -5.3070   29.1240 C   0  0  0  0  0  0  0  0  0  0  0  0
    4.7710   -4.6952   28.4803 C   0  0  0  0  0  0  0  0  0  0  0  0
    3.4047   -5.1087   28.1314 C   0  0  0  0  0  0  0  0  0  0  0  0
   -0.2234  -11.8615   16.8874 C   0  0  0  0  0  0  0  0  0  0  0  0
    6.4491   -4.1532   30.1213 C   0  0  0  0  0  0  0  0  0  0  0  0
    5.7060   -4.4340   27.4975 C   0  0  0  0  0  0  0  0  0  0  0  0
    1.1818   -5.6612   28.8399 C   0  0  0  0  0  0  0  0  0  0  0  0
   -1.2067   -7.3287   17.7772 C   0  0  0  0  0  0  0  0  0  0  0  0
   -0.0206  -10.5585   16.6210 C   0  0  0  0  0  0  0  0  0  0  0  0
    0.3696  -12.7626   16.2169 O   0  0  0  0  0  0  0  0  0  0  0  0
   -0.6895   -9.5676   17.3297 C   0  0  0  0  0  0  0  0  0  0  0  0
    0.8388   -5.8417   27.5264 C   0  0  0  0  0  0  0  0  0  0  0  0
   -2.0709   -7.6637   18.7817 C   0  0  0  0  0  0  0  0  0  0  0  0
   -0.5279   -8.2168   17.0717 C   0  0  0  0  0  0  0  0  0  0  0  0
    6.9694   -4.0191   27.8190 C   0  0  0  0  0  0  0  0  0  0  0  0
    5.1733   -4.5469   29.8123 C   0  0  0  0  0  0  0  0  0  0  0  0
   -1.7508  -11.3016   18.6072 C   0  0  0  0  0  0  0  0  0  0  0  0
    1.7497   -5.6771   26.4971 C   0  0  0  0  0  0  0  0  0  0  0  0
   -1.5799   -9.9322   18.3468 C   0  0  0  0  0  0  0  0  0  0  0  0
   -1.0871  -12.2214   17.8851 C   0  0  0  0  0  0  0  0  0  0  0  0
   -2.2706   -8.9669   19.0691 C   0  0  0  0  0  0  0  0  0  0  0  0
    3.0279   -5.3073   26.8197 C   0  0  0  0  0  0  0  0  0  0  0  0
    7.3282   -3.8948   29.1186 C   0  0  0  0  0  0  0  0  0  0  0  0
  1  3  4  0
  1  7  4  0
  2  3  1  0
  2  6  4  0
  2 16  4  0
  3 22  4  0
  4  9  4  0
  4 10  1  0
  4 20  4  0
  5 16  4  0
  5 23  4  0
  6 15  4  0
  7 12  4  0
  8 13  4  0
  8 14  4  0
  9 11  4  0
 11 14  4  0
 11 19  4  0
 12 18  4  0
 13 21  4  0
 15 23  4  0
 17 19  4  0
 17 20  4  0
 18 22  4  0
 19 21  4  0
M  END
$$$$

 Created by Python create_sdf_string function

 23 25  0  0  0  0  0  0  0  0999 V2000
    2.4610   -5.3070   29.1240 C   0  0  0  0  0  0  0  0  0  0  0  0
    4.7710   -4.6952   28.4803 C   0  0  0  0  0  0  0  0  0  0  0  0
    3.4047   -5.1087   28.1314 C   0  0  0  0  0  0  0  0  0  0  0  0
   -0.2234  -11.8615   16.8874 C   0  0  0  0  0  0  0  0  0  0  0  0
    6.4491   -4.1532   30.1213 C   0  0  0  0  0  0  0  0  0  0  0  0
    5.7060   -4.4340   27.4975 C   0  0  0  0  0  0  0  0  0  0  0  0
    1.1818   -5.6612   28.8399 C   0  0  0  0  0  0  0  0  0  0  0  0
   -1.2067   -7.3287   17.7772 C   0  0  0  0  0  0  0  0  0  0  0  0
   -0.0206  -10.5585   16.6210 C   0  0  0  0  0  0  0  0  0  0  0  0
    0.3696  -12.7626   16.2169 O   0  0  0  0  0  0  0  0  0  0  0  0
   -0.6895   -9.5676   17.3297 C   0  0  0  0  0  0  0  0  0  0  0  0
    0.8388   -5.8417   27.5264 C   0  0  0  0  0  0  0  0  0  0  0  0
   -2.0709   -7.6637   18.7817 C   0  0  0  0  0  0  0  0  0  0  0  0
   -0.5279   -8.2168   17.0717 C   0  0  0  0  0  0  0  0  0  0  0  0
    6.9694   -4.0191   27.8190 C   0  0  0  0  0  0  0  0  0  0  0  0
    5.1733   -4.5469   29.8123 C   0  0  0  0  0  0  0  0  0  0  0  0
   -1.7508  -11.3016   18.6072 C   0  0  0  0  0  0  0  0  0  0  0  0
    1.7497   -5.6771   26.4971 C   0  0  0  0  0  0  0  0  0  0  0  0
   -1.5799   -9.9322   18.3468 C   0  0  0  0  0  0  0  0  0  0  0  0
   -1.0871  -12.2214   17.8851 C   0  0  0  0  0  0  0  0  0  0  0  0
   -2.2706   -8.9669   19.0691 C   0  0  0  0  0  0  0  0  0  0  0  0
    3.0279   -5.3073   26.8197 C   0  0  0  0  0  0  0  0  0  0  0  0
    7.3282   -3.8948   29.1186 C   0  0  0  0  0  0  0  0  0  0  0  0
  1  3  4  0
  1  7  4  0
  2  3  1  0
  2  6  4  0
  2 16  4  0
  3 22  4  0
  4  9  4  0
  4 10  1  0
  4 20  4  0
  5 16  4  0
  5 23  4  0
  6 15  4  0
  7 12  4  0
  8 13  4  0
  8 14  4  0
  9 11  4  0
 11 14  4  0
 11 19  4  0
 12 18  4  0
 13 21  4  0
 15 23  4  0
 17 19  4  0
 17 20  4  0
 18 22  4  0
 19 21  4  0
M  END
