
 Created by Python create_sdf_string function

 23 22  0  0  0  0  0  0  0  0999 V2000
    4.0743   -8.2328   21.5834 C   0  0  0  0  0  0  0  0  0  0  0  0
    2.3750   -7.6227   23.5325 Cl  0  0  0  0  0  0  0  0  0  0  0  0
    4.1077   -8.1960   22.2825 O   0  0  0  0  0  0  0  0  0  0  0  0
    3.3935   -9.6385   23.0983 O   0  0  0  0  0  0  0  0  0  0  0  0
    3.1351   -6.6862   21.6248 N   0  0  0  0  0  0  0  0  0  0  0  0
    2.8720   -8.6194   24.1997 C   0  0  0  0  0  0  0  0  0  0  0  0
    2.9186  -10.2507   22.3978 S   0  0  0  0  0  0  0  0  0  0  0  0
    4.7488   -7.9040   22.9912 O   0  0  0  0  0  0  0  0  0  0  0  0
    2.9317   -9.0362   22.5825 O   0  0  0  0  0  0  0  0  0  0  0  0
    2.6947   -9.4003   22.0114 F   0  0  0  0  0  0  0  0  0  0  0  0
    2.3884   -8.8425   21.5317 N   0  0  0  0  0  0  0  0  0  0  0  0
    3.7284   -7.6630   24.0492 N   0  0  0  0  0  0  0  0  0  0  0  0
    1.7764   -7.3772   22.6147 He  0  0  0  0  0  0  0  0  0  0  0  0
    2.9905   -9.7445   23.6810 He  0  0  0  0  0  0  0  0  0  0  0  0
    3.2657   -6.7853   22.2581 He  0  0  0  0  0  0  0  0  0  0  0  0
    1.2338   -9.2831   24.6873 He  0  0  0  0  0  0  0  0  0  0  0  0
    2.8690   -9.2991   21.9996 He  0  0  0  0  0  0  0  0  0  0  0  0
    3.2121   -8.8035   21.2941 He  0  0  0  0  0  0  0  0  0  0  0  0
    3.3427   -8.4530   22.2537 He  0  0  0  0  0  0  0  0  0  0  0  0
    3.7958   -7.5220   20.2271 He  0  0  0  0  0  0  0  0  0  0  0  0
    4.2319   -8.3291   23.1641 He  0  0  0  0  0  0  0  0  0  0  0  0
    3.4272   -9.4128   21.6151 He  0  0  0  0  0  0  0  0  0  0  0  0
    3.2790   -8.2189   23.5283 He  0  0  0  0  0  0  0  0  0  0  0  0
  1  2  1  0
  1 10  3  0
  2  6  2  0
  2  7  3  0
  2  8  4  0
  3  4  2  0
  3  5  4  0
  3  8  2  0
  3  9  3  0
  3 12  2  0
  4  6  1  0
  4 10  3  0
  4 12  2  0
  5  6  1  0
  5 10  4  0
  6 12  3  0
  8  9  4  0
  8 10  4  0
  8 11  2  0
  9 10  3  0
  9 11  2  0
 10 11  2  0
M  END
$$$$

 Created by Python create_sdf_string function

 23 26  0  0  0  0  0  0  0  0999 V2000
    2.9428   -9.8974   26.7832 C   0  0  0  0  0  0  0  0  0  0  0  0
    4.0430   -7.9164   22.2073 Se  0  0  0  0  0  0  0  0  0  0  0  0
    4.3498   -7.6027   27.2973 Cl  0  0  0  0  0  0  0  0  0  0  0  0
   -0.4321   -9.5830   26.6649 S   0  0  0  0  0  0  0  0  0  0  0  0
    4.2960   -8.5461   22.3829 C   0  0  0  0  0  0  0  0  0  0  0  0
    2.6339   -8.6010   25.7263 F   0  0  0  0  0  0  0  0  0  0  0  0
    4.6922   -7.8843   21.4672 Se  0  0  0  0  0  0  0  0  0  0  0  0
    2.9827   -8.8646   24.9626 F   0  0  0  0  0  0  0  0  0  0  0  0
    3.3774   -8.5625   18.5401 F   0  0  0  0  0  0  0  0  0  0  0  0
    3.9934   -9.6375   20.0035 S   0  0  0  0  0  0  0  0  0  0  0  0
    1.5883  -11.8110   19.6894 O   0  0  0  0  0  0  0  0  0  0  0  0
    1.5145   -7.7809   24.5848 N   0  0  0  0  0  0  0  0  0  0  0  0
    3.6231   -7.8472   24.7834 F   0  0  0  0  0  0  0  0  0  0  0  0
    2.2936   -7.3249   24.3673 He  0  0  0  0  0  0  0  0  0  0  0  0
    2.6997   -7.1665   23.2870 He  0  0  0  0  0  0  0  0  0  0  0  0
    2.9265   -9.1249   22.2779 He  0  0  0  0  0  0  0  0  0  0  0  0
    0.9367  -10.0642   22.4353 He  0  0  0  0  0  0  0  0  0  0  0  0
    3.1534  -10.9911   19.5109 He  0  0  0  0  0  0  0  0  0  0  0  0
    4.3205   -6.5879   19.3960 He  0  0  0  0  0  0  0  0  0  0  0  0
    1.2516  -10.0353   21.0499 He  0  0  0  0  0  0  0  0  0  0  0  0
    2.5822   -9.2767   22.4204 He  0  0  0  0  0  0  0  0  0  0  0  0
    4.6869   -7.3916   24.9682 He  0  0  0  0  0  0  0  0  0  0  0  0
    1.7242   -9.6457   23.3847 He  0  0  0  0  0  0  0  0  0  0  0  0
  1  3  2  0
  1  8  3  0
  2  3  2  0
  2  6  1  0
  2  7  4  0
  2  8  2  0
  2 13  4  0
  3  5  3  0
  3  7  4  0
  3  8  3  0
  3 12  4  0
  4  5  4  0
  4  9  2  0
  5  7  1  0
  5  9  3  0
  5 10  3  0
  5 12  3  0
  6  7  4  0
  6 11  4  0
  7  9  4  0
  8 11  4  0
  8 12  2  0
  9 10  1  0
  9 11  3  0
  9 13  3  0
 10 13  2  0
M  END
$$$$

 Created by Python create_sdf_string function

 23 23  0  0  0  0  0  0  0  0999 V2000
    2.3376   -8.8941   27.6618 N   0  0  0  0  0  0  0  0  0  0  0  0
    4.2614   -7.6596   20.9005 F   0  0  0  0  0  0  0  0  0  0  0  0
    3.6641   -8.9958   27.5507 N   0  0  0  0  0  0  0  0  0  0  0  0
    4.9960   -8.3455   22.4722 C   0  0  0  0  0  0  0  0  0  0  0  0
    6.0299   -7.5004   20.5577 N   0  0  0  0  0  0  0  0  0  0  0  0
    2.9603   -8.1055   26.7459 N   0  0  0  0  0  0  0  0  0  0  0  0
    1.1697  -10.6332   19.7640 O   0  0  0  0  0  0  0  0  0  0  0  0
    1.8167   -7.6661   25.7542 Cl  0  0  0  0  0  0  0  0  0  0  0  0
    3.3992   -9.2405   19.3209 C   0  0  0  0  0  0  0  0  0  0  0  0
    4.1260   -8.2418   26.4032 F   0  0  0  0  0  0  0  0  0  0  0  0
    2.7064  -10.0294   20.7060 N   0  0  0  0  0  0  0  0  0  0  0  0
    1.8432   -6.9640   25.5753 He  0  0  0  0  0  0  0  0  0  0  0  0
    2.1554   -7.6593   23.8442 He  0  0  0  0  0  0  0  0  0  0  0  0
    0.5075   -8.4987   27.2313 He  0  0  0  0  0  0  0  0  0  0  0  0
    3.7839  -12.2066   20.6376 He  0  0  0  0  0  0  0  0  0  0  0  0
    1.6175  -10.6546   20.1938 He  0  0  0  0  0  0  0  0  0  0  0  0
    4.5469   -8.2731   19.7102 He  0  0  0  0  0  0  0  0  0  0  0  0
    2.8818   -7.8348   20.5936 He  0  0  0  0  0  0  0  0  0  0  0  0
    0.9203   -8.7126   21.6146 He  0  0  0  0  0  0  0  0  0  0  0  0
    0.9291  -10.7826   21.6547 He  0  0  0  0  0  0  0  0  0  0  0  0
    2.4668   -9.8130   20.2829 He  0  0  0  0  0  0  0  0  0  0  0  0
    1.8838   -8.5579   25.5004 He  0  0  0  0  0  0  0  0  0  0  0  0
    1.2532   -6.4359   25.2132 He  0  0  0  0  0  0  0  0  0  0  0  0
  1  3  3  0
  1  4  1  0
  1  8  1  0
  1 10  4  0
  1 11  3  0
  2  7  4  0
  2  9  4  0
  3  5  4  0
  3  6  2  0
  3  9  1  0
  3 11  2  0
  4  9  3  0
  4 10  2  0
  5  6  1  0
  5  8  2  0
  5 10  3  0
  6 10  2  0
  6 11  3  0
  7  8  2  0
  7  9  3  0
  7 11  2  0
  8  9  4  0
  9 10  3  0
M  END
$$$$

 Created by Python create_sdf_string function

 23 32  0  0  0  0  0  0  0  0999 V2000
    2.9554   -7.7755   27.3233 O   0  0  0  0  0  0  0  0  0  0  0  0
    2.2622   -6.6139   23.6965 Cl  0  0  0  0  0  0  0  0  0  0  0  0
    3.5249  -10.7946   21.2546 F   0  0  0  0  0  0  0  0  0  0  0  0
    1.4032   -8.8337   27.8820 N   0  0  0  0  0  0  0  0  0  0  0  0
    5.1814   -7.2938   23.3072 S   0  0  0  0  0  0  0  0  0  0  0  0
    3.1026  -13.0597   18.8918 N   0  0  0  0  0  0  0  0  0  0  0  0
    4.8404   -9.8884   20.5321 C   0  0  0  0  0  0  0  0  0  0  0  0
    3.9769   -8.1318   27.1588 N   0  0  0  0  0  0  0  0  0  0  0  0
    3.5375   -8.8888   20.3815 Br  0  0  0  0  0  0  0  0  0  0  0  0
    2.0416   -7.5083   25.5929 C   0  0  0  0  0  0  0  0  0  0  0  0
    4.7666   -8.2013   26.8945 F   0  0  0  0  0  0  0  0  0  0  0  0
    2.9449  -10.5858   21.9559 O   0  0  0  0  0  0  0  0  0  0  0  0
    0.8096   -6.2810   25.1067 Br  0  0  0  0  0  0  0  0  0  0  0  0
    1.0902   -7.0463   28.1410 He  0  0  0  0  0  0  0  0  0  0  0  0
    3.2426   -8.2375   27.6716 He  0  0  0  0  0  0  0  0  0  0  0  0
    1.9623  -11.1773   20.8919 He  0  0  0  0  0  0  0  0  0  0  0  0
    6.1178   -6.6879   20.2725 He  0  0  0  0  0  0  0  0  0  0  0  0
    2.9502  -11.2261   19.0853 He  0  0  0  0  0  0  0  0  0  0  0  0
    2.2852   -7.4383   21.2053 He  0  0  0  0  0  0  0  0  0  0  0  0
    4.1470   -7.8043   19.4290 He  0  0  0  0  0  0  0  0  0  0  0  0
    1.9525  -10.7699   18.9078 He  0  0  0  0  0  0  0  0  0  0  0  0
    1.3181  -10.9293   20.7066 He  0  0  0  0  0  0  0  0  0  0  0  0
    1.1567   -7.3315   26.4999 He  0  0  0  0  0  0  0  0  0  0  0  0
  1  2  1  0
  1  6  3  0
  1  7  3  0
  1 11  2  0
  1 13  3  0
  2  4  2  0
  2  5  2  0
  2  8  2  0
  2  9  1  0
  2 11  3  0
  2 12  4  0
  3  5  4  0
  3  8  1  0
  3 10  3  0
  3 11  1  0
  4  5  3  0
  4  6  4  0
  5  7  1  0
  5  9  1  0
  5 10  2  0
  5 11  2  0
  6 11  2  0
  7  8  2  0
  7 13  4  0
  8 10  3  0
  8 12  2  0
  9 10  2  0
  9 12  2  0
  9 13  1  0
 10 13  3  0
 11 12  2  0
 12 13  1  0
M  END
$$$$

 Created by Python create_sdf_string function

 23 17  0  0  0  0  0  0  0  0999 V2000
    1.1131   -6.9498   24.5508 B   0  0  0  0  0  0  0  0  0  0  0  0
    3.6314   -7.8708   28.0688 O   0  0  0  0  0  0  0  0  0  0  0  0
    1.4531  -12.3852   19.9322 N   0  0  0  0  0  0  0  0  0  0  0  0
    3.8640  -10.9950   18.4408 N   0  0  0  0  0  0  0  0  0  0  0  0
    2.1737   -5.5052   25.9870 F   0  0  0  0  0  0  0  0  0  0  0  0
    3.1419   -9.2118   23.1301 Cl  0  0  0  0  0  0  0  0  0  0  0  0
    2.9455   -9.1556   19.1241 S   0  0  0  0  0  0  0  0  0  0  0  0
    0.4796   -7.1922   27.5776 P   0  0  0  0  0  0  0  0  0  0  0  0
    3.0407   -7.1227   28.3508 He  0  0  0  0  0  0  0  0  0  0  0  0
    0.7363   -6.3750   27.7971 He  0  0  0  0  0  0  0  0  0  0  0  0
    2.1178  -10.7812   22.1258 He  0  0  0  0  0  0  0  0  0  0  0  0
    1.6998   -8.5498   26.1960 He  0  0  0  0  0  0  0  0  0  0  0  0
    4.2401   -5.8936   25.7839 He  0  0  0  0  0  0  0  0  0  0  0  0
    1.9201   -9.1206   19.9610 He  0  0  0  0  0  0  0  0  0  0  0  0
    3.6977  -10.8042   21.0900 He  0  0  0  0  0  0  0  0  0  0  0  0
    6.8691   -8.2749   19.7151 He  0  0  0  0  0  0  0  0  0  0  0  0
    3.3276   -8.3294   28.4978 He  0  0  0  0  0  0  0  0  0  0  0  0
    5.2171   -9.1970   21.5199 He  0  0  0  0  0  0  0  0  0  0  0  0
    5.3776   -7.4209   25.6803 He  0  0  0  0  0  0  0  0  0  0  0  0
    2.4662  -10.9395   21.7718 He  0  0  0  0  0  0  0  0  0  0  0  0
    0.6185   -9.7267   18.4020 He  0  0  0  0  0  0  0  0  0  0  0  0
    1.4603  -11.5810   20.5443 He  0  0  0  0  0  0  0  0  0  0  0  0
    2.8751   -7.0568   25.1282 He  0  0  0  0  0  0  0  0  0  0  0  0
  1  2  3  0
  1  7  4  0
  1  8  1  0
  2  3  1  0
  2  4  1  0
  2  5  3  0
  2  6  3  0
  2  7  1  0
  2  8  4  0
  3  5  3  0
  3  7  1  0
  4  6  1  0
  4  7  4  0
  5  6  4  0
  5  8  4  0
  6  7  4  0
  7  8  1  0
M  END
$$$$

 Created by Python create_sdf_string function

 23 19  0  0  0  0  0  0  0  0999 V2000
    1.6075   -6.0643   27.7460 O   0  0  0  0  0  0  0  0  0  0  0  0
    1.2643   -7.3640   28.5168 C   0  0  0  0  0  0  0  0  0  0  0  0
    2.5573   -7.1913   25.6377 O   0  0  0  0  0  0  0  0  0  0  0  0
    1.4806   -9.0307   20.8316 S   0  0  0  0  0  0  0  0  0  0  0  0
    1.8615   -8.8033   20.0247 B   0  0  0  0  0  0  0  0  0  0  0  0
    4.8538  -10.0792   19.8041 Cl  0  0  0  0  0  0  0  0  0  0  0  0
    2.8716   -7.3940   27.9794 Cl  0  0  0  0  0  0  0  0  0  0  0  0
    3.0751   -9.6334   18.3042 O   0  0  0  0  0  0  0  0  0  0  0  0
    3.2884  -10.4901   21.5878 F   0  0  0  0  0  0  0  0  0  0  0  0
    0.9729   -9.8451   17.8491 C   0  0  0  0  0  0  0  0  0  0  0  0
    3.9255   -7.5740   25.3404 F   0  0  0  0  0  0  0  0  0  0  0  0
    3.1643   -7.1272   26.7701 He  0  0  0  0  0  0  0  0  0  0  0  0
    2.3631   -7.7884   28.6942 He  0  0  0  0  0  0  0  0  0  0  0  0
    2.2993   -5.6228   25.7873 He  0  0  0  0  0  0  0  0  0  0  0  0
    0.1104  -12.2610   17.8452 He  0  0  0  0  0  0  0  0  0  0  0  0
    2.0245  -10.4220   19.9193 He  0  0  0  0  0  0  0  0  0  0  0  0
    4.8543   -9.9987   17.6103 He  0  0  0  0  0  0  0  0  0  0  0  0
    6.0218  -10.2800   21.0064 He  0  0  0  0  0  0  0  0  0  0  0  0
    1.4396   -5.8844   26.0696 He  0  0  0  0  0  0  0  0  0  0  0  0
    1.8382   -6.9154   24.8541 He  0  0  0  0  0  0  0  0  0  0  0  0
    4.7293   -6.0847   27.0379 He  0  0  0  0  0  0  0  0  0  0  0  0
    1.9935   -9.4169   20.4742 He  0  0  0  0  0  0  0  0  0  0  0  0
    0.7673   -6.8232   26.8188 He  0  0  0  0  0  0  0  0  0  0  0  0
  1  3  4  0
  1  6  3  0
  2  5  1  0
  2  7  3  0
  2  9  2  0
  2 10  2  0
  3 10  2  0
  4 11  4  0
  5  9  4  0
  5 10  4  0
  5 11  4  0
  6  7  4  0
  6 10  3  0
  6 11  2  0
  7  9  3  0
  7 10  3  0
  8  9  3  0
  8 11  4  0
 10 11  2  0
M  END
$$$$

 Created by Python create_sdf_string function

 23 36  0  0  0  0  0  0  0  0999 V2000
    0.5351   -4.5723   27.1626 O   0  0  0  0  0  0  0  0  0  0  0  0
    3.8129   -7.6834   26.7376 C   0  0  0  0  0  0  0  0  0  0  0  0
    1.4214   -8.4661   22.0180 N   0  0  0  0  0  0  0  0  0  0  0  0
    4.1168   -7.5368   26.7636 C   0  0  0  0  0  0  0  0  0  0  0  0
    1.7399   -7.9212   27.5979 F   0  0  0  0  0  0  0  0  0  0  0  0
    0.4835   -8.9128   17.2036 F   0  0  0  0  0  0  0  0  0  0  0  0
    1.9581  -10.7088   18.8467 O   0  0  0  0  0  0  0  0  0  0  0  0
    2.9100   -9.1824   19.8535 Cl  0  0  0  0  0  0  0  0  0  0  0  0
    3.0941   -7.0494   27.1210 C   0  0  0  0  0  0  0  0  0  0  0  0
    0.8001   -7.7470   26.3952 Se  0  0  0  0  0  0  0  0  0  0  0  0
    3.1176  -10.1317   18.4749 C   0  0  0  0  0  0  0  0  0  0  0  0
   -0.0837  -11.6638   16.9969 N   0  0  0  0  0  0  0  0  0  0  0  0
    1.0655   -7.6451   27.3914 Cl  0  0  0  0  0  0  0  0  0  0  0  0
    4.1703   -6.6780   25.4317 O   0  0  0  0  0  0  0  0  0  0  0  0
    3.0130   -6.5841   26.7856 He  0  0  0  0  0  0  0  0  0  0  0  0
    0.5450   -7.1491   27.6190 He  0  0  0  0  0  0  0  0  0  0  0  0
    0.2884  -11.0181   18.0479 He  0  0  0  0  0  0  0  0  0  0  0  0
    3.0886   -8.4076   18.1833 He  0  0  0  0  0  0  0  0  0  0  0  0
    3.2547   -8.7126   20.4329 He  0  0  0  0  0  0  0  0  0  0  0  0
    0.8945   -6.8511   24.2689 He  0  0  0  0  0  0  0  0  0  0  0  0
    6.0193   -6.0187   27.5737 He  0  0  0  0  0  0  0  0  0  0  0  0
    1.8726  -11.8695   20.4644 He  0  0  0  0  0  0  0  0  0  0  0  0
    2.2343   -9.0538   17.9910 He  0  0  0  0  0  0  0  0  0  0  0  0
  1  2  1  0
  1  6  1  0
  1 11  2  0
  1 12  3  0
  2  3  2  0
  2  4  4  0
  2  5  2  0
  3  5  1  0
  3  7  2  0
  3  9  3  0
  3 10  1  0
  3 13  4  0
  4  6  3  0
  4  8  4  0
  4  9  3  0
  4 11  3  0
  5 10  4  0
  5 12  4  0
  5 14  1  0
  6  8  3  0
  6 10  1  0
  6 11  1  0
  6 13  3  0
  7  8  2  0
  7  9  4  0
  7 11  2  0
  7 12  3  0
  7 13  4  0
  7 14  2  0
  8  9  4  0
  8 12  4  0
  8 13  1  0
  9 13  2  0
 10 13  1  0
 10 14  2  0
 12 13  4  0
M  END
$$$$

 Created by Python create_sdf_string function

 23 30  0  0  0  0  0  0  0  0999 V2000
   -0.3657   -3.7884   27.2658 C   0  0  0  0  0  0  0  0  0  0  0  0
    3.7735   -6.2105   26.7677 C   0  0  0  0  0  0  0  0  0  0  0  0
    1.5128   -9.2483   28.3847 Cl  0  0  0  0  0  0  0  0  0  0  0  0
   -0.0818   -7.5878   28.3645 F   0  0  0  0  0  0  0  0  0  0  0  0
   -0.0813   -8.8041   19.9070 O   0  0  0  0  0  0  0  0  0  0  0  0
    2.7499  -10.9210   20.7403 S   0  0  0  0  0  0  0  0  0  0  0  0
    2.8748   -6.8656   26.4391 O   0  0  0  0  0  0  0  0  0  0  0  0
    2.2971  -10.9630   18.8424 Cl  0  0  0  0  0  0  0  0  0  0  0  0
    2.8466   -9.2798   17.8446 O   0  0  0  0  0  0  0  0  0  0  0  0
    1.4797   -5.7198   27.8621 F   0  0  0  0  0  0  0  0  0  0  0  0
    4.4696   -7.3401   26.8977 C   0  0  0  0  0  0  0  0  0  0  0  0
    5.0483   -6.7992   29.2535 He  0  0  0  0  0  0  0  0  0  0  0  0
    2.2205   -9.9493   21.2811 He  0  0  0  0  0  0  0  0  0  0  0  0
    4.6023   -6.6459   27.2419 He  0  0  0  0  0  0  0  0  0  0  0  0
    0.8561  -11.5720   18.2103 He  0  0  0  0  0  0  0  0  0  0  0  0
    0.4890   -9.2011   18.7454 He  0  0  0  0  0  0  0  0  0  0  0  0
    4.1252  -11.7180   19.0077 He  0  0  0  0  0  0  0  0  0  0  0  0
    1.3687   -6.6311   29.4546 He  0  0  0  0  0  0  0  0  0  0  0  0
    2.6696  -10.8743   17.3152 He  0  0  0  0  0  0  0  0  0  0  0  0
    3.1740   -7.7368   27.7133 He  0  0  0  0  0  0  0  0  0  0  0  0
    3.7190   -4.9154   26.0710 He  0  0  0  0  0  0  0  0  0  0  0  0
    2.2642  -11.9187   20.1046 He  0  0  0  0  0  0  0  0  0  0  0  0
   -1.9514  -12.7595   19.0536 He  0  0  0  0  0  0  0  0  0  0  0  0
  1  2  3  0
  1  3  4  0
  1  4  2  0
  1  5  3  0
  1  6  1  0
  1  7  2  0
  1  8  2  0
  1  9  3  0
  1 11  4  0
  2  4  2  0
  2  8  3  0
  2 10  1  0
  3  4  4  0
  3  8  4  0
  3 11  1  0
  4  5  3  0
  4  9  4  0
  5  6  2  0
  5  7  1  0
  5  8  2  0
  5 11  4  0
  6  7  1  0
  6  9  1  0
  6 11  1  0
  7  9  2  0
  7 10  1  0
  8 10  3  0
  8 11  4  0
  9 10  4  0
  9 11  4  0
M  END
$$$$

 Created by Python create_sdf_string function

 23 24  0  0  0  0  0  0  0  0999 V2000
    1.4915   -3.5761   28.2945 N   0  0  0  0  0  0  0  0  0  0  0  0
    4.1621   -5.4155   28.1422 F   0  0  0  0  0  0  0  0  0  0  0  0
    3.9263   -3.9178   27.0190 N   0  0  0  0  0  0  0  0  0  0  0  0
   -0.0806  -11.0447   19.0267 F   0  0  0  0  0  0  0  0  0  0  0  0
    5.5399   -6.2564   28.3706 N   0  0  0  0  0  0  0  0  0  0  0  0
    1.2003   -6.5618   27.7942 C   0  0  0  0  0  0  0  0  0  0  0  0
    0.4743   -6.0631   29.3035 O   0  0  0  0  0  0  0  0  0  0  0  0
    3.0346  -11.4240   18.0658 C   0  0  0  0  0  0  0  0  0  0  0  0
    3.4620   -5.8965   28.4674 F   0  0  0  0  0  0  0  0  0  0  0  0
    3.5924   -5.0027   26.1877 C   0  0  0  0  0  0  0  0  0  0  0  0
    1.1075   -6.2031   26.9163 C   0  0  0  0  0  0  0  0  0  0  0  0
    2.3923   -8.8023   27.5693 He  0  0  0  0  0  0  0  0  0  0  0  0
   -0.2251  -10.1354   18.9752 He  0  0  0  0  0  0  0  0  0  0  0  0
   -0.0974  -10.6270   18.1714 He  0  0  0  0  0  0  0  0  0  0  0  0
    0.0218   -9.2483   19.7478 He  0  0  0  0  0  0  0  0  0  0  0  0
    5.1977  -10.4652   16.9024 He  0  0  0  0  0  0  0  0  0  0  0  0
    2.5398   -9.9935   19.5139 He  0  0  0  0  0  0  0  0  0  0  0  0
    1.1117  -12.7788   17.9952 He  0  0  0  0  0  0  0  0  0  0  0  0
    1.5043  -11.8140   18.2141 He  0  0  0  0  0  0  0  0  0  0  0  0
   -1.5149  -11.3767   19.1966 He  0  0  0  0  0  0  0  0  0  0  0  0
    1.9309  -10.4770   17.0508 He  0  0  0  0  0  0  0  0  0  0  0  0
    1.9793   -6.6808   27.9153 He  0  0  0  0  0  0  0  0  0  0  0  0
    5.8846   -6.4730   27.3900 He  0  0  0  0  0  0  0  0  0  0  0  0
  1  2  3  0
  1  4  2  0
  1  6  2  0
  1  8  2  0
  2  4  1  0
  2  7  3  0
  2  8  3  0
  3  6  3  0
  3  9  3  0
  3 10  1  0
  4  5  3  0
  4  6  1  0
  4 10  1  0
  5  9  4  0
  5 10  2  0
  6  8  3  0
  6 10  3  0
  6 11  4  0
  7  9  4  0
  7 11  3  0
  8 10  2  0
  8 11  2  0
  9 10  2  0
  9 11  4  0
M  END
$$$$

 Created by Python create_sdf_string function

 23 12  0  0  0  0  0  0  0  0999 V2000
    2.3980   -4.3430   27.0512 C   0  0  0  0  0  0  0  0  0  0  0  0
    4.6497   -6.4122   27.1851 S   0  0  0  0  0  0  0  0  0  0  0  0
   -0.8320  -10.1042   19.6216 C   0  0  0  0  0  0  0  0  0  0  0  0
    1.5516   -7.0452   27.8695 F   0  0  0  0  0  0  0  0  0  0  0  0
    0.3767  -12.1943   17.6918 N   0  0  0  0  0  0  0  0  0  0  0  0
   -2.0214  -10.3628   17.8471 N   0  0  0  0  0  0  0  0  0  0  0  0
    1.6875   -6.5728   28.4149 C   0  0  0  0  0  0  0  0  0  0  0  0
    2.5707  -10.9059   17.4973 C   0  0  0  0  0  0  0  0  0  0  0  0
    3.0429   -5.3056   27.1913 N   0  0  0  0  0  0  0  0  0  0  0  0
    1.7370  -10.4517   18.9270 C   0  0  0  0  0  0  0  0  0  0  0  0
    4.9936   -4.7040   27.3485 C   0  0  0  0  0  0  0  0  0  0  0  0
    3.7961   -5.7007   28.3046 He  0  0  0  0  0  0  0  0  0  0  0  0
    4.3791   -5.6201   28.4825 He  0  0  0  0  0  0  0  0  0  0  0  0
    2.9359   -8.2270   26.4545 He  0  0  0  0  0  0  0  0  0  0  0  0
   -0.6987  -10.9505   17.3342 He  0  0  0  0  0  0  0  0  0  0  0  0
    4.0563   -9.1570   14.8750 He  0  0  0  0  0  0  0  0  0  0  0  0
    2.1277  -12.0052   17.7365 He  0  0  0  0  0  0  0  0  0  0  0  0
    3.3131   -4.9802   28.9993 He  0  0  0  0  0  0  0  0  0  0  0  0
    0.4296   -6.1131   26.1664 He  0  0  0  0  0  0  0  0  0  0  0  0
    3.1157   -8.5921   17.5637 He  0  0  0  0  0  0  0  0  0  0  0  0
   -0.8582  -11.1021   20.3134 He  0  0  0  0  0  0  0  0  0  0  0  0
    1.9464   -9.6944   16.3737 He  0  0  0  0  0  0  0  0  0  0  0  0
    1.5087   -6.4376   27.5929 He  0  0  0  0  0  0  0  0  0  0  0  0
  1  9  1  0
  1 10  1  0
  1 11  2  0
  2  3  3  0
  2  9  1  0
  2 11  4  0
  3  7  3  0
  4  7  1  0
  5  7  1  0
  5 10  2  0
  6  8  3  0
 10 11  4  0
M  END
$$$$

 Created by Python create_sdf_string function

 23 13  0  0  0  0  0  0  0  0999 V2000
    5.7071   -5.5381   29.0597 C   0  0  0  0  0  0  0  0  0  0  0  0
    3.3242   -5.7761   29.7159 O   0  0  0  0  0  0  0  0  0  0  0  0
   -0.7961  -11.5890   18.1842 F   0  0  0  0  0  0  0  0  0  0  0  0
    0.6598  -12.2796   18.1860 C   0  0  0  0  0  0  0  0  0  0  0  0
    2.4155   -9.3240   17.7577 O   0  0  0  0  0  0  0  0  0  0  0  0
    1.5584   -7.2225   29.5797 P   0  0  0  0  0  0  0  0  0  0  0  0
    3.1789   -7.2125   27.9474 C   0  0  0  0  0  0  0  0  0  0  0  0
    2.1662   -6.5154   28.2771 N   0  0  0  0  0  0  0  0  0  0  0  0
    4.8236   -3.2806   28.2250 S   0  0  0  0  0  0  0  0  0  0  0  0
    2.2558   -4.1168   25.3983 He  0  0  0  0  0  0  0  0  0  0  0  0
    6.7836   -6.0943   27.9469 He  0  0  0  0  0  0  0  0  0  0  0  0
   -0.0303   -9.8324   16.7553 He  0  0  0  0  0  0  0  0  0  0  0  0
    1.5272   -7.9359   27.7957 He  0  0  0  0  0  0  0  0  0  0  0  0
    1.4326   -5.8310   27.4561 He  0  0  0  0  0  0  0  0  0  0  0  0
   -1.3962  -10.6283   18.9292 He  0  0  0  0  0  0  0  0  0  0  0  0
    1.6470  -11.2571   17.5701 He  0  0  0  0  0  0  0  0  0  0  0  0
    1.9890  -11.2028   17.3890 He  0  0  0  0  0  0  0  0  0  0  0  0
    4.6232   -5.5575   27.0026 He  0  0  0  0  0  0  0  0  0  0  0  0
    1.3382   -9.4341   17.6354 He  0  0  0  0  0  0  0  0  0  0  0  0
    0.8187   -3.8647   28.4113 He  0  0  0  0  0  0  0  0  0  0  0  0
    0.9849   -9.5772   16.6547 He  0  0  0  0  0  0  0  0  0  0  0  0
   -0.8787  -11.2885   19.8894 He  0  0  0  0  0  0  0  0  0  0  0  0
    2.2853   -8.8034   15.3401 He  0  0  0  0  0  0  0  0  0  0  0  0
  1  8  4  0
  1  9  2  0
  2  8  1  0
  3  4  4  0
  3  5  2  0
  3  6  2  0
  3  9  3  0
  4  6  1  0
  4  7  4  0
  5  7  1  0
  5  8  3  0
  6  9  2  0
  7  8  2  0
M  END
$$$$

 Created by Python create_sdf_string function

 23 66  0  0  0  0  0  0  0  0999 V2000
    2.3879   -5.2064   26.7551 N   0  0  0  0  0  0  0  0  0  0  0  0
    5.5141   -6.6087   29.2152 O   0  0  0  0  0  0  0  0  0  0  0  0
   -0.5371   -9.9569   17.2502 S   0  0  0  0  0  0  0  0  0  0  0  0
    2.2045   -7.2026   28.3373 Cl  0  0  0  0  0  0  0  0  0  0  0  0
    0.8483   -5.4271   27.4604 C   0  0  0  0  0  0  0  0  0  0  0  0
   -0.9358  -10.1112   17.8015 S   0  0  0  0  0  0  0  0  0  0  0  0
    0.4452  -12.1732   18.5550 C   0  0  0  0  0  0  0  0  0  0  0  0
   -0.4678  -11.2019   17.0443 C   0  0  0  0  0  0  0  0  0  0  0  0
    2.9026  -11.4288   17.0854 N   0  0  0  0  0  0  0  0  0  0  0  0
    0.4555  -11.2014   18.5660 O   0  0  0  0  0  0  0  0  0  0  0  0
    4.2111   -6.7911   28.6237 C   0  0  0  0  0  0  0  0  0  0  0  0
    2.4727   -7.1875   28.3083 C   0  0  0  0  0  0  0  0  0  0  0  0
    1.7175  -10.5981   15.9227 F   0  0  0  0  0  0  0  0  0  0  0  0
    2.3718   -4.7057   27.9320 N   0  0  0  0  0  0  0  0  0  0  0  0
   -0.1405   -9.2491   17.2718 N   0  0  0  0  0  0  0  0  0  0  0  0
    0.0701   -9.4749   18.4415 C   0  0  0  0  0  0  0  0  0  0  0  0
    1.3273   -6.8903   15.8773 Se  0  0  0  0  0  0  0  0  0  0  0  0
    5.6814   -1.8656   27.3786 C   0  0  0  0  0  0  0  0  0  0  0  0
    5.5909   -6.7634   28.7515 He  0  0  0  0  0  0  0  0  0  0  0  0
    4.2490   -7.1204   28.9871 He  0  0  0  0  0  0  0  0  0  0  0  0
    2.6808   -7.8799   28.4445 He  0  0  0  0  0  0  0  0  0  0  0  0
    1.8510  -10.1650   17.5996 He  0  0  0  0  0  0  0  0  0  0  0  0
    2.9866   -8.1234   27.3067 He  0  0  0  0  0  0  0  0  0  0  0  0
  1  3  2  0
  1  5  3  0
  1  7  1  0
  1  8  1  0
  1 14  2  0
  1 17  1  0
  2  6  2  0
  2  7  2  0
  2  8  4  0
  2  9  4  0
  2 10  1  0
  2 16  2  0
  2 17  2  0
  2 18  1  0
  3  6  1  0
  3 11  3  0
  3 15  4  0
  3 16  1  0
  4  7  4  0
  4  8  2  0
  4 10  4  0
  4 11  2  0
  4 13  1  0
  4 14  4  0
  4 16  3  0
  4 17  1  0
  4 18  4  0
  5  6  2  0
  5  7  2  0
  5 10  4  0
  5 11  1  0
  5 16  4  0
  5 17  2  0
  6  8  1  0
  6 14  3  0
  6 16  3  0
  6 18  1  0
  7 10  3  0
  7 12  1  0
  7 16  3  0
  7 17  3  0
  7 18  4  0
  8  9  1  0
  8 11  2  0
  8 13  2  0
  8 14  2  0
  8 16  2  0
  8 18  1  0
  9 12  3  0
  9 16  4  0
  9 18  2  0
 10 11  4  0
 10 12  3  0
 10 13  3  0
 10 15  2  0
 10 16  3  0
 10 17  1  0
 11 14  2  0
 11 17  3  0
 12 13  2  0
 12 14  3  0
 12 16  4  0
 13 14  4  0
 13 17  3  0
 14 15  4  0
 16 18  3  0
M  END
$$$$

 Created by Python create_sdf_string function

 23 31  0  0  0  0  0  0  0  0999 V2000
    1.8898   -3.8142   28.0717 I   0  0  0  0  0  0  0  0  0  0  0  0
    3.4048   -6.8404   27.9598 O   0  0  0  0  0  0  0  0  0  0  0  0
    4.6456   -4.9787   27.9488 P   0  0  0  0  0  0  0  0  0  0  0  0
   -0.7390  -10.7961   18.0517 C   0  0  0  0  0  0  0  0  0  0  0  0
    0.8125  -11.5320   18.1183 Br  0  0  0  0  0  0  0  0  0  0  0  0
    3.5453   -9.9508   17.6564 C   0  0  0  0  0  0  0  0  0  0  0  0
    4.2923   -5.3259   28.6456 N   0  0  0  0  0  0  0  0  0  0  0  0
    0.5354   -8.6966   26.4225 N   0  0  0  0  0  0  0  0  0  0  0  0
    2.9198   -5.7991   28.0653 O   0  0  0  0  0  0  0  0  0  0  0  0
    2.8725   -7.5515   17.4683 F   0  0  0  0  0  0  0  0  0  0  0  0
   -0.0699  -10.3029   18.0667 C   0  0  0  0  0  0  0  0  0  0  0  0
    0.6662   -8.8841   15.7657 B   0  0  0  0  0  0  0  0  0  0  0  0
    5.5958   -4.3855   28.5603 Se  0  0  0  0  0  0  0  0  0  0  0  0
   -0.6190   -8.9638   18.4242 He  0  0  0  0  0  0  0  0  0  0  0  0
    4.7993   -6.9012   28.3950 He  0  0  0  0  0  0  0  0  0  0  0  0
    2.0959   -6.6232   28.5673 He  0  0  0  0  0  0  0  0  0  0  0  0
    1.6457   -5.8138   26.5793 He  0  0  0  0  0  0  0  0  0  0  0  0
    1.1019  -12.1296   17.3157 He  0  0  0  0  0  0  0  0  0  0  0  0
    1.1213  -12.2969   16.7496 He  0  0  0  0  0  0  0  0  0  0  0  0
    3.6780   -8.0418   28.2450 He  0  0  0  0  0  0  0  0  0  0  0  0
   -0.0372  -10.4821   18.4273 He  0  0  0  0  0  0  0  0  0  0  0  0
    2.9634   -9.8915   17.4090 He  0  0  0  0  0  0  0  0  0  0  0  0
    1.5990   -7.6594   28.6038 He  0  0  0  0  0  0  0  0  0  0  0  0
  1  3  2  0
  1  4  4  0
  1  5  1  0
  1 11  1  0
  2  3  2  0
  2  4  3  0
  2  6  3  0
  2 12  3  0
  3  5  2  0
  3  6  3  0
  3 11  1  0
  3 12  4  0
  3 13  2  0
  4  6  2  0
  4  7  3  0
  4 13  1  0
  5  6  1  0
  5  7  2  0
  5 10  1  0
  5 11  4  0
  5 12  3  0
  6  7  2  0
  6  8  2  0
  6 12  4  0
  7 12  2  0
  8 10  1  0
  9 11  3  0
  9 12  2  0
  9 13  2  0
 11 12  3  0
 11 13  4  0
M  END
$$$$

 Created by Python create_sdf_string function

 23 30  0  0  0  0  0  0  0  0999 V2000
    3.8830   -7.4139   26.4933 C   0  0  0  0  0  0  0  0  0  0  0  0
    0.1241   -7.1121   27.8471 C   0  0  0  0  0  0  0  0  0  0  0  0
   -1.7275  -11.6138   19.1388 F   0  0  0  0  0  0  0  0  0  0  0  0
    0.7802  -11.7673   18.3283 O   0  0  0  0  0  0  0  0  0  0  0  0
    1.1330  -11.1489   18.0688 Cl  0  0  0  0  0  0  0  0  0  0  0  0
    0.7596  -11.4996   17.8674 O   0  0  0  0  0  0  0  0  0  0  0  0
    3.5804   -9.1054   28.8743 Cl  0  0  0  0  0  0  0  0  0  0  0  0
   -1.7123   -9.6412   17.9370 N   0  0  0  0  0  0  0  0  0  0  0  0
    2.4888   -9.7327   17.3859 Cl  0  0  0  0  0  0  0  0  0  0  0  0
    4.7144   -4.8759   27.6987 N   0  0  0  0  0  0  0  0  0  0  0  0
    2.1567   -6.8562   26.0893 O   0  0  0  0  0  0  0  0  0  0  0  0
    3.5411   -9.2808   16.6887 O   0  0  0  0  0  0  0  0  0  0  0  0
    2.5185   -5.8531   29.0081 S   0  0  0  0  0  0  0  0  0  0  0  0
    0.6640   -8.9801   15.8108 Se  0  0  0  0  0  0  0  0  0  0  0  0
    4.2201   -3.5583   28.3325 He  0  0  0  0  0  0  0  0  0  0  0  0
    4.3248   -3.6971   27.7964 He  0  0  0  0  0  0  0  0  0  0  0  0
   -0.5505   -9.2577   18.4981 He  0  0  0  0  0  0  0  0  0  0  0  0
    4.9018   -6.6604   29.5318 He  0  0  0  0  0  0  0  0  0  0  0  0
    0.7110   -4.9222   27.8810 He  0  0  0  0  0  0  0  0  0  0  0  0
    2.2187   -9.6326   15.8043 He  0  0  0  0  0  0  0  0  0  0  0  0
   -0.3329  -10.8455   17.7495 He  0  0  0  0  0  0  0  0  0  0  0  0
    1.9219   -7.0449   28.6623 He  0  0  0  0  0  0  0  0  0  0  0  0
    4.9675   -3.1261   28.0771 He  0  0  0  0  0  0  0  0  0  0  0  0
  1  2  1  0
  1  4  1  0
  1  6  1  0
  1  7  1  0
  1  8  4  0
  1 11  2  0
  2  3  3  0
  2  4  3  0
  2  6  2  0
  2 11  3  0
  3  4  3  0
  3  7  3  0
  3 14  3  0
  4  9  2  0
  4 11  3  0
  5  6  3  0
  5  8  3  0
  5 14  3  0
  6 10  3  0
  6 11  1  0
  7  8  1  0
  7  9  2  0
  7 10  2  0
  7 11  3  0
  8 10  3  0
  8 14  4  0
 10 13  1  0
 11 14  3  0
 12 14  3  0
 13 14  2  0
M  END
$$$$

 Created by Python create_sdf_string function

 23 33  0  0  0  0  0  0  0  0999 V2000
    5.1785   -3.2879   27.7703 S   0  0  0  0  0  0  0  0  0  0  0  0
    3.1104   -7.5931   28.3728 C   0  0  0  0  0  0  0  0  0  0  0  0
    4.4080   -4.0379   27.9428 N   0  0  0  0  0  0  0  0  0  0  0  0
    1.1936   -5.6964   25.8790 C   0  0  0  0  0  0  0  0  0  0  0  0
   -1.8502  -12.0114   19.2220 O   0  0  0  0  0  0  0  0  0  0  0  0
    1.5827  -10.4176   17.9411 O   0  0  0  0  0  0  0  0  0  0  0  0
   -1.8961   -8.6619   18.0261 B   0  0  0  0  0  0  0  0  0  0  0  0
    3.1899   -5.9107   29.2117 C   0  0  0  0  0  0  0  0  0  0  0  0
    2.7541   -8.0664   27.1829 Cl  0  0  0  0  0  0  0  0  0  0  0  0
    3.9600   -5.6830   27.4186 F   0  0  0  0  0  0  0  0  0  0  0  0
    2.8686   -6.7748   29.2902 C   0  0  0  0  0  0  0  0  0  0  0  0
    5.5444   -5.4321   28.1947 N   0  0  0  0  0  0  0  0  0  0  0  0
   -0.7965   -8.8673   18.5031 He  0  0  0  0  0  0  0  0  0  0  0  0
    4.3441   -7.1173   27.7727 He  0  0  0  0  0  0  0  0  0  0  0  0
    2.6930   -4.6637   26.2602 He  0  0  0  0  0  0  0  0  0  0  0  0
    1.6384  -11.4140   18.4804 He  0  0  0  0  0  0  0  0  0  0  0  0
    0.4265  -11.8519   17.6783 He  0  0  0  0  0  0  0  0  0  0  0  0
    2.9225   -7.1750   26.9815 He  0  0  0  0  0  0  0  0  0  0  0  0
    3.6618  -10.9696   17.7101 He  0  0  0  0  0  0  0  0  0  0  0  0
    4.0992   -9.3562   16.5499 He  0  0  0  0  0  0  0  0  0  0  0  0
    2.4300  -12.3558   16.4487 He  0  0  0  0  0  0  0  0  0  0  0  0
    1.2011   -9.7237   18.5219 He  0  0  0  0  0  0  0  0  0  0  0  0
    0.5917   -8.5537   14.7183 He  0  0  0  0  0  0  0  0  0  0  0  0
  1  3  4  0
  1  7  1  0
  1 10  4  0
  2  3  2  0
  2  4  1  0
  2  5  3  0
  2  7  2  0
  2  8  1  0
  2 10  2  0
  2 11  3  0
  3  4  1  0
  3  5  4  0
  3  7  1  0
  3  8  3  0
  3 11  4  0
  3 12  1  0
  4 10  2  0
  4 11  4  0
  4 12  1  0
  5  6  4  0
  5  7  4  0
  6  7  2  0
  6  8  2  0
  6 10  3  0
  6 12  2  0
  7  9  1  0
  7 11  2  0
  8 12  2  0
  9 10  4  0
  9 11  3  0
  9 12  1  0
 10 12  1  0
 11 12  4  0
M  END
$$$$

 Created by Python create_sdf_string function

 23 17  0  0  0  0  0  0  0  0999 V2000
    2.5273   -8.7229   29.1376 C   0  0  0  0  0  0  0  0  0  0  0  0
    4.9812   -6.6211   28.5261 O   0  0  0  0  0  0  0  0  0  0  0  0
    0.1526   -4.2274   26.0415 S   0  0  0  0  0  0  0  0  0  0  0  0
    2.6155   -5.2367   26.3475 C   0  0  0  0  0  0  0  0  0  0  0  0
    1.1194  -11.4036   17.6464 C   0  0  0  0  0  0  0  0  0  0  0  0
   -0.1407  -11.8050   17.5698 F   0  0  0  0  0  0  0  0  0  0  0  0
   -1.6312   -8.0615   19.9109 C   0  0  0  0  0  0  0  0  0  0  0  0
    3.3584   -9.9688   15.5661 F   0  0  0  0  0  0  0  0  0  0  0  0
    1.4573  -11.4057   18.6234 F   0  0  0  0  0  0  0  0  0  0  0  0
    0.3701   -8.8169   16.6881 N   0  0  0  0  0  0  0  0  0  0  0  0
    3.8441   -7.8320   28.2697 P   0  0  0  0  0  0  0  0  0  0  0  0
    6.7082   -3.6348   27.9022 He  0  0  0  0  0  0  0  0  0  0  0  0
    5.1936   -2.9676   27.3637 He  0  0  0  0  0  0  0  0  0  0  0  0
   -2.0356   -9.5707   17.5577 He  0  0  0  0  0  0  0  0  0  0  0  0
    0.5820  -11.9571   18.2268 He  0  0  0  0  0  0  0  0  0  0  0  0
    2.3043   -8.9996   17.7625 He  0  0  0  0  0  0  0  0  0  0  0  0
    1.9044   -6.7042   28.5131 He  0  0  0  0  0  0  0  0  0  0  0  0
    2.4883  -11.1621   15.9211 He  0  0  0  0  0  0  0  0  0  0  0  0
    3.5497   -4.9784   30.1680 He  0  0  0  0  0  0  0  0  0  0  0  0
    2.6069   -6.8424   27.3890 He  0  0  0  0  0  0  0  0  0  0  0  0
    4.2038   -4.8596   28.4764 He  0  0  0  0  0  0  0  0  0  0  0  0
    3.8689  -10.6698   16.6617 He  0  0  0  0  0  0  0  0  0  0  0  0
    4.5656   -6.1446   27.6889 He  0  0  0  0  0  0  0  0  0  0  0  0
  1 11  3  0
  2  6  2  0
  2  9  4  0
  3  4  2  0
  3  6  1  0
  4  8  3  0
  4 11  1  0
  5  8  4  0
  5 10  2  0
  6 10  4  0
  7  8  3  0
  7 11  2  0
  8  9  4  0
  8 10  3  0
  9 10  4  0
  9 11  4  0
 10 11  3  0
M  END
$$$$

 Created by Python create_sdf_string function

 23 13  0  0  0  0  0  0  0  0999 V2000
    0.7477   -7.9305   15.2109 Br  0  0  0  0  0  0  0  0  0  0  0  0
    4.9936   -6.3860   27.7986 F   0  0  0  0  0  0  0  0  0  0  0  0
    1.6494   -5.0017   25.4783 C   0  0  0  0  0  0  0  0  0  0  0  0
    1.4046   -9.3788   18.4357 F   0  0  0  0  0  0  0  0  0  0  0  0
   -0.7022   -9.9091   17.8534 C   0  0  0  0  0  0  0  0  0  0  0  0
    0.4743   -5.6531   27.3258 N   0  0  0  0  0  0  0  0  0  0  0  0
    4.7622   -8.4474   27.3137 Cl  0  0  0  0  0  0  0  0  0  0  0  0
    4.8174   -7.5321   28.7279 F   0  0  0  0  0  0  0  0  0  0  0  0
    5.5923   -3.6418   29.2533 He  0  0  0  0  0  0  0  0  0  0  0  0
    1.4567   -8.1781   29.5133 He  0  0  0  0  0  0  0  0  0  0  0  0
    5.6943   -2.7243   27.1895 He  0  0  0  0  0  0  0  0  0  0  0  0
    1.7071   -5.2790   27.1127 He  0  0  0  0  0  0  0  0  0  0  0  0
   -0.5172   -9.2581   19.2046 He  0  0  0  0  0  0  0  0  0  0  0  0
    1.9662  -10.6904   18.1412 He  0  0  0  0  0  0  0  0  0  0  0  0
   -0.0560  -11.1890   18.3545 He  0  0  0  0  0  0  0  0  0  0  0  0
    1.8696   -6.9056   27.5750 He  0  0  0  0  0  0  0  0  0  0  0  0
    2.2276  -10.9885   17.9439 He  0  0  0  0  0  0  0  0  0  0  0  0
    3.1259   -6.0629   29.5213 He  0  0  0  0  0  0  0  0  0  0  0  0
    3.4092  -10.4248   16.6662 He  0  0  0  0  0  0  0  0  0  0  0  0
    5.1152   -3.8078   27.3562 He  0  0  0  0  0  0  0  0  0  0  0  0
    3.9451  -10.9168   15.6844 He  0  0  0  0  0  0  0  0  0  0  0  0
    1.5505  -10.5188   17.7449 He  0  0  0  0  0  0  0  0  0  0  0  0
   -0.4457   -8.9074   17.4356 He  0  0  0  0  0  0  0  0  0  0  0  0
  1  2  2  0
  1  4  1  0
  1  5  1  0
  1  7  4  0
  1  8  3  0
  2  3  3  0
  2  4  2  0
  2  7  3  0
  3  7  2  0
  4  8  2  0
  5  6  2  0
  6  8  1  0
  7  8  3  0
M  END
$$$$

 Created by Python create_sdf_string function

 23 48  0  0  0  0  0  0  0  0999 V2000
    6.4839   -2.8191   28.7029 O   0  0  0  0  0  0  0  0  0  0  0  0
    1.4921   -6.8903   28.0527 O   0  0  0  0  0  0  0  0  0  0  0  0
    5.3891   -3.5559   27.7236 N   0  0  0  0  0  0  0  0  0  0  0  0
    4.1044   -5.8252   26.3723 C   0  0  0  0  0  0  0  0  0  0  0  0
    2.7022   -7.1055   26.4068 C   0  0  0  0  0  0  0  0  0  0  0  0
   -1.2240   -9.3633   18.6338 S   0  0  0  0  0  0  0  0  0  0  0  0
    0.6463   -9.4586   17.4092 P   0  0  0  0  0  0  0  0  0  0  0  0
    0.0852   -7.6888   16.0490 C   0  0  0  0  0  0  0  0  0  0  0  0
    0.0687   -9.5599   17.8223 Cl  0  0  0  0  0  0  0  0  0  0  0  0
    1.3933   -6.5225   26.1852 S   0  0  0  0  0  0  0  0  0  0  0  0
   -2.2939   -9.8990   19.4376 O   0  0  0  0  0  0  0  0  0  0  0  0
    2.0869  -12.5516   18.4480 C   0  0  0  0  0  0  0  0  0  0  0  0
    5.8715   -5.4057   28.4573 S   0  0  0  0  0  0  0  0  0  0  0  0
    3.6724   -9.6231   17.2702 Se  0  0  0  0  0  0  0  0  0  0  0  0
    0.0413   -9.9939   17.6088 I   0  0  0  0  0  0  0  0  0  0  0  0
    2.1101   -8.1431   29.0261 C   0  0  0  0  0  0  0  0  0  0  0  0
    2.5031  -10.0101   17.8616 He  0  0  0  0  0  0  0  0  0  0  0  0
    5.9046   -6.7290   27.7631 He  0  0  0  0  0  0  0  0  0  0  0  0
    3.4319   -5.6642   28.6289 He  0  0  0  0  0  0  0  0  0  0  0  0
    1.4844   -7.9606   27.9501 He  0  0  0  0  0  0  0  0  0  0  0  0
    3.0687  -10.8885   17.9905 He  0  0  0  0  0  0  0  0  0  0  0  0
    0.4068  -11.6343   17.2247 He  0  0  0  0  0  0  0  0  0  0  0  0
    4.0175   -7.5786   28.6025 He  0  0  0  0  0  0  0  0  0  0  0  0
  1  7  2  0
  1  9  1  0
  1 10  1  0
  1 12  2  0
  1 14  2  0
  1 15  2  0
  2 11  1  0
  2 13  1  0
  2 16  1  0
  3  5  4  0
  3  8  2  0
  3 10  3  0
  3 12  2  0
  3 13  4  0
  3 15  4  0
  4  5  1  0
  4  7  3  0
  4  8  4  0
  4 12  2  0
  4 14  2  0
  5  7  4  0
  5  8  4  0
  5 10  4  0
  5 11  3  0
  5 12  4  0
  5 13  2  0
  5 14  1  0
  6  8  1  0
  6  9  1  0
  6 11  3  0
  6 13  3  0
  7 11  3  0
  7 13  1  0
  7 14  3  0
  7 15  3  0
  8 10  1  0
  8 14  2  0
  8 16  2  0
  9 11  3  0
  9 15  1  0
 10 15  3  0
 10 16  1  0
 11 12  1  0
 11 14  4  0
 12 13  4  0
 12 14  1  0
 12 16  2  0
 13 14  1  0
M  END
$$$$

 Created by Python create_sdf_string function

 23 18  0  0  0  0  0  0  0  0999 V2000
    1.4048   -8.1111   27.4969 F   0  0  0  0  0  0  0  0  0  0  0  0
    3.9334   -2.0130   28.8519 O   0  0  0  0  0  0  0  0  0  0  0  0
    3.0210   -6.0563   28.0853 Cl  0  0  0  0  0  0  0  0  0  0  0  0
    2.5170   -8.6707   16.8448 O   0  0  0  0  0  0  0  0  0  0  0  0
   -0.6084   -8.5330   17.2603 O   0  0  0  0  0  0  0  0  0  0  0  0
   -1.0745   -9.4237   18.4001 N   0  0  0  0  0  0  0  0  0  0  0  0
   -2.1848   -9.3302   17.0397 Cl  0  0  0  0  0  0  0  0  0  0  0  0
    2.5638  -10.6867   17.2812 C   0  0  0  0  0  0  0  0  0  0  0  0
    1.2472   -9.4001   18.4924 O   0  0  0  0  0  0  0  0  0  0  0  0
   -0.5271  -10.9070   17.9670 N   0  0  0  0  0  0  0  0  0  0  0  0
    3.8986   -7.7405   27.8329 N   0  0  0  0  0  0  0  0  0  0  0  0
    6.0401   -5.0283   28.4593 He  0  0  0  0  0  0  0  0  0  0  0  0
    3.7949   -8.8632   19.0524 He  0  0  0  0  0  0  0  0  0  0  0  0
    6.4490   -6.1856   29.0938 He  0  0  0  0  0  0  0  0  0  0  0  0
    3.3944   -5.3213   26.8672 He  0  0  0  0  0  0  0  0  0  0  0  0
   -0.4586   -7.2463   17.8864 He  0  0  0  0  0  0  0  0  0  0  0  0
    1.3807   -6.2783   26.2977 He  0  0  0  0  0  0  0  0  0  0  0  0
    0.5233  -11.1978   17.8029 He  0  0  0  0  0  0  0  0  0  0  0  0
    4.2116   -5.6467   28.5891 He  0  0  0  0  0  0  0  0  0  0  0  0
    1.8268   -8.8009   26.3540 He  0  0  0  0  0  0  0  0  0  0  0  0
    6.5483   -2.5635   27.5191 He  0  0  0  0  0  0  0  0  0  0  0  0
    1.5622   -9.0414   17.0526 He  0  0  0  0  0  0  0  0  0  0  0  0
    2.6757   -8.1866   28.2292 He  0  0  0  0  0  0  0  0  0  0  0  0
  1  7  4  0
  1  8  3  0
  1 10  4  0
  1 11  2  0
  2  9  4  0
  3  5  4  0
  4  8  4  0
  4  9  4  0
  4 10  2  0
  5  8  2  0
  5 11  4  0
  6  7  2  0
  6 10  4  0
  6 11  4  0
  7 11  2  0
  8 10  2  0
  8 11  2  0
  9 10  1  0
M  END
$$$$

 Created by Python create_sdf_string function

 23 28  0  0  0  0  0  0  0  0999 V2000
    2.6587   -8.5522   28.4133 Cl  0  0  0  0  0  0  0  0  0  0  0  0
    4.1377   -2.7146   28.8208 O   0  0  0  0  0  0  0  0  0  0  0  0
    3.1223   -7.0582   28.7193 C   0  0  0  0  0  0  0  0  0  0  0  0
   -0.1265   -9.5798   18.0116 S   0  0  0  0  0  0  0  0  0  0  0  0
    0.4595  -10.4284   15.8906 O   0  0  0  0  0  0  0  0  0  0  0  0
    5.5794   -5.3339   28.5465 S   0  0  0  0  0  0  0  0  0  0  0  0
    3.5759   -8.1699   27.6861 C   0  0  0  0  0  0  0  0  0  0  0  0
    6.4242   -2.9194   26.8159 N   0  0  0  0  0  0  0  0  0  0  0  0
    0.5458   -8.8424   16.2540 C   0  0  0  0  0  0  0  0  0  0  0  0
    2.3262   -9.7730   17.5361 F   0  0  0  0  0  0  0  0  0  0  0  0
   -0.7196   -8.1600   17.4405 N   0  0  0  0  0  0  0  0  0  0  0  0
    3.9100   -7.2999   27.9652 Br  0  0  0  0  0  0  0  0  0  0  0  0
    2.7843   -8.8159   28.0452 P   0  0  0  0  0  0  0  0  0  0  0  0
    6.8312   -4.6977   26.8967 He  0  0  0  0  0  0  0  0  0  0  0  0
    2.4048  -11.3086   16.6229 He  0  0  0  0  0  0  0  0  0  0  0  0
    4.8593   -6.8297   27.5162 He  0  0  0  0  0  0  0  0  0  0  0  0
    2.9825   -3.9389   28.0088 He  0  0  0  0  0  0  0  0  0  0  0  0
    0.5198   -6.8034   15.5119 He  0  0  0  0  0  0  0  0  0  0  0  0
    2.5351   -9.6287   17.0173 He  0  0  0  0  0  0  0  0  0  0  0  0
    0.2909   -7.5268   16.9018 He  0  0  0  0  0  0  0  0  0  0  0  0
    0.0717   -5.3139   27.0991 He  0  0  0  0  0  0  0  0  0  0  0  0
   -2.4457   -7.6984   17.2972 He  0  0  0  0  0  0  0  0  0  0  0  0
    2.1569  -11.1630   16.7988 He  0  0  0  0  0  0  0  0  0  0  0  0
  1  3  2  0
  1  5  4  0
  1  6  1  0
  1  7  3  0
  1  9  2  0
  1 12  1  0
  1 13  2  0
  2  3  4  0
  2  8  1  0
  2 13  1  0
  3  7  2  0
  3  9  4  0
  3 10  4  0
  3 11  4  0
  4  6  1  0
  4  9  2  0
  4 10  3  0
  5  6  4  0
  5 10  4  0
  5 13  4  0
  7  8  2  0
  7 10  1  0
  7 13  2  0
  8  9  2  0
  8 13  2  0
 10 11  3  0
 11 13  2  0
 12 13  3  0
M  END
$$$$

 Created by Python create_sdf_string function

 23 18  0  0  0  0  0  0  0  0999 V2000
    5.9708   -4.2998   26.2726 C   0  0  0  0  0  0  0  0  0  0  0  0
    1.5806   -8.4586   28.9992 C   0  0  0  0  0  0  0  0  0  0  0  0
    1.8768  -12.2393   16.9414 O   0  0  0  0  0  0  0  0  0  0  0  0
    5.3173   -5.5884   27.4257 C   0  0  0  0  0  0  0  0  0  0  0  0
   -0.5226   -7.5485   17.1612 N   0  0  0  0  0  0  0  0  0  0  0  0
    2.7068   -8.4214   26.9514 Cl  0  0  0  0  0  0  0  0  0  0  0  0
    1.8008  -12.4083   16.3145 O   0  0  0  0  0  0  0  0  0  0  0  0
    0.3300  -10.5197   18.0862 C   0  0  0  0  0  0  0  0  0  0  0  0
    3.0971   -6.2347   27.8611 P   0  0  0  0  0  0  0  0  0  0  0  0
    3.4270   -8.0236   26.8157 Cl  0  0  0  0  0  0  0  0  0  0  0  0
    4.3443   -4.1941   27.7848 He  0  0  0  0  0  0  0  0  0  0  0  0
    1.0558   -8.0090   26.9746 He  0  0  0  0  0  0  0  0  0  0  0  0
    3.4389   -3.4753   27.8340 He  0  0  0  0  0  0  0  0  0  0  0  0
    3.0247   -8.5433   17.1231 He  0  0  0  0  0  0  0  0  0  0  0  0
    0.5574   -7.7536   15.7582 He  0  0  0  0  0  0  0  0  0  0  0  0
    1.1155   -9.8992   16.8875 He  0  0  0  0  0  0  0  0  0  0  0  0
    2.6542   -6.3516   26.5362 He  0  0  0  0  0  0  0  0  0  0  0  0
   -0.5855   -6.4406   18.3786 He  0  0  0  0  0  0  0  0  0  0  0  0
    1.4431   -9.7930   17.4361 He  0  0  0  0  0  0  0  0  0  0  0  0
    5.2267   -4.2417   27.7576 He  0  0  0  0  0  0  0  0  0  0  0  0
    5.8485   -2.9158   25.5861 He  0  0  0  0  0  0  0  0  0  0  0  0
    3.6277   -9.9810   18.5342 He  0  0  0  0  0  0  0  0  0  0  0  0
   -1.8788   -7.7759   16.8100 He  0  0  0  0  0  0  0  0  0  0  0  0
  1  3  1  0
  1 10  4  0
  2  6  2  0
  2  7  3  0
  2  8  1  0
  2  9  4  0
  2 10  4  0
  4  5  4  0
  4  6  1  0
  4  9  2  0
  5 10  1  0
  6  7  3  0
  6  8  3  0
  6  9  1  0
  7  9  3  0
  8  9  3  0
  8 10  2  0
  9 10  3  0
M  END
$$$$

 Created by Python create_sdf_string function

 23 16  0  0  0  0  0  0  0  0999 V2000
    5.6295   -3.8876   27.4681 C   0  0  0  0  0  0  0  0  0  0  0  0
    0.9870   -8.0487   27.1953 S   0  0  0  0  0  0  0  0  0  0  0  0
    4.1978   -4.0152   26.9425 F   0  0  0  0  0  0  0  0  0  0  0  0
   -0.0933  -11.6795   15.7012 C   0  0  0  0  0  0  0  0  0  0  0  0
    3.0543   -3.8661   27.0331 C   0  0  0  0  0  0  0  0  0  0  0  0
    3.7911   -9.8906   27.1680 S   0  0  0  0  0  0  0  0  0  0  0  0
    4.7301   -2.3041   26.2309 C   0  0  0  0  0  0  0  0  0  0  0  0
    0.5665  -10.0257   17.7851 C   0  0  0  0  0  0  0  0  0  0  0  0
    1.7306  -10.7638   17.3352 N   0  0  0  0  0  0  0  0  0  0  0  0
    3.9241   -8.8251   26.0707 C   0  0  0  0  0  0  0  0  0  0  0  0
    7.4816   -5.9523   27.9899 He  0  0  0  0  0  0  0  0  0  0  0  0
    1.3783   -8.0456   28.8947 He  0  0  0  0  0  0  0  0  0  0  0  0
   -0.8552   -7.3939   15.6020 He  0  0  0  0  0  0  0  0  0  0  0  0
    2.8548   -9.5785   15.0167 He  0  0  0  0  0  0  0  0  0  0  0  0
   -0.1102   -9.1772   17.5399 He  0  0  0  0  0  0  0  0  0  0  0  0
    0.4474   -8.6998   17.2872 He  0  0  0  0  0  0  0  0  0  0  0  0
    2.3935   -4.4927   28.0452 He  0  0  0  0  0  0  0  0  0  0  0  0
   -0.5133   -6.8916   17.7826 He  0  0  0  0  0  0  0  0  0  0  0  0
    2.0613  -10.0726   16.5387 He  0  0  0  0  0  0  0  0  0  0  0  0
    4.3255   -3.3570   28.5571 He  0  0  0  0  0  0  0  0  0  0  0  0
    1.9924  -12.2332   18.5667 He  0  0  0  0  0  0  0  0  0  0  0  0
   -2.0398   -9.6406   18.1530 He  0  0  0  0  0  0  0  0  0  0  0  0
    1.8359   -5.4958   26.9188 He  0  0  0  0  0  0  0  0  0  0  0  0
  1  4  4  0
  1  5  1  0
  1  6  1  0
  2  8  2  0
  2  9  4  0
  2 10  1  0
  3  4  3  0
  3  5  1  0
  3  8  3  0
  4  6  4  0
  5 10  4  0
  7  8  1  0
  7  9  4  0
  7 10  3  0
  8  9  4  0
  8 10  2  0
M  END
$$$$

 Created by Python create_sdf_string function

 23 29  0  0  0  0  0  0  0  0999 V2000
    1.7662   -6.3296   28.1473 C   0  0  0  0  0  0  0  0  0  0  0  0
   -1.1570  -11.8931   17.3792 Cl  0  0  0  0  0  0  0  0  0  0  0  0
    6.7569   -6.8032   27.3407 O   0  0  0  0  0  0  0  0  0  0  0  0
   -0.1626   -6.0019   16.5741 O   0  0  0  0  0  0  0  0  0  0  0  0
    0.2927   -9.0076   18.4404 C   0  0  0  0  0  0  0  0  0  0  0  0
    1.3479   -5.3523   27.6135 Br  0  0  0  0  0  0  0  0  0  0  0  0
   -1.7281   -6.3974   18.5102 C   0  0  0  0  0  0  0  0  0  0  0  0
    1.5712   -9.2800   16.2942 Se  0  0  0  0  0  0  0  0  0  0  0  0
    1.0239  -12.9866   18.1299 P   0  0  0  0  0  0  0  0  0  0  0  0
    5.0798   -3.4736   27.8287 C   0  0  0  0  0  0  0  0  0  0  0  0
    0.0973   -8.4202   18.7067 C   0  0  0  0  0  0  0  0  0  0  0  0
    2.4150  -10.2320   18.0871 F   0  0  0  0  0  0  0  0  0  0  0  0
   -2.2835   -9.5452   16.7990 B   0  0  0  0  0  0  0  0  0  0  0  0
    4.3760   -6.0960   28.0674 C   0  0  0  0  0  0  0  0  0  0  0  0
    4.3777   -5.5468   28.2371 He  0  0  0  0  0  0  0  0  0  0  0  0
    4.0321   -4.7729   27.9000 He  0  0  0  0  0  0  0  0  0  0  0  0
    0.4431   -6.9804   28.4137 He  0  0  0  0  0  0  0  0  0  0  0  0
    2.4589   -3.7360   29.1386 He  0  0  0  0  0  0  0  0  0  0  0  0
    2.0663  -10.1289   15.4048 He  0  0  0  0  0  0  0  0  0  0  0  0
    1.5020   -9.9758   17.3571 He  0  0  0  0  0  0  0  0  0  0  0  0
    4.9060   -3.6429   28.6499 He  0  0  0  0  0  0  0  0  0  0  0  0
    2.9598   -9.1685   25.6465 He  0  0  0  0  0  0  0  0  0  0  0  0
    3.0396   -7.3108   27.7693 He  0  0  0  0  0  0  0  0  0  0  0  0
  1  7  1  0
  1  9  4  0
  1 11  4  0
  1 14  3  0
  2  3  2  0
  2  7  4  0
  2  9  1  0
  2 10  4  0
  3  7  4  0
  3  8  1  0
  3 10  2  0
  3 11  3  0
  3 12  4  0
  4 10  3  0
  4 11  3  0
  4 13  4  0
  5  7  4  0
  5 10  1  0
  5 11  1  0
  5 14  4  0
  6  7  1  0
  6  9  2  0
  7 13  2  0
  8 10  2  0
  9 10  1  0
  9 11  3  0
  9 12  4  0
 10 13  1  0
 12 14  3  0
M  END
$$$$

 Created by Python create_sdf_string function

 23 25  0  0  0  0  0  0  0  0999 V2000
    4.9567   -5.3709   27.7220 P   0  0  0  0  0  0  0  0  0  0  0  0
    3.3503   -5.8650   28.5530 F   0  0  0  0  0  0  0  0  0  0  0  0
    2.3569   -4.7935   29.0218 N   0  0  0  0  0  0  0  0  0  0  0  0
    0.2323  -10.7562   18.6002 O   0  0  0  0  0  0  0  0  0  0  0  0
    1.5256   -9.0119   15.9985 O   0  0  0  0  0  0  0  0  0  0  0  0
    2.1727   -6.4580   26.3000 Cl  0  0  0  0  0  0  0  0  0  0  0  0
    4.1241   -4.7455   28.5721 B   0  0  0  0  0  0  0  0  0  0  0  0
    5.5777   -4.6516   27.3300 C   0  0  0  0  0  0  0  0  0  0  0  0
    0.7736   -7.7723   17.5056 C   0  0  0  0  0  0  0  0  0  0  0  0
    1.3515  -10.2135   16.2329 C   0  0  0  0  0  0  0  0  0  0  0  0
   -2.5491  -10.3876   17.5377 N   0  0  0  0  0  0  0  0  0  0  0  0
    3.2570   -7.8737   25.8052 S   0  0  0  0  0  0  0  0  0  0  0  0
    6.2127   -5.7267   27.6761 He  0  0  0  0  0  0  0  0  0  0  0  0
   -0.5062   -6.0689   26.9146 He  0  0  0  0  0  0  0  0  0  0  0  0
    3.9870   -3.5553   29.7904 He  0  0  0  0  0  0  0  0  0  0  0  0
   -0.7334   -8.2253   16.9517 He  0  0  0  0  0  0  0  0  0  0  0  0
    1.0135  -10.6568   17.4128 He  0  0  0  0  0  0  0  0  0  0  0  0
   -0.2909   -9.2076   19.1149 He  0  0  0  0  0  0  0  0  0  0  0  0
   -0.9270   -7.4348   17.2249 He  0  0  0  0  0  0  0  0  0  0  0  0
    0.3110   -9.5764   16.7744 He  0  0  0  0  0  0  0  0  0  0  0  0
    3.2764   -8.9799   27.3572 He  0  0  0  0  0  0  0  0  0  0  0  0
    0.6635  -12.6615   17.7479 He  0  0  0  0  0  0  0  0  0  0  0  0
    1.9061   -6.9087   27.6154 He  0  0  0  0  0  0  0  0  0  0  0  0
  1  3  4  0
  1  4  4  0
  1  5  3  0
  1  6  1  0
  1  9  4  0
  1 10  2  0
  1 11  1  0
  2  3  4  0
  2  7  2  0
  2  9  2  0
  2 10  2  0
  2 12  1  0
  3  5  2  0
  3  6  4  0
  3  7  3  0
  3  8  1  0
  3 12  4  0
  4  5  3  0
  4  8  4  0
  4 10  4  0
  5  9  2  0
  6 11  2  0
  7 10  2  0
  7 11  2  0
  8  9  1  0
M  END
$$$$

 Created by Python create_sdf_string function

 23 32  0  0  0  0  0  0  0  0999 V2000
    5.4843   -6.5259   25.3614 F   0  0  0  0  0  0  0  0  0  0  0  0
    2.4348   -5.6952   27.3287 O   0  0  0  0  0  0  0  0  0  0  0  0
    2.2513   -4.9573   28.8113 C   0  0  0  0  0  0  0  0  0  0  0  0
   -0.8049  -10.8347   18.4464 N   0  0  0  0  0  0  0  0  0  0  0  0
    6.2484   -5.7255   27.9633 N   0  0  0  0  0  0  0  0  0  0  0  0
   -1.1461   -9.2800   16.3487 I   0  0  0  0  0  0  0  0  0  0  0  0
   -1.1856  -10.5467   18.3014 O   0  0  0  0  0  0  0  0  0  0  0  0
   -0.7654   -9.8406   17.3085 S   0  0  0  0  0  0  0  0  0  0  0  0
    5.1194   -4.2232   29.2924 F   0  0  0  0  0  0  0  0  0  0  0  0
    0.6148  -11.9724   18.5203 O   0  0  0  0  0  0  0  0  0  0  0  0
    5.9494   -4.2760   28.2890 C   0  0  0  0  0  0  0  0  0  0  0  0
    0.7478   -9.7515   17.8003 C   0  0  0  0  0  0  0  0  0  0  0  0
    4.6202   -7.7002   25.5735 C   0  0  0  0  0  0  0  0  0  0  0  0
    0.6575   -7.3324   27.4362 C   0  0  0  0  0  0  0  0  0  0  0  0
    0.3674   -5.6943   26.6885 He  0  0  0  0  0  0  0  0  0  0  0  0
    4.1890   -3.6647   29.6134 He  0  0  0  0  0  0  0  0  0  0  0  0
    0.8838   -9.9399   16.3747 He  0  0  0  0  0  0  0  0  0  0  0  0
   -0.2984  -10.3296   15.3583 He  0  0  0  0  0  0  0  0  0  0  0  0
    2.4801   -6.3307   27.3522 He  0  0  0  0  0  0  0  0  0  0  0  0
    1.7163   -9.3689   19.3253 He  0  0  0  0  0  0  0  0  0  0  0  0
    4.7231   -7.2458   27.0859 He  0  0  0  0  0  0  0  0  0  0  0  0
    0.5418   -8.8924   16.0866 He  0  0  0  0  0  0  0  0  0  0  0  0
   -1.2571  -10.7102   17.6649 He  0  0  0  0  0  0  0  0  0  0  0  0
  1  4  3  0
  1  8  1  0
  1  9  2  0
  1 10  3  0
  1 12  4  0
  1 13  4  0
  1 14  4  0
  2  4  2  0
  2 11  3  0
  2 13  4  0
  2 14  4  0
  3  7  3  0
  3 12  2  0
  4 13  4  0
  4 14  4  0
  5 12  2  0
  6  7  4  0
  6  8  2  0
  6  9  4  0
  6 10  4  0
  7  8  2  0
  7 10  4  0
  7 11  2  0
  7 12  4  0
  8 12  3  0
  8 13  1  0
  9 11  3  0
  9 13  1  0
 11 13  1  0
 12 13  4  0
 12 14  1  0
 13 14  4  0
M  END
$$$$

 Created by Python create_sdf_string function

 23 30  0  0  0  0  0  0  0  0999 V2000
    2.5726   -5.9579   27.7290 C   0  0  0  0  0  0  0  0  0  0  0  0
    2.8995   -4.1133   28.3626 F   0  0  0  0  0  0  0  0  0  0  0  0
    1.5075   -5.8032   25.7398 Cl  0  0  0  0  0  0  0  0  0  0  0  0
    4.0552   -4.3926   28.7888 C   0  0  0  0  0  0  0  0  0  0  0  0
   -1.3656   -8.8059   16.7768 P   0  0  0  0  0  0  0  0  0  0  0  0
    0.7214   -9.2058   15.2799 N   0  0  0  0  0  0  0  0  0  0  0  0
   -1.2101  -10.0888   19.1979 Cl  0  0  0  0  0  0  0  0  0  0  0  0
    2.6048   -6.3079   26.8190 C   0  0  0  0  0  0  0  0  0  0  0  0
    5.4492   -6.0395   26.2041 N   0  0  0  0  0  0  0  0  0  0  0  0
   -0.9656  -13.0748   17.3039 C   0  0  0  0  0  0  0  0  0  0  0  0
    0.1194  -10.7710   15.6704 F   0  0  0  0  0  0  0  0  0  0  0  0
    0.7502   -9.9046   17.8171 C   0  0  0  0  0  0  0  0  0  0  0  0
   -1.5008  -10.6474   16.1722 C   0  0  0  0  0  0  0  0  0  0  0  0
    1.5340   -6.1498   27.8299 F   0  0  0  0  0  0  0  0  0  0  0  0
    5.4364   -7.3142   27.0244 He  0  0  0  0  0  0  0  0  0  0  0  0
   -2.4554  -11.7774   17.2038 He  0  0  0  0  0  0  0  0  0  0  0  0
    7.1075   -5.9868   28.3298 He  0  0  0  0  0  0  0  0  0  0  0  0
   -0.2552  -11.3989   17.3918 He  0  0  0  0  0  0  0  0  0  0  0  0
   -1.1131   -9.8128   16.4691 He  0  0  0  0  0  0  0  0  0  0  0  0
    1.4940  -10.2256   18.4756 He  0  0  0  0  0  0  0  0  0  0  0  0
    4.3999   -5.7036   29.8295 He  0  0  0  0  0  0  0  0  0  0  0  0
    4.1439   -3.8658   28.2128 He  0  0  0  0  0  0  0  0  0  0  0  0
    3.5862   -7.5225   26.7884 He  0  0  0  0  0  0  0  0  0  0  0  0
  1  3  2  0
  1 10  1  0
  1 11  4  0
  2  8  1  0
  2 12  4  0
  2 13  4  0
  3  6  1  0
  3  8  1  0
  3  9  4  0
  3 11  4  0
  3 13  4  0
  4  7  3  0
  4 11  2  0
  5 10  4  0
  5 14  1  0
  6  8  2  0
  6 11  4  0
  6 13  1  0
  6 14  4  0
  7 12  2  0
  7 13  1  0
  7 14  1  0
  8  9  2  0
  8 11  4  0
  9 13  4  0
 10 13  3  0
 11 13  1  0
 11 14  1  0
 12 13  3  0
 12 14  2  0
M  END
$$$$

 Created by Python create_sdf_string function

 23 43  0  0  0  0  0  0  0  0999 V2000
   -1.5091  -12.2446   17.7494 O   0  0  0  0  0  0  0  0  0  0  0  0
    2.2175   -6.3330   27.2869 F   0  0  0  0  0  0  0  0  0  0  0  0
    4.1250   -6.0091   29.4711 C   0  0  0  0  0  0  0  0  0  0  0  0
   -0.1248   -9.1161   18.0323 Cl  0  0  0  0  0  0  0  0  0  0  0  0
   -0.4328  -10.0037   15.2515 P   0  0  0  0  0  0  0  0  0  0  0  0
   -0.8365  -11.7318   18.3900 C   0  0  0  0  0  0  0  0  0  0  0  0
    2.6249   -6.1091   27.8979 C   0  0  0  0  0  0  0  0  0  0  0  0
   -0.0024  -10.6119   14.5362 Cl  0  0  0  0  0  0  0  0  0  0  0  0
    5.7084   -5.0263   29.6520 F   0  0  0  0  0  0  0  0  0  0  0  0
    6.2642   -5.5327   27.1122 B   0  0  0  0  0  0  0  0  0  0  0  0
   -1.0844  -12.6901   16.9640 P   0  0  0  0  0  0  0  0  0  0  0  0
    0.9711  -11.4848   16.1372 C   0  0  0  0  0  0  0  0  0  0  0  0
   -0.9001  -10.3625   17.5885 C   0  0  0  0  0  0  0  0  0  0  0  0
    4.3472   -8.9418   28.2839 F   0  0  0  0  0  0  0  0  0  0  0  0
    1.1752   -6.5253   27.3348 O   0  0  0  0  0  0  0  0  0  0  0  0
    5.0980   -6.2781   28.4212 He  0  0  0  0  0  0  0  0  0  0  0  0
    2.2280   -5.7391   28.7219 He  0  0  0  0  0  0  0  0  0  0  0  0
    3.1508   -4.0367   28.3998 He  0  0  0  0  0  0  0  0  0  0  0  0
    6.5309   -5.3306   28.4128 He  0  0  0  0  0  0  0  0  0  0  0  0
   -0.8917  -10.0613   18.7088 He  0  0  0  0  0  0  0  0  0  0  0  0
    0.8942  -10.1487   16.9778 He  0  0  0  0  0  0  0  0  0  0  0  0
    4.5027   -4.6040   28.9788 He  0  0  0  0  0  0  0  0  0  0  0  0
   -1.4764  -10.6283   16.7594 He  0  0  0  0  0  0  0  0  0  0  0  0
  1  2  4  0
  1  6  2  0
  1  8  3  0
  1  9  3  0
  1 11  1  0
  1 12  2  0
  1 15  3  0
  2  4  4  0
  2  7  4  0
  2 10  4  0
  3  7  1  0
  3 12  3  0
  3 13  4  0
  4  5  4  0
  4 10  4  0
  4 13  1  0
  5  7  3  0
  5  8  4  0
  5  9  3  0
  5 12  4  0
  5 14  2  0
  5 15  4  0
  6  8  3  0
  6 10  3  0
  6 11  1  0
  6 14  3  0
  6 15  1  0
  7  8  1  0
  7 11  3  0
  7 15  4  0
  8  9  2  0
  8 10  1  0
  8 15  3  0
  9 11  3  0
  9 12  1  0
  9 14  2  0
 10 11  2  0
 10 13  4  0
 10 14  1  0
 11 13  3  0
 11 15  1  0
 12 13  1  0
 13 15  2  0
M  END
$$$$

 Created by Python create_sdf_string function

 23 60  0  0  0  0  0  0  0  0999 V2000
    5.7091   -6.4676   27.2923 O   0  0  0  0  0  0  0  0  0  0  0  0
    3.1619   -3.7837   30.1371 O   0  0  0  0  0  0  0  0  0  0  0  0
   -2.4839  -12.9181   17.2380 O   0  0  0  0  0  0  0  0  0  0  0  0
    2.9722   -7.4367   26.7238 C   0  0  0  0  0  0  0  0  0  0  0  0
    3.2078   -7.2429   28.0740 S   0  0  0  0  0  0  0  0  0  0  0  0
    0.2895   -9.8323   16.2698 C   0  0  0  0  0  0  0  0  0  0  0  0
   -0.4446  -11.9300   18.2161 C   0  0  0  0  0  0  0  0  0  0  0  0
   -0.8348  -10.1645   17.8690 P   0  0  0  0  0  0  0  0  0  0  0  0
    2.9835   -5.3772   29.1581 C   0  0  0  0  0  0  0  0  0  0  0  0
    0.2621   -9.8278   14.6205 O   0  0  0  0  0  0  0  0  0  0  0  0
   -1.3594  -10.6410   17.4802 O   0  0  0  0  0  0  0  0  0  0  0  0
    4.4240   -4.0445   28.7124 Cl  0  0  0  0  0  0  0  0  0  0  0  0
   -1.1590  -13.2292   18.6881 C   0  0  0  0  0  0  0  0  0  0  0  0
    5.7131   -4.8698   28.9673 N   0  0  0  0  0  0  0  0  0  0  0  0
    0.5239  -11.7788   16.8411 C   0  0  0  0  0  0  0  0  0  0  0  0
   -0.2856  -11.6156   18.3586 C   0  0  0  0  0  0  0  0  0  0  0  0
   -1.4047  -11.4261   16.6965 O   0  0  0  0  0  0  0  0  0  0  0  0
    4.1292   -8.4338   28.1875 F   0  0  0  0  0  0  0  0  0  0  0  0
    2.5370   -6.1358   28.2840 O   0  0  0  0  0  0  0  0  0  0  0  0
    2.6215   -6.4037   28.8013 He  0  0  0  0  0  0  0  0  0  0  0  0
    6.0052   -4.4730   28.6055 He  0  0  0  0  0  0  0  0  0  0  0  0
    0.2316   -9.6088   15.4656 He  0  0  0  0  0  0  0  0  0  0  0  0
    6.4680   -5.5311   25.5186 He  0  0  0  0  0  0  0  0  0  0  0  0
  1  2  1  0
  1 10  2  0
  1 13  4  0
  1 18  2  0
  2  9  1  0
  2 18  1  0
  2 19  2  0
  3  6  2  0
  3  7  1  0
  3  8  2  0
  3  9  4  0
  3 10  1  0
  3 11  3  0
  3 13  1  0
  3 15  2  0
  3 16  3  0
  3 18  2  0
  3 19  2  0
  4  9  1  0
  4 10  3  0
  4 11  1  0
  4 13  2  0
  4 16  1  0
  4 17  3  0
  5 10  4  0
  5 11  1  0
  5 12  3  0
  5 13  2  0
  5 16  3  0
  5 17  2  0
  6 11  4  0
  6 13  3  0
  6 16  1  0
  6 18  4  0
  7  9  3  0
  7 13  1  0
  7 17  4  0
  7 19  4  0
  8 11  2  0
  8 13  3  0
  8 18  1  0
  9 16  4  0
  9 19  3  0
 10 14  3  0
 10 18  4  0
 11 12  3  0
 11 18  3  0
 12 17  3  0
 12 19  1  0
 13 16  4  0
 13 17  3  0
 13 19  4  0
 14 16  3  0
 14 17  4  0
 14 19  1  0
 15 18  3  0
 16 17  3  0
 16 19  3  0
 17 18  2  0
 18 19  4  0
M  END
$$$$

 Created by Python create_sdf_string function

 23 17  0  0  0  0  0  0  0  0999 V2000
    3.2339   -5.6567   29.8641 O   0  0  0  0  0  0  0  0  0  0  0  0
    3.2312   -5.0537   26.8278 C   0  0  0  0  0  0  0  0  0  0  0  0
    3.3362   -8.5205   28.3441 C   0  0  0  0  0  0  0  0  0  0  0  0
   -0.9972   -9.3101   15.8084 C   0  0  0  0  0  0  0  0  0  0  0  0
   -1.3741  -11.8660   18.5087 Cl  0  0  0  0  0  0  0  0  0  0  0  0
    3.7219   -4.0135   27.3958 C   0  0  0  0  0  0  0  0  0  0  0  0
    5.7083   -5.2948   27.3295 F   0  0  0  0  0  0  0  0  0  0  0  0
   -0.8592  -13.2896   18.8207 C   0  0  0  0  0  0  0  0  0  0  0  0
    5.2225   -4.6584   28.3261 F   0  0  0  0  0  0  0  0  0  0  0  0
   -0.3626  -11.7082   18.8461 P   0  0  0  0  0  0  0  0  0  0  0  0
   -0.5656  -12.2722   17.4967 C   0  0  0  0  0  0  0  0  0  0  0  0
    3.5831   -7.7212   27.7738 F   0  0  0  0  0  0  0  0  0  0  0  0
    5.7185   -6.6883   27.4264 He  0  0  0  0  0  0  0  0  0  0  0  0
    2.6399   -4.6446   27.6185 He  0  0  0  0  0  0  0  0  0  0  0  0
   -1.6100  -12.8141   17.8542 He  0  0  0  0  0  0  0  0  0  0  0  0
    6.0758   -4.9054   28.0381 He  0  0  0  0  0  0  0  0  0  0  0  0
    0.2226   -8.5723   14.4453 He  0  0  0  0  0  0  0  0  0  0  0  0
   -0.0201   -9.9077   16.8879 He  0  0  0  0  0  0  0  0  0  0  0  0
    4.4166   -4.1630   29.8604 He  0  0  0  0  0  0  0  0  0  0  0  0
   -0.7998  -12.1106   15.2057 He  0  0  0  0  0  0  0  0  0  0  0  0
   -0.3717   -9.4627   17.4143 He  0  0  0  0  0  0  0  0  0  0  0  0
    0.1841  -11.1935   16.4541 He  0  0  0  0  0  0  0  0  0  0  0  0
    3.3202   -6.2856   27.2213 He  0  0  0  0  0  0  0  0  0  0  0  0
  1  5  1  0
  1  6  2  0
  1  8  4  0
  1  9  1  0
  1 10  4  0
  2  7  2  0
  2 10  3  0
  2 12  3  0
  3  4  4  0
  3  6  3  0
  3  9  1  0
  3 11  2  0
  4 12  3  0
  5  6  4  0
  5  7  2  0
  7  9  3  0
  7 11  3  0
M  END
$$$$

 Created by Python create_sdf_string function

 23 35  0  0  0  0  0  0  0  0999 V2000
    3.9145   -6.3498   27.4810 Cl  0  0  0  0  0  0  0  0  0  0  0  0
    0.7595   -5.7147   27.8575 C   0  0  0  0  0  0  0  0  0  0  0  0
    2.1289   -7.1205   28.9521 C   0  0  0  0  0  0  0  0  0  0  0  0
   -1.0798  -13.2532   18.1010 O   0  0  0  0  0  0  0  0  0  0  0  0
    1.8091   -9.8198   14.8945 C   0  0  0  0  0  0  0  0  0  0  0  0
    0.2164  -11.1122   18.4171 Cl  0  0  0  0  0  0  0  0  0  0  0  0
    3.4216   -3.8795   27.7367 Cl  0  0  0  0  0  0  0  0  0  0  0  0
   -2.1378  -11.4760   17.1921 N   0  0  0  0  0  0  0  0  0  0  0  0
    1.7346   -3.6570   27.3033 C   0  0  0  0  0  0  0  0  0  0  0  0
    6.1023   -4.4499   26.8239 P   0  0  0  0  0  0  0  0  0  0  0  0
   -2.2457  -12.4651   19.7913 N   0  0  0  0  0  0  0  0  0  0  0  0
    0.4294  -11.7902   16.1716 F   0  0  0  0  0  0  0  0  0  0  0  0
   -0.0963  -13.4885   18.0158 I   0  0  0  0  0  0  0  0  0  0  0  0
    4.5199   -6.0277   27.2735 C   0  0  0  0  0  0  0  0  0  0  0  0
    7.9926   -5.6130   28.3325 He  0  0  0  0  0  0  0  0  0  0  0  0
    2.9452   -6.6336   25.1499 He  0  0  0  0  0  0  0  0  0  0  0  0
    2.6976   -9.5979   27.7782 He  0  0  0  0  0  0  0  0  0  0  0  0
    0.5594   -9.5638   15.2824 He  0  0  0  0  0  0  0  0  0  0  0  0
    0.1885   -9.0748   16.1119 He  0  0  0  0  0  0  0  0  0  0  0  0
   -0.5373   -9.5920   17.7184 He  0  0  0  0  0  0  0  0  0  0  0  0
    4.6972   -3.5717   29.1976 He  0  0  0  0  0  0  0  0  0  0  0  0
    0.0649  -12.1090   17.6269 He  0  0  0  0  0  0  0  0  0  0  0  0
    2.6038   -8.2293   28.0579 He  0  0  0  0  0  0  0  0  0  0  0  0
  1  4  2  0
  1  9  4  0
  1 11  2  0
  2  6  3  0
  2  8  2  0
  2 11  1  0
  2 12  4  0
  2 14  1  0
  3  4  2  0
  3  5  1  0
  3  9  2  0
  3 11  1  0
  3 12  1  0
  4  5  2  0
  4  7  2  0
  4  8  3  0
  4  9  1  0
  4 10  2  0
  4 11  4  0
  4 13  2  0
  5  6  4  0
  5 11  1  0
  6  8  1  0
  6 10  1  0
  6 14  2  0
  7  9  4  0
  7 13  2  0
  7 14  2  0
  8 13  4  0
  8 14  2  0
  9 10  4  0
  9 12  3  0
 10 11  2  0
 10 14  1  0
 12 14  1  0
M  END
$$$$

 Created by Python create_sdf_string function

 23 17  0  0  0  0  0  0  0  0999 V2000
    2.2026   -7.1405   28.5252 C   0  0  0  0  0  0  0  0  0  0  0  0
    3.0661   -9.4036   15.9731 C   0  0  0  0  0  0  0  0  0  0  0  0
    2.3577   -4.9417   27.7201 C   0  0  0  0  0  0  0  0  0  0  0  0
   -0.4317  -11.3341   17.8878 N   0  0  0  0  0  0  0  0  0  0  0  0
   -1.5746   -8.4897   17.3788 C   0  0  0  0  0  0  0  0  0  0  0  0
    5.6423   -4.1419   27.8263 O   0  0  0  0  0  0  0  0  0  0  0  0
   -2.6895  -12.9465   19.4637 N   0  0  0  0  0  0  0  0  0  0  0  0
    0.4575  -11.9846   17.4732 C   0  0  0  0  0  0  0  0  0  0  0  0
   -0.4821  -13.4547   18.1841 C   0  0  0  0  0  0  0  0  0  0  0  0
    4.5748   -8.1590   28.1882 C   0  0  0  0  0  0  0  0  0  0  0  0
    4.9738   -5.0918   29.1579 C   0  0  0  0  0  0  0  0  0  0  0  0
    5.0129   -6.4980   25.9382 He  0  0  0  0  0  0  0  0  0  0  0  0
    1.5524   -5.7538   27.6864 He  0  0  0  0  0  0  0  0  0  0  0  0
   -1.5728  -12.5414   19.5223 He  0  0  0  0  0  0  0  0  0  0  0  0
    6.0959   -4.0036   27.2052 He  0  0  0  0  0  0  0  0  0  0  0  0
    4.3751   -6.2500   26.2863 He  0  0  0  0  0  0  0  0  0  0  0  0
    3.4895   -9.1650   27.6546 He  0  0  0  0  0  0  0  0  0  0  0  0
    1.6161  -10.3535   15.9455 He  0  0  0  0  0  0  0  0  0  0  0  0
   -0.1902  -11.1509   17.7188 He  0  0  0  0  0  0  0  0  0  0  0  0
    1.4836   -9.2579   17.3731 He  0  0  0  0  0  0  0  0  0  0  0  0
    2.6760   -4.2142   26.1571 He  0  0  0  0  0  0  0  0  0  0  0  0
    3.8042   -3.2252   28.0472 He  0  0  0  0  0  0  0  0  0  0  0  0
   -0.5109  -12.7284   16.9246 He  0  0  0  0  0  0  0  0  0  0  0  0
  1  4  1  0
  1  5  2  0
  1  8  2  0
  1  9  2  0
  2  7  4  0
  2  8  4  0
  2 10  3  0
  3  4  2  0
  3  6  1  0
  4  5  1  0
  4  7  3  0
  4 10  3  0
  4 11  1  0
  5  6  3  0
  6  8  2  0
  8 10  4  0
 10 11  3  0
M  END
$$$$

 Created by Python create_sdf_string function

 23 35  0  0  0  0  0  0  0  0999 V2000
    4.5776   -7.9091   26.4450 C   0  0  0  0  0  0  0  0  0  0  0  0
    1.2810   -7.5164   27.1169 C   0  0  0  0  0  0  0  0  0  0  0  0
    5.1039   -5.3061   26.5044 Cl  0  0  0  0  0  0  0  0  0  0  0  0
    3.7733   -8.2639   26.1796 N   0  0  0  0  0  0  0  0  0  0  0  0
   -0.0709   -9.5983   17.5718 I   0  0  0  0  0  0  0  0  0  0  0  0
    1.0081   -8.3139   16.2597 C   0  0  0  0  0  0  0  0  0  0  0  0
   -0.6394  -11.1696   16.9758 C   0  0  0  0  0  0  0  0  0  0  0  0
    1.0900   -8.3695   17.0659 P   0  0  0  0  0  0  0  0  0  0  0  0
    2.4434   -4.8481   26.6813 C   0  0  0  0  0  0  0  0  0  0  0  0
   -2.7561  -13.4198   19.2579 O   0  0  0  0  0  0  0  0  0  0  0  0
    4.6814   -3.2349   27.8964 Se  0  0  0  0  0  0  0  0  0  0  0  0
    0.3471  -12.3411   17.8637 Cl  0  0  0  0  0  0  0  0  0  0  0  0
   -0.1761  -14.0570   17.5819 B   0  0  0  0  0  0  0  0  0  0  0  0
   -0.8210  -11.1832   16.4640 C   0  0  0  0  0  0  0  0  0  0  0  0
    4.7685   -8.1050   27.2294 C   0  0  0  0  0  0  0  0  0  0  0  0
    2.4679   -4.9675   28.1827 He  0  0  0  0  0  0  0  0  0  0  0  0
   -0.4135  -11.7723   19.0704 He  0  0  0  0  0  0  0  0  0  0  0  0
    4.8082   -5.7412   27.6255 He  0  0  0  0  0  0  0  0  0  0  0  0
   -0.0914  -10.1239   16.7889 He  0  0  0  0  0  0  0  0  0  0  0  0
    3.2661   -4.7557   29.0930 He  0  0  0  0  0  0  0  0  0  0  0  0
   -0.9666  -11.2521   17.2573 He  0  0  0  0  0  0  0  0  0  0  0  0
    4.5266   -4.3120   28.1163 He  0  0  0  0  0  0  0  0  0  0  0  0
    6.0085   -5.5105   28.1586 He  0  0  0  0  0  0  0  0  0  0  0  0
  1  2  1  0
  1  7  1  0
  1 13  1  0
  1 14  1  0
  2  3  4  0
  2  6  4  0
  2 10  3  0
  2 11  4  0
  2 12  4  0
  3  6  4  0
  3 10  3  0
  3 13  2  0
  3 14  3  0
  4  5  1  0
  4  9  1  0
  4 10  3  0
  5  7  2  0
  5 15  4  0
  6  8  1  0
  6  9  3  0
  6 11  3  0
  7 12  3  0
  7 13  1  0
  7 14  4  0
  7 15  4  0
  8 11  3  0
  8 12  4  0
  8 13  3  0
  8 15  3  0
 10 12  2  0
 10 14  2  0
 11 12  1  0
 11 13  2  0
 13 14  4  0
 13 15  2  0
M  END
$$$$

 Created by Python create_sdf_string function

 23 36  0  0  0  0  0  0  0  0999 V2000
    2.3139   -7.7826   26.1933 C   0  0  0  0  0  0  0  0  0  0  0  0
    5.4859   -4.2349   27.7178 F   0  0  0  0  0  0  0  0  0  0  0  0
    3.6954   -6.5335   29.3819 S   0  0  0  0  0  0  0  0  0  0  0  0
    4.5902   -7.9688   25.3986 N   0  0  0  0  0  0  0  0  0  0  0  0
   -0.8150  -10.4548   16.7561 F   0  0  0  0  0  0  0  0  0  0  0  0
   -1.3344  -10.1453   17.6604 C   0  0  0  0  0  0  0  0  0  0  0  0
    2.6968   -7.6771   17.6859 F   0  0  0  0  0  0  0  0  0  0  0  0
    3.2355   -5.1234   26.8449 C   0  0  0  0  0  0  0  0  0  0  0  0
    3.7136   -3.0856   27.1027 Cl  0  0  0  0  0  0  0  0  0  0  0  0
   -2.5732  -13.3433   18.0105 S   0  0  0  0  0  0  0  0  0  0  0  0
    5.0631   -3.4195   28.8840 C   0  0  0  0  0  0  0  0  0  0  0  0
   -1.4144  -11.6496   18.4514 N   0  0  0  0  0  0  0  0  0  0  0  0
   -1.0620  -13.0904   19.0299 Cl  0  0  0  0  0  0  0  0  0  0  0  0
   -0.5380  -11.6369   17.4894 C   0  0  0  0  0  0  0  0  0  0  0  0
    4.5156   -3.9941   28.3598 O   0  0  0  0  0  0  0  0  0  0  0  0
    4.3003   -8.5687   26.3775 He  0  0  0  0  0  0  0  0  0  0  0  0
    3.0322   -6.6129   28.6154 He  0  0  0  0  0  0  0  0  0  0  0  0
   -0.6099  -11.9846   17.4276 He  0  0  0  0  0  0  0  0  0  0  0  0
    0.8227   -9.2871   17.6259 He  0  0  0  0  0  0  0  0  0  0  0  0
    1.6124   -9.4743   16.4552 He  0  0  0  0  0  0  0  0  0  0  0  0
    1.3791  -10.2673   18.2065 He  0  0  0  0  0  0  0  0  0  0  0  0
    3.2194   -5.5549   27.8433 He  0  0  0  0  0  0  0  0  0  0  0  0
    3.3033   -8.2985   26.9552 He  0  0  0  0  0  0  0  0  0  0  0  0
  1  2  4  0
  1  5  1  0
  1  8  1  0
  1 12  2  0
  1 14  2  0
  2  3  3  0
  2  8  1  0
  2 13  4  0
  3  5  2  0
  3 12  4  0
  4  9  4  0
  4 11  2  0
  4 13  1  0
  4 14  3  0
  4 15  4  0
  5  6  4  0
  5  7  3  0
  5  8  2  0
  5 11  4  0
  5 13  2  0
  5 14  3  0
  6  7  4  0
  6  8  4  0
  6  9  1  0
  6 11  2  0
  6 13  4  0
  6 14  4  0
  7  8  3  0
  7 14  3  0
  8 14  3  0
  9 15  2  0
 10 12  1  0
 10 14  1  0
 10 15  2  0
 13 14  3  0
 14 15  2  0
M  END
$$$$

 Created by Python create_sdf_string function

 23 30  0  0  0  0  0  0  0  0999 V2000
    2.1575   -7.4808   26.3637 C   0  0  0  0  0  0  0  0  0  0  0  0
   -0.7156  -11.3698   18.2617 C   0  0  0  0  0  0  0  0  0  0  0  0
    5.0086   -7.9452   30.0859 O   0  0  0  0  0  0  0  0  0  0  0  0
    4.9189   -7.3542   26.2931 N   0  0  0  0  0  0  0  0  0  0  0  0
    2.5917   -9.0987   15.9217 F   0  0  0  0  0  0  0  0  0  0  0  0
    1.5315   -9.3702   17.0526 C   0  0  0  0  0  0  0  0  0  0  0  0
    1.0097  -10.4903   18.7046 S   0  0  0  0  0  0  0  0  0  0  0  0
    4.3847   -4.5727   28.1126 P   0  0  0  0  0  0  0  0  0  0  0  0
   -1.2556  -10.8673   19.0981 C   0  0  0  0  0  0  0  0  0  0  0  0
    2.1750   -8.7134   18.6542 C   0  0  0  0  0  0  0  0  0  0  0  0
    2.9498   -4.2953   27.4800 C   0  0  0  0  0  0  0  0  0  0  0  0
   -2.0980  -11.8121   18.3467 O   0  0  0  0  0  0  0  0  0  0  0  0
   -2.3454  -12.3227   18.8529 Cl  0  0  0  0  0  0  0  0  0  0  0  0
    2.6397   -7.0724   26.8173 N   0  0  0  0  0  0  0  0  0  0  0  0
    3.9852   -9.0338   26.3559 He  0  0  0  0  0  0  0  0  0  0  0  0
    3.3824   -5.4079   29.0484 He  0  0  0  0  0  0  0  0  0  0  0  0
    4.5953   -4.5082   28.1590 He  0  0  0  0  0  0  0  0  0  0  0  0
    0.1552  -10.2110   15.8406 He  0  0  0  0  0  0  0  0  0  0  0  0
    4.3569   -5.5984   27.7286 He  0  0  0  0  0  0  0  0  0  0  0  0
    3.1306   -5.2838   29.2148 He  0  0  0  0  0  0  0  0  0  0  0  0
   -2.2268  -11.2267   17.2813 He  0  0  0  0  0  0  0  0  0  0  0  0
   -0.4552  -13.6495   19.1404 He  0  0  0  0  0  0  0  0  0  0  0  0
    4.9556   -3.3219   27.4625 He  0  0  0  0  0  0  0  0  0  0  0  0
  1  2  4  0
  1 11  3  0
  1 13  1  0
  1 14  3  0
  2  6  2  0
  2  7  2  0
  2  9  2  0
  2 11  2  0
  2 12  2  0
  2 13  2  0
  3  7  4  0
  3  8  2  0
  3 10  4  0
  3 13  1  0
  4  6  3  0
  4  7  4  0
  4  8  3  0
  4 13  3  0
  5  7  4  0
  5 10  2  0
  5 13  4  0
  6  8  2  0
  6 12  3  0
  7 14  1  0
  8 10  4  0
  8 11  3  0
  9 11  1  0
  9 14  1  0
 10 12  4  0
 11 14  1  0
M  END
$$$$

 Created by Python create_sdf_string function

 23 41  0  0  0  0  0  0  0  0999 V2000
    4.4744   -7.5466   25.7982 Cl  0  0  0  0  0  0  0  0  0  0  0  0
    1.6799   -7.5939   26.1843 C   0  0  0  0  0  0  0  0  0  0  0  0
    3.2485   -6.1707   28.8880 C   0  0  0  0  0  0  0  0  0  0  0  0
    4.3971   -5.0389   28.5528 C   0  0  0  0  0  0  0  0  0  0  0  0
    5.0358   -7.4753   29.5605 C   0  0  0  0  0  0  0  0  0  0  0  0
    4.4114   -6.5780   25.7949 F   0  0  0  0  0  0  0  0  0  0  0  0
    1.9187   -8.7688   17.1967 C   0  0  0  0  0  0  0  0  0  0  0  0
    0.4213   -9.7092   16.3678 C   0  0  0  0  0  0  0  0  0  0  0  0
   -0.4936  -11.1708   18.2633 S   0  0  0  0  0  0  0  0  0  0  0  0
    2.2833   -8.0852   18.0364 F   0  0  0  0  0  0  0  0  0  0  0  0
    5.4419   -5.4753   28.3428 C   0  0  0  0  0  0  0  0  0  0  0  0
    2.4094   -5.1829   28.5710 C   0  0  0  0  0  0  0  0  0  0  0  0
   -1.8463  -13.2344   18.6086 C   0  0  0  0  0  0  0  0  0  0  0  0
   -2.6744  -11.6415   18.3424 C   0  0  0  0  0  0  0  0  0  0  0  0
   -0.2720  -12.6233   18.8042 O   0  0  0  0  0  0  0  0  0  0  0  0
    3.7812   -6.4622   26.6922 N   0  0  0  0  0  0  0  0  0  0  0  0
   -0.6382  -11.3984   18.4692 He  0  0  0  0  0  0  0  0  0  0  0  0
    0.7361  -10.4982   17.6765 He  0  0  0  0  0  0  0  0  0  0  0  0
    1.4105   -9.7799   20.5423 He  0  0  0  0  0  0  0  0  0  0  0  0
    4.2387   -4.8555   28.5393 He  0  0  0  0  0  0  0  0  0  0  0  0
    3.2757   -5.1092   29.1816 He  0  0  0  0  0  0  0  0  0  0  0  0
   -3.2287  -12.1252   17.4182 He  0  0  0  0  0  0  0  0  0  0  0  0
    3.7839   -2.6115   28.9389 He  0  0  0  0  0  0  0  0  0  0  0  0
  1  7  1  0
  1  9  4  0
  1 11  2  0
  1 15  4  0
  1 16  2  0
  2  4  3  0
  2  5  1  0
  2  6  3  0
  2 14  2  0
  3  5  1  0
  3  9  4  0
  3 13  2  0
  4  5  1  0
  4 10  4  0
  4 11  1  0
  4 16  2  0
  5  8  4  0
  5 11  1  0
  5 15  1  0
  5 16  4  0
  6  9  2  0
  6 13  3  0
  7  8  3  0
  7  9  3  0
  7 13  2  0
  7 16  1  0
  8  9  4  0
  8 10  1  0
  8 11  2  0
  8 12  3  0
  8 13  1  0
  8 15  3  0
  8 16  4  0
  9 10  1  0
  9 16  3  0
 10 11  2  0
 10 14  4  0
 11 16  2  0
 12 16  1  0
 13 14  4  0
 14 16  1  0
M  END
$$$$

 Created by Python create_sdf_string function

 23 45  0  0  0  0  0  0  0  0999 V2000
    4.8276   -6.1282   27.3457 I   0  0  0  0  0  0  0  0  0  0  0  0
    2.0436   -6.5916   27.0117 C   0  0  0  0  0  0  0  0  0  0  0  0
    5.7375   -5.4171   29.0289 C   0  0  0  0  0  0  0  0  0  0  0  0
    4.6009   -6.5560   26.2793 C   0  0  0  0  0  0  0  0  0  0  0  0
    0.2415   -9.8053   17.9827 P   0  0  0  0  0  0  0  0  0  0  0  0
    0.2861   -9.3866   17.2127 C   0  0  0  0  0  0  0  0  0  0  0  0
    0.3658  -10.8557   18.3565 C   0  0  0  0  0  0  0  0  0  0  0  0
    3.5289   -3.2950   28.3053 C   0  0  0  0  0  0  0  0  0  0  0  0
   -1.1377  -11.2287   17.3092 S   0  0  0  0  0  0  0  0  0  0  0  0
    1.8943   -9.7099   17.8949 N   0  0  0  0  0  0  0  0  0  0  0  0
    6.2651   -6.2001   28.3933 C   0  0  0  0  0  0  0  0  0  0  0  0
    3.2337   -6.1928   27.8246 O   0  0  0  0  0  0  0  0  0  0  0  0
   -1.6870  -11.8555   18.8537 C   0  0  0  0  0  0  0  0  0  0  0  0
    2.4131   -3.9510   28.6336 Br  0  0  0  0  0  0  0  0  0  0  0  0
   -2.7524  -13.5818   17.8984 P   0  0  0  0  0  0  0  0  0  0  0  0
   -3.0429  -12.0983   16.7805 C   0  0  0  0  0  0  0  0  0  0  0  0
    4.7810   -3.2659   28.5102 Se  0  0  0  0  0  0  0  0  0  0  0  0
    2.6829   -5.7644   29.4086 He  0  0  0  0  0  0  0  0  0  0  0  0
   -1.4242  -10.1285   18.9368 He  0  0  0  0  0  0  0  0  0  0  0  0
    6.1100   -7.2526   29.1132 He  0  0  0  0  0  0  0  0  0  0  0  0
    3.4685   -8.3301   17.6176 He  0  0  0  0  0  0  0  0  0  0  0  0
   -0.7421  -12.4674   18.7422 He  0  0  0  0  0  0  0  0  0  0  0  0
    4.1598   -6.0035   26.9703 He  0  0  0  0  0  0  0  0  0  0  0  0
  1  2  2  0
  1  4  3  0
  1  6  4  0
  1  8  3  0
  1  9  4  0
  1 16  3  0
  2  5  3  0
  2  6  3  0
  2 13  1  0
  2 16  4  0
  3  4  4  0
  3  8  1  0
  3 14  1  0
  4  5  4  0
  4  9  3  0
  4 10  1  0
  4 12  4  0
  4 13  1  0
  4 16  4  0
  4 17  2  0
  5  6  2  0
  5  7  4  0
  6  7  4  0
  6  9  3  0
  6 12  1  0
  6 15  1  0
  6 16  1  0
  7 12  3  0
  7 14  2  0
  7 16  3  0
  8 12  4  0
  8 14  4  0
  8 16  3  0
  9 14  2  0
 10 13  2  0
 10 15  3  0
 11 13  4  0
 11 16  1  0
 11 17  2  0
 12 14  1  0
 12 16  1  0
 13 14  3  0
 13 15  1  0
 13 16  4  0
 15 17  3  0
M  END
$$$$

 Created by Python create_sdf_string function

 23 40  0  0  0  0  0  0  0  0999 V2000
    5.5964   -6.8809   29.4130 C   0  0  0  0  0  0  0  0  0  0  0  0
    1.5970   -7.3797   28.2361 C   0  0  0  0  0  0  0  0  0  0  0  0
    0.5208   -5.6028   28.8934 C   0  0  0  0  0  0  0  0  0  0  0  0
   -0.7357  -12.3189   17.7254 F   0  0  0  0  0  0  0  0  0  0  0  0
    7.1926   -7.9788   28.4752 F   0  0  0  0  0  0  0  0  0  0  0  0
   -0.8483  -10.0449   18.0172 C   0  0  0  0  0  0  0  0  0  0  0  0
   -0.1432   -9.1008   16.1379 C   0  0  0  0  0  0  0  0  0  0  0  0
   -0.9329   -9.6644   18.3328 N   0  0  0  0  0  0  0  0  0  0  0  0
    3.3637  -10.9158   17.6536 N   0  0  0  0  0  0  0  0  0  0  0  0
    5.0776   -5.5085   27.4396 C   0  0  0  0  0  0  0  0  0  0  0  0
    3.6455   -5.0730   27.4822 F   0  0  0  0  0  0  0  0  0  0  0  0
   -1.7321  -12.2599   17.4299 O   0  0  0  0  0  0  0  0  0  0  0  0
    2.1292   -2.9495   28.5889 C   0  0  0  0  0  0  0  0  0  0  0  0
   -2.0710  -14.0790   18.6576 Cl  0  0  0  0  0  0  0  0  0  0  0  0
   -1.8526  -12.3043   18.1795 C   0  0  0  0  0  0  0  0  0  0  0  0
   -0.8347  -12.3688   18.5866 C   0  0  0  0  0  0  0  0  0  0  0  0
    3.4265   -6.8319   28.6760 C   0  0  0  0  0  0  0  0  0  0  0  0
    4.6361   -3.2093   28.7453 O   0  0  0  0  0  0  0  0  0  0  0  0
    5.6702   -6.2738   28.7827 He  0  0  0  0  0  0  0  0  0  0  0  0
    3.4167   -7.4139   26.2320 He  0  0  0  0  0  0  0  0  0  0  0  0
    2.5662   -9.5564   16.0758 He  0  0  0  0  0  0  0  0  0  0  0  0
   -0.3653  -10.2945   18.4596 He  0  0  0  0  0  0  0  0  0  0  0  0
    4.2035   -3.4167   29.1133 He  0  0  0  0  0  0  0  0  0  0  0  0
  1  3  2  0
  1  6  3  0
  1 12  3  0
  1 17  1  0
  1 18  2  0
  2  4  3  0
  2  9  1  0
  3  6  3  0
  3 11  4  0
  3 16  3  0
  3 17  1  0
  4  7  2  0
  4 13  2  0
  5  6  3  0
  5 12  1  0
  6  7  2  0
  6  9  4  0
  7  8  1  0
  7 10  1  0
  7 11  3  0
  7 13  4  0
  7 16  2  0
  8 11  1  0
  8 17  2  0
  9 12  3  0
  9 13  4  0
  9 16  1  0
  9 18  1  0
 10 14  3  0
 10 16  4  0
 11 12  4  0
 11 16  3  0
 11 17  1  0
 11 18  4  0
 12 15  4  0
 12 16  3  0
 13 18  4  0
 14 16  2  0
 14 18  4  0
 15 18  1  0
M  END
$$$$

 Created by Python create_sdf_string function

 23 47  0  0  0  0  0  0  0  0999 V2000
    4.8130   -7.2322   28.8568 O   0  0  0  0  0  0  0  0  0  0  0  0
    2.4585   -6.2372   28.5442 C   0  0  0  0  0  0  0  0  0  0  0  0
    1.2375   -5.5737   28.4878 Br  0  0  0  0  0  0  0  0  0  0  0  0
    0.5630  -11.3689   18.0122 O   0  0  0  0  0  0  0  0  0  0  0  0
    6.2736   -7.1425   28.3725 O   0  0  0  0  0  0  0  0  0  0  0  0
    3.4675   -6.6604   28.7487 F   0  0  0  0  0  0  0  0  0  0  0  0
    0.0367   -9.0841   15.3112 N   0  0  0  0  0  0  0  0  0  0  0  0
    0.3736   -9.0551   16.6366 Br  0  0  0  0  0  0  0  0  0  0  0  0
    0.7830   -9.1696   17.0802 P   0  0  0  0  0  0  0  0  0  0  0  0
    0.2793  -10.3234   18.6614 S   0  0  0  0  0  0  0  0  0  0  0  0
    2.3321   -2.4569   28.1069 C   0  0  0  0  0  0  0  0  0  0  0  0
   -1.0769   -9.9985   18.0048 Cl  0  0  0  0  0  0  0  0  0  0  0  0
    5.4641   -5.0218   29.2393 C   0  0  0  0  0  0  0  0  0  0  0  0
    2.3517   -4.6368   27.1902 C   0  0  0  0  0  0  0  0  0  0  0  0
    1.8627   -2.9928   28.8414 C   0  0  0  0  0  0  0  0  0  0  0  0
   -0.9498  -14.3444   17.4442 C   0  0  0  0  0  0  0  0  0  0  0  0
   -2.3821  -12.4302   19.2856 C   0  0  0  0  0  0  0  0  0  0  0  0
   -0.5867  -11.3422   18.9849 C   0  0  0  0  0  0  0  0  0  0  0  0
    4.1897   -7.1567   28.8649 Se  0  0  0  0  0  0  0  0  0  0  0  0
    5.3665   -3.5379   28.6790 N   0  0  0  0  0  0  0  0  0  0  0  0
    6.5836   -5.0656   28.6841 He  0  0  0  0  0  0  0  0  0  0  0  0
    2.6647   -9.9827   16.7786 He  0  0  0  0  0  0  0  0  0  0  0  0
   -2.0158  -13.2594   17.4076 He  0  0  0  0  0  0  0  0  0  0  0  0
  1  7  3  0
  1 13  2  0
  1 14  2  0
  1 20  3  0
  2  3  4  0
  2  6  4  0
  2  7  1  0
  2  9  4  0
  2 14  4  0
  3  7  4  0
  3 13  1  0
  4  6  1  0
  4 15  1  0
  4 18  3  0
  5  6  4  0
  5  7  3  0
  5 13  2  0
  6  9  2  0
  6 10  4  0
  6 14  3  0
  7  9  4  0
  7 12  3  0
  7 15  1  0
  7 18  3  0
  8 11  4  0
  8 14  4  0
  8 17  3  0
  8 19  4  0
  9 11  2  0
  9 12  3  0
  9 14  2  0
 10 12  4  0
 10 15  3  0
 10 19  2  0
 10 20  4  0
 11 14  1  0
 11 18  4  0
 11 20  1  0
 12 13  4  0
 12 14  2  0
 12 18  2  0
 13 17  1  0
 14 18  2  0
 14 19  1  0
 15 20  2  0
 17 20  2  0
 19 20  1  0
M  END
$$$$

 Created by Python create_sdf_string function

 23 42  0  0  0  0  0  0  0  0999 V2000
    2.3670   -4.9949   27.3125 C   0  0  0  0  0  0  0  0  0  0  0  0
    5.6440   -4.8057   28.3017 P   0  0  0  0  0  0  0  0  0  0  0  0
    4.8010   -5.9403   28.8583 O   0  0  0  0  0  0  0  0  0  0  0  0
    3.2738   -6.1222   28.4810 C   0  0  0  0  0  0  0  0  0  0  0  0
    0.7114   -8.5606   17.5696 C   0  0  0  0  0  0  0  0  0  0  0  0
    1.2685   -9.0372   17.5129 C   0  0  0  0  0  0  0  0  0  0  0  0
    2.5209  -11.5861   17.9243 N   0  0  0  0  0  0  0  0  0  0  0  0
    1.5905   -4.5963   28.4553 C   0  0  0  0  0  0  0  0  0  0  0  0
   -1.6467  -13.4276   19.2064 C   0  0  0  0  0  0  0  0  0  0  0  0
    1.8164   -4.7639   28.0786 N   0  0  0  0  0  0  0  0  0  0  0  0
   -1.5581  -13.6021   17.3008 C   0  0  0  0  0  0  0  0  0  0  0  0
   -1.7564  -14.2431   19.6515 N   0  0  0  0  0  0  0  0  0  0  0  0
    0.2988  -11.2439   20.3333 F   0  0  0  0  0  0  0  0  0  0  0  0
    4.0128   -6.6995   27.0672 C   0  0  0  0  0  0  0  0  0  0  0  0
    4.8290   -2.9293   28.5262 S   0  0  0  0  0  0  0  0  0  0  0  0
    4.5484   -7.5226   29.3635 He  0  0  0  0  0  0  0  0  0  0  0  0
    2.8754   -4.2146   28.9377 He  0  0  0  0  0  0  0  0  0  0  0  0
    0.3495  -12.0533   17.7138 He  0  0  0  0  0  0  0  0  0  0  0  0
    1.5644   -8.7781   16.2616 He  0  0  0  0  0  0  0  0  0  0  0  0
    1.0746  -10.2508   18.8100 He  0  0  0  0  0  0  0  0  0  0  0  0
    2.8094   -4.0113   27.9274 He  0  0  0  0  0  0  0  0  0  0  0  0
   -1.6389  -10.4299   18.6471 He  0  0  0  0  0  0  0  0  0  0  0  0
    6.1999   -6.0838   28.7137 He  0  0  0  0  0  0  0  0  0  0  0  0
  1  5  1  0
  1  6  3  0
  1 11  4  0
  1 15  3  0
  2  5  2  0
  2  6  3  0
  2  9  3  0
  2 10  3  0
  2 12  2  0
  2 13  1  0
  3  4  3  0
  3  5  1  0
  3  7  4  0
  3 10  3  0
  3 11  4  0
  3 12  1  0
  3 14  3  0
  4  6  1  0
  4  7  4  0
  4  8  1  0
  4 11  1  0
  4 12  2  0
  4 13  1  0
  5  6  1  0
  5  7  2  0
  5  9  2  0
  5 11  4  0
  5 12  1  0
  6 15  1  0
  7 10  4  0
  7 11  3  0
  7 13  4  0
  7 14  2  0
  7 15  4  0
  8 11  4  0
  8 12  3  0
  9 11  2  0
  9 13  2  0
  9 14  2  0
 10 15  4  0
 11 15  1  0
 12 14  2  0
M  END
$$$$

 Created by Python create_sdf_string function

 23 43  0  0  0  0  0  0  0  0999 V2000
    5.3343   -8.3131   29.1410 O   0  0  0  0  0  0  0  0  0  0  0  0
    1.7764   -4.5743   30.4763 C   0  0  0  0  0  0  0  0  0  0  0  0
    2.1782   -5.8261   26.0432 Cl  0  0  0  0  0  0  0  0  0  0  0  0
    0.9998  -12.1783   17.5535 C   0  0  0  0  0  0  0  0  0  0  0  0
    5.7900   -4.4602   27.6677 C   0  0  0  0  0  0  0  0  0  0  0  0
    4.9416   -5.5727   28.4857 O   0  0  0  0  0  0  0  0  0  0  0  0
    3.1666   -5.1113   28.7851 Cl  0  0  0  0  0  0  0  0  0  0  0  0
    0.0282   -9.7426   17.0076 C   0  0  0  0  0  0  0  0  0  0  0  0
    1.2864   -9.1144   17.5626 F   0  0  0  0  0  0  0  0  0  0  0  0
    0.0223  -11.5375   16.6589 C   0  0  0  0  0  0  0  0  0  0  0  0
    2.2910   -3.9978   27.3606 C   0  0  0  0  0  0  0  0  0  0  0  0
   -0.7355  -10.4803   19.7087 O   0  0  0  0  0  0  0  0  0  0  0  0
    1.3926  -11.1020   16.9825 C   0  0  0  0  0  0  0  0  0  0  0  0
    6.2463   -4.9646   28.7641 C   0  0  0  0  0  0  0  0  0  0  0  0
    0.2014  -13.2477   18.5328 C   0  0  0  0  0  0  0  0  0  0  0  0
    0.9818   -5.4960   27.4253 C   0  0  0  0  0  0  0  0  0  0  0  0
   -1.4624  -12.9461   20.2437 N   0  0  0  0  0  0  0  0  0  0  0  0
   -0.6905  -11.1907   19.2646 C   0  0  0  0  0  0  0  0  0  0  0  0
    3.5262   -8.0867   28.4705 O   0  0  0  0  0  0  0  0  0  0  0  0
    1.4758   -8.4124   16.5751 He  0  0  0  0  0  0  0  0  0  0  0  0
    1.4072   -5.8096   28.3731 He  0  0  0  0  0  0  0  0  0  0  0  0
   -0.5022  -13.5885   17.5323 He  0  0  0  0  0  0  0  0  0  0  0  0
    4.8233   -3.4621   29.5250 He  0  0  0  0  0  0  0  0  0  0  0  0
  1  5  2  0
  1 14  1  0
  1 16  4  0
  1 17  1  0
  2  7  4  0
  2 16  3  0
  2 18  3  0
  3  5  4  0
  3 10  3  0
  3 15  3  0
  3 17  4  0
  4  6  2  0
  4  8  2  0
  4  9  2  0
  4 11  4  0
  4 14  3  0
  4 19  3  0
  5  8  1  0
  5 14  1  0
  6  7  4  0
  6 10  1  0
  6 13  1  0
  6 14  1  0
  6 19  4  0
  7  8  1  0
  7 12  2  0
  7 14  3  0
  7 17  3  0
  7 19  4  0
  8 10  4  0
  8 16  4  0
  9 12  4  0
  9 14  2  0
  9 18  2  0
 10 15  1  0
 10 17  2  0
 10 19  1  0
 11 13  1  0
 11 14  2  0
 13 19  2  0
 15 16  1  0
 16 17  4  0
 16 19  1  0
M  END
$$$$

 Created by Python create_sdf_string function

 23 42  0  0  0  0  0  0  0  0999 V2000
    5.7620   -7.9493   29.1808 C   0  0  0  0  0  0  0  0  0  0  0  0
    2.4731   -4.3413   30.5937 C   0  0  0  0  0  0  0  0  0  0  0  0
    2.6163   -6.9507   26.7427 O   0  0  0  0  0  0  0  0  0  0  0  0
    0.5784  -12.0327   17.7758 C   0  0  0  0  0  0  0  0  0  0  0  0
    5.6679   -5.3835   28.5830 S   0  0  0  0  0  0  0  0  0  0  0  0
    4.6990   -6.7664   27.8722 C   0  0  0  0  0  0  0  0  0  0  0  0
    3.8027   -5.1313   28.9865 C   0  0  0  0  0  0  0  0  0  0  0  0
    1.1006  -12.0868   16.0460 C   0  0  0  0  0  0  0  0  0  0  0  0
    2.5042   -4.7560   27.6926 C   0  0  0  0  0  0  0  0  0  0  0  0
    0.2682  -10.2705   19.4171 C   0  0  0  0  0  0  0  0  0  0  0  0
    2.5227  -10.7922   16.9508 N   0  0  0  0  0  0  0  0  0  0  0  0
    4.9505   -4.4444   28.0518 Br  0  0  0  0  0  0  0  0  0  0  0  0
   -1.3164  -13.9957   18.1127 P   0  0  0  0  0  0  0  0  0  0  0  0
    0.8441   -4.4732   26.3487 C   0  0  0  0  0  0  0  0  0  0  0  0
    0.3360  -10.9225   18.9334 C   0  0  0  0  0  0  0  0  0  0  0  0
    3.5040   -7.5093   27.7036 C   0  0  0  0  0  0  0  0  0  0  0  0
    3.9545   -3.5442   30.7383 F   0  0  0  0  0  0  0  0  0  0  0  0
    1.2589   -8.2600   17.5295 He  0  0  0  0  0  0  0  0  0  0  0  0
    0.1851   -9.8347   17.7528 He  0  0  0  0  0  0  0  0  0  0  0  0
    1.7534   -9.5483   17.4746 He  0  0  0  0  0  0  0  0  0  0  0  0
    2.4135   -5.5078   28.0416 He  0  0  0  0  0  0  0  0  0  0  0  0
   -1.1086  -14.5426   18.2316 He  0  0  0  0  0  0  0  0  0  0  0  0
   -1.1726  -13.7019   20.0933 He  0  0  0  0  0  0  0  0  0  0  0  0
  1  9  1  0
  1 10  3  0
  1 11  3  0
  1 15  1  0
  2  5  4  0
  3  5  4  0
  3  8  1  0
  3  9  2  0
  3 12  3  0
  4  8  4  0
  4  9  1  0
  4 10  3  0
  4 11  1  0
  4 14  1  0
  5  6  1  0
  5  8  2  0
  5  9  2  0
  5 11  1  0
  5 16  1  0
  6  7  4  0
  6  8  3  0
  6 11  1  0
  6 12  1  0
  6 16  1  0
  7  9  2  0
  7 10  3  0
  7 16  1  0
  7 17  3  0
  8 11  4  0
  9 10  1  0
  9 11  4  0
  9 15  3  0
 10 15  2  0
 10 17  2  0
 11 15  2  0
 12 13  4  0
 12 14  1  0
 13 15  1  0
 13 17  3  0
 14 16  4  0
 14 17  1  0
 16 17  3  0
M  END
$$$$

 Created by Python create_sdf_string function

 23 30  0  0  0  0  0  0  0  0999 V2000
    5.6327   -7.2541   28.5362 C   0  0  0  0  0  0  0  0  0  0  0  0
    3.7595   -4.2821   29.4372 Cl  0  0  0  0  0  0  0  0  0  0  0  0
    2.0986   -7.1845   26.9414 O   0  0  0  0  0  0  0  0  0  0  0  0
   -0.4209  -13.2756   18.0267 N   0  0  0  0  0  0  0  0  0  0  0  0
    5.1215   -4.4770   29.2920 S   0  0  0  0  0  0  0  0  0  0  0  0
    6.0395   -6.4983   27.3003 N   0  0  0  0  0  0  0  0  0  0  0  0
    3.8943   -5.0518   28.7982 C   0  0  0  0  0  0  0  0  0  0  0  0
    1.7937   -9.0054   17.5210 S   0  0  0  0  0  0  0  0  0  0  0  0
    1.0008  -12.8986   16.0984 F   0  0  0  0  0  0  0  0  0  0  0  0
    1.4880  -10.0639   15.8205 C   0  0  0  0  0  0  0  0  0  0  0  0
    1.3254   -4.3470   27.1276 C   0  0  0  0  0  0  0  0  0  0  0  0
   -1.5591  -14.4250   18.2514 C   0  0  0  0  0  0  0  0  0  0  0  0
   -0.9872  -13.1780   18.9280 S   0  0  0  0  0  0  0  0  0  0  0  0
    0.0207  -11.6510   19.2415 C   0  0  0  0  0  0  0  0  0  0  0  0
    4.8025   -6.3036   27.8094 C   0  0  0  0  0  0  0  0  0  0  0  0
    0.1279   -9.4010   17.0498 He  0  0  0  0  0  0  0  0  0  0  0  0
    1.0367   -8.2037   17.1949 He  0  0  0  0  0  0  0  0  0  0  0  0
    2.6645   -5.0920   28.1822 He  0  0  0  0  0  0  0  0  0  0  0  0
    0.2880  -10.2531   19.0156 He  0  0  0  0  0  0  0  0  0  0  0  0
    5.1551   -4.3524   28.7309 He  0  0  0  0  0  0  0  0  0  0  0  0
    2.5096   -5.8691   28.8759 He  0  0  0  0  0  0  0  0  0  0  0  0
   -1.4009  -13.6533   18.3316 He  0  0  0  0  0  0  0  0  0  0  0  0
    5.3126   -3.2186   29.5275 He  0  0  0  0  0  0  0  0  0  0  0  0
  1  2  3  0
  2  4  4  0
  2  6  3  0
  2 11  2  0
  3 13  4  0
  3 14  2  0
  3 15  3  0
  4  8  4  0
  4  9  4  0
  4 14  2  0
  4 15  3  0
  5  6  2  0
  5 11  2  0
  5 12  2  0
  5 13  4  0
  6  9  4  0
  6 12  2  0
  6 13  3  0
  6 15  1  0
  7  8  4  0
  7 10  4  0
  7 12  4  0
  7 14  4  0
  7 15  3  0
  8 14  2  0
  9 12  3  0
  9 15  1  0
 10 12  1  0
 11 13  3  0
 12 14  4  0
M  END
$$$$

 Created by Python create_sdf_string function

 23 47  0  0  0  0  0  0  0  0999 V2000
    4.9643   -6.0448   27.8939 C   0  0  0  0  0  0  0  0  0  0  0  0
    4.1046   -5.1677   28.4722 C   0  0  0  0  0  0  0  0  0  0  0  0
    1.8657   -7.6224   27.5836 O   0  0  0  0  0  0  0  0  0  0  0  0
   -0.2045  -13.1852   17.4907 B   0  0  0  0  0  0  0  0  0  0  0  0
    5.1060   -4.6378   29.1623 C   0  0  0  0  0  0  0  0  0  0  0  0
    3.2799   -5.6221   28.7807 O   0  0  0  0  0  0  0  0  0  0  0  0
    0.6919  -10.7458   17.4784 C   0  0  0  0  0  0  0  0  0  0  0  0
    1.5129   -9.4245   16.5074 C   0  0  0  0  0  0  0  0  0  0  0  0
    0.3792  -11.5778   17.1641 C   0  0  0  0  0  0  0  0  0  0  0  0
    0.3129   -9.1054   19.3317 C   0  0  0  0  0  0  0  0  0  0  0  0
    0.5274  -11.6140   16.3400 C   0  0  0  0  0  0  0  0  0  0  0  0
    5.1309   -5.4447   29.1294 C   0  0  0  0  0  0  0  0  0  0  0  0
    2.6707   -4.4117   28.6659 C   0  0  0  0  0  0  0  0  0  0  0  0
    0.7547   -4.6891   27.8791 C   0  0  0  0  0  0  0  0  0  0  0  0
   -0.6435  -12.3470   18.5559 F   0  0  0  0  0  0  0  0  0  0  0  0
    4.0313   -6.2176   28.1952 C   0  0  0  0  0  0  0  0  0  0  0  0
    5.3728   -3.4894   29.9657 O   0  0  0  0  0  0  0  0  0  0  0  0
    6.0981   -6.3188   26.7812 He  0  0  0  0  0  0  0  0  0  0  0  0
    0.7833   -8.4513   16.7875 He  0  0  0  0  0  0  0  0  0  0  0  0
    2.8993   -5.6169   27.5540 He  0  0  0  0  0  0  0  0  0  0  0  0
   -2.0126  -13.9425   18.3946 He  0  0  0  0  0  0  0  0  0  0  0  0
   -0.9539  -13.3288   18.7245 He  0  0  0  0  0  0  0  0  0  0  0  0
   -0.6442  -12.9747   19.0596 He  0  0  0  0  0  0  0  0  0  0  0  0
  1  3  2  0
  1 14  3  0
  1 15  2  0
  2  9  1  0
  2 10  2  0
  2 12  3  0
  2 15  1  0
  2 16  1  0
  2 17  1  0
  3  4  1  0
  3  7  4  0
  3 13  2  0
  3 17  1  0
  4  7  2  0
  4  9  3  0
  4 13  1  0
  4 15  1  0
  4 17  1  0
  5 10  2  0
  5 12  1  0
  5 15  2  0
  5 17  3  0
  6  9  4  0
  6 11  2  0
  6 13  3  0
  6 14  4  0
  6 15  4  0
  6 17  3  0
  7 10  2  0
  7 11  1  0
  7 13  2  0
  7 14  3  0
  7 17  1  0
  8 10  3  0
  8 12  1  0
  9 11  3  0
  9 12  1  0
 10 11  3  0
 10 12  2  0
 10 15  4  0
 10 16  4  0
 11 13  3  0
 11 15  4  0
 12 14  2  0
 12 16  1  0
 14 17  4  0
 15 16  3  0
M  END
$$$$

 Created by Python create_sdf_string function

 23 26  0  0  0  0  0  0  0  0999 V2000
    5.2313   -5.2625   26.5403 O   0  0  0  0  0  0  0  0  0  0  0  0
    4.4903   -5.5527   29.6588 C   0  0  0  0  0  0  0  0  0  0  0  0
    1.6714   -7.0614   28.1844 C   0  0  0  0  0  0  0  0  0  0  0  0
   -0.7075  -12.5598   18.2584 Se  0  0  0  0  0  0  0  0  0  0  0  0
    0.8492  -11.6441   16.6980 C   0  0  0  0  0  0  0  0  0  0  0  0
   -0.1473  -10.7525   17.5262 C   0  0  0  0  0  0  0  0  0  0  0  0
    2.4229   -4.9848   27.6431 C   0  0  0  0  0  0  0  0  0  0  0  0
    0.5896   -9.0182   18.8716 C   0  0  0  0  0  0  0  0  0  0  0  0
    2.7715   -5.1065   29.4117 C   0  0  0  0  0  0  0  0  0  0  0  0
   -1.1940  -14.6430   18.6384 O   0  0  0  0  0  0  0  0  0  0  0  0
    1.0674   -5.3163   27.2764 N   0  0  0  0  0  0  0  0  0  0  0  0
   -3.0621  -13.6424   18.6663 C   0  0  0  0  0  0  0  0  0  0  0  0
   -0.5171  -12.6122   18.6187 C   0  0  0  0  0  0  0  0  0  0  0  0
   -0.6445  -10.2790   18.3156 N   0  0  0  0  0  0  0  0  0  0  0  0
    5.5975   -4.6921   29.2068 He  0  0  0  0  0  0  0  0  0  0  0  0
    6.0914   -6.5607   27.5671 He  0  0  0  0  0  0  0  0  0  0  0  0
    1.9130   -5.9450   29.5608 He  0  0  0  0  0  0  0  0  0  0  0  0
    1.8982   -9.1496   15.8149 He  0  0  0  0  0  0  0  0  0  0  0  0
    0.2283   -7.8737   15.4299 He  0  0  0  0  0  0  0  0  0  0  0  0
    0.9565  -11.1576   16.6106 He  0  0  0  0  0  0  0  0  0  0  0  0
    6.4375   -4.9478   27.9692 He  0  0  0  0  0  0  0  0  0  0  0  0
    3.4211   -5.9616   28.1960 He  0  0  0  0  0  0  0  0  0  0  0  0
    5.7771   -3.6034   29.9775 He  0  0  0  0  0  0  0  0  0  0  0  0
  1  7  4  0
  1 11  1  0
  2  4  2  0
  2  6  3  0
  2  7  2  0
  2  9  4  0
  2 10  1  0
  2 11  1  0
  2 13  4  0
  2 14  2  0
  3 10  2  0
  3 11  1  0
  3 12  1  0
  5  7  4  0
  5 10  3  0
  6 12  4  0
  6 13  1  0
  7 11  2  0
  7 12  1  0
  8 10  3  0
  8 13  4  0
  8 14  4  0
  9 13  3  0
 10 11  3  0
 10 13  3  0
 10 14  3  0
M  END
$$$$

 Created by Python create_sdf_string function

 23 52  0  0  0  0  0  0  0  0999 V2000
    3.7713   -6.2192   28.0510 C   0  0  0  0  0  0  0  0  0  0  0  0
    2.2065   -6.1062   28.0530 C   0  0  0  0  0  0  0  0  0  0  0  0
   -1.6118  -11.6818   17.7967 C   0  0  0  0  0  0  0  0  0  0  0  0
    5.2105   -4.5395   30.2716 C   0  0  0  0  0  0  0  0  0  0  0  0
    5.7352   -6.1573   27.5953 O   0  0  0  0  0  0  0  0  0  0  0  0
    1.5978   -5.2725   30.3882 F   0  0  0  0  0  0  0  0  0  0  0  0
    1.6014   -8.5444   17.5282 C   0  0  0  0  0  0  0  0  0  0  0  0
   -0.2099  -11.1616   16.4339 C   0  0  0  0  0  0  0  0  0  0  0  0
    0.1454  -11.5717   17.8373 C   0  0  0  0  0  0  0  0  0  0  0  0
    1.5350   -5.8431   27.6036 C   0  0  0  0  0  0  0  0  0  0  0  0
    0.1052   -8.4936   17.2135 C   0  0  0  0  0  0  0  0  0  0  0  0
    0.6857  -10.4248   15.6671 P   0  0  0  0  0  0  0  0  0  0  0  0
    6.2599   -4.1361   27.5555 C   0  0  0  0  0  0  0  0  0  0  0  0
    4.5121   -5.0700   29.0991 C   0  0  0  0  0  0  0  0  0  0  0  0
   -1.1186  -14.2693   18.0992 O   0  0  0  0  0  0  0  0  0  0  0  0
   -2.6418  -12.8602   18.7633 C   0  0  0  0  0  0  0  0  0  0  0  0
   -1.4389  -13.0292   18.8395 C   0  0  0  0  0  0  0  0  0  0  0  0
   -0.6140   -8.8234   18.1609 C   0  0  0  0  0  0  0  0  0  0  0  0
    2.5268   -5.9670   27.4233 P   0  0  0  0  0  0  0  0  0  0  0  0
    5.9388   -4.2208   29.8413 O   0  0  0  0  0  0  0  0  0  0  0  0
    4.7753   -4.5815   29.4191 He  0  0  0  0  0  0  0  0  0  0  0  0
    0.6591   -6.8983   15.2914 He  0  0  0  0  0  0  0  0  0  0  0  0
    1.2980   -6.1963   26.4516 He  0  0  0  0  0  0  0  0  0  0  0  0
  1  2  3  0
  1  5  1  0
  1 19  4  0
  2  6  4  0
  2  9  3  0
  2 11  4  0
  2 12  1  0
  2 13  3  0
  2 14  1  0
  2 16  4  0
  2 17  4  0
  2 19  1  0
  3  4  1  0
  3  5  1  0
  3  7  3  0
  3 11  2  0
  3 14  1  0
  3 17  1  0
  4  6  2  0
  4  7  4  0
  4 11  2  0
  4 13  1  0
  4 14  3  0
  5 15  4  0
  5 17  4  0
  6  7  1  0
  6 14  2  0
  6 16  3  0
  7  9  1  0
  7 11  4  0
  7 12  4  0
  7 15  2  0
  8 11  4  0
  8 12  3  0
  8 14  4  0
  8 15  3  0
  8 20  2  0
  9 10  2  0
  9 11  4  0
  9 15  2  0
  9 16  1  0
  9 17  3  0
 10 11  2  0
 11 18  4  0
 12 18  1  0
 12 19  1  0
 12 20  1  0
 13 19  1  0
 14 16  1  0
 14 17  1  0
 14 18  4  0
 16 18  1  0
M  END
$$$$

 Created by Python create_sdf_string function

 23 21  0  0  0  0  0  0  0  0999 V2000
    3.0066   -5.6054   28.7385 C   0  0  0  0  0  0  0  0  0  0  0  0
    3.9820   -4.0257   29.0285 C   0  0  0  0  0  0  0  0  0  0  0  0
   -1.7649  -10.7871   18.7343 C   0  0  0  0  0  0  0  0  0  0  0  0
    5.8285   -5.1129   29.9510 C   0  0  0  0  0  0  0  0  0  0  0  0
    1.5461   -9.4834   16.5569 C   0  0  0  0  0  0  0  0  0  0  0  0
   -0.7203  -10.7930   16.6456 C   0  0  0  0  0  0  0  0  0  0  0  0
    1.5262   -7.8388   16.8882 F   0  0  0  0  0  0  0  0  0  0  0  0
   -0.6785  -11.0710   17.0962 S   0  0  0  0  0  0  0  0  0  0  0  0
    3.9737   -4.2729   28.6935 C   0  0  0  0  0  0  0  0  0  0  0  0
   -0.5507  -13.6595   18.1816 C   0  0  0  0  0  0  0  0  0  0  0  0
   -2.5449  -11.6984   18.4912 N   0  0  0  0  0  0  0  0  0  0  0  0
    5.9075   -4.4644   29.1675 O   0  0  0  0  0  0  0  0  0  0  0  0
    3.3270   -5.6403   28.9943 He  0  0  0  0  0  0  0  0  0  0  0  0
    5.2593   -5.2852   27.8958 He  0  0  0  0  0  0  0  0  0  0  0  0
    1.6698   -5.4797   28.9073 He  0  0  0  0  0  0  0  0  0  0  0  0
    1.4761   -6.4667   28.8107 He  0  0  0  0  0  0  0  0  0  0  0  0
    0.0807   -8.9245   17.4451 He  0  0  0  0  0  0  0  0  0  0  0  0
    0.1307   -9.9979   15.9239 He  0  0  0  0  0  0  0  0  0  0  0  0
    6.0015   -4.9574   27.5683 He  0  0  0  0  0  0  0  0  0  0  0  0
    1.3569   -5.7643   27.7382 He  0  0  0  0  0  0  0  0  0  0  0  0
   -0.8416  -12.3637   16.9300 He  0  0  0  0  0  0  0  0  0  0  0  0
   -1.4662  -10.8689   18.8299 He  0  0  0  0  0  0  0  0  0  0  0  0
    2.5629   -5.9791   26.7302 He  0  0  0  0  0  0  0  0  0  0  0  0
  1  4  4  0
  1  5  2  0
  1 10  1  0
  2  4  4  0
  2  8  1  0
  2 10  4  0
  3  8  1  0
  3 11  4  0
  3 12  4  0
  4 11  4  0
  4 12  1  0
  5 11  4  0
  5 12  2  0
  6  8  1  0
  6  9  3  0
  7  8  3  0
  7 11  2  0
  9 10  2  0
  9 11  1  0
  9 12  1  0
 10 12  3  0
M  END
$$$$

 Created by Python create_sdf_string function

 23 35  0  0  0  0  0  0  0  0999 V2000
    2.1160   -4.6922   28.4340 C   0  0  0  0  0  0  0  0  0  0  0  0
    5.0537   -4.5433   28.6164 C   0  0  0  0  0  0  0  0  0  0  0  0
    2.8563   -4.9291   27.9175 O   0  0  0  0  0  0  0  0  0  0  0  0
   -2.1490  -11.9351   19.3849 C   0  0  0  0  0  0  0  0  0  0  0  0
    4.9099   -4.3518   28.8226 C   0  0  0  0  0  0  0  0  0  0  0  0
    4.4801   -4.8299   27.7812 C   0  0  0  0  0  0  0  0  0  0  0  0
    1.7582   -5.4306   29.9704 O   0  0  0  0  0  0  0  0  0  0  0  0
    0.5817   -7.8661   16.2649 C   0  0  0  0  0  0  0  0  0  0  0  0
    0.5236  -11.1136   15.9359 C   0  0  0  0  0  0  0  0  0  0  0  0
    1.4745   -7.5619   16.6747 I   0  0  0  0  0  0  0  0  0  0  0  0
    1.2113   -7.1161   27.6563 C   0  0  0  0  0  0  0  0  0  0  0  0
    0.9257  -10.1796   16.3915 C   0  0  0  0  0  0  0  0  0  0  0  0
    7.0815   -6.3595   26.6393 F   0  0  0  0  0  0  0  0  0  0  0  0
    0.7691   -5.8645   26.4536 C   0  0  0  0  0  0  0  0  0  0  0  0
   -0.5885  -11.5904   16.9858 N   0  0  0  0  0  0  0  0  0  0  0  0
   -0.9089   -9.8736   18.9176 P   0  0  0  0  0  0  0  0  0  0  0  0
    2.1610   -6.5833   26.8678 C   0  0  0  0  0  0  0  0  0  0  0  0
    7.5405   -4.3096   28.4147 C   0  0  0  0  0  0  0  0  0  0  0  0
    0.4179  -11.5901   17.8402 He  0  0  0  0  0  0  0  0  0  0  0  0
    0.4825   -8.3841   17.6846 He  0  0  0  0  0  0  0  0  0  0  0  0
    3.7695   -4.9931   29.8183 He  0  0  0  0  0  0  0  0  0  0  0  0
   -2.2224  -13.7320   18.4693 He  0  0  0  0  0  0  0  0  0  0  0  0
   -1.6219  -12.2696   19.1010 He  0  0  0  0  0  0  0  0  0  0  0  0
  1  7  3  0
  1 11  4  0
  1 15  4  0
  1 16  2  0
  1 17  4  0
  1 18  2  0
  2  3  1  0
  2  6  4  0
  2 11  1  0
  2 15  4  0
  2 16  2  0
  3 10  4  0
  4  6  1  0
  4 13  2  0
  5 10  4  0
  5 12  3  0
  5 13  2  0
  5 15  4  0
  5 18  3  0
  6  8  3  0
  6 17  2  0
  7 15  3  0
  7 17  1  0
  8 13  4  0
  8 16  4  0
  9 12  4  0
  9 14  2  0
  9 16  3  0
 10 11  2  0
 11 13  3  0
 11 18  1  0
 12 13  3  0
 14 17  4  0
 14 18  2  0
 16 17  3  0
M  END
$$$$

 Created by Python create_sdf_string function

 23 41  0  0  0  0  0  0  0  0999 V2000
    2.5527   -5.3254   28.4391 C   0  0  0  0  0  0  0  0  0  0  0  0
    4.7824   -4.8295   27.9203 C   0  0  0  0  0  0  0  0  0  0  0  0
    3.3732   -5.0969   27.4963 C   0  0  0  0  0  0  0  0  0  0  0  0
    6.1751   -4.1158   30.4920 C   0  0  0  0  0  0  0  0  0  0  0  0
    5.4786   -4.1438   27.3035 C   0  0  0  0  0  0  0  0  0  0  0  0
    1.6313   -6.4999   28.4876 C   0  0  0  0  0  0  0  0  0  0  0  0
    0.8583   -8.7126   17.1670 B   0  0  0  0  0  0  0  0  0  0  0  0
   -0.4900  -10.9444   16.8739 C   0  0  0  0  0  0  0  0  0  0  0  0
   -0.0229  -11.7150   18.1828 C   0  0  0  0  0  0  0  0  0  0  0  0
    0.5909   -6.9403   28.4554 F   0  0  0  0  0  0  0  0  0  0  0  0
    0.1926   -8.5364   17.9192 C   0  0  0  0  0  0  0  0  0  0  0  0
    0.8702  -10.7340   16.2391 O   0  0  0  0  0  0  0  0  0  0  0  0
    6.1520   -5.0871   26.6783 C   0  0  0  0  0  0  0  0  0  0  0  0
    4.5570   -4.2978   29.8310 C   0  0  0  0  0  0  0  0  0  0  0  0
    1.4434   -6.2981   26.4678 C   0  0  0  0  0  0  0  0  0  0  0  0
   -0.1845  -12.4645   18.2099 N   0  0  0  0  0  0  0  0  0  0  0  0
    3.1262   -5.2572   26.4766 N   0  0  0  0  0  0  0  0  0  0  0  0
    7.2230   -5.2401   28.4745 C   0  0  0  0  0  0  0  0  0  0  0  0
   -1.8391  -11.6989   19.8678 He  0  0  0  0  0  0  0  0  0  0  0  0
    1.6942   -7.8281   16.1598 He  0  0  0  0  0  0  0  0  0  0  0  0
   -1.3461  -14.2867   18.4216 He  0  0  0  0  0  0  0  0  0  0  0  0
   -1.7505  -11.8984   18.8157 He  0  0  0  0  0  0  0  0  0  0  0  0
   -0.1860   -9.7616   18.2168 He  0  0  0  0  0  0  0  0  0  0  0  0
  1  3  4  0
  1  6  4  0
  1 11  4  0
  1 16  4  0
  2  3  1  0
  2  5  2  0
  2  6  2  0
  2  7  2  0
  2  9  4  0
  2 13  1  0
  2 14  4  0
  2 16  4  0
  2 17  4  0
  3  7  3  0
  3  8  2  0
  3 13  1  0
  3 17  4  0
  4 18  4  0
  5 13  4  0
  5 16  1  0
  6  7  1  0
  6 10  4  0
  6 16  2  0
  7  9  1  0
  7 12  4  0
  7 13  2  0
  7 17  1  0
  8  9  4  0
  8 12  4  0
  9 11  2  0
  9 12  2  0
  9 14  2  0
  9 16  1  0
 10 16  4  0
 12 16  4  0
 13 14  2  0
 13 16  1  0
 13 17  3  0
 14 17  1  0
 15 17  4  0
 16 18  1  0
M  END
$$$$

 Created by Python create_sdf_string function

 23 34  0  0  0  0  0  0  0  0999 V2000
    2.0777   -5.9408   29.2860 F   0  0  0  0  0  0  0  0  0  0  0  0
    4.7778   -5.1946   27.1348 C   0  0  0  0  0  0  0  0  0  0  0  0
    2.4291   -4.8070   28.1398 C   0  0  0  0  0  0  0  0  0  0  0  0
    1.2249   -6.5632   29.1142 C   0  0  0  0  0  0  0  0  0  0  0  0
   -0.2222   -9.7052   16.7810 P   0  0  0  0  0  0  0  0  0  0  0  0
    0.4625  -10.9928   15.9318 C   0  0  0  0  0  0  0  0  0  0  0  0
    1.1973   -8.2277   16.6489 C   0  0  0  0  0  0  0  0  0  0  0  0
   -0.2085  -10.4213   17.9893 C   0  0  0  0  0  0  0  0  0  0  0  0
   -0.3089   -8.3230   17.7941 C   0  0  0  0  0  0  0  0  0  0  0  0
   -0.2311   -9.2918   15.9852 C   0  0  0  0  0  0  0  0  0  0  0  0
    6.7377   -4.4628   27.2831 C   0  0  0  0  0  0  0  0  0  0  0  0
   -1.3091  -12.8608   18.9656 O   0  0  0  0  0  0  0  0  0  0  0  0
    1.9665   -6.0410   26.1709 C   0  0  0  0  0  0  0  0  0  0  0  0
   -1.5193  -12.3304   20.0068 F   0  0  0  0  0  0  0  0  0  0  0  0
   -0.1980  -13.2658   18.8884 N   0  0  0  0  0  0  0  0  0  0  0  0
   -0.8483   -9.2460   18.7743 F   0  0  0  0  0  0  0  0  0  0  0  0
    2.5643   -4.4410   27.4890 C   0  0  0  0  0  0  0  0  0  0  0  0
   -2.3081  -11.4896   18.7446 He  0  0  0  0  0  0  0  0  0  0  0  0
    7.3217   -4.3949   29.9314 He  0  0  0  0  0  0  0  0  0  0  0  0
    5.6968   -4.5974   27.8835 He  0  0  0  0  0  0  0  0  0  0  0  0
    1.2512   -6.9884   27.9705 He  0  0  0  0  0  0  0  0  0  0  0  0
    4.6617   -5.5736   30.8570 He  0  0  0  0  0  0  0  0  0  0  0  0
    7.3631   -5.2382   27.9976 He  0  0  0  0  0  0  0  0  0  0  0  0
  1  3  3  0
  1  4  4  0
  1  6  4  0
  1 13  3  0
  1 15  2  0
  2  3  1  0
  2 12  3  0
  2 15  1  0
  2 16  3  0
  3  6  3  0
  3  8  4  0
  3  9  3  0
  3 10  3  0
  3 17  4  0
  4  9  3  0
  4 14  3  0
  5  9  4  0
  6 10  4  0
  6 16  3  0
  7 10  1  0
  7 13  1  0
  8  9  3  0
  8 10  4  0
  8 12  2  0
  8 16  4  0
  9 12  1  0
  9 16  4  0
 10 13  3  0
 10 16  4  0
 11 12  4  0
 11 13  4  0
 11 17  2  0
 13 17  4  0
 15 16  2  0
M  END
$$$$

 Created by Python create_sdf_string function

 23 28  0  0  0  0  0  0  0  0999 V2000
    3.0860   -6.2194   28.9968 C   0  0  0  0  0  0  0  0  0  0  0  0
    4.3029   -4.7153   27.4791 C   0  0  0  0  0  0  0  0  0  0  0  0
   -1.5920  -12.2377   19.3928 C   0  0  0  0  0  0  0  0  0  0  0  0
    5.9260   -4.7502   27.2089 C   0  0  0  0  0  0  0  0  0  0  0  0
    1.3301   -7.0043   29.5727 N   0  0  0  0  0  0  0  0  0  0  0  0
    0.0706   -9.1812   17.2707 F   0  0  0  0  0  0  0  0  0  0  0  0
   -0.5447  -10.9201   17.5421 C   0  0  0  0  0  0  0  0  0  0  0  0
    1.4848   -8.6056   15.8501 C   0  0  0  0  0  0  0  0  0  0  0  0
   -0.8920  -10.7379   18.1711 C   0  0  0  0  0  0  0  0  0  0  0  0
    6.1108   -4.5146   28.9512 C   0  0  0  0  0  0  0  0  0  0  0  0
   -1.4383  -12.4447   19.2796 N   0  0  0  0  0  0  0  0  0  0  0  0
    1.1884   -6.2045   26.3729 O   0  0  0  0  0  0  0  0  0  0  0  0
   -1.1698  -12.6148   18.9035 C   0  0  0  0  0  0  0  0  0  0  0  0
   -1.6475  -10.6643   18.8052 C   0  0  0  0  0  0  0  0  0  0  0  0
    3.1390   -6.1180   27.6911 C   0  0  0  0  0  0  0  0  0  0  0  0
    7.5824   -4.5959   28.2123 C   0  0  0  0  0  0  0  0  0  0  0  0
    3.1637   -4.7908   28.6864 He  0  0  0  0  0  0  0  0  0  0  0  0
    6.8573   -5.1401   29.3875 He  0  0  0  0  0  0  0  0  0  0  0  0
    0.4962   -6.8915   27.9259 He  0  0  0  0  0  0  0  0  0  0  0  0
   -1.2858   -9.0451   17.1346 He  0  0  0  0  0  0  0  0  0  0  0  0
   -0.2259   -8.6365   16.3486 He  0  0  0  0  0  0  0  0  0  0  0  0
    6.1345   -5.1883   26.6020 He  0  0  0  0  0  0  0  0  0  0  0  0
    0.1865  -13.1991   18.1073 He  0  0  0  0  0  0  0  0  0  0  0  0
  1  5  4  0
  1  7  1  0
  1 16  3  0
  2  3  2  0
  2  4  2  0
  2  8  1  0
  2 13  1  0
  3  9  3  0
  3 10  3  0
  4  6  2  0
  4  9  2  0
  4 13  3  0
  4 16  3  0
  5 12  1  0
  6  8  1  0
  6 14  1  0
  7  8  4  0
  7  9  2  0
  7 12  4  0
  9 10  4  0
  9 12  4  0
  9 13  3  0
  9 14  4  0
 10 12  4  0
 11 14  4  0
 11 16  4  0
 13 14  3  0
 15 16  4  0
M  END
$$$$

 Created by Python create_sdf_string function

 23 35  0  0  0  0  0  0  0  0999 V2000
    4.8675   -5.5693   27.5901 C   0  0  0  0  0  0  0  0  0  0  0  0
    3.6216   -5.4437   28.2374 C   0  0  0  0  0  0  0  0  0  0  0  0
   -1.9135  -12.7021   18.3473 C   0  0  0  0  0  0  0  0  0  0  0  0
    6.3992   -4.9063   28.6287 C   0  0  0  0  0  0  0  0  0  0  0  0
    5.9520   -5.0838   26.2910 C   0  0  0  0  0  0  0  0  0  0  0  0
    0.3696   -8.7383   17.1623 C   0  0  0  0  0  0  0  0  0  0  0  0
    0.4038  -10.8997   18.4804 C   0  0  0  0  0  0  0  0  0  0  0  0
    0.6654  -10.1156   16.3213 C   0  0  0  0  0  0  0  0  0  0  0  0
   -0.7387  -10.9791   18.4714 C   0  0  0  0  0  0  0  0  0  0  0  0
    0.7024   -7.1187   28.7772 C   0  0  0  0  0  0  0  0  0  0  0  0
   -0.7877   -8.4734   17.6016 C   0  0  0  0  0  0  0  0  0  0  0  0
   -0.3809   -7.9616   16.7746 C   0  0  0  0  0  0  0  0  0  0  0  0
    6.7686   -5.0121   27.0696 C   0  0  0  0  0  0  0  0  0  0  0  0
    5.6887   -5.7451   28.9170 C   0  0  0  0  0  0  0  0  0  0  0  0
    1.1101   -6.7522   26.5137 C   0  0  0  0  0  0  0  0  0  0  0  0
   -1.2383  -12.3465   19.7586 C   0  0  0  0  0  0  0  0  0  0  0  0
    0.5394  -13.2767   17.4625 O   0  0  0  0  0  0  0  0  0  0  0  0
   -1.3270  -10.0526   17.9216 F   0  0  0  0  0  0  0  0  0  0  0  0
    2.4098   -5.5859   28.2390 He  0  0  0  0  0  0  0  0  0  0  0  0
    1.3071   -7.2114   29.1476 He  0  0  0  0  0  0  0  0  0  0  0  0
   -1.4930  -12.5195   19.0473 He  0  0  0  0  0  0  0  0  0  0  0  0
    2.6318   -5.6371   26.7650 He  0  0  0  0  0  0  0  0  0  0  0  0
    8.3045   -3.9502   28.1159 He  0  0  0  0  0  0  0  0  0  0  0  0
  1  2  1  0
  1  5  4  0
  1 14  2  0
  1 16  2  0
  2  7  2  0
  2 10  1  0
  2 13  2  0
  2 18  2  0
  3  9  1  0
  3 16  2  0
  4 11  4  0
  4 12  1  0
  4 14  4  0
  4 16  2  0
  4 18  1  0
  6  7  4  0
  6  8  4  0
  6 11  4  0
  6 12  1  0
  6 13  1  0
  6 15  3  0
  7  8  4  0
  7  9  3  0
  7 12  4  0
  8 10  2  0
  8 11  3  0
  8 15  2  0
  8 17  4  0
  9 10  1  0
  9 16  4  0
  9 18  4  0
 10 12  1  0
 11 16  4  0
 11 18  4  0
 17 18  2  0
M  END
$$$$

 Created by Python create_sdf_string function

 23 32  0  0  0  0  0  0  0  0999 V2000
    2.1980   -5.6570   28.8879 N   0  0  0  0  0  0  0  0  0  0  0  0
   -1.0462  -12.4730   18.3371 C   0  0  0  0  0  0  0  0  0  0  0  0
    6.0692   -5.0325   28.5603 C   0  0  0  0  0  0  0  0  0  0  0  0
    5.2626   -5.8016   27.3327 C   0  0  0  0  0  0  0  0  0  0  0  0
    1.7766   -7.0560   29.0801 C   0  0  0  0  0  0  0  0  0  0  0  0
   -1.0682   -7.1416   16.3035 C   0  0  0  0  0  0  0  0  0  0  0  0
    1.0731  -10.5782   16.5469 F   0  0  0  0  0  0  0  0  0  0  0  0
    1.2931  -10.6587   16.2813 C   0  0  0  0  0  0  0  0  0  0  0  0
    0.1960  -10.3490   17.6709 C   0  0  0  0  0  0  0  0  0  0  0  0
    1.2347   -6.7827   28.3964 C   0  0  0  0  0  0  0  0  0  0  0  0
   -0.1457   -7.9592   16.3475 N   0  0  0  0  0  0  0  0  0  0  0  0
    6.8788   -4.2544   27.0093 C   0  0  0  0  0  0  0  0  0  0  0  0
    5.3005   -6.3032   28.5597 C   0  0  0  0  0  0  0  0  0  0  0  0
   -2.0584  -13.1950   18.9380 N   0  0  0  0  0  0  0  0  0  0  0  0
    0.8049   -6.3352   27.1544 C   0  0  0  0  0  0  0  0  0  0  0  0
    2.5597   -6.2921   26.5690 C   0  0  0  0  0  0  0  0  0  0  0  0
    4.2727   -5.4881   27.8610 He  0  0  0  0  0  0  0  0  0  0  0  0
    3.4705   -4.7998   28.1829 He  0  0  0  0  0  0  0  0  0  0  0  0
   -1.5662   -9.2423   18.5644 He  0  0  0  0  0  0  0  0  0  0  0  0
   -1.4484  -11.9377   18.6421 He  0  0  0  0  0  0  0  0  0  0  0  0
    1.2852  -13.9662   18.0499 He  0  0  0  0  0  0  0  0  0  0  0  0
   -0.8564   -9.9152   17.9650 He  0  0  0  0  0  0  0  0  0  0  0  0
    7.0583   -3.8643   28.4075 He  0  0  0  0  0  0  0  0  0  0  0  0
  1  2  2  0
  1  5  1  0
  1  6  2  0
  1  7  1  0
  1 10  3  0
  1 13  4  0
  1 14  1  0
  2 14  1  0
  3  5  1  0
  3 11  2  0
  3 13  4  0
  4  9  1  0
  4 12  1  0
  4 15  4  0
  5  9  4  0
  5 10  4  0
  6  8  4  0
  6 11  1  0
  6 16  3  0
  7  8  1  0
  7  9  4  0
  8 14  3  0
 10 12  4  0
 10 15  4  0
 11 12  3  0
 11 13  2  0
 11 14  4  0
 12 13  2  0
 12 15  2  0
 13 15  1  0
 14 16  2  0
 15 16  2  0
M  END
$$$$

 Created by Python create_sdf_string function

 23 34  0  0  0  0  0  0  0  0999 V2000
    2.2453   -6.0622   29.3010 C   0  0  0  0  0  0  0  0  0  0  0  0
    3.3126   -6.2734   27.0370 C   0  0  0  0  0  0  0  0  0  0  0  0
   -0.9206  -12.3240   18.6618 C   0  0  0  0  0  0  0  0  0  0  0  0
    4.9099   -5.7342   27.0718 C   0  0  0  0  0  0  0  0  0  0  0  0
    1.5010   -6.5769   29.3616 C   0  0  0  0  0  0  0  0  0  0  0  0
   -0.4313   -6.6723   17.5515 C   0  0  0  0  0  0  0  0  0  0  0  0
    1.9408  -11.0268   15.5797 C   0  0  0  0  0  0  0  0  0  0  0  0
    0.6242   -6.9941   27.9589 C   0  0  0  0  0  0  0  0  0  0  0  0
   -1.6329   -8.9097   17.5356 C   0  0  0  0  0  0  0  0  0  0  0  0
    5.9853   -4.8088   26.3828 C   0  0  0  0  0  0  0  0  0  0  0  0
    5.7399   -5.2740   28.8671 C   0  0  0  0  0  0  0  0  0  0  0  0
   -1.0694  -13.7079   18.1171 N   0  0  0  0  0  0  0  0  0  0  0  0
    0.8533   -7.3522   26.6440 C   0  0  0  0  0  0  0  0  0  0  0  0
   -2.4773  -11.8931   18.5931 N   0  0  0  0  0  0  0  0  0  0  0  0
    0.7468  -13.0739   17.7262 O   0  0  0  0  0  0  0  0  0  0  0  0
   -1.4800   -9.5468   17.5013 C   0  0  0  0  0  0  0  0  0  0  0  0
    2.9884   -5.5253   26.8822 C   0  0  0  0  0  0  0  0  0  0  0  0
    7.6099   -4.8207   28.5435 C   0  0  0  0  0  0  0  0  0  0  0  0
    4.4603   -4.8319   28.5958 He  0  0  0  0  0  0  0  0  0  0  0  0
    5.8869   -4.7184   28.8825 He  0  0  0  0  0  0  0  0  0  0  0  0
    0.8710  -10.8707   15.9217 He  0  0  0  0  0  0  0  0  0  0  0  0
   -0.3020  -10.1859   17.5399 He  0  0  0  0  0  0  0  0  0  0  0  0
   -0.0524   -9.2609   16.3312 He  0  0  0  0  0  0  0  0  0  0  0  0
  1  3  1  0
  1  5  4  0
  1 10  1  0
  1 18  4  0
  2  6  2  0
  2 10  2  0
  2 11  3  0
  3 10  2  0
  3 12  1  0
  3 14  4  0
  4  9  1  0
  4 10  4  0
  4 12  2  0
  5  8  4  0
  5 14  2  0
  6  9  4  0
  6 12  2  0
  7 12  4  0
  8 13  2  0
  8 17  2  0
  9 11  3  0
  9 17  1  0
 10 15  3  0
 10 16  3  0
 10 18  1  0
 11 13  1  0
 11 16  4  0
 12 16  2  0
 12 17  3  0
 13 14  1  0
 13 17  4  0
 14 16  2  0
 15 17  4  0
 17 18  1  0
M  END
$$$$

 Created by Python create_sdf_string function

 23 29  0  0  0  0  0  0  0  0999 V2000
    2.6311   -6.3571   28.8086 Br  0  0  0  0  0  0  0  0  0  0  0  0
    4.4263   -5.1619   27.8094 C   0  0  0  0  0  0  0  0  0  0  0  0
   -0.7892  -12.2091   17.6443 C   0  0  0  0  0  0  0  0  0  0  0  0
    6.1490   -4.9699   29.6276 P   0  0  0  0  0  0  0  0  0  0  0  0
    5.3253   -6.1118   26.4196 C   0  0  0  0  0  0  0  0  0  0  0  0
   -0.3082   -6.0075   29.0495 C   0  0  0  0  0  0  0  0  0  0  0  0
   -0.7192   -8.7103   16.6649 N   0  0  0  0  0  0  0  0  0  0  0  0
    1.4566  -11.4063   15.4273 S   0  0  0  0  0  0  0  0  0  0  0  0
    1.2456   -7.0823   28.6975 C   0  0  0  0  0  0  0  0  0  0  0  0
    6.5252   -4.0240   27.4502 P   0  0  0  0  0  0  0  0  0  0  0  0
    5.1308   -4.4866   29.3327 C   0  0  0  0  0  0  0  0  0  0  0  0
    0.2435   -7.1652   27.1277 C   0  0  0  0  0  0  0  0  0  0  0  0
    0.8006  -12.1331   16.8935 N   0  0  0  0  0  0  0  0  0  0  0  0
   -1.0573  -10.7914   17.4128 O   0  0  0  0  0  0  0  0  0  0  0  0
    2.6614   -6.2191   27.5518 C   0  0  0  0  0  0  0  0  0  0  0  0
    6.9936   -4.2553   27.7488 N   0  0  0  0  0  0  0  0  0  0  0  0
    3.5474   -5.7378   28.1770 He  0  0  0  0  0  0  0  0  0  0  0  0
    0.8228  -10.4186   16.7176 He  0  0  0  0  0  0  0  0  0  0  0  0
    0.4094  -10.2789   16.9152 He  0  0  0  0  0  0  0  0  0  0  0  0
   -1.5640   -8.5842   17.6328 He  0  0  0  0  0  0  0  0  0  0  0  0
    0.2410   -8.7187   16.2333 He  0  0  0  0  0  0  0  0  0  0  0  0
   -1.7159  -14.0867   18.0370 He  0  0  0  0  0  0  0  0  0  0  0  0
   -1.3374  -11.3031   18.4951 He  0  0  0  0  0  0  0  0  0  0  0  0
  1  4  3  0
  1  6  4  0
  2  5  2  0
  2  9  2  0
  2 11  4  0
  2 13  1  0
  2 14  2  0
  3 13  4  0
  4  7  1  0
  4  8  3  0
  4 16  4  0
  5  6  3  0
  5 10  3  0
  5 13  1  0
  5 15  4  0
  6  9  2  0
  8  9  1  0
  8 10  3  0
  8 14  1  0
  9 10  1  0
  9 12  4  0
  9 13  3  0
  9 16  1  0
 10 16  4  0
 11 12  4  0
 11 14  4  0
 11 16  4  0
 12 15  4  0
 13 16  3  0
M  END
$$$$

 Created by Python create_sdf_string function

 23 33  0  0  0  0  0  0  0  0999 V2000
    4.1992   -5.0537   28.1512 C   0  0  0  0  0  0  0  0  0  0  0  0
   -0.3803  -11.6059   17.0693 C   0  0  0  0  0  0  0  0  0  0  0  0
    6.1866   -4.3024   28.9217 F   0  0  0  0  0  0  0  0  0  0  0  0
    4.5197   -5.4597   27.2129 C   0  0  0  0  0  0  0  0  0  0  0  0
    1.1496   -4.9952   29.4797 C   0  0  0  0  0  0  0  0  0  0  0  0
   -0.4573   -8.5479   17.4087 N   0  0  0  0  0  0  0  0  0  0  0  0
   -0.2824  -11.2933   16.4281 C   0  0  0  0  0  0  0  0  0  0  0  0
    2.1601  -11.7070   15.2725 N   0  0  0  0  0  0  0  0  0  0  0  0
    0.0902  -10.4569   17.6597 C   0  0  0  0  0  0  0  0  0  0  0  0
    0.2262   -6.6412   27.9874 C   0  0  0  0  0  0  0  0  0  0  0  0
   -1.5556   -8.7192   17.6987 N   0  0  0  0  0  0  0  0  0  0  0  0
    6.5650   -4.0730   27.6544 C   0  0  0  0  0  0  0  0  0  0  0  0
    5.2373   -5.2387   29.5854 C   0  0  0  0  0  0  0  0  0  0  0  0
   -0.6402  -13.3805   18.7028 C   0  0  0  0  0  0  0  0  0  0  0  0
    0.8105   -7.0538   27.6399 C   0  0  0  0  0  0  0  0  0  0  0  0
    0.4391  -12.8600   17.1607 N   0  0  0  0  0  0  0  0  0  0  0  0
   -1.1060  -10.9989   17.6154 C   0  0  0  0  0  0  0  0  0  0  0  0
    7.7807   -4.2867   28.2243 C   0  0  0  0  0  0  0  0  0  0  0  0
    2.2431   -6.5084   29.0915 He  0  0  0  0  0  0  0  0  0  0  0  0
    2.5796   -5.9766   28.2164 He  0  0  0  0  0  0  0  0  0  0  0  0
    0.3667   -8.4349   16.7659 He  0  0  0  0  0  0  0  0  0  0  0  0
   -1.2071  -11.1125   18.6370 He  0  0  0  0  0  0  0  0  0  0  0  0
    2.4372   -6.0926   27.2040 He  0  0  0  0  0  0  0  0  0  0  0  0
  1  2  3  0
  1 12  3  0
  2 10  1  0
  2 16  4  0
  3  4  2  0
  3  8  1  0
  3 10  4  0
  3 18  4  0
  4  6  2  0
  4  7  1  0
  4 10  2  0
  5 10  4  0
  5 16  3  0
  6  7  4  0
  6 11  4  0
  6 18  2  0
  7  8  1  0
  7 16  3  0
  8 12  3  0
  9 11  4  0
 10 13  3  0
 10 15  4  0
 10 17  4  0
 11 12  4  0
 11 13  2  0
 11 18  3  0
 12 13  4  0
 12 18  4  0
 13 14  1  0
 13 15  4  0
 14 16  4  0
 14 17  1  0
 15 17  4  0
M  END
$$$$

 Created by Python create_sdf_string function

 23 21  0  0  0  0  0  0  0  0999 V2000
    4.0319   -5.1840   28.5743 C   0  0  0  0  0  0  0  0  0  0  0  0
    3.0119   -5.6970   27.8992 S   0  0  0  0  0  0  0  0  0  0  0  0
    0.3588  -11.9642   16.6979 C   0  0  0  0  0  0  0  0  0  0  0  0
    6.5077   -4.1909   29.1811 N   0  0  0  0  0  0  0  0  0  0  0  0
    1.1950   -5.5177   29.2238 C   0  0  0  0  0  0  0  0  0  0  0  0
   -0.6068   -8.2243   17.1805 N   0  0  0  0  0  0  0  0  0  0  0  0
   -0.1587  -11.6618   16.9633 F   0  0  0  0  0  0  0  0  0  0  0  0
    1.3906  -12.1531   15.3573 C   0  0  0  0  0  0  0  0  0  0  0  0
    0.1727  -10.3124   16.2646 C   0  0  0  0  0  0  0  0  0  0  0  0
    0.5882   -9.0056   16.8783 N   0  0  0  0  0  0  0  0  0  0  0  0
    4.9702   -4.5721   29.8923 C   0  0  0  0  0  0  0  0  0  0  0  0
   -1.2551  -13.3797   18.6462 N   0  0  0  0  0  0  0  0  0  0  0  0
    1.1056   -7.1229   27.1568 N   0  0  0  0  0  0  0  0  0  0  0  0
   -1.1102  -11.1534   18.4506 N   0  0  0  0  0  0  0  0  0  0  0  0
    0.7427  -13.5367   17.2732 N   0  0  0  0  0  0  0  0  0  0  0  0
    1.9171   -5.6162   28.9263 He  0  0  0  0  0  0  0  0  0  0  0  0
    5.0041   -5.2372   27.1444 He  0  0  0  0  0  0  0  0  0  0  0  0
    1.1511   -6.9021   27.6884 He  0  0  0  0  0  0  0  0  0  0  0  0
   -1.2501   -8.6530   18.3056 He  0  0  0  0  0  0  0  0  0  0  0  0
    6.2987   -4.8951   27.3344 He  0  0  0  0  0  0  0  0  0  0  0  0
   -0.4719   -9.9785   18.2928 He  0  0  0  0  0  0  0  0  0  0  0  0
    2.4543   -6.5281   27.3434 He  0  0  0  0  0  0  0  0  0  0  0  0
    7.1716   -3.8447   28.4405 He  0  0  0  0  0  0  0  0  0  0  0  0
  1  2  4  0
  1 11  3  0
  1 12  2  0
  1 14  1  0
  2 13  1  0
  3  7  4  0
  3  8  4  0
  3 15  1  0
  4  9  3  0
  4 11  4  0
  6 10  4  0
  6 13  3  0
  7  9  4  0
  7 11  2  0
  7 13  4  0
  8  9  1  0
  9 10  4  0
 10 13  3  0
 11 14  3  0
 12 14  4  0
 12 15  4  0
M  END
$$$$

 Created by Python create_sdf_string function

 23 40  0  0  0  0  0  0  0  0999 V2000
    1.9708   -4.7011   28.8919 N   0  0  0  0  0  0  0  0  0  0  0  0
    4.2835   -4.8049   28.5778 C   0  0  0  0  0  0  0  0  0  0  0  0
   -0.0024  -11.9565   16.9526 C   0  0  0  0  0  0  0  0  0  0  0  0
    6.0586   -3.9358   29.8811 C   0  0  0  0  0  0  0  0  0  0  0  0
    5.2849   -5.7626   27.8743 C   0  0  0  0  0  0  0  0  0  0  0  0
    0.7389   -5.9389   28.7315 C   0  0  0  0  0  0  0  0  0  0  0  0
   -0.5356   -7.7053   17.1877 Cl  0  0  0  0  0  0  0  0  0  0  0  0
    0.0856  -11.2787   16.9198 N   0  0  0  0  0  0  0  0  0  0  0  0
    2.1788  -12.6734   15.8314 C   0  0  0  0  0  0  0  0  0  0  0  0
   -0.0252  -10.1816   16.5920 C   0  0  0  0  0  0  0  0  0  0  0  0
    0.5908   -7.0158   27.9485 C   0  0  0  0  0  0  0  0  0  0  0  0
   -1.2832   -8.3114   18.8346 C   0  0  0  0  0  0  0  0  0  0  0  0
    0.5218   -8.6572   16.5515 N   0  0  0  0  0  0  0  0  0  0  0  0
    6.2835   -4.4062   27.8167 C   0  0  0  0  0  0  0  0  0  0  0  0
    5.2739   -4.7090   29.3479 C   0  0  0  0  0  0  0  0  0  0  0  0
   -0.4260  -12.3223   17.9847 P   0  0  0  0  0  0  0  0  0  0  0  0
    1.3599   -6.4733   26.9036 Br  0  0  0  0  0  0  0  0  0  0  0  0
   -1.3981  -11.9070   18.9683 N   0  0  0  0  0  0  0  0  0  0  0  0
    0.2448  -13.0267   16.6365 C   0  0  0  0  0  0  0  0  0  0  0  0
    7.1100   -4.1825   28.4552 C   0  0  0  0  0  0  0  0  0  0  0  0
    3.1642   -5.1194   27.4814 He  0  0  0  0  0  0  0  0  0  0  0  0
   -1.0120  -10.4593   18.3252 He  0  0  0  0  0  0  0  0  0  0  0  0
    2.9236   -6.5565   26.8953 He  0  0  0  0  0  0  0  0  0  0  0  0
  1  6  4  0
  1 10  4  0
  1 13  3  0
  1 16  4  0
  1 18  3  0
  2  5  4  0
  2 14  3  0
  2 15  4  0
  3  5  4  0
  3  8  1  0
  3  9  1  0
  3 10  2  0
  3 12  3  0
  3 19  4  0
  4 16  1  0
  5  6  2  0
  5 13  1  0
  5 14  4  0
  5 15  1  0
  5 19  3  0
  6 10  1  0
  6 11  4  0
  7 10  4  0
  7 12  4  0
  7 13  4  0
  8 10  2  0
 10 14  3  0
 10 19  2  0
 11 12  4  0
 11 13  1  0
 11 17  1  0
 11 18  3  0
 11 20  1  0
 12 17  1  0
 13 19  1  0
 14 20  4  0
 15 17  1  0
 16 18  4  0
 17 19  2  0
 18 19  4  0
M  END
$$$$

 Created by Python create_sdf_string function

 23 40  0  0  0  0  0  0  0  0999 V2000
    1.6983   -5.8176   29.3470 N   0  0  0  0  0  0  0  0  0  0  0  0
    3.6370   -5.0508   27.8162 C   0  0  0  0  0  0  0  0  0  0  0  0
    3.0738   -5.6337   28.7936 C   0  0  0  0  0  0  0  0  0  0  0  0
    5.4318   -3.8678   30.1809 C   0  0  0  0  0  0  0  0  0  0  0  0
    5.3042   -4.4786   27.1279 C   0  0  0  0  0  0  0  0  0  0  0  0
    1.0785   -5.5694   28.4848 O   0  0  0  0  0  0  0  0  0  0  0  0
   -0.5316   -7.8380   17.4469 C   0  0  0  0  0  0  0  0  0  0  0  0
    0.5030  -11.1253   16.3033 N   0  0  0  0  0  0  0  0  0  0  0  0
    1.6423  -12.8187   15.5234 N   0  0  0  0  0  0  0  0  0  0  0  0
   -0.3618   -9.5611   17.3496 C   0  0  0  0  0  0  0  0  0  0  0  0
    0.9501   -5.8635   27.3309 C   0  0  0  0  0  0  0  0  0  0  0  0
   -1.8110   -8.8964   18.4665 C   0  0  0  0  0  0  0  0  0  0  0  0
    0.1845   -9.3521   17.2764 N   0  0  0  0  0  0  0  0  0  0  0  0
    7.0272   -4.6843   27.3683 C   0  0  0  0  0  0  0  0  0  0  0  0
    5.0340   -4.2270   29.6548 F   0  0  0  0  0  0  0  0  0  0  0  0
   -0.7921  -12.5081   18.4845 C   0  0  0  0  0  0  0  0  0  0  0  0
    1.0185   -5.9483   26.4583 C   0  0  0  0  0  0  0  0  0  0  0  0
   -1.1734  -10.9845   17.7624 C   0  0  0  0  0  0  0  0  0  0  0  0
    0.6133  -13.6135   16.9719 C   0  0  0  0  0  0  0  0  0  0  0  0
   -1.3998   -9.7999   18.2241 C   0  0  0  0  0  0  0  0  0  0  0  0
    3.0993   -5.2580   26.4564 C   0  0  0  0  0  0  0  0  0  0  0  0
   -0.0551  -12.3017   16.1350 He  0  0  0  0  0  0  0  0  0  0  0  0
    6.6385   -4.3617   28.4874 He  0  0  0  0  0  0  0  0  0  0  0  0
  1  3  4  0
  1  5  2  0
  1  6  4  0
  1  7  4  0
  1  8  3  0
  1 12  4  0
  2  5  4  0
  2  6  3  0
  2 15  4  0
  2 16  3  0
  2 17  1  0
  3  4  4  0
  3  7  1  0
  3  8  1  0
  3 10  3  0
  3 16  2  0
  3 21  4  0
  4 15  4  0
  5 10  2  0
  5 12  4  0
  5 14  4  0
  6 17  1  0
  7  8  4  0
  7 12  4  0
  8 10  4  0
  8 13  4  0
  8 17  1  0
  9 19  1  0
  9 20  1  0
 10 13  4  0
 10 20  3  0
 12 15  1  0
 12 20  4  0
 13 15  2  0
 14 16  2  0
 15 19  3  0
 16 18  4  0
 17 20  4  0
 18 20  4  0
 19 21  4  0
M  END
$$$$

 Created by Python create_sdf_string function

 23 23  0  0  0  0  0  0  0  0999 V2000
    1.8639   -5.6338   29.3772 N   0  0  0  0  0  0  0  0  0  0  0  0
    3.7954   -4.7262   28.5639 C   0  0  0  0  0  0  0  0  0  0  0  0
    3.3025   -5.8702   27.8048 C   0  0  0  0  0  0  0  0  0  0  0  0
   -0.0141  -12.2902   16.6867 C   0  0  0  0  0  0  0  0  0  0  0  0
    6.5835   -3.9299   29.8518 C   0  0  0  0  0  0  0  0  0  0  0  0
    5.3186   -5.1959   27.6656 C   0  0  0  0  0  0  0  0  0  0  0  0
    0.7840   -5.7670   28.0385 C   0  0  0  0  0  0  0  0  0  0  0  0
    0.6514  -10.7927   16.8833 N   0  0  0  0  0  0  0  0  0  0  0  0
    1.0182  -13.4676   15.3126 N   0  0  0  0  0  0  0  0  0  0  0  0
    0.1395   -6.0525   27.5569 C   0  0  0  0  0  0  0  0  0  0  0  0
   -1.6845   -8.9502   18.4381 C   0  0  0  0  0  0  0  0  0  0  0  0
    6.7286   -4.4825   27.9759 C   0  0  0  0  0  0  0  0  0  0  0  0
   -0.8318  -12.4388   18.0889 C   0  0  0  0  0  0  0  0  0  0  0  0
    1.9653   -5.2405   26.3722 Se  0  0  0  0  0  0  0  0  0  0  0  0
   -0.7107  -10.9573   17.8019 C   0  0  0  0  0  0  0  0  0  0  0  0
   -1.8578  -10.5482   17.8592 C   0  0  0  0  0  0  0  0  0  0  0  0
    6.8325   -4.0577   29.0972 C   0  0  0  0  0  0  0  0  0  0  0  0
   -1.8661   -7.5186   17.9065 He  0  0  0  0  0  0  0  0  0  0  0  0
   -0.1995  -10.1950   16.3729 He  0  0  0  0  0  0  0  0  0  0  0  0
   -0.1719   -8.5598   16.7570 He  0  0  0  0  0  0  0  0  0  0  0  0
    4.8468   -4.3065   29.3947 He  0  0  0  0  0  0  0  0  0  0  0  0
   -0.0946  -13.1724   16.5136 He  0  0  0  0  0  0  0  0  0  0  0  0
    2.8655   -5.4646   26.8915 He  0  0  0  0  0  0  0  0  0  0  0  0
  1  3  4  0
  1  6  1  0
  1  7  4  0
  1 11  1  0
  2  8  2  0
  2 14  1  0
  3 16  1  0
  4  8  2  0
  4  9  3  0
  5 10  3  0
  5 11  4  0
  5 14  4  0
  5 17  4  0
  6 10  2  0
  6 12  4  0
  7 10  4  0
  7 14  4  0
  8 12  4  0
  9 17  4  0
 10 14  4  0
 11 14  2  0
 12 17  4  0
 13 15  4  0
M  END
$$$$

 Created by Python create_sdf_string function

 23 38  0  0  0  0  0  0  0  0999 V2000
    2.5152   -5.2759   28.8766 N   0  0  0  0  0  0  0  0  0  0  0  0
    4.0830   -5.3813   27.9741 C   0  0  0  0  0  0  0  0  0  0  0  0
    3.6458   -5.3781   27.6595 C   0  0  0  0  0  0  0  0  0  0  0  0
    0.1743  -12.0389   15.8327 C   0  0  0  0  0  0  0  0  0  0  0  0
    5.1680   -4.1044   29.8729 C   0  0  0  0  0  0  0  0  0  0  0  0
    5.0795   -4.7225   27.7221 C   0  0  0  0  0  0  0  0  0  0  0  0
    0.8089   -5.7181   28.2487 C   0  0  0  0  0  0  0  0  0  0  0  0
   -1.9133   -7.8909   17.6057 C   0  0  0  0  0  0  0  0  0  0  0  0
    1.4436  -13.3646   15.2240 N   0  0  0  0  0  0  0  0  0  0  0  0
   -0.6582  -10.8127   16.4990 C   0  0  0  0  0  0  0  0  0  0  0  0
    0.5712   -5.8832   26.9815 C   0  0  0  0  0  0  0  0  0  0  0  0
   -2.2749   -8.6684   18.2097 C   0  0  0  0  0  0  0  0  0  0  0  0
   -0.2134   -8.0492   16.6376 C   0  0  0  0  0  0  0  0  0  0  0  0
    4.8778   -3.8094   29.1270 C   0  0  0  0  0  0  0  0  0  0  0  0
   -0.3046  -12.2011   17.8708 C   0  0  0  0  0  0  0  0  0  0  0  0
    1.4616   -6.1738   26.3048 P   0  0  0  0  0  0  0  0  0  0  0  0
   -0.8336  -10.7971   17.5747 F   0  0  0  0  0  0  0  0  0  0  0  0
   -0.6672  -12.3380   17.5216 N   0  0  0  0  0  0  0  0  0  0  0  0
   -2.5141  -10.0554   19.0751 C   0  0  0  0  0  0  0  0  0  0  0  0
    2.8893   -5.5829   26.5970 C   0  0  0  0  0  0  0  0  0  0  0  0
    7.0525   -3.7544   29.2052 C   0  0  0  0  0  0  0  0  0  0  0  0
    0.2653  -11.7715   16.3551 He  0  0  0  0  0  0  0  0  0  0  0  0
    7.0006   -4.9163   27.4770 He  0  0  0  0  0  0  0  0  0  0  0  0
  1  3  1  0
  1  7  4  0
  1  8  2  0
  1 13  3  0
  1 18  3  0
  2  3  1  0
  2  6  4  0
  3  8  3  0
  3 19  3  0
  4 18  4  0
  5 10  3  0
  5 14  4  0
  5 16  3  0
  5 20  1  0
  5 21  4  0
  6  8  3  0
  6 20  1  0
  7  8  4  0
  7 11  4  0
  7 19  4  0
  7 20  2  0
  8 13  4  0
  8 18  1  0
  9 10  4  0
  9 16  3  0
 10 13  4  0
 11 16  1  0
 11 21  4  0
 12 19  4  0
 13 21  1  0
 15 16  1  0
 15 18  4  0
 15 21  4  0
 16 17  4  0
 16 18  4  0
 16 19  3  0
 16 20  4  0
 17 19  4  0
M  END
$$$$

 Created by Python create_sdf_string function

 23 31  0  0  0  0  0  0  0  0999 V2000
    1.3220   -4.7067   29.0480 N   0  0  0  0  0  0  0  0  0  0  0  0
    4.0026   -5.2126   27.9700 C   0  0  0  0  0  0  0  0  0  0  0  0
    3.2858   -5.3130   28.2992 C   0  0  0  0  0  0  0  0  0  0  0  0
    0.5008  -12.3190   15.7878 C   0  0  0  0  0  0  0  0  0  0  0  0
    5.6177   -4.5744   27.2738 C   0  0  0  0  0  0  0  0  0  0  0  0
   -1.3883   -7.7286   17.4557 C   0  0  0  0  0  0  0  0  0  0  0  0
    0.2785  -11.0549   15.9037 F   0  0  0  0  0  0  0  0  0  0  0  0
    0.3511  -10.2059   16.7627 C   0  0  0  0  0  0  0  0  0  0  0  0
    0.0376   -5.7821   26.7752 C   0  0  0  0  0  0  0  0  0  0  0  0
   -2.4445   -8.9890   18.0867 P   0  0  0  0  0  0  0  0  0  0  0  0
   -0.1950   -9.1152   16.1187 C   0  0  0  0  0  0  0  0  0  0  0  0
    4.7367   -4.3294   29.2623 N   0  0  0  0  0  0  0  0  0  0  0  0
   -1.3118  -12.0884   18.2443 C   0  0  0  0  0  0  0  0  0  0  0  0
    1.8142   -6.0869   25.7815 Br  0  0  0  0  0  0  0  0  0  0  0  0
    0.0898  -12.2864   17.1026 N   0  0  0  0  0  0  0  0  0  0  0  0
   -2.4032  -10.0142   18.5011 C   0  0  0  0  0  0  0  0  0  0  0  0
    2.2623   -5.8150   26.4434 C   0  0  0  0  0  0  0  0  0  0  0  0
    7.1147   -4.1555   28.9734 C   0  0  0  0  0  0  0  0  0  0  0  0
    5.9818   -3.6153   29.9109 He  0  0  0  0  0  0  0  0  0  0  0  0
    0.2883   -6.3009   28.4633 He  0  0  0  0  0  0  0  0  0  0  0  0
    1.1261  -13.4172   15.3851 He  0  0  0  0  0  0  0  0  0  0  0  0
    6.7933   -4.4631   28.4526 He  0  0  0  0  0  0  0  0  0  0  0  0
   -1.0241  -10.8324   18.3793 He  0  0  0  0  0  0  0  0  0  0  0  0
  1  3  4  0
  1  8  1  0
  1  9  2  0
  2  3  1  0
  2  5  4  0
  2 12  4  0
  2 14  1  0
  3  7  3  0
  3 11  3  0
  3 12  4  0
  3 14  4  0
  3 17  4  0
  4  7  4  0
  4 10  3  0
  4 15  4  0
  6 11  4  0
  6 16  3  0
  7  8  4  0
  7 11  3  0
  7 15  3  0
  8  9  4  0
  8 10  1  0
  8 11  4  0
  9 14  4  0
  9 18  4  0
 10 13  4  0
 10 16  4  0
 11 14  1  0
 12 18  2  0
 13 15  4  0
 14 17  4  0
M  END
$$$$

 Created by Python create_sdf_string function

 23 37  0  0  0  0  0  0  0  0999 V2000
    1.7503   -5.5806   29.3456 N   0  0  0  0  0  0  0  0  0  0  0  0
    2.6975   -5.0131   27.3151 C   0  0  0  0  0  0  0  0  0  0  0  0
    0.9299  -12.3385   16.3298 C   0  0  0  0  0  0  0  0  0  0  0  0
    5.7617   -4.4127   30.1732 C   0  0  0  0  0  0  0  0  0  0  0  0
    5.4285   -4.7292   27.7073 C   0  0  0  0  0  0  0  0  0  0  0  0
    0.9562   -5.7794   28.3726 C   0  0  0  0  0  0  0  0  0  0  0  0
   -1.3596   -8.2520   17.4546 C   0  0  0  0  0  0  0  0  0  0  0  0
    0.4729  -10.5675   16.1581 N   0  0  0  0  0  0  0  0  0  0  0  0
    0.9297  -12.9018   15.3462 O   0  0  0  0  0  0  0  0  0  0  0  0
   -0.6255   -9.8021   16.9725 C   0  0  0  0  0  0  0  0  0  0  0  0
    0.6233   -6.2718   27.1449 C   0  0  0  0  0  0  0  0  0  0  0  0
   -2.3876   -8.4022   17.7462 C   0  0  0  0  0  0  0  0  0  0  0  0
    0.4464   -9.0562   16.7983 C   0  0  0  0  0  0  0  0  0  0  0  0
    6.3365   -4.9934   28.1888 C   0  0  0  0  0  0  0  0  0  0  0  0
    4.4212   -4.3733   29.5102 N   0  0  0  0  0  0  0  0  0  0  0  0
   -1.5478  -12.0104   17.5014 C   0  0  0  0  0  0  0  0  0  0  0  0
   -2.1638   -9.8701   18.8490 C   0  0  0  0  0  0  0  0  0  0  0  0
    2.8078   -5.2384   26.6818 C   0  0  0  0  0  0  0  0  0  0  0  0
    7.0917   -3.9040   29.5399 O   0  0  0  0  0  0  0  0  0  0  0  0
    4.9029   -4.9948   28.0893 He  0  0  0  0  0  0  0  0  0  0  0  0
    1.4605   -5.8184   25.6427 He  0  0  0  0  0  0  0  0  0  0  0  0
   -0.7869  -10.3548   17.9367 He  0  0  0  0  0  0  0  0  0  0  0  0
   -0.0589  -12.6318   17.1217 He  0  0  0  0  0  0  0  0  0  0  0  0
  1  2  4  0
  1  6  4  0
  1 10  1  0
  2  4  3  0
  2  7  1  0
  2 11  2  0
  2 13  2  0
  2 18  4  0
  2 19  3  0
  3  4  4  0
  3  6  4  0
  3  8  1  0
  3  9  1  0
  3 10  1  0
  3 15  1  0
  3 19  3  0
  4  6  4  0
  4 13  3  0
  4 18  4  0
  4 19  4  0
  5 14  4  0
  5 18  2  0
  6 11  4  0
  6 15  3  0
  7 11  2  0
  7 12  4  0
  7 13  4  0
  7 14  4  0
  7 19  4  0
  8 10  4  0
  8 15  3  0
 10 13  2  0
 12 18  3  0
 14 18  1  0
 14 19  4  0
 15 19  3  0
 16 17  3  0
M  END
$$$$

 Created by Python create_sdf_string function

 23 29  0  0  0  0  0  0  0  0999 V2000
    2.3035   -5.3003   28.4346 N   0  0  0  0  0  0  0  0  0  0  0  0
    4.2940   -4.7151   29.0351 C   0  0  0  0  0  0  0  0  0  0  0  0
    3.4868   -5.3480   28.0661 C   0  0  0  0  0  0  0  0  0  0  0  0
    0.0093  -11.7416   16.3088 C   0  0  0  0  0  0  0  0  0  0  0  0
    5.5083   -4.5899   27.6678 C   0  0  0  0  0  0  0  0  0  0  0  0
    1.1994   -6.0958   28.3705 C   0  0  0  0  0  0  0  0  0  0  0  0
   -1.5076   -8.1675   17.6543 C   0  0  0  0  0  0  0  0  0  0  0  0
    0.6474  -11.6369   16.3938 N   0  0  0  0  0  0  0  0  0  0  0  0
    0.9654  -13.1725   15.0079 O   0  0  0  0  0  0  0  0  0  0  0  0
   -0.1136  -10.2085   17.3033 N   0  0  0  0  0  0  0  0  0  0  0  0
   -2.1417   -8.6252   17.5675 C   0  0  0  0  0  0  0  0  0  0  0  0
    0.1065   -8.7478   16.7981 C   0  0  0  0  0  0  0  0  0  0  0  0
    6.8449   -4.1487   28.1506 C   0  0  0  0  0  0  0  0  0  0  0  0
    4.6339   -4.5253   30.3601 N   0  0  0  0  0  0  0  0  0  0  0  0
   -1.4980  -11.5546   18.6075 Se  0  0  0  0  0  0  0  0  0  0  0  0
    1.7008   -6.5302   26.3241 C   0  0  0  0  0  0  0  0  0  0  0  0
   -1.4942  -10.8138   17.5292 C   0  0  0  0  0  0  0  0  0  0  0  0
   -1.3047   -9.6323   18.1636 C   0  0  0  0  0  0  0  0  0  0  0  0
    3.0893   -4.8268   26.6295 C   0  0  0  0  0  0  0  0  0  0  0  0
    5.7540   -3.7735   30.4055 He  0  0  0  0  0  0  0  0  0  0  0  0
    0.4757   -5.8697   27.1522 He  0  0  0  0  0  0  0  0  0  0  0  0
    0.1315  -12.4576   17.2398 He  0  0  0  0  0  0  0  0  0  0  0  0
    6.8162   -4.4215   29.6551 He  0  0  0  0  0  0  0  0  0  0  0  0
  1  3  4  0
  1  6  4  0
  2  3  1  0
  2  5  4  0
  2 14  4  0
  3 10  1  0
  3 15  2  0
  3 16  3  0
  3 19  4  0
  4  5  4  0
  4  8  4  0
  4  9  1  0
  5 13  4  0
  5 19  2  0
  6 19  3  0
  7 10  4  0
  7 12  4  0
  7 13  2  0
  7 16  3  0
  8 10  4  0
  8 14  2  0
  9 17  4  0
 10 12  2  0
 10 15  4  0
 10 17  4  0
 11 18  4  0
 15 17  4  0
 16 19  1  0
 17 18  2  0
M  END
$$$$

 Created by Python create_sdf_string function

 23 33  0  0  0  0  0  0  0  0999 V2000
    2.0031   -5.7048   28.8000 S   0  0  0  0  0  0  0  0  0  0  0  0
    4.3715   -4.5398   28.6393 C   0  0  0  0  0  0  0  0  0  0  0  0
    3.2921   -5.2312   27.7740 N   0  0  0  0  0  0  0  0  0  0  0  0
   -0.0680  -12.6394   16.6794 C   0  0  0  0  0  0  0  0  0  0  0  0
    6.5604   -4.6075   30.3875 C   0  0  0  0  0  0  0  0  0  0  0  0
    5.6465   -4.3505   27.5058 C   0  0  0  0  0  0  0  0  0  0  0  0
    1.4305   -5.7584   28.1978 C   0  0  0  0  0  0  0  0  0  0  0  0
   -0.8670   -8.3238   17.3841 C   0  0  0  0  0  0  0  0  0  0  0  0
    0.2429  -11.5339   16.2883 C   0  0  0  0  0  0  0  0  0  0  0  0
    1.1281  -13.4536   15.2456 O   0  0  0  0  0  0  0  0  0  0  0  0
   -0.2757   -9.6164   17.2229 C   0  0  0  0  0  0  0  0  0  0  0  0
    0.7476   -6.1185   27.3211 C   0  0  0  0  0  0  0  0  0  0  0  0
   -2.1468   -8.2000   17.3678 N   0  0  0  0  0  0  0  0  0  0  0  0
    0.0564   -8.7564   16.3792 C   0  0  0  0  0  0  0  0  0  0  0  0
    6.7588   -4.1582   27.9237 C   0  0  0  0  0  0  0  0  0  0  0  0
   -0.5597  -12.2682   17.4386 C   0  0  0  0  0  0  0  0  0  0  0  0
   -0.0566  -12.5673   17.3060 C   0  0  0  0  0  0  0  0  0  0  0  0
   -1.6837  -10.0647   18.6380 C   0  0  0  0  0  0  0  0  0  0  0  0
    6.4350   -4.0077   30.4190 P   0  0  0  0  0  0  0  0  0  0  0  0
    5.1340   -4.6111   30.2764 He  0  0  0  0  0  0  0  0  0  0  0  0
    2.4179   -6.0464   26.3623 He  0  0  0  0  0  0  0  0  0  0  0  0
   -1.2266  -11.0469   18.0677 He  0  0  0  0  0  0  0  0  0  0  0  0
    3.2083   -5.2296   26.3907 He  0  0  0  0  0  0  0  0  0  0  0  0
  1  2  3  0
  1  3  4  0
  1  7  2  0
  1 15  2  0
  2  3  1  0
  2  6  3  0
  3  7  4  0
  3 15  1  0
  4  9  4  0
  4 10  1  0
  4 11  4  0
  4 17  4  0
  5 18  2  0
  5 19  4  0
  6  7  4  0
  6 15  4  0
  6 17  1  0
  6 19  2  0
  7  8  2  0
  7 12  4  0
  8 11  4  0
  8 13  4  0
  8 14  4  0
  9 11  4  0
  9 17  2  0
 10 12  3  0
 10 18  3  0
 10 19  1  0
 13 18  3  0
 14 17  1  0
 15 19  2  0
 16 17  4  0
 18 19  4  0
M  END
$$$$

 Created by Python create_sdf_string function

 23 37  0  0  0  0  0  0  0  0999 V2000
    2.6306   -5.5097   29.1544 C   0  0  0  0  0  0  0  0  0  0  0  0
    4.3158   -5.4057   28.4610 C   0  0  0  0  0  0  0  0  0  0  0  0
    3.5198   -4.9119   27.7962 C   0  0  0  0  0  0  0  0  0  0  0  0
    0.7659  -12.7909   16.6098 C   0  0  0  0  0  0  0  0  0  0  0  0
    6.2539   -4.1274   30.3640 C   0  0  0  0  0  0  0  0  0  0  0  0
    5.6365   -4.5521   27.7200 C   0  0  0  0  0  0  0  0  0  0  0  0
   -1.5921   -8.1734   17.0377 C   0  0  0  0  0  0  0  0  0  0  0  0
    0.1597  -10.9865   16.2578 C   0  0  0  0  0  0  0  0  0  0  0  0
    1.0920  -13.4691   15.6610 O   0  0  0  0  0  0  0  0  0  0  0  0
   -0.3148  -10.0197   16.7887 C   0  0  0  0  0  0  0  0  0  0  0  0
    0.7679   -6.3018   26.7941 C   0  0  0  0  0  0  0  0  0  0  0  0
   -2.0247   -8.0421   17.9287 C   0  0  0  0  0  0  0  0  0  0  0  0
    0.0996   -8.9474   16.6459 C   0  0  0  0  0  0  0  0  0  0  0  0
    6.8081   -4.1525   28.5542 C   0  0  0  0  0  0  0  0  0  0  0  0
    4.5335   -5.0547   30.0087 C   0  0  0  0  0  0  0  0  0  0  0  0
   -1.2948  -12.0151   18.0051 C   0  0  0  0  0  0  0  0  0  0  0  0
    2.0757   -5.4097   26.5475 S   0  0  0  0  0  0  0  0  0  0  0  0
   -1.2523   -9.0424   18.4681 C   0  0  0  0  0  0  0  0  0  0  0  0
    2.6730   -5.6980   26.5756 C   0  0  0  0  0  0  0  0  0  0  0  0
    6.7804   -4.3508   29.6703 C   0  0  0  0  0  0  0  0  0  0  0  0
    1.5579   -5.8707   28.8245 He  0  0  0  0  0  0  0  0  0  0  0  0
   -0.8926  -10.8700   18.0401 He  0  0  0  0  0  0  0  0  0  0  0  0
   -1.2320  -12.9617   17.0690 He  0  0  0  0  0  0  0  0  0  0  0  0
  1  6  4  0
  1  7  3  0
  1 16  3  0
  1 19  2  0
  2  3  3  0
  2  5  1  0
  2 15  4  0
  2 18  1  0
  3 19  4  0
  4  8  4  0
  4  9  2  0
  5 20  4  0
  6 14  4  0
  6 17  2  0
  7 10  1  0
  7 12  1  0
  7 13  1  0
  7 14  3  0
  7 15  1  0
  8 10  4  0
  8 12  1  0
  8 20  1  0
  9 16  4  0
  9 17  4  0
 10 12  1  0
 10 13  4  0
 10 14  1  0
 10 15  1  0
 11 15  3  0
 11 17  4  0
 12 18  4  0
 13 16  2  0
 14 17  4  0
 14 20  4  0
 16 18  4  0
 17 18  1  0
 17 19  4  0
M  END
$$$$

 Created by Python create_sdf_string function

 23 28  0  0  0  0  0  0  0  0999 V2000
    2.2726   -5.6790   29.0035 C   0  0  0  0  0  0  0  0  0  0  0  0
    4.3469   -5.1073   28.3987 C   0  0  0  0  0  0  0  0  0  0  0  0
    3.6732   -5.0643   28.2649 C   0  0  0  0  0  0  0  0  0  0  0  0
    0.3035  -12.4756   16.2990 C   0  0  0  0  0  0  0  0  0  0  0  0
    5.6620   -4.9342   27.4489 O   0  0  0  0  0  0  0  0  0  0  0  0
    0.8907   -6.0117   28.7227 C   0  0  0  0  0  0  0  0  0  0  0  0
   -1.2107   -8.2419   17.1697 N   0  0  0  0  0  0  0  0  0  0  0  0
    0.7183  -11.3661   15.7290 C   0  0  0  0  0  0  0  0  0  0  0  0
    0.8626  -13.9215   15.6377 O   0  0  0  0  0  0  0  0  0  0  0  0
   -0.0428  -10.1470   17.1353 C   0  0  0  0  0  0  0  0  0  0  0  0
    0.8081   -5.6577   27.0535 C   0  0  0  0  0  0  0  0  0  0  0  0
   -1.6045   -8.3008   18.3704 C   0  0  0  0  0  0  0  0  0  0  0  0
   -0.4309   -9.1740   16.3542 C   0  0  0  0  0  0  0  0  0  0  0  0
    6.6015   -4.1958   28.6350 O   0  0  0  0  0  0  0  0  0  0  0  0
    5.2210   -4.5055   30.0534 C   0  0  0  0  0  0  0  0  0  0  0  0
   -1.1090  -12.0554   18.3867 C   0  0  0  0  0  0  0  0  0  0  0  0
    2.0993   -5.6289   26.4287 C   0  0  0  0  0  0  0  0  0  0  0  0
   -0.7276  -10.2108   18.1793 C   0  0  0  0  0  0  0  0  0  0  0  0
   -1.6146   -9.3840   18.2175 P   0  0  0  0  0  0  0  0  0  0  0  0
    2.6646   -5.6305   26.5867 C   0  0  0  0  0  0  0  0  0  0  0  0
    7.1638   -4.2311   29.7839 C   0  0  0  0  0  0  0  0  0  0  0  0
    6.1704   -4.3950   30.1592 He  0  0  0  0  0  0  0  0  0  0  0  0
   -0.3920  -12.9311   16.7655 He  0  0  0  0  0  0  0  0  0  0  0  0
  1  3  4  0
  1  6  4  0
  1  8  1  0
  2 14  3  0
  2 15  4  0
  3  9  1  0
  3 10  3  0
  3 20  4  0
  4  8  4  0
  4 12  1  0
  4 15  1  0
  5  8  4  0
  6 11  4  0
  7 12  4  0
  7 21  2  0
  8 10  4  0
  8 17  1  0
  8 20  4  0
  9 11  4  0
  9 15  4  0
 10 18  4  0
 11 17  3  0
 12 15  1  0
 14 21  4  0
 16 17  3  0
 16 18  4  0
 17 20  4  0
 18 19  4  0
M  END
$$$$

 Created by Python create_sdf_string function

 23 25  0  0  0  0  0  0  0  0999 V2000
    4.4684   -5.3074   28.3465 C   0  0  0  0  0  0  0  0  0  0  0  0
    2.8345   -4.9754   28.6419 C   0  0  0  0  0  0  0  0  0  0  0  0
    0.4765  -12.4377   16.3083 C   0  0  0  0  0  0  0  0  0  0  0  0
    6.1702   -4.3995   30.5580 C   0  0  0  0  0  0  0  0  0  0  0  0
    0.7600   -5.6847   28.3060 C   0  0  0  0  0  0  0  0  0  0  0  0
   -1.3629   -8.0571   16.7386 Br  0  0  0  0  0  0  0  0  0  0  0  0
    0.0628  -11.4401   15.8220 C   0  0  0  0  0  0  0  0  0  0  0  0
    1.0394  -13.3497   15.3103 F   0  0  0  0  0  0  0  0  0  0  0  0
   -0.0051  -10.1283   16.8481 C   0  0  0  0  0  0  0  0  0  0  0  0
   -1.7432   -8.0467   18.1014 C   0  0  0  0  0  0  0  0  0  0  0  0
   -0.5521   -8.8203   16.5013 C   0  0  0  0  0  0  0  0  0  0  0  0
    7.0897   -4.7027   28.6680 C   0  0  0  0  0  0  0  0  0  0  0  0
    4.8680   -4.8055   29.6337 C   0  0  0  0  0  0  0  0  0  0  0  0
   -1.0182  -12.0671   18.5624 C   0  0  0  0  0  0  0  0  0  0  0  0
    1.8763   -5.7008   26.2692 C   0  0  0  0  0  0  0  0  0  0  0  0
   -0.6077  -13.1113   17.3416 C   0  0  0  0  0  0  0  0  0  0  0  0
   -1.8185   -9.7437   18.7504 C   0  0  0  0  0  0  0  0  0  0  0  0
    7.0237   -4.1177   29.4218 C   0  0  0  0  0  0  0  0  0  0  0  0
    2.7366   -5.3413   28.7389 He  0  0  0  0  0  0  0  0  0  0  0  0
    5.5595   -4.6828   27.5296 He  0  0  0  0  0  0  0  0  0  0  0  0
    1.1797   -5.6039   27.1410 He  0  0  0  0  0  0  0  0  0  0  0  0
   -0.8102  -10.2814   17.4904 He  0  0  0  0  0  0  0  0  0  0  0  0
    2.9173   -5.1884   26.6345 He  0  0  0  0  0  0  0  0  0  0  0  0
  1  2  1  0
  1 13  4  0
  2  3  2  0
  2  5  2  0
  2 14  1  0
  3  8  1  0
  3 16  4  0
  3 18  4  0
  4 13  4  0
  4 18  4  0
  5 11  3  0
  6 10  4  0
  6 11  4  0
  6 18  4  0
  7 12  2  0
  9 11  4  0
  9 13  3  0
 10 11  2  0
 10 14  3  0
 10 17  4  0
 11 16  4  0
 12 18  4  0
 13 14  2  0
 13 17  2  0
 14 16  4  0
M  END
$$$$

 Created by Python create_sdf_string function

 23 31  0  0  0  0  0  0  0  0999 V2000
    4.6367   -5.0975   28.6300 C   0  0  0  0  0  0  0  0  0  0  0  0
    3.3928   -5.2458   28.0073 C   0  0  0  0  0  0  0  0  0  0  0  0
    0.0669  -12.6205   16.3261 C   0  0  0  0  0  0  0  0  0  0  0  0
    6.3739   -4.3307   30.3226 C   0  0  0  0  0  0  0  0  0  0  0  0
    5.4894   -4.4735   27.9286 C   0  0  0  0  0  0  0  0  0  0  0  0
    0.8851   -5.3895   28.2164 C   0  0  0  0  0  0  0  0  0  0  0  0
    0.5484  -11.1915   16.1975 C   0  0  0  0  0  0  0  0  0  0  0  0
    0.0181  -10.4445   16.7260 C   0  0  0  0  0  0  0  0  0  0  0  0
    1.1047   -6.0596   27.2451 C   0  0  0  0  0  0  0  0  0  0  0  0
   -1.5241   -8.5543   18.1941 C   0  0  0  0  0  0  0  0  0  0  0  0
   -0.4128   -8.8608   16.4345 C   0  0  0  0  0  0  0  0  0  0  0  0
    7.2078   -5.3414   28.4528 C   0  0  0  0  0  0  0  0  0  0  0  0
   -1.0762  -11.9564   18.4553 C   0  0  0  0  0  0  0  0  0  0  0  0
    1.8465   -5.8262   25.8388 C   0  0  0  0  0  0  0  0  0  0  0  0
   -1.1209  -10.0451   18.0427 C   0  0  0  0  0  0  0  0  0  0  0  0
   -0.5909  -12.3840   17.2965 C   0  0  0  0  0  0  0  0  0  0  0  0
   -1.6838   -9.8314   18.7732 C   0  0  0  0  0  0  0  0  0  0  0  0
    3.4276   -5.1077   26.9646 F   0  0  0  0  0  0  0  0  0  0  0  0
    6.5338   -4.3438   29.3816 C   0  0  0  0  0  0  0  0  0  0  0  0
    2.0639   -5.4729   28.7626 He  0  0  0  0  0  0  0  0  0  0  0  0
   -1.1380   -7.8580   17.3000 He  0  0  0  0  0  0  0  0  0  0  0  0
    0.8236  -13.4489   15.3345 He  0  0  0  0  0  0  0  0  0  0  0  0
    5.3009   -4.8626   30.1610 He  0  0  0  0  0  0  0  0  0  0  0  0
  1  2  1  0
  1  5  4  0
  1 16  1  0
  2  4  3  0
  2  5  4  0
  2  7  2  0
  2 18  4  0
  3  7  4  0
  3 10  3  0
  3 12  4  0
  3 14  2  0
  3 16  4  0
  4  8  4  0
  4 19  4  0
  5 12  4  0
  6  9  4  0
  8 11  4  0
  8 12  3  0
  8 15  4  0
  9 12  2  0
  9 14  4  0
  9 16  3  0
 10 12  4  0
 10 17  4  0
 11 17  2  0
 12 19  4  0
 13 15  3  0
 14 18  4  0
 15 16  1  0
 15 17  4  0
 16 19  3  0
M  END
$$$$

 Created by Python create_sdf_string function

 23 42  0  0  0  0  0  0  0  0999 V2000
    1.9731   -5.2663   29.0993 C   0  0  0  0  0  0  0  0  0  0  0  0
    4.4393   -5.2875   28.4175 C   0  0  0  0  0  0  0  0  0  0  0  0
    0.0526  -12.3637   15.9844 P   0  0  0  0  0  0  0  0  0  0  0  0
    6.5436   -4.5859   30.3242 C   0  0  0  0  0  0  0  0  0  0  0  0
    5.5086   -4.9709   27.9242 O   0  0  0  0  0  0  0  0  0  0  0  0
    0.5940   -5.7680   28.5716 C   0  0  0  0  0  0  0  0  0  0  0  0
   -1.1307   -7.7659   17.3411 C   0  0  0  0  0  0  0  0  0  0  0  0
    0.3479  -11.1039   16.1123 C   0  0  0  0  0  0  0  0  0  0  0  0
    0.7899  -13.1908   15.5516 O   0  0  0  0  0  0  0  0  0  0  0  0
   -0.7875  -10.0694   17.2654 C   0  0  0  0  0  0  0  0  0  0  0  0
    1.0218   -5.3579   26.7280 C   0  0  0  0  0  0  0  0  0  0  0  0
   -1.5194   -8.2736   18.3117 C   0  0  0  0  0  0  0  0  0  0  0  0
   -0.4741   -9.1595   16.7088 F   0  0  0  0  0  0  0  0  0  0  0  0
    4.8940   -4.6591   29.3811 C   0  0  0  0  0  0  0  0  0  0  0  0
   -0.9602  -11.8154   18.2686 C   0  0  0  0  0  0  0  0  0  0  0  0
    1.5157   -5.7863   26.2118 C   0  0  0  0  0  0  0  0  0  0  0  0
   -1.0091  -10.7976   17.9855 C   0  0  0  0  0  0  0  0  0  0  0  0
   -0.6469  -12.8983   17.6336 C   0  0  0  0  0  0  0  0  0  0  0  0
   -1.1553   -9.2808   19.0126 C   0  0  0  0  0  0  0  0  0  0  0  0
    3.0382   -5.4373   26.5509 C   0  0  0  0  0  0  0  0  0  0  0  0
    7.3510   -4.5342   29.9133 C   0  0  0  0  0  0  0  0  0  0  0  0
    3.8482   -5.3904   28.2408 He  0  0  0  0  0  0  0  0  0  0  0  0
    7.2454   -4.3464   28.1281 He  0  0  0  0  0  0  0  0  0  0  0  0
  1  5  1  0
  1  6  4  0
  1  7  3  0
  1 21  1  0
  2  5  4  0
  2  6  4  0
  2 14  4  0
  3  8  4  0
  3  9  1  0
  3 17  3  0
  3 18  4  0
  4 11  1  0
  4 14  4  0
  4 21  4  0
  5  8  1  0
  6 10  1  0
  6 11  4  0
  6 16  4  0
  6 19  1  0
  7 12  4  0
  7 13  4  0
  7 16  3  0
  7 18  2  0
  7 19  1  0
  8 10  4  0
  8 21  2  0
  9 10  2  0
  9 19  2  0
  9 20  2  0
 10 16  2  0
 10 17  4  0
 10 18  2  0
 10 19  3  0
 11 16  4  0
 12 18  1  0
 12 19  4  0
 13 16  4  0
 13 19  3  0
 15 17  4  0
 15 18  4  0
 16 21  3  0
 20 21  2  0
M  END
$$$$

 Created by Python create_sdf_string function

 23 44  0  0  0  0  0  0  0  0999 V2000
    2.5204   -5.3176   28.9053 C   0  0  0  0  0  0  0  0  0  0  0  0
    4.6325   -5.3290   28.3744 C   0  0  0  0  0  0  0  0  0  0  0  0
    2.9608   -5.2032   28.2796 C   0  0  0  0  0  0  0  0  0  0  0  0
    0.0013  -12.3445   16.2827 C   0  0  0  0  0  0  0  0  0  0  0  0
    6.2491   -4.3996   30.4201 C   0  0  0  0  0  0  0  0  0  0  0  0
    5.9694   -5.0336   27.9434 F   0  0  0  0  0  0  0  0  0  0  0  0
    0.8763   -5.4970   28.6333 C   0  0  0  0  0  0  0  0  0  0  0  0
   -1.0491   -7.6031   17.2123 C   0  0  0  0  0  0  0  0  0  0  0  0
    0.1892  -11.1086   15.7288 C   0  0  0  0  0  0  0  0  0  0  0  0
    0.5051  -13.3588   15.3639 O   0  0  0  0  0  0  0  0  0  0  0  0
   -0.2219  -10.0408   16.9632 C   0  0  0  0  0  0  0  0  0  0  0  0
    0.5929   -5.8367   26.7404 C   0  0  0  0  0  0  0  0  0  0  0  0
   -1.3782   -8.2836   18.8424 C   0  0  0  0  0  0  0  0  0  0  0  0
   -0.3988   -8.3990   16.4929 C   0  0  0  0  0  0  0  0  0  0  0  0
    6.8186   -4.2121   28.3389 C   0  0  0  0  0  0  0  0  0  0  0  0
    5.1631   -5.1198   29.9639 C   0  0  0  0  0  0  0  0  0  0  0  0
   -0.7147  -11.7611   18.4435 C   0  0  0  0  0  0  0  0  0  0  0  0
    1.8786   -5.8061   26.0871 C   0  0  0  0  0  0  0  0  0  0  0  0
   -1.2274  -10.6464   17.7918 C   0  0  0  0  0  0  0  0  0  0  0  0
   -0.7519  -12.6273   17.5747 C   0  0  0  0  0  0  0  0  0  0  0  0
    3.3061   -5.5319   26.3939 C   0  0  0  0  0  0  0  0  0  0  0  0
    7.2085   -4.4122   29.2583 C   0  0  0  0  0  0  0  0  0  0  0  0
   -1.7665   -9.5990   19.2656 He  0  0  0  0  0  0  0  0  0  0  0  0
  1  3  4  0
  1  7  1  0
  1 17  2  0
  2  3  1  0
  2 15  4  0
  2 16  4  0
  2 22  2  0
  3 10  4  0
  3 13  2  0
  3 21  4  0
  4  9  4  0
  4 10  1  0
  4 16  4  0
  4 20  4  0
  5 16  4  0
  5 22  4  0
  6  7  2  0
  6 11  1  0
  6 15  4  0
  6 18  4  0
  6 22  2  0
  7 12  4  0
  7 16  4  0
  7 17  3  0
  8 10  3  0
  8 11  3  0
  8 13  4  0
  8 17  2  0
  9 11  4  0
  9 12  4  0
  9 15  3  0
 10 14  3  0
 11 14  4  0
 11 19  4  0
 12 13  4  0
 12 18  4  0
 13 17  2  0
 14 16  2  0
 14 17  1  0
 15 22  4  0
 16 19  4  0
 17 19  4  0
 17 20  1  0
 19 22  4  0
M  END
$$$$

 Created by Python create_sdf_string function

 23 17  0  0  0  0  0  0  0  0999 V2000
    4.8508   -5.0783   28.4913 C   0  0  0  0  0  0  0  0  0  0  0  0
   -0.0888  -12.3651   16.2647 C   0  0  0  0  0  0  0  0  0  0  0  0
    6.3806   -4.4227   30.5214 O   0  0  0  0  0  0  0  0  0  0  0  0
    5.5102   -4.9185   27.5109 C   0  0  0  0  0  0  0  0  0  0  0  0
   -0.7255   -7.4588   17.3860 C   0  0  0  0  0  0  0  0  0  0  0  0
    0.5467  -13.3558   15.1774 O   0  0  0  0  0  0  0  0  0  0  0  0
   -0.6999  -10.1058   16.7142 C   0  0  0  0  0  0  0  0  0  0  0  0
   -1.6056   -7.8533   18.9881 C   0  0  0  0  0  0  0  0  0  0  0  0
   -0.4955   -8.7094   16.3798 C   0  0  0  0  0  0  0  0  0  0  0  0
    7.4101   -4.5091   27.7184 F   0  0  0  0  0  0  0  0  0  0  0  0
    5.0936   -4.9563   30.2241 C   0  0  0  0  0  0  0  0  0  0  0  0
   -1.1598  -12.1666   17.9103 C   0  0  0  0  0  0  0  0  0  0  0  0
    1.8440   -5.7723   26.4063 C   0  0  0  0  0  0  0  0  0  0  0  0
   -0.5007  -12.8928   17.3465 C   0  0  0  0  0  0  0  0  0  0  0  0
   -1.4172   -9.5224   18.5390 O   0  0  0  0  0  0  0  0  0  0  0  0
    3.4160   -5.5994   26.6957 Se  0  0  0  0  0  0  0  0  0  0  0  0
    7.1407   -4.1349   29.6809 C   0  0  0  0  0  0  0  0  0  0  0  0
    2.4114   -5.1898   28.7508 He  0  0  0  0  0  0  0  0  0  0  0  0
    3.4054   -5.4952   28.0214 He  0  0  0  0  0  0  0  0  0  0  0  0
    0.6620   -5.3021   28.5980 He  0  0  0  0  0  0  0  0  0  0  0  0
    0.1003  -11.1597   15.7687 He  0  0  0  0  0  0  0  0  0  0  0  0
    1.1151   -5.7776   27.2677 He  0  0  0  0  0  0  0  0  0  0  0  0
   -0.5351  -10.7244   18.2145 He  0  0  0  0  0  0  0  0  0  0  0  0
  1  4  4  0
  1 11  4  0
  2  6  1  0
  2 10  4  0
  2 14  4  0
  3 11  4  0
  3 17  4  0
  4  8  3  0
  4  9  4  0
  4 10  4  0
  5  9  4  0
  6  8  1  0
  8 15  4  0
  9 13  1  0
  9 14  4  0
 12 14  4  0
 13 15  3  0
M  END
$$$$

 Created by Python create_sdf_string function

 23 26  0  0  0  0  0  0  0  0999 V2000
    2.2520   -5.1566   28.8954 C   0  0  0  0  0  0  0  0  0  0  0  0
    3.8343   -5.2613   28.2494 C   0  0  0  0  0  0  0  0  0  0  0  0
   -0.0796  -12.1351   16.2243 C   0  0  0  0  0  0  0  0  0  0  0  0
    6.2386   -4.4449   30.3461 C   0  0  0  0  0  0  0  0  0  0  0  0
    5.7548   -4.7530   27.5280 C   0  0  0  0  0  0  0  0  0  0  0  0
    0.8256   -5.0405   28.4617 C   0  0  0  0  0  0  0  0  0  0  0  0
   -0.6361   -7.7133   17.5107 C   0  0  0  0  0  0  0  0  0  0  0  0
    0.1894  -10.8836   15.8862 C   0  0  0  0  0  0  0  0  0  0  0  0
    0.4329  -13.3186   15.3903 O   0  0  0  0  0  0  0  0  0  0  0  0
   -0.7434   -9.8625   16.8211 F   0  0  0  0  0  0  0  0  0  0  0  0
   -1.6489   -8.3112   18.6050 C   0  0  0  0  0  0  0  0  0  0  0  0
   -0.0607   -8.2921   16.5137 C   0  0  0  0  0  0  0  0  0  0  0  0
    6.8667   -4.5955   28.0412 C   0  0  0  0  0  0  0  0  0  0  0  0
    4.8664   -4.7111   30.2173 C   0  0  0  0  0  0  0  0  0  0  0  0
   -1.0550  -12.1917   18.2199 C   0  0  0  0  0  0  0  0  0  0  0  0
    1.7856   -6.0291   26.4241 C   0  0  0  0  0  0  0  0  0  0  0  0
   -1.1972  -10.2531   18.2653 C   0  0  0  0  0  0  0  0  0  0  0  0
   -0.5645  -13.0066   17.0868 C   0  0  0  0  0  0  0  0  0  0  0  0
   -1.2921   -9.5989   18.8750 C   0  0  0  0  0  0  0  0  0  0  0  0
    3.2723   -5.7993   26.4218 C   0  0  0  0  0  0  0  0  0  0  0  0
    7.2599   -4.2621   29.4624 N   0  0  0  0  0  0  0  0  0  0  0  0
    4.8659   -4.8743   28.5934 He  0  0  0  0  0  0  0  0  0  0  0  0
    0.9453   -5.8332   27.3862 He  0  0  0  0  0  0  0  0  0  0  0  0
  2 12  3  0
  2 14  4  0
  2 20  4  0
  3  8  4  0
  3  9  1  0
  3 14  1  0
  3 17  3  0
  3 20  1  0
  4 14  4  0
  4 21  4  0
  5 13  4  0
  6 10  3  0
  7 11  4  0
  7 12  4  0
  8 10  4  0
  8 11  4  0
  9 10  4  0
 10 12  4  0
 10 17  4  0
 11 15  4  0
 11 19  4  0
 13 21  4  0
 15 17  4  0
 16 20  4  0
 17 19  4  0
 18 20  2  0
M  END
$$$$

 Created by Python create_sdf_string function

 23 30  0  0  0  0  0  0  0  0999 V2000
    2.7291   -5.1361   28.7677 C   0  0  0  0  0  0  0  0  0  0  0  0
    5.0250   -4.8231   28.7202 C   0  0  0  0  0  0  0  0  0  0  0  0
    3.1835   -5.2700   28.3389 N   0  0  0  0  0  0  0  0  0  0  0  0
    0.0172  -12.3498   16.4308 C   0  0  0  0  0  0  0  0  0  0  0  0
    6.3183   -4.2677   30.3126 C   0  0  0  0  0  0  0  0  0  0  0  0
    0.6595   -5.1316   28.5547 C   0  0  0  0  0  0  0  0  0  0  0  0
   -0.5522   -7.6073   17.4173 C   0  0  0  0  0  0  0  0  0  0  0  0
    0.2831  -10.6965   16.1319 C   0  0  0  0  0  0  0  0  0  0  0  0
    0.3279  -13.1611   15.2731 O   0  0  0  0  0  0  0  0  0  0  0  0
    0.6484   -6.0102   27.3757 C   0  0  0  0  0  0  0  0  0  0  0  0
   -1.4437   -8.0645   18.4613 C   0  0  0  0  0  0  0  0  0  0  0  0
   -0.3115   -8.7176   16.7297 C   0  0  0  0  0  0  0  0  0  0  0  0
    7.0034   -4.7207   27.6709 C   0  0  0  0  0  0  0  0  0  0  0  0
    4.8499   -4.5954   29.8526 C   0  0  0  0  0  0  0  0  0  0  0  0
   -1.1640  -11.6417   18.3647 C   0  0  0  0  0  0  0  0  0  0  0  0
    1.7625   -6.0088   26.5439 C   0  0  0  0  0  0  0  0  0  0  0  0
   -1.0100  -10.5511   17.8601 C   0  0  0  0  0  0  0  0  0  0  0  0
   -0.6096  -12.6161   17.1994 C   0  0  0  0  0  0  0  0  0  0  0  0
   -1.3811   -9.5000   18.8219 C   0  0  0  0  0  0  0  0  0  0  0  0
    3.2357   -5.4365   26.7151 Cl  0  0  0  0  0  0  0  0  0  0  0  0
    7.1255   -4.3352   29.3708 C   0  0  0  0  0  0  0  0  0  0  0  0
    5.8704   -4.6538   27.6018 He  0  0  0  0  0  0  0  0  0  0  0  0
   -0.3891   -9.8829   16.7661 He  0  0  0  0  0  0  0  0  0  0  0  0
  1  3  4  0
  1 10  2  0
  2  3  1  0
  2 14  4  0
  3  4  3  0
  3 11  1  0
  3 20  4  0
  4  8  4  0
  4  9  1  0
  4 12  3  0
  4 13  1  0
  4 18  4  0
  5 10  2  0
  5 14  4  0
  6 10  4  0
  6 18  3  0
  7 12  4  0
  9 18  4  0
 10 13  1  0
 10 15  3  0
 10 16  4  0
 11 19  4  0
 12 17  3  0
 13 16  2  0
 13 21  4  0
 15 17  1  0
 15 18  4  0
 16 20  4  0
 17 19  4  0
 17 21  1  0
M  END
$$$$

 Created by Python create_sdf_string function

 23 39  0  0  0  0  0  0  0  0999 V2000
    2.3256   -5.2192   28.9651 C   0  0  0  0  0  0  0  0  0  0  0  0
    4.5924   -4.6376   28.5015 C   0  0  0  0  0  0  0  0  0  0  0  0
    3.4385   -5.3884   28.2190 C   0  0  0  0  0  0  0  0  0  0  0  0
   -0.1263  -12.3024   15.9295 C   0  0  0  0  0  0  0  0  0  0  0  0
    6.2795   -4.3610   30.5990 C   0  0  0  0  0  0  0  0  0  0  0  0
    5.5587   -4.7190   27.3265 C   0  0  0  0  0  0  0  0  0  0  0  0
    0.8039   -5.4211   28.4580 C   0  0  0  0  0  0  0  0  0  0  0  0
   -0.6928   -7.6933   17.3524 C   0  0  0  0  0  0  0  0  0  0  0  0
    0.3434  -13.2697   15.4852 F   0  0  0  0  0  0  0  0  0  0  0  0
   -0.3862  -10.1497   16.7523 C   0  0  0  0  0  0  0  0  0  0  0  0
   -1.7059   -7.7636   18.4470 C   0  0  0  0  0  0  0  0  0  0  0  0
   -0.0320   -8.4190   16.5694 O   0  0  0  0  0  0  0  0  0  0  0  0
    7.1778   -4.7387   27.7319 N   0  0  0  0  0  0  0  0  0  0  0  0
    5.0483   -4.7134   29.7528 C   0  0  0  0  0  0  0  0  0  0  0  0
   -1.1161  -11.6018   18.2723 C   0  0  0  0  0  0  0  0  0  0  0  0
    1.5608   -6.3731   26.4765 C   0  0  0  0  0  0  0  0  0  0  0  0
   -1.2372  -10.2067   18.1737 C   0  0  0  0  0  0  0  0  0  0  0  0
   -0.6868  -12.4989   17.4431 C   0  0  0  0  0  0  0  0  0  0  0  0
   -1.6213   -9.4631   18.6499 C   0  0  0  0  0  0  0  0  0  0  0  0
    3.0492   -5.5854   26.7856 C   0  0  0  0  0  0  0  0  0  0  0  0
    7.3878   -4.2260   29.0897 C   0  0  0  0  0  0  0  0  0  0  0  0
    0.4887  -11.1469   15.9332 He  0  0  0  0  0  0  0  0  0  0  0  0
    0.8829   -5.5938   27.3533 He  0  0  0  0  0  0  0  0  0  0  0  0
  1  3  4  0
  1  4  4  0
  1  6  4  0
  1  7  4  0
  2  3  1  0
  2  6  4  0
  2 14  1  0
  3  5  3  0
  3  9  3  0
  3 20  4  0
  4 18  4  0
  5  7  4  0
  5 14  4  0
  5 15  2  0
  5 19  2  0
  5 21  1  0
  6 13  4  0
  6 18  1  0
  7  9  3  0
  8 11  4  0
  8 12  4  0
  8 13  3  0
  9 13  3  0
  9 17  1  0
 10 12  4  0
 10 14  3  0
 10 17  4  0
 11 17  3  0
 11 19  4  0
 11 21  4  0
 12 13  1  0
 13 15  3  0
 13 18  2  0
 13 19  2  0
 13 21  4  0
 15 17  4  0
 15 18  4  0
 16 20  4  0
 17 19  4  0
M  END
$$$$

 Created by Python create_sdf_string function

 23 31  0  0  0  0  0  0  0  0999 V2000
    2.6067   -4.8081   29.0463 C   0  0  0  0  0  0  0  0  0  0  0  0
    4.6630   -4.9017   28.4514 C   0  0  0  0  0  0  0  0  0  0  0  0
    2.9354   -5.4453   28.0078 C   0  0  0  0  0  0  0  0  0  0  0  0
   -0.0607  -12.3627   16.2858 C   0  0  0  0  0  0  0  0  0  0  0  0
    5.9956   -5.1364   27.5242 F   0  0  0  0  0  0  0  0  0  0  0  0
    0.7139   -5.4450   28.6479 C   0  0  0  0  0  0  0  0  0  0  0  0
   -0.6764   -7.6358   17.2875 C   0  0  0  0  0  0  0  0  0  0  0  0
    0.1416  -10.8339   16.2906 O   0  0  0  0  0  0  0  0  0  0  0  0
    0.5835  -13.2239   15.4950 O   0  0  0  0  0  0  0  0  0  0  0  0
   -0.3628   -9.6843   16.7173 C   0  0  0  0  0  0  0  0  0  0  0  0
   -1.5455   -7.7742   18.3081 C   0  0  0  0  0  0  0  0  0  0  0  0
   -0.1105   -8.5349   16.4572 C   0  0  0  0  0  0  0  0  0  0  0  0
    7.1778   -4.3772   27.9450 N   0  0  0  0  0  0  0  0  0  0  0  0
    5.0325   -4.9908   29.6722 C   0  0  0  0  0  0  0  0  0  0  0  0
   -1.2942  -11.8084   18.4947 C   0  0  0  0  0  0  0  0  0  0  0  0
    1.8797   -5.7721   26.4219 C   0  0  0  0  0  0  0  0  0  0  0  0
   -1.1441  -10.5572   17.9447 C   0  0  0  0  0  0  0  0  0  0  0  0
   -0.5912  -12.5552   17.2950 C   0  0  0  0  0  0  0  0  0  0  0  0
   -1.6902   -9.1998   18.5450 C   0  0  0  0  0  0  0  0  0  0  0  0
    2.9511   -5.8524   26.9165 C   0  0  0  0  0  0  0  0  0  0  0  0
    7.4218   -4.4145   29.3168 C   0  0  0  0  0  0  0  0  0  0  0  0
    6.3341   -4.5517   30.1003 He  0  0  0  0  0  0  0  0  0  0  0  0
    0.7144   -5.5973   27.3714 He  0  0  0  0  0  0  0  0  0  0  0  0
  1  3  4  0
  1  6  4  0
  2  3  1  0
  2  5  4  0
  2 14  4  0
  3 20  4  0
  4  6  4  0
  4  8  4  0
  4  9  1  0
  4 18  4  0
  5  7  2  0
  5 10  2  0
  5 13  4  0
  6 10  2  0
  7 11  4  0
  7 12  4  0
  7 16  3  0
  8 10  4  0
  9 17  1  0
  9 20  4  0
 10 12  4  0
 10 16  1  0
 10 17  4  0
 10 20  3  0
 11 20  3  0
 13 21  4  0
 15 17  4  0
 15 18  4  0
 15 20  3  0
 17 19  4  0
 18 21  3  0
M  END
$$$$

 Created by Python create_sdf_string function

 23 30  0  0  0  0  0  0  0  0999 V2000
    2.1309   -5.1387   29.0179 C   0  0  0  0  0  0  0  0  0  0  0  0
    3.5715   -5.3446   28.0744 C   0  0  0  0  0  0  0  0  0  0  0  0
   -0.0357  -12.2690   16.2778 O   0  0  0  0  0  0  0  0  0  0  0  0
    6.3781   -4.4088   30.1096 C   0  0  0  0  0  0  0  0  0  0  0  0
    5.7397   -5.1364   27.5838 C   0  0  0  0  0  0  0  0  0  0  0  0
    1.0255   -5.2078   28.4939 C   0  0  0  0  0  0  0  0  0  0  0  0
   -0.7455   -7.7966   17.2816 C   0  0  0  0  0  0  0  0  0  0  0  0
    0.1624  -10.8991   16.1025 C   0  0  0  0  0  0  0  0  0  0  0  0
    0.6541  -13.3217   15.6476 O   0  0  0  0  0  0  0  0  0  0  0  0
   -0.4586   -9.9857   16.6069 C   0  0  0  0  0  0  0  0  0  0  0  0
    1.2172   -5.6511   27.4295 C   0  0  0  0  0  0  0  0  0  0  0  0
   -1.8768   -8.0455   18.0703 C   0  0  0  0  0  0  0  0  0  0  0  0
   -0.0200   -8.7965   16.7101 C   0  0  0  0  0  0  0  0  0  0  0  0
    7.1005   -4.3703   27.5772 N   0  0  0  0  0  0  0  0  0  0  0  0
    4.9925   -4.9637   29.9288 C   0  0  0  0  0  0  0  0  0  0  0  0
    1.5619   -6.0163   26.4294 C   0  0  0  0  0  0  0  0  0  0  0  0
   -1.2433  -10.3010   18.1116 C   0  0  0  0  0  0  0  0  0  0  0  0
   -0.5284  -12.5591   17.6703 C   0  0  0  0  0  0  0  0  0  0  0  0
   -1.7488   -9.1267   18.8011 C   0  0  0  0  0  0  0  0  0  0  0  0
    3.0555   -5.4363   26.6654 C   0  0  0  0  0  0  0  0  0  0  0  0
    7.4273   -4.1803   29.0820 C   0  0  0  0  0  0  0  0  0  0  0  0
    4.7622   -5.0036   28.2211 He  0  0  0  0  0  0  0  0  0  0  0  0
   -1.3204  -11.6623   18.3763 He  0  0  0  0  0  0  0  0  0  0  0  0
  1  2  4  0
  1  6  4  0
  1 12  1  0
  1 13  3  0
  2 20  1  0
  3  8  4  0
  3  9  1  0
  3 18  4  0
  4 15  4  0
  4 21  4  0
  5 13  3  0
  5 14  4  0
  6 11  4  0
  6 13  2  0
  6 19  2  0
  7 13  4  0
  8 10  4  0
  8 13  1  0
  8 16  3  0
 10 12  2  0
 10 13  4  0
 10 21  4  0
 11 16  4  0
 12 19  4  0
 14 21  4  0
 16 20  4  0
 17 18  1  0
 17 19  4  0
 19 21  4  0
 20 21  1  0
M  END
$$$$

 Created by Python create_sdf_string function

 23 34  0  0  0  0  0  0  0  0999 V2000
    2.2891   -5.1524   29.2399 C   0  0  0  0  0  0  0  0  0  0  0  0
    4.8051   -5.0936   28.4053 C   0  0  0  0  0  0  0  0  0  0  0  0
    3.3610   -5.4603   27.9348 C   0  0  0  0  0  0  0  0  0  0  0  0
    0.2249  -12.4083   16.3027 C   0  0  0  0  0  0  0  0  0  0  0  0
    6.5693   -4.2416   29.8344 C   0  0  0  0  0  0  0  0  0  0  0  0
    5.6244   -4.8253   27.3994 B   0  0  0  0  0  0  0  0  0  0  0  0
    1.0748   -5.3849   28.3038 C   0  0  0  0  0  0  0  0  0  0  0  0
   -0.8468   -7.6818   17.3046 C   0  0  0  0  0  0  0  0  0  0  0  0
    0.1513  -10.8596   15.9587 C   0  0  0  0  0  0  0  0  0  0  0  0
    0.6893  -12.9011   15.8526 O   0  0  0  0  0  0  0  0  0  0  0  0
   -0.5300   -9.9060   16.9567 C   0  0  0  0  0  0  0  0  0  0  0  0
    0.8708   -5.8981   27.7496 C   0  0  0  0  0  0  0  0  0  0  0  0
   -1.8239   -8.0692   18.3771 C   0  0  0  0  0  0  0  0  0  0  0  0
   -0.0605   -8.9265   16.6610 C   0  0  0  0  0  0  0  0  0  0  0  0
    7.0423   -4.4115   27.6510 C   0  0  0  0  0  0  0  0  0  0  0  0
    5.1335   -4.8419   30.0706 C   0  0  0  0  0  0  0  0  0  0  0  0
   -1.3924  -11.6336   18.3919 C   0  0  0  0  0  0  0  0  0  0  0  0
    1.7609   -5.6970   26.2976 C   0  0  0  0  0  0  0  0  0  0  0  0
   -1.0231  -10.0449   18.0691 C   0  0  0  0  0  0  0  0  0  0  0  0
   -0.7467  -12.5578   17.3246 P   0  0  0  0  0  0  0  0  0  0  0  0
   -1.8247   -9.3801   18.6946 C   0  0  0  0  0  0  0  0  0  0  0  0
    3.0995   -5.6032   26.8315 C   0  0  0  0  0  0  0  0  0  0  0  0
    7.2521   -4.1528   29.1794 C   0  0  0  0  0  0  0  0  0  0  0  0
  1  3  4  0
  1  7  1  0
  2  6  4  0
  2 10  3  0
  2 16  4  0
  3  8  4  0
  3 15  4  0
  3 22  4  0
  4  9  4  0
  4 10  1  0
  4 20  4  0
  5  7  2  0
  5 16  4  0
  5 21  1  0
  5 23  4  0
  6 15  4  0
  7 12  4  0
  7 21  1  0
  8 14  4  0
  8 23  3  0
  9 11  4  0
  9 15  3  0
  9 19  3  0
 11 14  4  0
 11 19  4  0
 12 18  4  0
 13 15  3  0
 13 21  4  0
 14 19  1  0
 15 23  1  0
 17 19  4  0
 17 20  4  0
 18 22  4  0
 19 21  4  0
M  END
$$$$

 Created by Python create_sdf_string function

 23 28  0  0  0  0  0  0  0  0999 V2000
    2.3253   -5.3805   29.2640 C   0  0  0  0  0  0  0  0  0  0  0  0
    4.8766   -4.9133   28.1430 F   0  0  0  0  0  0  0  0  0  0  0  0
    3.3091   -4.9621   28.3242 C   0  0  0  0  0  0  0  0  0  0  0  0
   -0.0927  -12.2366   16.4107 C   0  0  0  0  0  0  0  0  0  0  0  0
    6.5396   -4.3649   29.9961 C   0  0  0  0  0  0  0  0  0  0  0  0
    5.6505   -4.6930   27.2879 C   0  0  0  0  0  0  0  0  0  0  0  0
    0.9465   -5.6852   28.7371 C   0  0  0  0  0  0  0  0  0  0  0  0
   -0.9074   -7.4172   17.3651 C   0  0  0  0  0  0  0  0  0  0  0  0
    0.2874  -10.7936   16.2220 C   0  0  0  0  0  0  0  0  0  0  0  0
    0.4188  -13.3876   15.7381 O   0  0  0  0  0  0  0  0  0  0  0  0
   -0.5010   -9.7726   16.7954 C   0  0  0  0  0  0  0  0  0  0  0  0
    0.8675   -5.7457   27.4478 C   0  0  0  0  0  0  0  0  0  0  0  0
   -1.7124   -7.8772   18.3690 C   0  0  0  0  0  0  0  0  0  0  0  0
    6.9323   -4.4378   27.6285 C   0  0  0  0  0  0  0  0  0  0  0  0
    4.9847   -4.8161   29.8793 C   0  0  0  0  0  0  0  0  0  0  0  0
   -1.3770  -11.7633   18.4174 C   0  0  0  0  0  0  0  0  0  0  0  0
    1.7968   -5.6534   26.2534 C   0  0  0  0  0  0  0  0  0  0  0  0
   -1.1675  -10.5044   18.0275 C   0  0  0  0  0  0  0  0  0  0  0  0
   -0.5608  -12.6561   17.3400 C   0  0  0  0  0  0  0  0  0  0  0  0
   -2.0514   -9.2938   18.6905 C   0  0  0  0  0  0  0  0  0  0  0  0
    2.9146   -5.3683   26.8469 C   0  0  0  0  0  0  0  0  0  0  0  0
    7.0977   -3.9163   29.1974 C   0  0  0  0  0  0  0  0  0  0  0  0
   -0.1350   -8.4767   16.7062 He  0  0  0  0  0  0  0  0  0  0  0  0
  1  4  3  0
  1  7  4  0
  2  3  1  0
  2  6  4  0
  2 15  4  0
  3 21  4  0
  4  9  4  0
  4 10  1  0
  4 18  4  0
  4 19  4  0
  5 12  1  0
  5 15  4  0
  5 22  4  0
  6 14  4  0
  7 12  4  0
  7 14  3  0
  7 21  3  0
  8 13  1  0
  9 11  4  0
 11 18  4  0
 12 17  4  0
 13 20  4  0
 14 22  4  0
 16 18  2  0
 16 19  3  0
 17 21  4  0
 18 20  4  0
 20 21  1  0
M  END
$$$$

 Created by Python create_sdf_string function

 23 35  0  0  0  0  0  0  0  0999 V2000
    2.3225   -5.2947   29.2674 F   0  0  0  0  0  0  0  0  0  0  0  0
    4.8282   -4.9089   28.4738 C   0  0  0  0  0  0  0  0  0  0  0  0
    3.3345   -5.1459   28.0767 C   0  0  0  0  0  0  0  0  0  0  0  0
   -0.0195  -12.0120   16.3328 C   0  0  0  0  0  0  0  0  0  0  0  0
    6.3710   -4.4196   29.8288 C   0  0  0  0  0  0  0  0  0  0  0  0
    5.6016   -4.6210   27.2275 C   0  0  0  0  0  0  0  0  0  0  0  0
    1.0098   -5.7178   28.8522 C   0  0  0  0  0  0  0  0  0  0  0  0
   -0.7045   -7.5253   17.4990 C   0  0  0  0  0  0  0  0  0  0  0  0
    0.2652  -10.8621   16.1629 C   0  0  0  0  0  0  0  0  0  0  0  0
    0.4056  -13.3126   15.7368 O   0  0  0  0  0  0  0  0  0  0  0  0
   -0.4112   -9.8631   17.2257 C   0  0  0  0  0  0  0  0  0  0  0  0
    0.9869   -5.9843   27.3796 C   0  0  0  0  0  0  0  0  0  0  0  0
   -1.7481   -8.0465   18.5211 C   0  0  0  0  0  0  0  0  0  0  0  0
    7.0119   -4.1442   27.9438 C   0  0  0  0  0  0  0  0  0  0  0  0
    5.0272   -4.7475   29.8651 C   0  0  0  0  0  0  0  0  0  0  0  0
   -1.3994  -11.7140   18.4087 C   0  0  0  0  0  0  0  0  0  0  0  0
    1.4613   -5.6757   26.5315 C   0  0  0  0  0  0  0  0  0  0  0  0
   -1.3226  -10.1184   18.0696 C   0  0  0  0  0  0  0  0  0  0  0  0
   -1.8888   -9.3184   18.7734 C   0  0  0  0  0  0  0  0  0  0  0  0
    3.0319   -5.3180   26.8801 C   0  0  0  0  0  0  0  0  0  0  0  0
    7.2402   -3.9386   29.1180 C   0  0  0  0  0  0  0  0  0  0  0  0
   -0.2978   -8.5119   16.5565 He  0  0  0  0  0  0  0  0  0  0  0  0
   -0.6708  -12.5811   17.5513 He  0  0  0  0  0  0  0  0  0  0  0  0
  1  3  4  0
  1  7  4  0
  1 17  3  0
  2  3  1  0
  2  4  2  0
  2  6  4  0
  2  8  4  0
  2  9  4  0
  2 15  4  0
  3 10  1  0
  3 18  3  0
  3 20  4  0
  4  7  1  0
  4  9  4  0
  4 10  1  0
  4 21  3  0
  5 13  1  0
  5 14  1  0
  5 18  4  0
  5 21  4  0
  6 14  4  0
  7 12  4  0
  8 13  4  0
  8 14  2  0
  9 11  4  0
  9 19  1  0
 11 18  4  0
 12 17  4  0
 13 18  4  0
 13 19  3  0
 13 21  3  0
 14 21  4  0
 16 18  4  0
 17 20  4  0
 18 19  4  0
M  END
$$$$

 Created by Python create_sdf_string function

 23 29  0  0  0  0  0  0  0  0999 V2000
    2.4633   -5.3161   29.2338 C   0  0  0  0  0  0  0  0  0  0  0  0
    4.8808   -4.7285   28.5518 C   0  0  0  0  0  0  0  0  0  0  0  0
    3.2986   -5.1630   28.0258 C   0  0  0  0  0  0  0  0  0  0  0  0
    6.4920   -4.2741   29.9854 C   0  0  0  0  0  0  0  0  0  0  0  0
    5.7032   -4.5246   27.4700 C   0  0  0  0  0  0  0  0  0  0  0  0
    0.9153   -5.8164   28.8105 C   0  0  0  0  0  0  0  0  0  0  0  0
   -0.7708   -7.6536   17.3472 C   0  0  0  0  0  0  0  0  0  0  0  0
    0.0481  -11.0272   16.2396 C   0  0  0  0  0  0  0  0  0  0  0  0
    0.6358  -13.0276   15.7943 C   0  0  0  0  0  0  0  0  0  0  0  0
   -0.5687  -10.0883   17.2071 C   0  0  0  0  0  0  0  0  0  0  0  0
    0.6782   -5.8527   27.4672 C   0  0  0  0  0  0  0  0  0  0  0  0
   -1.7822   -8.0682   18.5978 C   0  0  0  0  0  0  0  0  0  0  0  0
   -0.4690   -8.5798   16.6993 C   0  0  0  0  0  0  0  0  0  0  0  0
    6.9955   -4.2422   27.5871 C   0  0  0  0  0  0  0  0  0  0  0  0
    5.1834   -4.7954   29.8598 C   0  0  0  0  0  0  0  0  0  0  0  0
    1.6985   -5.8174   26.5290 C   0  0  0  0  0  0  0  0  0  0  0  0
   -1.3921  -10.0923   17.8966 C   0  0  0  0  0  0  0  0  0  0  0  0
   -0.8671  -12.4722   17.6354 N   0  0  0  0  0  0  0  0  0  0  0  0
   -1.9141   -9.4454   18.8278 C   0  0  0  0  0  0  0  0  0  0  0  0
    2.7099   -5.6122   26.6836 C   0  0  0  0  0  0  0  0  0  0  0  0
    7.3326   -3.8230   29.1963 C   0  0  0  0  0  0  0  0  0  0  0  0
    0.0066  -12.1810   16.4438 He  0  0  0  0  0  0  0  0  0  0  0  0
   -1.4362  -11.5390   18.1886 He  0  0  0  0  0  0  0  0  0  0  0  0
  1  3  4  0
  1  6  4  0
  1 20  3  0
  2  3  1  0
  2  5  4  0
  2  7  1  0
  2 15  4  0
  3  8  4  0
  3 20  4  0
  4 15  4  0
  4 18  1  0
  4 21  4  0
  5 14  4  0
  6 10  3  0
  6 11  4  0
  6 15  1  0
  6 20  2  0
  7 12  4  0
  7 13  4  0
  8 10  4  0
  8 20  3  0
  9 10  4  0
 10 13  4  0
 10 17  4  0
 11 16  4  0
 11 21  2  0
 12 19  4  0
 14 21  4  0
 17 19  4  0
M  END
$$$$

 Created by Python create_sdf_string function

 23 27  0  0  0  0  0  0  0  0999 V2000
    2.3717   -5.2472   29.0699 C   0  0  0  0  0  0  0  0  0  0  0  0
    3.3642   -5.3609   28.1539 C   0  0  0  0  0  0  0  0  0  0  0  0
    0.1604  -12.2794   16.5838 C   0  0  0  0  0  0  0  0  0  0  0  0
    6.4497   -4.2150   30.0930 C   0  0  0  0  0  0  0  0  0  0  0  0
    5.5428   -4.5854   27.2212 C   0  0  0  0  0  0  0  0  0  0  0  0
    0.8022   -5.4273   28.8097 C   0  0  0  0  0  0  0  0  0  0  0  0
   -1.0826   -7.6839   17.6139 C   0  0  0  0  0  0  0  0  0  0  0  0
    0.0580  -10.9923   16.1454 C   0  0  0  0  0  0  0  0  0  0  0  0
    0.8221  -13.1044   15.7193 C   0  0  0  0  0  0  0  0  0  0  0  0
   -0.4999   -9.7154   17.0171 I   0  0  0  0  0  0  0  0  0  0  0  0
    0.8343   -5.9903   27.5367 C   0  0  0  0  0  0  0  0  0  0  0  0
   -1.7858   -8.0365   18.5008 C   0  0  0  0  0  0  0  0  0  0  0  0
    7.0152   -4.1129   27.7531 C   0  0  0  0  0  0  0  0  0  0  0  0
    5.0581   -4.5757   29.8795 C   0  0  0  0  0  0  0  0  0  0  0  0
   -1.5010  -11.6627   18.2629 C   0  0  0  0  0  0  0  0  0  0  0  0
    1.5489   -5.7436   26.5873 C   0  0  0  0  0  0  0  0  0  0  0  0
   -1.6068  -10.2051   18.1013 C   0  0  0  0  0  0  0  0  0  0  0  0
   -0.7952  -12.7189   17.5291 N   0  0  0  0  0  0  0  0  0  0  0  0
   -1.9467   -9.2449   18.7648 C   0  0  0  0  0  0  0  0  0  0  0  0
    2.8713   -5.4736   26.8526 C   0  0  0  0  0  0  0  0  0  0  0  0
    7.5745   -3.8460   29.1419 C   0  0  0  0  0  0  0  0  0  0  0  0
    4.8055   -5.0767   28.6367 He  0  0  0  0  0  0  0  0  0  0  0  0
   -0.5487   -8.8491   16.7318 He  0  0  0  0  0  0  0  0  0  0  0  0
  1  2  4  0
  1  6  4  0
  2 15  4  0
  2 20  4  0
  3  7  2  0
  3  8  4  0
  3  9  3  0
  3 18  4  0
  4 14  4  0
  4 15  3  0
  4 21  4  0
  5 13  4  0
  7  9  1  0
  7 12  4  0
  7 21  4  0
  8  9  2  0
  8 10  4  0
 10 17  4  0
 11 15  3  0
 11 16  4  0
 12 19  4  0
 13 21  4  0
 15 17  4  0
 15 18  4  0
 16 20  4  0
 17 19  4  0
 18 21  4  0
M  END
$$$$

 Created by Python create_sdf_string function

 23 32  0  0  0  0  0  0  0  0999 V2000
    2.4264   -5.4678   29.3338 C   0  0  0  0  0  0  0  0  0  0  0  0
    4.7052   -4.7727   28.4433 C   0  0  0  0  0  0  0  0  0  0  0  0
    3.3391   -5.1642   28.3111 C   0  0  0  0  0  0  0  0  0  0  0  0
   -0.0325  -12.1828   16.4547 C   0  0  0  0  0  0  0  0  0  0  0  0
    6.4863   -4.1715   29.9956 C   0  0  0  0  0  0  0  0  0  0  0  0
    5.8255   -4.6612   27.5147 C   0  0  0  0  0  0  0  0  0  0  0  0
    0.9923   -5.6120   28.8107 C   0  0  0  0  0  0  0  0  0  0  0  0
   -1.0640   -7.6472   17.4705 C   0  0  0  0  0  0  0  0  0  0  0  0
   -0.0031  -10.8834   16.2465 C   0  0  0  0  0  0  0  0  0  0  0  0
    0.6708  -12.8657   15.8898 C   0  0  0  0  0  0  0  0  0  0  0  0
   -0.4784   -9.9514   17.0118 C   0  0  0  0  0  0  0  0  0  0  0  0
    0.6059   -5.9163   27.5954 C   0  0  0  0  0  0  0  0  0  0  0  0
   -1.8449   -7.9909   18.6111 C   0  0  0  0  0  0  0  0  0  0  0  0
   -0.4317   -8.5159   16.7840 C   0  0  0  0  0  0  0  0  0  0  0  0
    6.9427   -4.0486   27.6569 C   0  0  0  0  0  0  0  0  0  0  0  0
    5.0314   -4.7229   29.9235 C   0  0  0  0  0  0  0  0  0  0  0  0
    1.6690   -5.8985   26.5598 C   0  0  0  0  0  0  0  0  0  0  0  0
   -1.3425  -10.2595   18.1398 C   0  0  0  0  0  0  0  0  0  0  0  0
   -1.9201   -9.2916   18.7932 C   0  0  0  0  0  0  0  0  0  0  0  0
    2.9370   -5.4800   26.6732 C   0  0  0  0  0  0  0  0  0  0  0  0
    7.2278   -3.7826   28.9820 C   0  0  0  0  0  0  0  0  0  0  0  0
   -1.4574  -11.5258   18.2709 He  0  0  0  0  0  0  0  0  0  0  0  0
   -0.7581  -12.5920   17.7587 He  0  0  0  0  0  0  0  0  0  0  0  0
  1  2  1  0
  1  3  4  0
  1  7  4  0
  2  3  4  0
  2  6  4  0
  2 16  4  0
  3 20  4  0
  4  9  4  0
  4 10  1  0
  4 19  3  0
  5 16  4  0
  5 21  4  0
  6 15  4  0
  7 12  4  0
  8 13  4  0
  8 14  4  0
  9 11  4  0
  9 18  3  0
 10 11  3  0
 10 12  1  0
 11 13  1  0
 11 14  4  0
 11 18  4  0
 12 17  4  0
 13 18  3  0
 13 19  4  0
 14 16  2  0
 14 20  4  0
 15 21  4  0
 17 18  4  0
 17 20  4  0
 18 19  4  0
M  END
$$$$

 Created by Python create_sdf_string function

 23 34  0  0  0  0  0  0  0  0999 V2000
    2.3771   -5.3802   29.1288 C   0  0  0  0  0  0  0  0  0  0  0  0
    4.6943   -4.9031   28.3670 C   0  0  0  0  0  0  0  0  0  0  0  0
    3.4892   -5.3144   28.1852 C   0  0  0  0  0  0  0  0  0  0  0  0
    0.0132  -12.2990   16.4985 C   0  0  0  0  0  0  0  0  0  0  0  0
    6.4949   -4.1727   29.9386 C   0  0  0  0  0  0  0  0  0  0  0  0
    5.4996   -4.5327   27.3386 C   0  0  0  0  0  0  0  0  0  0  0  0
    0.9923   -5.5896   28.9240 C   0  0  0  0  0  0  0  0  0  0  0  0
   -1.0663   -7.4583   17.4155 C   0  0  0  0  0  0  0  0  0  0  0  0
    0.2057  -10.7496   16.2111 C   0  0  0  0  0  0  0  0  0  0  0  0
    0.6741  -13.0070   15.7850 C   0  0  0  0  0  0  0  0  0  0  0  0
   -0.6516  -10.0157   17.1735 C   0  0  0  0  0  0  0  0  0  0  0  0
    0.7530   -5.9186   27.5797 C   0  0  0  0  0  0  0  0  0  0  0  0
   -1.9307   -7.8128   18.6532 C   0  0  0  0  0  0  0  0  0  0  0  0
   -0.3448   -8.6031   16.8454 C   0  0  0  0  0  0  0  0  0  0  0  0
    6.8530   -4.1256   27.8706 C   0  0  0  0  0  0  0  0  0  0  0  0
    5.1729   -4.6426   29.7472 C   0  0  0  0  0  0  0  0  0  0  0  0
   -1.3995  -11.6273   18.4501 C   0  0  0  0  0  0  0  0  0  0  0  0
    1.6403   -5.8101   26.6261 C   0  0  0  0  0  0  0  0  0  0  0  0
   -1.2012  -10.2631   17.9771 C   0  0  0  0  0  0  0  0  0  0  0  0
   -0.6674  -12.4293   17.5819 C   0  0  0  0  0  0  0  0  0  0  0  0
   -1.9847   -9.4113   19.0189 C   0  0  0  0  0  0  0  0  0  0  0  0
    3.0644   -5.3670   26.8588 O   0  0  0  0  0  0  0  0  0  0  0  0
    7.3164   -3.8327   29.1096 C   0  0  0  0  0  0  0  0  0  0  0  0
  1  3  4  0
  1  7  4  0
  1  9  4  0
  1 13  2  0
  2  3  1  0
  2  6  4  0
  3  4  1  0
  3 22  4  0
  4  9  4  0
  4 10  1  0
  4 18  3  0
  4 20  4  0
  5 16  4  0
  5 23  4  0
  6 15  4  0
  7 12  4  0
  7 18  1  0
  8 13  4  0
  8 14  4  0
  9 11  4  0
  9 15  2  0
 10 17  2  0
 10 21  3  0
 10 23  3  0
 11 14  4  0
 11 19  3  0
 12 18  4  0
 13 16  3  0
 13 21  4  0
 15 23  4  0
 17 20  4  0
 18 19  4  0
 18 22  3  0
 19 21  4  0
M  END
$$$$

 Created by Python create_sdf_string function

 23 24  0  0  0  0  0  0  0  0999 V2000
    2.2616   -5.3666   29.2404 C   0  0  0  0  0  0  0  0  0  0  0  0
    4.6736   -4.8248   28.4023 C   0  0  0  0  0  0  0  0  0  0  0  0
    3.3039   -5.2730   28.0907 C   0  0  0  0  0  0  0  0  0  0  0  0
    0.0167  -12.0739   16.5125 C   0  0  0  0  0  0  0  0  0  0  0  0
    6.5205   -4.2576   30.0445 C   0  0  0  0  0  0  0  0  0  0  0  0
    5.6796   -4.5837   27.6139 C   0  0  0  0  0  0  0  0  0  0  0  0
    0.9992   -5.6746   28.9132 C   0  0  0  0  0  0  0  0  0  0  0  0
   -1.2110   -7.3908   17.6590 C   0  0  0  0  0  0  0  0  0  0  0  0
    0.2302  -10.7907   16.2776 C   0  0  0  0  0  0  0  0  0  0  0  0
    0.4767  -13.0879   15.6619 C   0  0  0  0  0  0  0  0  0  0  0  0
   -0.6768   -9.8437   17.1769 C   0  0  0  0  0  0  0  0  0  0  0  0
    0.7477   -5.6827   27.7411 C   0  0  0  0  0  0  0  0  0  0  0  0
   -1.9112   -7.9066   18.5301 C   0  0  0  0  0  0  0  0  0  0  0  0
   -0.3280   -8.5801   16.9991 C   0  0  0  0  0  0  0  0  0  0  0  0
    7.0376   -4.2001   27.6451 C   0  0  0  0  0  0  0  0  0  0  0  0
    5.2414   -4.6840   29.8620 C   0  0  0  0  0  0  0  0  0  0  0  0
   -1.3451  -11.4608   18.5186 C   0  0  0  0  0  0  0  0  0  0  0  0
    1.7587   -5.6094   26.6750 C   0  0  0  0  0  0  0  0  0  0  0  0
   -1.3585  -10.1599   17.9953 P   0  0  0  0  0  0  0  0  0  0  0  0
   -0.8252  -12.5684   17.6667 C   0  0  0  0  0  0  0  0  0  0  0  0
   -1.9909   -9.2840   18.9268 C   0  0  0  0  0  0  0  0  0  0  0  0
    7.2889   -3.7843   28.9038 C   0  0  0  0  0  0  0  0  0  0  0  0
    3.1024   -5.3620   26.8178 He  0  0  0  0  0  0  0  0  0  0  0  0
  1  3  4  0
  1  7  4  0
  2  3  1  0
  2  6  4  0
  2 10  2  0
  2 16  4  0
  3  5  4  0
  3 20  4  0
  4  9  4  0
  4 10  1  0
  4 20  4  0
  5 10  1  0
  5 16  4  0
  6 15  4  0
  7 12  4  0
  8 13  4  0
  8 14  4  0
  9 11  4  0
 11 14  4  0
 11 19  4  0
 12 18  4  0
 13 21  4  0
 17 19  4  0
 17 20  4  0
M  END
$$$$

 Created by Python create_sdf_string function

 23 28  0  0  0  0  0  0  0  0999 V2000
    2.2938   -5.3407   29.2155 C   0  0  0  0  0  0  0  0  0  0  0  0
    4.7222   -4.7416   28.3019 C   0  0  0  0  0  0  0  0  0  0  0  0
    3.2094   -5.2446   28.2111 C   0  0  0  0  0  0  0  0  0  0  0  0
   -0.1199  -12.0334   16.6491 C   0  0  0  0  0  0  0  0  0  0  0  0
    6.4838   -4.2253   30.1355 C   0  0  0  0  0  0  0  0  0  0  0  0
    5.6933   -4.5559   27.4574 C   0  0  0  0  0  0  0  0  0  0  0  0
    1.0112   -5.8052   28.7137 C   0  0  0  0  0  0  0  0  0  0  0  0
   -1.2359   -7.5907   17.6259 C   0  0  0  0  0  0  0  0  0  0  0  0
    0.0515  -10.7857   16.3218 C   0  0  0  0  0  0  0  0  0  0  0  0
    0.4845  -13.1433   15.6656 C   0  0  0  0  0  0  0  0  0  0  0  0
   -0.5995   -9.8104   17.0143 C   0  0  0  0  0  0  0  0  0  0  0  0
    0.8185   -5.8016   27.5180 C   0  0  0  0  0  0  0  0  0  0  0  0
   -1.8862   -7.7922   18.7362 C   0  0  0  0  0  0  0  0  0  0  0  0
   -0.3816   -8.3105   16.8648 C   0  0  0  0  0  0  0  0  0  0  0  0
    6.9237   -4.1151   27.6954 C   0  0  0  0  0  0  0  0  0  0  0  0
    5.2333   -4.4840   29.8397 C   0  0  0  0  0  0  0  0  0  0  0  0
   -1.4613  -11.5506   18.4785 C   0  0  0  0  0  0  0  0  0  0  0  0
    1.5751   -5.6120   26.5311 C   0  0  0  0  0  0  0  0  0  0  0  0
   -1.3206  -10.1087   18.2511 C   0  0  0  0  0  0  0  0  0  0  0  0
   -0.7357  -12.6229   17.6153 C   0  0  0  0  0  0  0  0  0  0  0  0
   -2.0048   -9.1650   18.7451 C   0  0  0  0  0  0  0  0  0  0  0  0
    2.9431   -5.3826   26.8269 C   0  0  0  0  0  0  0  0  0  0  0  0
    7.3393   -3.7852   28.9917 C   0  0  0  0  0  0  0  0  0  0  0  0
  1  3  4  0
  1  7  4  0
  1 20  3  0
  2  3  1  0
  2  6  4  0
  2 16  4  0
  3 22  4  0
  4  9  4  0
  4 10  1  0
  4 20  4  0
  5 16  4  0
  5 23  4  0
  6  9  3  0
  6 15  4  0
  6 22  1  0
  7 12  4  0
  8 13  4  0
  9 11  4  0
 10 17  2  0
 11 19  4  0
 12 17  1  0
 12 18  4  0
 12 23  1  0
 13 21  4  0
 15 23  4  0
 17 19  4  0
 18 22  4  0
 19 21  4  0
M  END
$$$$

 Created by Python create_sdf_string function

 23 25  0  0  0  0  0  0  0  0999 V2000
    2.4251   -5.4073   29.0906 C   0  0  0  0  0  0  0  0  0  0  0  0
    4.7583   -4.7693   28.6032 C   0  0  0  0  0  0  0  0  0  0  0  0
   -0.1191  -12.1266   16.6051 C   0  0  0  0  0  0  0  0  0  0  0  0
    6.4613   -4.1288   30.0528 C   0  0  0  0  0  0  0  0  0  0  0  0
    5.6833   -4.4901   27.4168 C   0  0  0  0  0  0  0  0  0  0  0  0
    1.0741   -5.7122   28.8846 C   0  0  0  0  0  0  0  0  0  0  0  0
   -1.1495   -7.4452   17.6552 C   0  0  0  0  0  0  0  0  0  0  0  0
    0.1704  -10.7485   16.2991 C   0  0  0  0  0  0  0  0  0  0  0  0
    0.3472  -13.1031   15.7532 C   0  0  0  0  0  0  0  0  0  0  0  0
   -0.5423   -9.6481   17.0438 C   0  0  0  0  0  0  0  0  0  0  0  0
    0.7788   -5.8306   27.3024 C   0  0  0  0  0  0  0  0  0  0  0  0
   -1.8970   -7.8579   18.6372 C   0  0  0  0  0  0  0  0  0  0  0  0
   -0.4309   -8.4541   16.7832 C   0  0  0  0  0  0  0  0  0  0  0  0
    6.9419   -3.9731   27.7615 C   0  0  0  0  0  0  0  0  0  0  0  0
    5.0386   -4.5808   29.8071 C   0  0  0  0  0  0  0  0  0  0  0  0
   -1.4393  -11.5322   18.4168 C   0  0  0  0  0  0  0  0  0  0  0  0
    1.5726   -5.6592   26.6309 C   0  0  0  0  0  0  0  0  0  0  0  0
   -1.3164  -10.0379   18.0585 C   0  0  0  0  0  0  0  0  0  0  0  0
   -0.8399  -12.4040   17.7463 C   0  0  0  0  0  0  0  0  0  0  0  0
   -1.9534   -9.2289   18.8978 C   0  0  0  0  0  0  0  0  0  0  0  0
    2.8936   -5.3263   26.8388 C   0  0  0  0  0  0  0  0  0  0  0  0
    7.3909   -3.8892   28.9751 C   0  0  0  0  0  0  0  0  0  0  0  0
    3.4318   -5.0545   28.0181 He  0  0  0  0  0  0  0  0  0  0  0  0
  1  6  4  0
  1 15  3  0
  2  5  4  0
  2 15  4  0
  3  8  4  0
  3  9  1  0
  3 19  4  0
  4 15  4  0
  4 20  2  0
  4 22  4  0
  5 14  4  0
  6 11  4  0
  7 13  4  0
  8 10  4  0
 10 13  4  0
 10 18  4  0
 11 17  4  0
 12 20  4  0
 14 16  4  0
 14 22  4  0
 15 19  1  0
 16 18  4  0
 16 19  4  0
 17 21  4  0
 18 20  4  0
M  END
$$$$

 Created by Python create_sdf_string function

 23 33  0  0  0  0  0  0  0  0999 V2000
    2.5357   -5.2476   29.0691 C   0  0  0  0  0  0  0  0  0  0  0  0
    4.7353   -4.7220   28.4438 C   0  0  0  0  0  0  0  0  0  0  0  0
    3.3692   -5.1928   28.1211 C   0  0  0  0  0  0  0  0  0  0  0  0
   -0.0875  -12.0097   16.5873 C   0  0  0  0  0  0  0  0  0  0  0  0
    6.5169   -4.1895   30.0513 C   0  0  0  0  0  0  0  0  0  0  0  0
    5.7628   -4.4145   27.4294 C   0  0  0  0  0  0  0  0  0  0  0  0
    1.1192   -5.6532   28.8616 C   0  0  0  0  0  0  0  0  0  0  0  0
   -1.0824   -7.3429   17.6890 C   0  0  0  0  0  0  0  0  0  0  0  0
    0.0973  -10.8058   16.2628 C   0  0  0  0  0  0  0  0  0  0  0  0
    0.4567  -13.1505   15.8093 C   0  0  0  0  0  0  0  0  0  0  0  0
   -0.5486   -9.7408   17.0668 C   0  0  0  0  0  0  0  0  0  0  0  0
    0.7388   -5.8188   27.4929 C   0  0  0  0  0  0  0  0  0  0  0  0
   -1.8096   -7.8782   18.6053 C   0  0  0  0  0  0  0  0  0  0  0  0
   -0.5769   -8.3479   16.8714 C   0  0  0  0  0  0  0  0  0  0  0  0
    7.0550   -4.0676   27.7962 C   0  0  0  0  0  0  0  0  0  0  0  0
    5.1996   -4.5071   29.7955 C   0  0  0  0  0  0  0  0  0  0  0  0
   -1.4901  -11.4041   18.4007 C   0  0  0  0  0  0  0  0  0  0  0  0
    1.6090   -5.5606   26.4147 C   0  0  0  0  0  0  0  0  0  0  0  0
   -1.2505  -10.1138   18.1235 C   0  0  0  0  0  0  0  0  0  0  0  0
   -0.8523  -12.4078   17.7198 C   0  0  0  0  0  0  0  0  0  0  0  0
   -2.0707   -9.1902   18.8124 C   0  0  0  0  0  0  0  0  0  0  0  0
    2.9774   -5.2904   26.9122 C   0  0  0  0  0  0  0  0  0  0  0  0
    7.4129   -3.9453   29.0253 C   0  0  0  0  0  0  0  0  0  0  0  0
  1  3  4  0
  1  7  4  0
  2  3  1  0
  2  6  4  0
  2 16  4  0
  3 10  4  0
  3 18  4  0
  3 22  4  0
  4  9  4  0
  4 10  1  0
  4 15  1  0
  4 20  4  0
  5  8  3  0
  5 16  4  0
  5 23  4  0
  6  9  3  0
  6 15  4  0
  7 12  4  0
  8 13  4  0
  8 14  4  0
  8 15  4  0
  9 11  4  0
 10 23  1  0
 11 14  4  0
 11 19  4  0
 12 16  1  0
 12 18  4  0
 13 21  4  0
 15 23  4  0
 17 19  4  0
 17 20  4  0
 18 22  4  0
 19 21  4  0
M  END
$$$$

 Created by Python create_sdf_string function

 23 29  0  0  0  0  0  0  0  0999 V2000
    2.4205   -5.2345   29.0611 C   0  0  0  0  0  0  0  0  0  0  0  0
    4.7874   -4.6436   28.5605 C   0  0  0  0  0  0  0  0  0  0  0  0
    3.3809   -5.0730   28.1623 C   0  0  0  0  0  0  0  0  0  0  0  0
   -0.1082  -12.0866   16.5299 C   0  0  0  0  0  0  0  0  0  0  0  0
    6.4716   -4.1455   30.0222 C   0  0  0  0  0  0  0  0  0  0  0  0
    5.6683   -4.4359   27.3914 C   0  0  0  0  0  0  0  0  0  0  0  0
    1.0493   -5.5666   28.8683 C   0  0  0  0  0  0  0  0  0  0  0  0
   -1.0821   -7.4878   17.6625 C   0  0  0  0  0  0  0  0  0  0  0  0
    0.0262  -10.7772   16.4207 C   0  0  0  0  0  0  0  0  0  0  0  0
    0.4193  -13.0962   15.8611 C   0  0  0  0  0  0  0  0  0  0  0  0
   -0.5846   -9.6756   17.1727 C   0  0  0  0  0  0  0  0  0  0  0  0
    0.6832   -5.8445   27.4003 C   0  0  0  0  0  0  0  0  0  0  0  0
   -1.8631   -7.9184   18.6199 C   0  0  0  0  0  0  0  0  0  0  0  0
   -0.4126   -8.4443   16.9606 C   0  0  0  0  0  0  0  0  0  0  0  0
    7.0385   -4.0844   27.7146 C   0  0  0  0  0  0  0  0  0  0  0  0
    5.1290   -4.4936   29.6304 C   0  0  0  0  0  0  0  0  0  0  0  0
   -1.4365  -11.4655   18.4409 C   0  0  0  0  0  0  0  0  0  0  0  0
    1.6717   -5.5920   26.3932 C   0  0  0  0  0  0  0  0  0  0  0  0
   -1.4277  -10.0246   18.1379 C   0  0  0  0  0  0  0  0  0  0  0  0
   -0.8251  -12.3813   17.7372 C   0  0  0  0  0  0  0  0  0  0  0  0
   -1.9974   -9.2251   18.8985 C   0  0  0  0  0  0  0  0  0  0  0  0
    2.8601   -5.3481   26.7649 C   0  0  0  0  0  0  0  0  0  0  0  0
    7.4405   -3.9080   29.0625 O   0  0  0  0  0  0  0  0  0  0  0  0
  1  3  4  0
  1  7  4  0
  2  3  1  0
  2  6  4  0
  2 16  4  0
  3 22  4  0
  4  9  4  0
  4 10  1  0
  4 20  4  0
  4 23  1  0
  5 11  4  0
  5 16  4  0
  5 23  4  0
  6 15  4  0
  7 12  4  0
  8  9  2  0
  8 13  4  0
  8 14  4  0
  8 16  1  0
  9 11  4  0
  9 18  3  0
 11 14  4  0
 11 19  4  0
 12 18  4  0
 13 21  4  0
 15 23  4  0
 17 19  4  0
 17 20  4  0
 18 22  4  0
M  END
$$$$

 Created by Python create_sdf_string function

 23 28  0  0  0  0  0  0  0  0999 V2000
    2.3743   -5.3143   29.1103 C   0  0  0  0  0  0  0  0  0  0  0  0
    4.8287   -4.7470   28.3767 C   0  0  0  0  0  0  0  0  0  0  0  0
    3.3134   -5.0518   28.1599 C   0  0  0  0  0  0  0  0  0  0  0  0
   -0.1023  -12.1206   16.5574 C   0  0  0  0  0  0  0  0  0  0  0  0
    5.7348   -4.4515   27.3850 C   0  0  0  0  0  0  0  0  0  0  0  0
    1.0947   -5.5682   28.8828 C   0  0  0  0  0  0  0  0  0  0  0  0
   -1.0450   -7.4783   17.6199 C   0  0  0  0  0  0  0  0  0  0  0  0
    0.0273  -10.6509   16.3875 C   0  0  0  0  0  0  0  0  0  0  0  0
    0.5080  -13.1300   15.8540 C   0  0  0  0  0  0  0  0  0  0  0  0
   -0.4830   -9.8178   17.2348 C   0  0  0  0  0  0  0  0  0  0  0  0
    0.7834   -5.8089   27.5039 C   0  0  0  0  0  0  0  0  0  0  0  0
   -1.8445   -7.8937   18.6704 C   0  0  0  0  0  0  0  0  0  0  0  0
   -0.4378   -8.4107   16.9219 C   0  0  0  0  0  0  0  0  0  0  0  0
    7.0693   -4.1018   27.7485 C   0  0  0  0  0  0  0  0  0  0  0  0
    5.1289   -4.5075   29.7476 C   0  0  0  0  0  0  0  0  0  0  0  0
   -1.3846  -11.4955   18.5102 C   0  0  0  0  0  0  0  0  0  0  0  0
    1.6440   -5.6726   26.4182 C   0  0  0  0  0  0  0  0  0  0  0  0
   -1.4314  -10.1464   18.1246 C   0  0  0  0  0  0  0  0  0  0  0  0
   -0.8317  -12.3894   17.7023 C   0  0  0  0  0  0  0  0  0  0  0  0
   -2.1022   -9.1464   18.8676 C   0  0  0  0  0  0  0  0  0  0  0  0
    3.0645   -5.3582   26.8157 C   0  0  0  0  0  0  0  0  0  0  0  0
    7.4312   -3.9409   29.0293 C   0  0  0  0  0  0  0  0  0  0  0  0
    6.4643   -4.1380   29.9229 He  0  0  0  0  0  0  0  0  0  0  0  0
  1  3  4  0
  1  6  4  0
  2  3  1  0
  2  5  4  0
  2 15  4  0
  3  5  4  0
  3 21  4  0
  4  8  4  0
  4  9  1  0
  4 19  4  0
  5 14  4  0
  6 11  4  0
  7 12  4  0
  7 13  4  0
  8 10  4  0
  8 12  4  0
  8 17  2  0
  9 18  2  0
 10 13  4  0
 10 18  4  0
 11 17  4  0
 12 17  4  0
 12 20  4  0
 14 22  4  0
 16 18  4  0
 16 19  4  0
 17 21  4  0
 18 20  4  0
M  END
$$$$

 Created by Python create_sdf_string function

 23 26  0  0  0  0  0  0  0  0999 V2000
    2.4348   -5.2773   29.1166 C   0  0  0  0  0  0  0  0  0  0  0  0
    4.7643   -4.7063   28.4095 C   0  0  0  0  0  0  0  0  0  0  0  0
    3.4093   -5.0869   28.1611 C   0  0  0  0  0  0  0  0  0  0  0  0
   -0.0835  -12.0596   16.6804 C   0  0  0  0  0  0  0  0  0  0  0  0
    6.4969   -4.0617   30.0867 C   0  0  0  0  0  0  0  0  0  0  0  0
    5.7076   -4.4759   27.4209 C   0  0  0  0  0  0  0  0  0  0  0  0
    1.0464   -5.4941   28.7997 C   0  0  0  0  0  0  0  0  0  0  0  0
   -1.0356   -7.5081   17.5675 C   0  0  0  0  0  0  0  0  0  0  0  0
    0.0025  -10.7132   16.3739 C   0  0  0  0  0  0  0  0  0  0  0  0
    0.6019  -13.0618   15.9594 C   0  0  0  0  0  0  0  0  0  0  0  0
   -0.5433   -9.7544   17.1530 C   0  0  0  0  0  0  0  0  0  0  0  0
    0.7116   -5.7960   27.5263 C   0  0  0  0  0  0  0  0  0  0  0  0
   -1.9307   -7.8836   18.6434 C   0  0  0  0  0  0  0  0  0  0  0  0
   -0.3732   -8.3890   16.9895 C   0  0  0  0  0  0  0  0  0  0  0  0
    7.0297   -4.0263   27.7167 C   0  0  0  0  0  0  0  0  0  0  0  0
    5.1878   -4.5377   29.7394 C   0  0  0  0  0  0  0  0  0  0  0  0
   -1.4749  -11.4639   18.4919 C   0  0  0  0  0  0  0  0  0  0  0  0
    1.6761   -5.5892   26.4232 C   0  0  0  0  0  0  0  0  0  0  0  0
   -1.3936  -10.1449   18.2325 C   0  0  0  0  0  0  0  0  0  0  0  0
   -0.7499  -12.3796   17.6865 S   0  0  0  0  0  0  0  0  0  0  0  0
   -2.0806   -9.1887   18.9373 C   0  0  0  0  0  0  0  0  0  0  0  0
    3.0497   -5.2749   26.8516 C   0  0  0  0  0  0  0  0  0  0  0  0
    7.4817   -4.0092   29.0356 C   0  0  0  0  0  0  0  0  0  0  0  0
  1  3  4  0
  1  7  4  0
  2  6  4  0
  2 16  4  0
  3 22  4  0
  4  9  4  0
  4 10  1  0
  4 15  4  0
  4 20  4  0
  5 16  4  0
  5 17  2  0
  5 23  2  0
  7 12  4  0
  8 13  4  0
  8 14  4  0
  9 11  4  0
 11 13  2  0
 11 14  4  0
 11 19  4  0
 12 18  4  0
 13 21  4  0
 15 23  4  0
 17 19  4  0
 17 20  4  0
 18 22  4  0
 19 21  4  0
M  END
$$$$

 Created by Python create_sdf_string function

 23 28  0  0  0  0  0  0  0  0999 V2000
    2.4187   -5.3119   29.1704 C   0  0  0  0  0  0  0  0  0  0  0  0
    4.8176   -4.6697   28.4707 C   0  0  0  0  0  0  0  0  0  0  0  0
    3.3517   -5.0365   28.1315 C   0  0  0  0  0  0  0  0  0  0  0  0
   -0.0273  -12.0967   16.6939 C   0  0  0  0  0  0  0  0  0  0  0  0
    6.4489   -4.1627   30.1144 C   0  0  0  0  0  0  0  0  0  0  0  0
    5.6994   -4.4263   27.4253 C   0  0  0  0  0  0  0  0  0  0  0  0
    1.1135   -5.5266   28.9115 C   0  0  0  0  0  0  0  0  0  0  0  0
   -1.0547   -7.4882   17.6413 C   0  0  0  0  0  0  0  0  0  0  0  0
    0.1575  -10.7647   16.3823 C   0  0  0  0  0  0  0  0  0  0  0  0
    0.5289  -13.0548   15.9548 C   0  0  0  0  0  0  0  0  0  0  0  0
   -0.5841   -9.7530   17.2477 C   0  0  0  0  0  0  0  0  0  0  0  0
    0.6907   -5.7520   27.5055 C   0  0  0  0  0  0  0  0  0  0  0  0
   -1.9725   -7.8181   18.6108 C   0  0  0  0  0  0  0  0  0  0  0  0
   -0.3375   -8.3512   16.9331 C   0  0  0  0  0  0  0  0  0  0  0  0
    6.9370   -4.0859   27.6852 C   0  0  0  0  0  0  0  0  0  0  0  0
    5.2048   -4.4953   29.7629 C   0  0  0  0  0  0  0  0  0  0  0  0
   -1.5358  -11.5118   18.5234 C   0  0  0  0  0  0  0  0  0  0  0  0
    1.6692   -5.6471   26.4699 C   0  0  0  0  0  0  0  0  0  0  0  0
   -1.4347  -10.1388   18.2044 C   0  0  0  0  0  0  0  0  0  0  0  0
   -0.7802  -12.3756   17.7392 C   0  0  0  0  0  0  0  0  0  0  0  0
   -2.0750   -9.1795   18.9462 C   0  0  0  0  0  0  0  0  0  0  0  0
    3.0236   -5.2658   26.8276 C   0  0  0  0  0  0  0  0  0  0  0  0
    7.3675   -3.9885   29.0655 C   0  0  0  0  0  0  0  0  0  0  0  0
  1  3  4  0
  1  7  4  0
  2  3  1  0
  2  6  4  0
  2 16  4  0
  3 22  4  0
  4  9  4  0
  4 10  1  0
  4 20  4  0
  5 15  1  0
  5 16  4  0
  5 22  4  0
  5 23  4  0
  6 15  4  0
  7 12  4  0
  8 13  4  0
  8 14  4  0
  9 11  4  0
  9 19  4  0
 11 14  4  0
 11 19  4  0
 12 18  4  0
 13 21  4  0
 15 23  4  0
 17 19  4  0
 17 20  4  0
 18 22  4  0
 19 21  4  0
M  END
$$$$

 Created by Python create_sdf_string function

 23 28  0  0  0  0  0  0  0  0999 V2000
    2.4685   -5.2738   29.1516 C   0  0  0  0  0  0  0  0  0  0  0  0
    4.7521   -4.6702   28.4535 C   0  0  0  0  0  0  0  0  0  0  0  0
    3.3985   -5.1062   28.1401 C   0  0  0  0  0  0  0  0  0  0  0  0
   -0.1015  -11.9841   16.7420 C   0  0  0  0  0  0  0  0  0  0  0  0
    6.4860   -4.1241   30.0787 C   0  0  0  0  0  0  0  0  0  0  0  0
    5.7450   -4.4430   27.4221 C   0  0  0  0  0  0  0  0  0  0  0  0
    1.0984   -5.6206   28.9793 C   0  0  0  0  0  0  0  0  0  0  0  0
   -1.1270   -7.4250   17.6364 C   0  0  0  0  0  0  0  0  0  0  0  0
    0.0494  -10.7051   16.4661 C   0  0  0  0  0  0  0  0  0  0  0  0
    0.5031  -13.0517   16.0019 Se  0  0  0  0  0  0  0  0  0  0  0  0
   -0.5207   -9.7098   17.1697 C   0  0  0  0  0  0  0  0  0  0  0  0
    0.7531   -5.7749   27.5500 C   0  0  0  0  0  0  0  0  0  0  0  0
   -2.0196   -7.8162   18.6651 C   0  0  0  0  0  0  0  0  0  0  0  0
   -0.3873   -8.3414   16.9622 C   0  0  0  0  0  0  0  0  0  0  0  0
    7.0053   -4.0616   27.7823 C   0  0  0  0  0  0  0  0  0  0  0  0
    5.1535   -4.5310   29.8994 C   0  0  0  0  0  0  0  0  0  0  0  0
    1.6801   -5.6776   26.5465 C   0  0  0  0  0  0  0  0  0  0  0  0
   -1.4253  -10.1526   18.2034 C   0  0  0  0  0  0  0  0  0  0  0  0
   -0.8081  -12.3797   17.7378 C   0  0  0  0  0  0  0  0  0  0  0  0
   -2.1236   -9.1903   18.9591 C   0  0  0  0  0  0  0  0  0  0  0  0
    3.0054   -5.3088   26.8048 C   0  0  0  0  0  0  0  0  0  0  0  0
    7.4020   -3.8868   29.0479 C   0  0  0  0  0  0  0  0  0  0  0  0
   -1.4718  -11.4510   18.4981 He  0  0  0  0  0  0  0  0  0  0  0  0
  1  3  4  0
  1  6  2  0
  1  7  4  0
  2  3  1  0
  2  4  3  0
  2  6  4  0
  2 16  4  0
  3 21  4  0
  4  9  4  0
  4 10  1  0
  4 19  4  0
  5 16  4  0
  5 22  4  0
  6 15  4  0
  7 12  4  0
  8 13  4  0
  8 14  4  0
  9 11  4  0
 10 13  4  0
 10 19  2  0
 11 14  4  0
 11 18  4  0
 12 17  4  0
 13 20  4  0
 15 22  4  0
 17 21  4  0
 18 20  4  0
 18 21  1  0
M  END
$$$$

 Created by Python create_sdf_string function

 23 28  0  0  0  0  0  0  0  0999 V2000
    2.4365   -5.2856   29.1176 C   0  0  0  0  0  0  0  0  0  0  0  0
    4.7189   -4.6722   28.4688 O   0  0  0  0  0  0  0  0  0  0  0  0
    3.4583   -5.1549   28.1436 C   0  0  0  0  0  0  0  0  0  0  0  0
   -0.0825  -12.0219   16.6999 C   0  0  0  0  0  0  0  0  0  0  0  0
    6.4848   -4.1508   30.1397 C   0  0  0  0  0  0  0  0  0  0  0  0
    5.6713   -4.4284   27.4242 C   0  0  0  0  0  0  0  0  0  0  0  0
    1.1275   -5.6358   28.9027 C   0  0  0  0  0  0  0  0  0  0  0  0
   -1.1305   -7.4041   17.6721 C   0  0  0  0  0  0  0  0  0  0  0  0
    0.0802  -10.7184   16.4220 C   0  0  0  0  0  0  0  0  0  0  0  0
    0.5136  -12.9672   16.0036 O   0  0  0  0  0  0  0  0  0  0  0  0
   -0.5694   -9.6573   17.2351 C   0  0  0  0  0  0  0  0  0  0  0  0
    0.7604   -5.8191   27.5701 S   0  0  0  0  0  0  0  0  0  0  0  0
   -1.9947   -7.8002   18.6469 C   0  0  0  0  0  0  0  0  0  0  0  0
   -0.4273   -8.3658   16.9649 C   0  0  0  0  0  0  0  0  0  0  0  0
    6.9807   -4.0300   27.8105 C   0  0  0  0  0  0  0  0  0  0  0  0
    5.1715   -4.5345   29.8377 C   0  0  0  0  0  0  0  0  0  0  0  0
   -1.5348  -11.4220   18.5271 C   0  0  0  0  0  0  0  0  0  0  0  0
    1.7008   -5.6780   26.5350 C   0  0  0  0  0  0  0  0  0  0  0  0
   -1.4712  -10.0916   18.2333 C   0  0  0  0  0  0  0  0  0  0  0  0
   -0.9162  -12.3248   17.7986 C   0  0  0  0  0  0  0  0  0  0  0  0
   -2.0844   -9.1476   18.9003 C   0  0  0  0  0  0  0  0  0  0  0  0
    3.0140   -5.3674   26.8355 C   0  0  0  0  0  0  0  0  0  0  0  0
    7.4286   -3.8894   29.0887 C   0  0  0  0  0  0  0  0  0  0  0  0
  1  3  4  0
  1  7  4  0
  2  3  1  0
  2  6  4  0
  2 11  3  0
  2 16  4  0
  3 22  4  0
  4  9  4  0
  4 10  1  0
  4 19  3  0
  4 20  4  0
  5 16  4  0
  5 23  4  0
  6 15  4  0
  7 12  4  0
  8 13  4  0
  8 14  4  0
  9 11  4  0
 11 14  4  0
 11 19  4  0
 12 18  4  0
 13 21  4  0
 15 23  4  0
 17 19  4  0
 17 20  4  0
 18 22  4  0
 19 21  4  0
 21 22  3  0
M  END
$$$$

 Created by Python create_sdf_string function

 23 29  0  0  0  0  0  0  0  0999 V2000
    2.4345   -5.3024   29.1722 C   0  0  0  0  0  0  0  0  0  0  0  0
    4.7709   -4.7570   28.4837 C   0  0  0  0  0  0  0  0  0  0  0  0
    3.3910   -5.1434   28.1121 C   0  0  0  0  0  0  0  0  0  0  0  0
   -0.1160  -11.9861   16.7228 C   0  0  0  0  0  0  0  0  0  0  0  0
    6.4619   -4.1186   30.0969 C   0  0  0  0  0  0  0  0  0  0  0  0
    5.7110   -4.4060   27.4492 C   0  0  0  0  0  0  0  0  0  0  0  0
    1.1460   -5.6270   28.8899 C   0  0  0  0  0  0  0  0  0  0  0  0
   -1.0832   -7.4134   17.6951 C   0  0  0  0  0  0  0  0  0  0  0  0
    0.0506  -10.6268   16.4693 C   0  0  0  0  0  0  0  0  0  0  0  0
    0.4969  -12.9262   16.0179 O   0  0  0  0  0  0  0  0  0  0  0  0
   -0.5898   -9.7353   17.2196 C   0  0  0  0  0  0  0  0  0  0  0  0
    0.7805   -5.8087   27.5432 C   0  0  0  0  0  0  0  0  0  0  0  0
   -2.0336   -7.7564   18.6470 C   0  0  0  0  0  0  0  0  0  0  0  0
   -0.4138   -8.3112   16.9594 C   0  0  0  0  0  0  0  0  0  0  0  0
    6.9341   -4.0220   27.8353 C   0  0  0  0  0  0  0  0  0  0  0  0
    5.1673   -4.5591   29.7917 C   0  0  0  0  0  0  0  0  0  0  0  0
   -1.6107  -11.4250   18.5140 C   0  0  0  0  0  0  0  0  0  0  0  0
    1.7155   -5.6682   26.4786 C   0  0  0  0  0  0  0  0  0  0  0  0
   -1.4079  -10.0762   18.2753 C   0  0  0  0  0  0  0  0  0  0  0  0
   -0.9748  -12.3341   17.7709 C   0  0  0  0  0  0  0  0  0  0  0  0
   -2.1686   -9.0747   18.9702 C   0  0  0  0  0  0  0  0  0  0  0  0
    3.0290   -5.3523   26.8300 C   0  0  0  0  0  0  0  0  0  0  0  0
    7.3506   -3.8463   29.1073 C   0  0  0  0  0  0  0  0  0  0  0  0
  1  3  4  0
  1  7  4  0
  2  3  1  0
  2  6  4  0
  2 16  4  0
  3 22  4  0
  4  9  4  0
  4 10  1  0
  4 20  4  0
  5 16  4  0
  5 23  4  0
  6 15  4  0
  6 17  1  0
  6 22  4  0
  7 12  4  0
  7 20  1  0
  8 10  4  0
  8 13  4  0
  8 14  4  0
  9 11  4  0
 11 14  4  0
 11 19  4  0
 12 18  4  0
 13 21  4  0
 15 23  4  0
 17 19  4  0
 17 20  4  0
 18 22  4  0
 19 21  4  0
M  END
$$$$

 Created by Python create_sdf_string function

 23 28  0  0  0  0  0  0  0  0999 V2000
    2.4549   -5.2909   29.1645 C   0  0  0  0  0  0  0  0  0  0  0  0
    4.7543   -4.7199   28.4733 C   0  0  0  0  0  0  0  0  0  0  0  0
    3.3802   -5.1196   28.1343 C   0  0  0  0  0  0  0  0  0  0  0  0
   -0.1608  -11.9828   16.7930 C   0  0  0  0  0  0  0  0  0  0  0  0
    6.4607   -4.1401   30.0952 C   0  0  0  0  0  0  0  0  0  0  0  0
    5.6977   -4.4109   27.4934 C   0  0  0  0  0  0  0  0  0  0  0  0
    1.1438   -5.6593   28.8536 C   0  0  0  0  0  0  0  0  0  0  0  0
   -1.1167   -7.4015   17.7014 C   0  0  0  0  0  0  0  0  0  0  0  0
    0.0372  -10.6243   16.4988 C   0  0  0  0  0  0  0  0  0  0  0  0
    0.4623  -12.8976   16.0755 O   0  0  0  0  0  0  0  0  0  0  0  0
   -0.6029   -9.6695   17.2580 C   0  0  0  0  0  0  0  0  0  0  0  0
    0.7869   -5.7795   27.5405 C   0  0  0  0  0  0  0  0  0  0  0  0
   -2.0124   -7.7451   18.7149 C   0  0  0  0  0  0  0  0  0  0  0  0
   -0.4383   -8.2675   16.9603 C   0  0  0  0  0  0  0  0  0  0  0  0
    6.9548   -4.0126   27.8378 C   0  0  0  0  0  0  0  0  0  0  0  0
    5.1577   -4.5837   29.8027 C   0  0  0  0  0  0  0  0  0  0  0  0
   -1.6429  -11.4005   18.5074 C   0  0  0  0  0  0  0  0  0  0  0  0
    1.7546   -5.6763   26.5242 C   0  0  0  0  0  0  0  0  0  0  0  0
   -1.5016  -10.0298   18.2662 C   0  0  0  0  0  0  0  0  0  0  0  0
   -1.0154  -12.3398   17.7716 C   0  0  0  0  0  0  0  0  0  0  0  0
   -2.2330   -9.0817   18.9903 C   0  0  0  0  0  0  0  0  0  0  0  0
    3.0309   -5.3499   26.8096 C   0  0  0  0  0  0  0  0  0  0  0  0
    7.3491   -3.8804   29.0925 C   0  0  0  0  0  0  0  0  0  0  0  0
  1  3  4  0
  1  7  4  0
  2  3  1  0
  2  6  4  0
  2 16  4  0
  2 19  4  0
  3 22  4  0
  4  9  4  0
  4 10  1  0
  4 20  4  0
  5 16  4  0
  5 23  4  0
  6 15  4  0
  7 12  4  0
  8 13  4  0
  8 14  4  0
  9 11  4  0
 11 13  3  0
 11 14  4  0
 11 19  4  0
 12 18  4  0
 12 19  3  0
 13 21  4  0
 15 23  4  0
 17 19  3  0
 17 20  4  0
 18 22  4  0
 19 21  4  0
M  END
$$$$

 Created by Python create_sdf_string function

 23 24  0  0  0  0  0  0  0  0999 V2000
    2.4477   -5.3059   29.1498 C   0  0  0  0  0  0  0  0  0  0  0  0
    4.7398   -4.6622   28.4394 C   0  0  0  0  0  0  0  0  0  0  0  0
    3.3921   -5.1377   28.1176 C   0  0  0  0  0  0  0  0  0  0  0  0
   -0.1506  -11.9259   16.7972 C   0  0  0  0  0  0  0  0  0  0  0  0
    6.4519   -4.1648   30.1090 C   0  0  0  0  0  0  0  0  0  0  0  0
    5.6917   -4.4347   27.5188 C   0  0  0  0  0  0  0  0  0  0  0  0
    1.1571   -5.6637   28.8601 C   0  0  0  0  0  0  0  0  0  0  0  0
   -1.1546   -7.3902   17.7036 C   0  0  0  0  0  0  0  0  0  0  0  0
    0.0553  -10.6216   16.5359 C   0  0  0  0  0  0  0  0  0  0  0  0
    0.4115  -12.8333   16.1160 O   0  0  0  0  0  0  0  0  0  0  0  0
   -0.6297   -9.6382   17.2484 C   0  0  0  0  0  0  0  0  0  0  0  0
    0.7953   -5.8097   27.5502 C   0  0  0  0  0  0  0  0  0  0  0  0
   -1.9879   -7.7321   18.7222 C   0  0  0  0  0  0  0  0  0  0  0  0
   -0.4500   -8.2737   16.9672 C   0  0  0  0  0  0  0  0  0  0  0  0
    6.9268   -4.0055   27.8031 C   0  0  0  0  0  0  0  0  0  0  0  0
    5.1683   -4.5811   29.8145 C   0  0  0  0  0  0  0  0  0  0  0  0
   -1.6289  -11.4009   18.5301 C   0  0  0  0  0  0  0  0  0  0  0  0
    1.7562   -5.6715   26.4965 C   0  0  0  0  0  0  0  0  0  0  0  0
   -1.4843  -10.0378   18.2602 C   0  0  0  0  0  0  0  0  0  0  0  0
   -1.0663  -12.3294   17.7932 C   0  0  0  0  0  0  0  0  0  0  0  0
   -2.1993   -9.0620   19.0143 C   0  0  0  0  0  0  0  0  0  0  0  0
    3.0182   -5.3384   26.8376 C   0  0  0  0  0  0  0  0  0  0  0  0
    7.3295   -3.8768   29.1236 C   0  0  0  0  0  0  0  0  0  0  0  0
  1  3  4  0
  1  7  4  0
  2  3  1  0
  2  6  4  0
  2 16  4  0
  3 22  4  0
  4  9  4  0
  4 10  1  0
  4 20  4  0
  5 16  4  0
  5 23  4  0
  6 15  4  0
  7 12  4  0
  8 14  4  0
  9 11  4  0
 11 14  4  0
 11 19  4  0
 12 18  4  0
 13 21  4  0
 15 23  4  0
 17 19  4  0
 17 20  4  0
 18 22  4  0
 19 21  4  0
M  END
$$$$

 Created by Python create_sdf_string function

 23 25  0  0  0  0  0  0  0  0999 V2000
    2.4703   -5.2992   29.1400 C   0  0  0  0  0  0  0  0  0  0  0  0
    4.7699   -4.6914   28.4909 C   0  0  0  0  0  0  0  0  0  0  0  0
    3.3852   -5.0955   28.1546 C   0  0  0  0  0  0  0  0  0  0  0  0
   -0.1685  -11.9151   16.8243 C   0  0  0  0  0  0  0  0  0  0  0  0
    6.4579   -4.1593   30.1122 C   0  0  0  0  0  0  0  0  0  0  0  0
    5.6995   -4.4252   27.5050 C   0  0  0  0  0  0  0  0  0  0  0  0
    1.1666   -5.6379   28.8640 C   0  0  0  0  0  0  0  0  0  0  0  0
   -1.1542   -7.3815   17.7029 C   0  0  0  0  0  0  0  0  0  0  0  0
    0.0255  -10.5943   16.5772 C   0  0  0  0  0  0  0  0  0  0  0  0
    0.3913  -12.8306   16.1367 O   0  0  0  0  0  0  0  0  0  0  0  0
   -0.6498   -9.6113   17.2527 C   0  0  0  0  0  0  0  0  0  0  0  0
    0.7963   -5.8340   27.5189 C   0  0  0  0  0  0  0  0  0  0  0  0
   -2.0155   -7.7391   18.7248 C   0  0  0  0  0  0  0  0  0  0  0  0
   -0.4930   -8.2774   17.0235 C   0  0  0  0  0  0  0  0  0  0  0  0
    6.9420   -4.0117   27.8094 C   0  0  0  0  0  0  0  0  0  0  0  0
    5.1522   -4.5582   29.8026 C   0  0  0  0  0  0  0  0  0  0  0  0
   -1.6810  -11.3844   18.5510 C   0  0  0  0  0  0  0  0  0  0  0  0
    1.7531   -5.6674   26.4880 C   0  0  0  0  0  0  0  0  0  0  0  0
   -1.4952  -10.0103   18.2780 C   0  0  0  0  0  0  0  0  0  0  0  0
   -1.0440  -12.3217   17.7827 C   0  0  0  0  0  0  0  0  0  0  0  0
   -2.2132   -9.0448   19.0144 C   0  0  0  0  0  0  0  0  0  0  0  0
    3.0157   -5.3394   26.8131 C   0  0  0  0  0  0  0  0  0  0  0  0
    7.3166   -3.8766   29.1166 C   0  0  0  0  0  0  0  0  0  0  0  0
  1  3  4  0
  1  7  4  0
  2  3  1  0
  2  6  4  0
  2 16  4  0
  3 22  4  0
  4  9  1  0
  4 10  1  0
  4 20  4  0
  5 16  4  0
  5 23  4  0
  6 15  4  0
  7 12  4  0
  8 13  4  0
  8 14  4  0
  9 11  4  0
 11 14  4  0
 11 19  4  0
 12 18  4  0
 13 21  4  0
 15 23  4  0
 17 19  4  0
 17 20  4  0
 18 22  4  0
 19 21  4  0
M  END
$$$$

 Created by Python create_sdf_string function

 23 26  0  0  0  0  0  0  0  0999 V2000
    2.4711   -5.3108   29.1268 C   0  0  0  0  0  0  0  0  0  0  0  0
    4.7731   -4.7065   28.4837 C   0  0  0  0  0  0  0  0  0  0  0  0
    3.3767   -5.1146   28.1475 C   0  0  0  0  0  0  0  0  0  0  0  0
   -0.1914  -11.8955   16.8404 C   0  0  0  0  0  0  0  0  0  0  0  0
    6.4498   -4.1832   30.1087 S   0  0  0  0  0  0  0  0  0  0  0  0
    5.6948   -4.4272   27.5033 C   0  0  0  0  0  0  0  0  0  0  0  0
    1.1694   -5.6455   28.8511 C   0  0  0  0  0  0  0  0  0  0  0  0
   -1.1838   -7.3721   17.7413 C   0  0  0  0  0  0  0  0  0  0  0  0
    0.0104  -10.6093   16.5869 C   0  0  0  0  0  0  0  0  0  0  0  0
    0.4048  -12.8187   16.1358 O   0  0  0  0  0  0  0  0  0  0  0  0
   -0.6668   -9.6080   17.3051 C   0  0  0  0  0  0  0  0  0  0  0  0
    0.7980   -5.8319   27.5260 C   0  0  0  0  0  0  0  0  0  0  0  0
   -2.0282   -7.7281   18.7401 C   0  0  0  0  0  0  0  0  0  0  0  0
   -0.5134   -8.2699   17.0294 C   0  0  0  0  0  0  0  0  0  0  0  0
    6.9525   -4.0078   27.8127 C   0  0  0  0  0  0  0  0  0  0  0  0
    5.1670   -4.5356   29.8191 C   0  0  0  0  0  0  0  0  0  0  0  0
   -1.6965  -11.3569   18.5503 C   0  0  0  0  0  0  0  0  0  0  0  0
    1.7457   -5.6750   26.5077 C   0  0  0  0  0  0  0  0  0  0  0  0
   -1.5365   -9.9917   18.3036 C   0  0  0  0  0  0  0  0  0  0  0  0
   -1.0585  -12.2784   17.8119 C   0  0  0  0  0  0  0  0  0  0  0  0
   -2.2174   -9.0013   19.0209 C   0  0  0  0  0  0  0  0  0  0  0  0
    3.0147   -5.3146   26.8202 C   0  0  0  0  0  0  0  0  0  0  0  0
    7.3198   -3.8887   29.1240 C   0  0  0  0  0  0  0  0  0  0  0  0
  1  3  4  0
  1  7  4  0
  2  3  1  0
  2  6  4  0
  2 16  4  0
  3 22  4  0
  4  9  4  0
  4 10  1  0
  4 20  4  0
  4 21  2  0
  5 16  4  0
  5 23  4  0
  6 15  4  0
  7 12  4  0
  8 13  4  0
  8 14  4  0
  9 11  4  0
 11 14  4  0
 11 19  4  0
 12 18  4  0
 13 21  4  0
 15 23  4  0
 17 19  4  0
 17 20  4  0
 18 22  4  0
 19 21  4  0
M  END
$$$$

 Created by Python create_sdf_string function

 23 25  0  0  0  0  0  0  0  0999 V2000
    2.4576   -5.3057   29.1297 C   0  0  0  0  0  0  0  0  0  0  0  0
    4.7690   -4.6879   28.4764 C   0  0  0  0  0  0  0  0  0  0  0  0
    3.4099   -5.1067   28.1390 C   0  0  0  0  0  0  0  0  0  0  0  0
   -0.2104  -11.8787   16.8713 C   0  0  0  0  0  0  0  0  0  0  0  0
    6.4433   -4.1538   30.1166 C   0  0  0  0  0  0  0  0  0  0  0  0
    5.6931   -4.4453   27.4829 C   0  0  0  0  0  0  0  0  0  0  0  0
    1.1766   -5.6503   28.8522 C   0  0  0  0  0  0  0  0  0  0  0  0
   -1.1951   -7.3428   17.7514 C   0  0  0  0  0  0  0  0  0  0  0  0
    0.0067  -10.5835   16.5966 C   0  0  0  0  0  0  0  0  0  0  0  0
    0.4037  -12.7938   16.1602 O   0  0  0  0  0  0  0  0  0  0  0  0
   -0.6698   -9.6005   17.3073 C   0  0  0  0  0  0  0  0  0  0  0  0
    0.8164   -5.8346   27.5274 C   0  0  0  0  0  0  0  0  0  0  0  0
   -2.0487   -7.7032   18.7494 C   0  0  0  0  0  0  0  0  0  0  0  0
   -0.5160   -8.2462   17.0366 C   0  0  0  0  0  0  0  0  0  0  0  0
    6.9545   -4.0088   27.8135 C   0  0  0  0  0  0  0  0  0  0  0  0
    5.1629   -4.5535   29.8149 C   0  0  0  0  0  0  0  0  0  0  0  0
   -1.7225  -11.3407   18.5740 C   0  0  0  0  0  0  0  0  0  0  0  0
    1.7556   -5.6743   26.5033 C   0  0  0  0  0  0  0  0  0  0  0  0
   -1.5523   -9.9653   18.3196 C   0  0  0  0  0  0  0  0  0  0  0  0
   -1.0705  -12.2628   17.8432 C   0  0  0  0  0  0  0  0  0  0  0  0
   -2.2406   -9.0045   19.0337 C   0  0  0  0  0  0  0  0  0  0  0  0
    3.0335   -5.3119   26.8361 C   0  0  0  0  0  0  0  0  0  0  0  0
    7.3323   -3.8924   29.1141 C   0  0  0  0  0  0  0  0  0  0  0  0
  1  3  4  0
  1  7  4  0
  2  3  1  0
  2  6  4  0
  2 16  4  0
  3 22  4  0
  4  9  4  0
  4 10  1  0
  4 20  4  0
  5 16  4  0
  5 23  4  0
  6 15  4  0
  7 12  4  0
  8 13  4  0
  8 14  4  0
  9 11  4  0
 11 14  4  0
 11 19  4  0
 12 18  4  0
 13 21  4  0
 15 23  4  0
 17 19  4  0
 17 20  4  0
 18 22  4  0
 19 21  4  0
M  END
$$$$

 Created by Python create_sdf_string function

 23 25  0  0  0  0  0  0  0  0999 V2000
    2.4573   -5.3110   29.1248 C   0  0  0  0  0  0  0  0  0  0  0  0
    4.7738   -4.6953   28.4802 C   0  0  0  0  0  0  0  0  0  0  0  0
    3.4000   -5.1064   28.1338 C   0  0  0  0  0  0  0  0  0  0  0  0
   -0.2136  -11.8724   16.8733 C   0  0  0  0  0  0  0  0  0  0  0  0
    6.4467   -4.1538   30.1206 C   0  0  0  0  0  0  0  0  0  0  0  0
    5.7052   -4.4374   27.4927 C   0  0  0  0  0  0  0  0  0  0  0  0
    1.1768   -5.6587   28.8446 C   0  0  0  0  0  0  0  0  0  0  0  0
   -1.1989   -7.3446   17.7609 C   0  0  0  0  0  0  0  0  0  0  0  0
   -0.0047  -10.5728   16.6051 C   0  0  0  0  0  0  0  0  0  0  0  0
    0.3848  -12.7775   16.1929 O   0  0  0  0  0  0  0  0  0  0  0  0
   -0.6741   -9.5799   17.3144 C   0  0  0  0  0  0  0  0  0  0  0  0
    0.8285   -5.8399   27.5263 C   0  0  0  0  0  0  0  0  0  0  0  0
   -2.0623   -7.6810   18.7679 C   0  0  0  0  0  0  0  0  0  0  0  0
   -0.5222   -8.2299   17.0586 C   0  0  0  0  0  0  0  0  0  0  0  0
    6.9609   -4.0140   27.8155 C   0  0  0  0  0  0  0  0  0  0  0  0
    5.1723   -4.5488   29.8108 C   0  0  0  0  0  0  0  0  0  0  0  0
   -1.7374  -11.3221   18.5919 C   0  0  0  0  0  0  0  0  0  0  0  0
    1.7514   -5.6779   26.5026 C   0  0  0  0  0  0  0  0  0  0  0  0
   -1.5677   -9.9465   18.3322 C   0  0  0  0  0  0  0  0  0  0  0  0
   -1.0775  -12.2404   17.8702 C   0  0  0  0  0  0  0  0  0  0  0  0
   -2.2574   -8.9860   19.0535 C   0  0  0  0  0  0  0  0  0  0  0  0
    3.0276   -5.3107   26.8240 C   0  0  0  0  0  0  0  0  0  0  0  0
    7.3320   -3.8950   29.1160 C   0  0  0  0  0  0  0  0  0  0  0  0
  1  3  4  0
  1  7  4  0
  2  3  1  0
  2  6  4  0
  2 16  4  0
  3 22  4  0
  4  9  4  0
  4 10  1  0
  4 20  4  0
  5 16  4  0
  5 23  4  0
  6 15  4  0
  7 12  4  0
  8 13  4  0
  8 14  4  0
  9 11  4  0
 11 14  4  0
 11 19  4  0
 12 18  4  0
 13 21  4  0
 15 23  4  0
 17 19  4  0
 17 20  4  0
 18 22  4  0
 19 21  4  0
M  END
$$$$

 Created by Python create_sdf_string function

 23 25  0  0  0  0  0  0  0  0999 V2000
    2.4610   -5.3070   29.1240 C   0  0  0  0  0  0  0  0  0  0  0  0
    4.7710   -4.6952   28.4803 C   0  0  0  0  0  0  0  0  0  0  0  0
    3.4047   -5.1087   28.1314 C   0  0  0  0  0  0  0  0  0  0  0  0
   -0.2234  -11.8615   16.8874 C   0  0  0  0  0  0  0  0  0  0  0  0
    6.4491   -4.1532   30.1213 C   0  0  0  0  0  0  0  0  0  0  0  0
    5.7060   -4.4340   27.4975 C   0  0  0  0  0  0  0  0  0  0  0  0
    1.1818   -5.6612   28.8399 C   0  0  0  0  0  0  0  0  0  0  0  0
   -1.2067   -7.3287   17.7772 C   0  0  0  0  0  0  0  0  0  0  0  0
   -0.0206  -10.5585   16.6210 C   0  0  0  0  0  0  0  0  0  0  0  0
    0.3696  -12.7626   16.2169 O   0  0  0  0  0  0  0  0  0  0  0  0
   -0.6895   -9.5676   17.3297 C   0  0  0  0  0  0  0  0  0  0  0  0
    0.8388   -5.8417   27.5264 C   0  0  0  0  0  0  0  0  0  0  0  0
   -2.0709   -7.6637   18.7817 C   0  0  0  0  0  0  0  0  0  0  0  0
   -0.5279   -8.2168   17.0717 C   0  0  0  0  0  0  0  0  0  0  0  0
    6.9694   -4.0191   27.8190 C   0  0  0  0  0  0  0  0  0  0  0  0
    5.1733   -4.5469   29.8123 C   0  0  0  0  0  0  0  0  0  0  0  0
   -1.7508  -11.3016   18.6072 C   0  0  0  0  0  0  0  0  0  0  0  0
    1.7497   -5.6771   26.4971 C   0  0  0  0  0  0  0  0  0  0  0  0
   -1.5799   -9.9322   18.3468 C   0  0  0  0  0  0  0  0  0  0  0  0
   -1.0871  -12.2214   17.8851 C   0  0  0  0  0  0  0  0  0  0  0  0
   -2.2706   -8.9669   19.0691 C   0  0  0  0  0  0  0  0  0  0  0  0
    3.0279   -5.3073   26.8197 C   0  0  0  0  0  0  0  0  0  0  0  0
    7.3282   -3.8948   29.1186 C   0  0  0  0  0  0  0  0  0  0  0  0
  1  3  4  0
  1  7  4  0
  2  3  1  0
  2  6  4  0
  2 16  4  0
  3 22  4  0
  4  9  4  0
  4 10  1  0
  4 20  4  0
  5 16  4  0
  5 23  4  0
  6 15  4  0
  7 12  4  0
  8 13  4  0
  8 14  4  0
  9 11  4  0
 11 14  4  0
 11 19  4  0
 12 18  4  0
 13 21  4  0
 15 23  4  0
 17 19  4  0
 17 20  4  0
 18 22  4  0
 19 21  4  0
M  END
$$$$

 Created by Python create_sdf_string function

 23 25  0  0  0  0  0  0  0  0999 V2000
    2.4610   -5.3070   29.1240 C   0  0  0  0  0  0  0  0  0  0  0  0
    4.7710   -4.6952   28.4803 C   0  0  0  0  0  0  0  0  0  0  0  0
    3.4047   -5.1087   28.1314 C   0  0  0  0  0  0  0  0  0  0  0  0
   -0.2234  -11.8615   16.8874 C   0  0  0  0  0  0  0  0  0  0  0  0
    6.4491   -4.1532   30.1213 C   0  0  0  0  0  0  0  0  0  0  0  0
    5.7060   -4.4340   27.4975 C   0  0  0  0  0  0  0  0  0  0  0  0
    1.1818   -5.6612   28.8399 C   0  0  0  0  0  0  0  0  0  0  0  0
   -1.2067   -7.3287   17.7772 C   0  0  0  0  0  0  0  0  0  0  0  0
   -0.0206  -10.5585   16.6210 C   0  0  0  0  0  0  0  0  0  0  0  0
    0.3696  -12.7626   16.2169 O   0  0  0  0  0  0  0  0  0  0  0  0
   -0.6895   -9.5676   17.3297 C   0  0  0  0  0  0  0  0  0  0  0  0
    0.8388   -5.8417   27.5264 C   0  0  0  0  0  0  0  0  0  0  0  0
   -2.0709   -7.6637   18.7817 C   0  0  0  0  0  0  0  0  0  0  0  0
   -0.5279   -8.2168   17.0717 C   0  0  0  0  0  0  0  0  0  0  0  0
    6.9694   -4.0191   27.8190 C   0  0  0  0  0  0  0  0  0  0  0  0
    5.1733   -4.5469   29.8123 C   0  0  0  0  0  0  0  0  0  0  0  0
   -1.7508  -11.3016   18.6072 C   0  0  0  0  0  0  0  0  0  0  0  0
    1.7497   -5.6771   26.4971 C   0  0  0  0  0  0  0  0  0  0  0  0
   -1.5799   -9.9322   18.3468 C   0  0  0  0  0  0  0  0  0  0  0  0
   -1.0871  -12.2214   17.8851 C   0  0  0  0  0  0  0  0  0  0  0  0
   -2.2706   -8.9669   19.0691 C   0  0  0  0  0  0  0  0  0  0  0  0
    3.0279   -5.3073   26.8197 C   0  0  0  0  0  0  0  0  0  0  0  0
    7.3282   -3.8948   29.1186 C   0  0  0  0  0  0  0  0  0  0  0  0
  1  3  4  0
  1  7  4  0
  2  3  1  0
  2  6  4  0
  2 16  4  0
  3 22  4  0
  4  9  4  0
  4 10  1  0
  4 20  4  0
  5 16  4  0
  5 23  4  0
  6 15  4  0
  7 12  4  0
  8 13  4  0
  8 14  4  0
  9 11  4  0
 11 14  4  0
 11 19  4  0
 12 18  4  0
 13 21  4  0
 15 23  4  0
 17 19  4  0
 17 20  4  0
 18 22  4  0
 19 21  4  0
M  END
$$$$

 Created by Python create_sdf_string function

 23 25  0  0  0  0  0  0  0  0999 V2000
    2.4610   -5.3070   29.1240 C   0  0  0  0  0  0  0  0  0  0  0  0
    4.7710   -4.6952   28.4803 C   0  0  0  0  0  0  0  0  0  0  0  0
    3.4047   -5.1087   28.1314 C   0  0  0  0  0  0  0  0  0  0  0  0
   -0.2234  -11.8615   16.8874 C   0  0  0  0  0  0  0  0  0  0  0  0
    6.4491   -4.1532   30.1213 C   0  0  0  0  0  0  0  0  0  0  0  0
    5.7060   -4.4340   27.4975 C   0  0  0  0  0  0  0  0  0  0  0  0
    1.1818   -5.6612   28.8399 C   0  0  0  0  0  0  0  0  0  0  0  0
   -1.2067   -7.3287   17.7772 C   0  0  0  0  0  0  0  0  0  0  0  0
   -0.0206  -10.5585   16.6210 C   0  0  0  0  0  0  0  0  0  0  0  0
    0.3696  -12.7626   16.2169 O   0  0  0  0  0  0  0  0  0  0  0  0
   -0.6895   -9.5676   17.3297 C   0  0  0  0  0  0  0  0  0  0  0  0
    0.8388   -5.8417   27.5264 C   0  0  0  0  0  0  0  0  0  0  0  0
   -2.0709   -7.6637   18.7817 C   0  0  0  0  0  0  0  0  0  0  0  0
   -0.5279   -8.2168   17.0717 C   0  0  0  0  0  0  0  0  0  0  0  0
    6.9694   -4.0191   27.8190 C   0  0  0  0  0  0  0  0  0  0  0  0
    5.1733   -4.5469   29.8123 C   0  0  0  0  0  0  0  0  0  0  0  0
   -1.7508  -11.3016   18.6072 C   0  0  0  0  0  0  0  0  0  0  0  0
    1.7497   -5.6771   26.4971 C   0  0  0  0  0  0  0  0  0  0  0  0
   -1.5799   -9.9322   18.3468 C   0  0  0  0  0  0  0  0  0  0  0  0
   -1.0871  -12.2214   17.8851 C   0  0  0  0  0  0  0  0  0  0  0  0
   -2.2706   -8.9669   19.0691 C   0  0  0  0  0  0  0  0  0  0  0  0
    3.0279   -5.3073   26.8197 C   0  0  0  0  0  0  0  0  0  0  0  0
    7.3282   -3.8948   29.1186 C   0  0  0  0  0  0  0  0  0  0  0  0
  1  3  4  0
  1  7  4  0
  2  3  1  0
  2  6  4  0
  2 16  4  0
  3 22  4  0
  4  9  4  0
  4 10  1  0
  4 20  4  0
  5 16  4  0
  5 23  4  0
  6 15  4  0
  7 12  4  0
  8 13  4  0
  8 14  4  0
  9 11  4  0
 11 14  4  0
 11 19  4  0
 12 18  4  0
 13 21  4  0
 15 23  4  0
 17 19  4  0
 17 20  4  0
 18 22  4  0
 19 21  4  0
M  END
$$$$

 Created by Python create_sdf_string function

 23 25  0  0  0  0  0  0  0  0999 V2000
    2.4610   -5.3070   29.1240 C   0  0  0  0  0  0  0  0  0  0  0  0
    4.7710   -4.6952   28.4803 C   0  0  0  0  0  0  0  0  0  0  0  0
    3.4047   -5.1087   28.1314 C   0  0  0  0  0  0  0  0  0  0  0  0
   -0.2234  -11.8615   16.8874 C   0  0  0  0  0  0  0  0  0  0  0  0
    6.4491   -4.1532   30.1213 C   0  0  0  0  0  0  0  0  0  0  0  0
    5.7060   -4.4340   27.4975 C   0  0  0  0  0  0  0  0  0  0  0  0
    1.1818   -5.6612   28.8399 C   0  0  0  0  0  0  0  0  0  0  0  0
   -1.2067   -7.3287   17.7772 C   0  0  0  0  0  0  0  0  0  0  0  0
   -0.0206  -10.5585   16.6210 C   0  0  0  0  0  0  0  0  0  0  0  0
    0.3696  -12.7626   16.2169 O   0  0  0  0  0  0  0  0  0  0  0  0
   -0.6895   -9.5676   17.3297 C   0  0  0  0  0  0  0  0  0  0  0  0
    0.8388   -5.8417   27.5264 C   0  0  0  0  0  0  0  0  0  0  0  0
   -2.0709   -7.6637   18.7817 C   0  0  0  0  0  0  0  0  0  0  0  0
   -0.5279   -8.2168   17.0717 C   0  0  0  0  0  0  0  0  0  0  0  0
    6.9694   -4.0191   27.8190 C   0  0  0  0  0  0  0  0  0  0  0  0
    5.1733   -4.5469   29.8123 C   0  0  0  0  0  0  0  0  0  0  0  0
   -1.7508  -11.3016   18.6072 C   0  0  0  0  0  0  0  0  0  0  0  0
    1.7497   -5.6771   26.4971 C   0  0  0  0  0  0  0  0  0  0  0  0
   -1.5799   -9.9322   18.3468 C   0  0  0  0  0  0  0  0  0  0  0  0
   -1.0871  -12.2214   17.8851 C   0  0  0  0  0  0  0  0  0  0  0  0
   -2.2706   -8.9669   19.0691 C   0  0  0  0  0  0  0  0  0  0  0  0
    3.0279   -5.3073   26.8197 C   0  0  0  0  0  0  0  0  0  0  0  0
    7.3282   -3.8948   29.1186 C   0  0  0  0  0  0  0  0  0  0  0  0
  1  3  4  0
  1  7  4  0
  2  3  1  0
  2  6  4  0
  2 16  4  0
  3 22  4  0
  4  9  4  0
  4 10  1  0
  4 20  4  0
  5 16  4  0
  5 23  4  0
  6 15  4  0
  7 12  4  0
  8 13  4  0
  8 14  4  0
  9 11  4  0
 11 14  4  0
 11 19  4  0
 12 18  4  0
 13 21  4  0
 15 23  4  0
 17 19  4  0
 17 20  4  0
 18 22  4  0
 19 21  4  0
M  END
$$$$

 Created by Python create_sdf_string function

 23 25  0  0  0  0  0  0  0  0999 V2000
    2.4610   -5.3070   29.1240 C   0  0  0  0  0  0  0  0  0  0  0  0
    4.7710   -4.6952   28.4803 C   0  0  0  0  0  0  0  0  0  0  0  0
    3.4047   -5.1087   28.1314 C   0  0  0  0  0  0  0  0  0  0  0  0
   -0.2234  -11.8615   16.8874 C   0  0  0  0  0  0  0  0  0  0  0  0
    6.4491   -4.1532   30.1213 C   0  0  0  0  0  0  0  0  0  0  0  0
    5.7060   -4.4340   27.4975 C   0  0  0  0  0  0  0  0  0  0  0  0
    1.1818   -5.6612   28.8399 C   0  0  0  0  0  0  0  0  0  0  0  0
   -1.2067   -7.3287   17.7772 C   0  0  0  0  0  0  0  0  0  0  0  0
   -0.0206  -10.5585   16.6210 C   0  0  0  0  0  0  0  0  0  0  0  0
    0.3696  -12.7626   16.2169 O   0  0  0  0  0  0  0  0  0  0  0  0
   -0.6895   -9.5676   17.3297 C   0  0  0  0  0  0  0  0  0  0  0  0
    0.8388   -5.8417   27.5264 C   0  0  0  0  0  0  0  0  0  0  0  0
   -2.0709   -7.6637   18.7817 C   0  0  0  0  0  0  0  0  0  0  0  0
   -0.5279   -8.2168   17.0717 C   0  0  0  0  0  0  0  0  0  0  0  0
    6.9694   -4.0191   27.8190 C   0  0  0  0  0  0  0  0  0  0  0  0
    5.1733   -4.5469   29.8123 C   0  0  0  0  0  0  0  0  0  0  0  0
   -1.7508  -11.3016   18.6072 C   0  0  0  0  0  0  0  0  0  0  0  0
    1.7497   -5.6771   26.4971 C   0  0  0  0  0  0  0  0  0  0  0  0
   -1.5799   -9.9322   18.3468 C   0  0  0  0  0  0  0  0  0  0  0  0
   -1.0871  -12.2214   17.8851 C   0  0  0  0  0  0  0  0  0  0  0  0
   -2.2706   -8.9669   19.0691 C   0  0  0  0  0  0  0  0  0  0  0  0
    3.0279   -5.3073   26.8197 C   0  0  0  0  0  0  0  0  0  0  0  0
    7.3282   -3.8948   29.1186 C   0  0  0  0  0  0  0  0  0  0  0  0
  1  3  4  0
  1  7  4  0
  2  3  1  0
  2  6  4  0
  2 16  4  0
  3 22  4  0
  4  9  4  0
  4 10  1  0
  4 20  4  0
  5 16  4  0
  5 23  4  0
  6 15  4  0
  7 12  4  0
  8 13  4  0
  8 14  4  0
  9 11  4  0
 11 14  4  0
 11 19  4  0
 12 18  4  0
 13 21  4  0
 15 23  4  0
 17 19  4  0
 17 20  4  0
 18 22  4  0
 19 21  4  0
M  END
$$$$

 Created by Python create_sdf_string function

 23 25  0  0  0  0  0  0  0  0999 V2000
    2.4610   -5.3070   29.1240 C   0  0  0  0  0  0  0  0  0  0  0  0
    4.7710   -4.6952   28.4803 C   0  0  0  0  0  0  0  0  0  0  0  0
    3.4047   -5.1087   28.1314 C   0  0  0  0  0  0  0  0  0  0  0  0
   -0.2234  -11.8615   16.8874 C   0  0  0  0  0  0  0  0  0  0  0  0
    6.4491   -4.1532   30.1213 C   0  0  0  0  0  0  0  0  0  0  0  0
    5.7060   -4.4340   27.4975 C   0  0  0  0  0  0  0  0  0  0  0  0
    1.1818   -5.6612   28.8399 C   0  0  0  0  0  0  0  0  0  0  0  0
   -1.2067   -7.3287   17.7772 C   0  0  0  0  0  0  0  0  0  0  0  0
   -0.0206  -10.5585   16.6210 C   0  0  0  0  0  0  0  0  0  0  0  0
    0.3696  -12.7626   16.2169 O   0  0  0  0  0  0  0  0  0  0  0  0
   -0.6895   -9.5676   17.3297 C   0  0  0  0  0  0  0  0  0  0  0  0
    0.8388   -5.8417   27.5264 C   0  0  0  0  0  0  0  0  0  0  0  0
   -2.0709   -7.6637   18.7817 C   0  0  0  0  0  0  0  0  0  0  0  0
   -0.5279   -8.2168   17.0717 C   0  0  0  0  0  0  0  0  0  0  0  0
    6.9694   -4.0191   27.8190 C   0  0  0  0  0  0  0  0  0  0  0  0
    5.1733   -4.5469   29.8123 C   0  0  0  0  0  0  0  0  0  0  0  0
   -1.7508  -11.3016   18.6072 C   0  0  0  0  0  0  0  0  0  0  0  0
    1.7497   -5.6771   26.4971 C   0  0  0  0  0  0  0  0  0  0  0  0
   -1.5799   -9.9322   18.3468 C   0  0  0  0  0  0  0  0  0  0  0  0
   -1.0871  -12.2214   17.8851 C   0  0  0  0  0  0  0  0  0  0  0  0
   -2.2706   -8.9669   19.0691 C   0  0  0  0  0  0  0  0  0  0  0  0
    3.0279   -5.3073   26.8197 C   0  0  0  0  0  0  0  0  0  0  0  0
    7.3282   -3.8948   29.1186 C   0  0  0  0  0  0  0  0  0  0  0  0
  1  3  4  0
  1  7  4  0
  2  3  1  0
  2  6  4  0
  2 16  4  0
  3 22  4  0
  4  9  4  0
  4 10  1  0
  4 20  4  0
  5 16  4  0
  5 23  4  0
  6 15  4  0
  7 12  4  0
  8 13  4  0
  8 14  4  0
  9 11  4  0
 11 14  4  0
 11 19  4  0
 12 18  4  0
 13 21  4  0
 15 23  4  0
 17 19  4  0
 17 20  4  0
 18 22  4  0
 19 21  4  0
M  END
$$$$

 Created by Python create_sdf_string function

 23 25  0  0  0  0  0  0  0  0999 V2000
    2.4610   -5.3070   29.1240 C   0  0  0  0  0  0  0  0  0  0  0  0
    4.7710   -4.6952   28.4803 C   0  0  0  0  0  0  0  0  0  0  0  0
    3.4047   -5.1087   28.1314 C   0  0  0  0  0  0  0  0  0  0  0  0
   -0.2234  -11.8615   16.8874 C   0  0  0  0  0  0  0  0  0  0  0  0
    6.4491   -4.1532   30.1213 C   0  0  0  0  0  0  0  0  0  0  0  0
    5.7060   -4.4340   27.4975 C   0  0  0  0  0  0  0  0  0  0  0  0
    1.1818   -5.6612   28.8399 C   0  0  0  0  0  0  0  0  0  0  0  0
   -1.2067   -7.3287   17.7772 C   0  0  0  0  0  0  0  0  0  0  0  0
   -0.0206  -10.5585   16.6210 C   0  0  0  0  0  0  0  0  0  0  0  0
    0.3696  -12.7626   16.2169 O   0  0  0  0  0  0  0  0  0  0  0  0
   -0.6895   -9.5676   17.3297 C   0  0  0  0  0  0  0  0  0  0  0  0
    0.8388   -5.8417   27.5264 C   0  0  0  0  0  0  0  0  0  0  0  0
   -2.0709   -7.6637   18.7817 C   0  0  0  0  0  0  0  0  0  0  0  0
   -0.5279   -8.2168   17.0717 C   0  0  0  0  0  0  0  0  0  0  0  0
    6.9694   -4.0191   27.8190 C   0  0  0  0  0  0  0  0  0  0  0  0
    5.1733   -4.5469   29.8123 C   0  0  0  0  0  0  0  0  0  0  0  0
   -1.7508  -11.3016   18.6072 C   0  0  0  0  0  0  0  0  0  0  0  0
    1.7497   -5.6771   26.4971 C   0  0  0  0  0  0  0  0  0  0  0  0
   -1.5799   -9.9322   18.3468 C   0  0  0  0  0  0  0  0  0  0  0  0
   -1.0871  -12.2214   17.8851 C   0  0  0  0  0  0  0  0  0  0  0  0
   -2.2706   -8.9669   19.0691 C   0  0  0  0  0  0  0  0  0  0  0  0
    3.0279   -5.3073   26.8197 C   0  0  0  0  0  0  0  0  0  0  0  0
    7.3282   -3.8948   29.1186 C   0  0  0  0  0  0  0  0  0  0  0  0
  1  3  4  0
  1  7  4  0
  2  3  1  0
  2  6  4  0
  2 16  4  0
  3 22  4  0
  4  9  4  0
  4 10  1  0
  4 20  4  0
  5 16  4  0
  5 23  4  0
  6 15  4  0
  7 12  4  0
  8 13  4  0
  8 14  4  0
  9 11  4  0
 11 14  4  0
 11 19  4  0
 12 18  4  0
 13 21  4  0
 15 23  4  0
 17 19  4  0
 17 20  4  0
 18 22  4  0
 19 21  4  0
M  END
$$$$

 Created by Python create_sdf_string function

 23 25  0  0  0  0  0  0  0  0999 V2000
    2.4610   -5.3070   29.1240 C   0  0  0  0  0  0  0  0  0  0  0  0
    4.7710   -4.6952   28.4803 C   0  0  0  0  0  0  0  0  0  0  0  0
    3.4047   -5.1087   28.1314 C   0  0  0  0  0  0  0  0  0  0  0  0
   -0.2234  -11.8615   16.8874 C   0  0  0  0  0  0  0  0  0  0  0  0
    6.4491   -4.1532   30.1213 C   0  0  0  0  0  0  0  0  0  0  0  0
    5.7060   -4.4340   27.4975 C   0  0  0  0  0  0  0  0  0  0  0  0
    1.1818   -5.6612   28.8399 C   0  0  0  0  0  0  0  0  0  0  0  0
   -1.2067   -7.3287   17.7772 C   0  0  0  0  0  0  0  0  0  0  0  0
   -0.0206  -10.5585   16.6210 C   0  0  0  0  0  0  0  0  0  0  0  0
    0.3696  -12.7626   16.2169 O   0  0  0  0  0  0  0  0  0  0  0  0
   -0.6895   -9.5676   17.3297 C   0  0  0  0  0  0  0  0  0  0  0  0
    0.8388   -5.8417   27.5264 C   0  0  0  0  0  0  0  0  0  0  0  0
   -2.0709   -7.6637   18.7817 C   0  0  0  0  0  0  0  0  0  0  0  0
   -0.5279   -8.2168   17.0717 C   0  0  0  0  0  0  0  0  0  0  0  0
    6.9694   -4.0191   27.8190 C   0  0  0  0  0  0  0  0  0  0  0  0
    5.1733   -4.5469   29.8123 C   0  0  0  0  0  0  0  0  0  0  0  0
   -1.7508  -11.3016   18.6072 C   0  0  0  0  0  0  0  0  0  0  0  0
    1.7497   -5.6771   26.4971 C   0  0  0  0  0  0  0  0  0  0  0  0
   -1.5799   -9.9322   18.3468 C   0  0  0  0  0  0  0  0  0  0  0  0
   -1.0871  -12.2214   17.8851 C   0  0  0  0  0  0  0  0  0  0  0  0
   -2.2706   -8.9669   19.0691 C   0  0  0  0  0  0  0  0  0  0  0  0
    3.0279   -5.3073   26.8197 C   0  0  0  0  0  0  0  0  0  0  0  0
    7.3282   -3.8948   29.1186 C   0  0  0  0  0  0  0  0  0  0  0  0
  1  3  4  0
  1  7  4  0
  2  3  1  0
  2  6  4  0
  2 16  4  0
  3 22  4  0
  4  9  4  0
  4 10  1  0
  4 20  4  0
  5 16  4  0
  5 23  4  0
  6 15  4  0
  7 12  4  0
  8 13  4  0
  8 14  4  0
  9 11  4  0
 11 14  4  0
 11 19  4  0
 12 18  4  0
 13 21  4  0
 15 23  4  0
 17 19  4  0
 17 20  4  0
 18 22  4  0
 19 21  4  0
M  END
$$$$

 Created by Python create_sdf_string function

 23 25  0  0  0  0  0  0  0  0999 V2000
    2.4610   -5.3070   29.1240 C   0  0  0  0  0  0  0  0  0  0  0  0
    4.7710   -4.6952   28.4803 C   0  0  0  0  0  0  0  0  0  0  0  0
    3.4047   -5.1087   28.1314 C   0  0  0  0  0  0  0  0  0  0  0  0
   -0.2234  -11.8615   16.8874 C   0  0  0  0  0  0  0  0  0  0  0  0
    6.4491   -4.1532   30.1213 C   0  0  0  0  0  0  0  0  0  0  0  0
    5.7060   -4.4340   27.4975 C   0  0  0  0  0  0  0  0  0  0  0  0
    1.1818   -5.6612   28.8399 C   0  0  0  0  0  0  0  0  0  0  0  0
   -1.2067   -7.3287   17.7772 C   0  0  0  0  0  0  0  0  0  0  0  0
   -0.0206  -10.5585   16.6210 C   0  0  0  0  0  0  0  0  0  0  0  0
    0.3696  -12.7626   16.2169 O   0  0  0  0  0  0  0  0  0  0  0  0
   -0.6895   -9.5676   17.3297 C   0  0  0  0  0  0  0  0  0  0  0  0
    0.8388   -5.8417   27.5264 C   0  0  0  0  0  0  0  0  0  0  0  0
   -2.0709   -7.6637   18.7817 C   0  0  0  0  0  0  0  0  0  0  0  0
   -0.5279   -8.2168   17.0717 C   0  0  0  0  0  0  0  0  0  0  0  0
    6.9694   -4.0191   27.8190 C   0  0  0  0  0  0  0  0  0  0  0  0
    5.1733   -4.5469   29.8123 C   0  0  0  0  0  0  0  0  0  0  0  0
   -1.7508  -11.3016   18.6072 C   0  0  0  0  0  0  0  0  0  0  0  0
    1.7497   -5.6771   26.4971 C   0  0  0  0  0  0  0  0  0  0  0  0
   -1.5799   -9.9322   18.3468 C   0  0  0  0  0  0  0  0  0  0  0  0
   -1.0871  -12.2214   17.8851 C   0  0  0  0  0  0  0  0  0  0  0  0
   -2.2706   -8.9669   19.0691 C   0  0  0  0  0  0  0  0  0  0  0  0
    3.0279   -5.3073   26.8197 C   0  0  0  0  0  0  0  0  0  0  0  0
    7.3282   -3.8948   29.1186 C   0  0  0  0  0  0  0  0  0  0  0  0
  1  3  4  0
  1  7  4  0
  2  3  1  0
  2  6  4  0
  2 16  4  0
  3 22  4  0
  4  9  4  0
  4 10  1  0
  4 20  4  0
  5 16  4  0
  5 23  4  0
  6 15  4  0
  7 12  4  0
  8 13  4  0
  8 14  4  0
  9 11  4  0
 11 14  4  0
 11 19  4  0
 12 18  4  0
 13 21  4  0
 15 23  4  0
 17 19  4  0
 17 20  4  0
 18 22  4  0
 19 21  4  0
M  END
$$$$

 Created by Python create_sdf_string function

 23 25  0  0  0  0  0  0  0  0999 V2000
    2.4610   -5.3070   29.1240 C   0  0  0  0  0  0  0  0  0  0  0  0
    4.7710   -4.6952   28.4803 C   0  0  0  0  0  0  0  0  0  0  0  0
    3.4047   -5.1087   28.1314 C   0  0  0  0  0  0  0  0  0  0  0  0
   -0.2234  -11.8615   16.8874 C   0  0  0  0  0  0  0  0  0  0  0  0
    6.4491   -4.1532   30.1213 C   0  0  0  0  0  0  0  0  0  0  0  0
    5.7060   -4.4340   27.4975 C   0  0  0  0  0  0  0  0  0  0  0  0
    1.1818   -5.6612   28.8399 C   0  0  0  0  0  0  0  0  0  0  0  0
   -1.2067   -7.3287   17.7772 C   0  0  0  0  0  0  0  0  0  0  0  0
   -0.0206  -10.5585   16.6210 C   0  0  0  0  0  0  0  0  0  0  0  0
    0.3696  -12.7626   16.2169 O   0  0  0  0  0  0  0  0  0  0  0  0
   -0.6895   -9.5676   17.3297 C   0  0  0  0  0  0  0  0  0  0  0  0
    0.8388   -5.8417   27.5264 C   0  0  0  0  0  0  0  0  0  0  0  0
   -2.0709   -7.6637   18.7817 C   0  0  0  0  0  0  0  0  0  0  0  0
   -0.5279   -8.2168   17.0717 C   0  0  0  0  0  0  0  0  0  0  0  0
    6.9694   -4.0191   27.8190 C   0  0  0  0  0  0  0  0  0  0  0  0
    5.1733   -4.5469   29.8123 C   0  0  0  0  0  0  0  0  0  0  0  0
   -1.7508  -11.3016   18.6072 C   0  0  0  0  0  0  0  0  0  0  0  0
    1.7497   -5.6771   26.4971 C   0  0  0  0  0  0  0  0  0  0  0  0
   -1.5799   -9.9322   18.3468 C   0  0  0  0  0  0  0  0  0  0  0  0
   -1.0871  -12.2214   17.8851 C   0  0  0  0  0  0  0  0  0  0  0  0
   -2.2706   -8.9669   19.0691 C   0  0  0  0  0  0  0  0  0  0  0  0
    3.0279   -5.3073   26.8197 C   0  0  0  0  0  0  0  0  0  0  0  0
    7.3282   -3.8948   29.1186 C   0  0  0  0  0  0  0  0  0  0  0  0
  1  3  4  0
  1  7  4  0
  2  3  1  0
  2  6  4  0
  2 16  4  0
  3 22  4  0
  4  9  4  0
  4 10  1  0
  4 20  4  0
  5 16  4  0
  5 23  4  0
  6 15  4  0
  7 12  4  0
  8 13  4  0
  8 14  4  0
  9 11  4  0
 11 14  4  0
 11 19  4  0
 12 18  4  0
 13 21  4  0
 15 23  4  0
 17 19  4  0
 17 20  4  0
 18 22  4  0
 19 21  4  0
M  END
$$$$

 Created by Python create_sdf_string function

 23 25  0  0  0  0  0  0  0  0999 V2000
    2.4610   -5.3070   29.1240 C   0  0  0  0  0  0  0  0  0  0  0  0
    4.7710   -4.6952   28.4803 C   0  0  0  0  0  0  0  0  0  0  0  0
    3.4047   -5.1087   28.1314 C   0  0  0  0  0  0  0  0  0  0  0  0
   -0.2234  -11.8615   16.8874 C   0  0  0  0  0  0  0  0  0  0  0  0
    6.4491   -4.1532   30.1213 C   0  0  0  0  0  0  0  0  0  0  0  0
    5.7060   -4.4340   27.4975 C   0  0  0  0  0  0  0  0  0  0  0  0
    1.1818   -5.6612   28.8399 C   0  0  0  0  0  0  0  0  0  0  0  0
   -1.2067   -7.3287   17.7772 C   0  0  0  0  0  0  0  0  0  0  0  0
   -0.0206  -10.5585   16.6210 C   0  0  0  0  0  0  0  0  0  0  0  0
    0.3696  -12.7626   16.2169 O   0  0  0  0  0  0  0  0  0  0  0  0
   -0.6895   -9.5676   17.3297 C   0  0  0  0  0  0  0  0  0  0  0  0
    0.8388   -5.8417   27.5264 C   0  0  0  0  0  0  0  0  0  0  0  0
   -2.0709   -7.6637   18.7817 C   0  0  0  0  0  0  0  0  0  0  0  0
   -0.5279   -8.2168   17.0717 C   0  0  0  0  0  0  0  0  0  0  0  0
    6.9694   -4.0191   27.8190 C   0  0  0  0  0  0  0  0  0  0  0  0
    5.1733   -4.5469   29.8123 C   0  0  0  0  0  0  0  0  0  0  0  0
   -1.7508  -11.3016   18.6072 C   0  0  0  0  0  0  0  0  0  0  0  0
    1.7497   -5.6771   26.4971 C   0  0  0  0  0  0  0  0  0  0  0  0
   -1.5799   -9.9322   18.3468 C   0  0  0  0  0  0  0  0  0  0  0  0
   -1.0871  -12.2214   17.8851 C   0  0  0  0  0  0  0  0  0  0  0  0
   -2.2706   -8.9669   19.0691 C   0  0  0  0  0  0  0  0  0  0  0  0
    3.0279   -5.3073   26.8197 C   0  0  0  0  0  0  0  0  0  0  0  0
    7.3282   -3.8948   29.1186 C   0  0  0  0  0  0  0  0  0  0  0  0
  1  3  4  0
  1  7  4  0
  2  3  1  0
  2  6  4  0
  2 16  4  0
  3 22  4  0
  4  9  4  0
  4 10  1  0
  4 20  4  0
  5 16  4  0
  5 23  4  0
  6 15  4  0
  7 12  4  0
  8 13  4  0
  8 14  4  0
  9 11  4  0
 11 14  4  0
 11 19  4  0
 12 18  4  0
 13 21  4  0
 15 23  4  0
 17 19  4  0
 17 20  4  0
 18 22  4  0
 19 21  4  0
M  END
$$$$

 Created by Python create_sdf_string function

 23 25  0  0  0  0  0  0  0  0999 V2000
    2.4610   -5.3070   29.1240 C   0  0  0  0  0  0  0  0  0  0  0  0
    4.7710   -4.6952   28.4803 C   0  0  0  0  0  0  0  0  0  0  0  0
    3.4047   -5.1087   28.1314 C   0  0  0  0  0  0  0  0  0  0  0  0
   -0.2234  -11.8615   16.8874 C   0  0  0  0  0  0  0  0  0  0  0  0
    6.4491   -4.1532   30.1213 C   0  0  0  0  0  0  0  0  0  0  0  0
    5.7060   -4.4340   27.4975 C   0  0  0  0  0  0  0  0  0  0  0  0
    1.1818   -5.6612   28.8399 C   0  0  0  0  0  0  0  0  0  0  0  0
   -1.2067   -7.3287   17.7772 C   0  0  0  0  0  0  0  0  0  0  0  0
   -0.0206  -10.5585   16.6210 C   0  0  0  0  0  0  0  0  0  0  0  0
    0.3696  -12.7626   16.2169 O   0  0  0  0  0  0  0  0  0  0  0  0
   -0.6895   -9.5676   17.3297 C   0  0  0  0  0  0  0  0  0  0  0  0
    0.8388   -5.8417   27.5264 C   0  0  0  0  0  0  0  0  0  0  0  0
   -2.0709   -7.6637   18.7817 C   0  0  0  0  0  0  0  0  0  0  0  0
   -0.5279   -8.2168   17.0717 C   0  0  0  0  0  0  0  0  0  0  0  0
    6.9694   -4.0191   27.8190 C   0  0  0  0  0  0  0  0  0  0  0  0
    5.1733   -4.5469   29.8123 C   0  0  0  0  0  0  0  0  0  0  0  0
   -1.7508  -11.3016   18.6072 C   0  0  0  0  0  0  0  0  0  0  0  0
    1.7497   -5.6771   26.4971 C   0  0  0  0  0  0  0  0  0  0  0  0
   -1.5799   -9.9322   18.3468 C   0  0  0  0  0  0  0  0  0  0  0  0
   -1.0871  -12.2214   17.8851 C   0  0  0  0  0  0  0  0  0  0  0  0
   -2.2706   -8.9669   19.0691 C   0  0  0  0  0  0  0  0  0  0  0  0
    3.0279   -5.3073   26.8197 C   0  0  0  0  0  0  0  0  0  0  0  0
    7.3282   -3.8948   29.1186 C   0  0  0  0  0  0  0  0  0  0  0  0
  1  3  4  0
  1  7  4  0
  2  3  1  0
  2  6  4  0
  2 16  4  0
  3 22  4  0
  4  9  4  0
  4 10  1  0
  4 20  4  0
  5 16  4  0
  5 23  4  0
  6 15  4  0
  7 12  4  0
  8 13  4  0
  8 14  4  0
  9 11  4  0
 11 14  4  0
 11 19  4  0
 12 18  4  0
 13 21  4  0
 15 23  4  0
 17 19  4  0
 17 20  4  0
 18 22  4  0
 19 21  4  0
M  END
$$$$

 Created by Python create_sdf_string function

 23 25  0  0  0  0  0  0  0  0999 V2000
    2.4610   -5.3070   29.1240 C   0  0  0  0  0  0  0  0  0  0  0  0
    4.7710   -4.6952   28.4803 C   0  0  0  0  0  0  0  0  0  0  0  0
    3.4047   -5.1087   28.1314 C   0  0  0  0  0  0  0  0  0  0  0  0
   -0.2234  -11.8615   16.8874 C   0  0  0  0  0  0  0  0  0  0  0  0
    6.4491   -4.1532   30.1213 C   0  0  0  0  0  0  0  0  0  0  0  0
    5.7060   -4.4340   27.4975 C   0  0  0  0  0  0  0  0  0  0  0  0
    1.1818   -5.6612   28.8399 C   0  0  0  0  0  0  0  0  0  0  0  0
   -1.2067   -7.3287   17.7772 C   0  0  0  0  0  0  0  0  0  0  0  0
   -0.0206  -10.5585   16.6210 C   0  0  0  0  0  0  0  0  0  0  0  0
    0.3696  -12.7626   16.2169 O   0  0  0  0  0  0  0  0  0  0  0  0
   -0.6895   -9.5676   17.3297 C   0  0  0  0  0  0  0  0  0  0  0  0
    0.8388   -5.8417   27.5264 C   0  0  0  0  0  0  0  0  0  0  0  0
   -2.0709   -7.6637   18.7817 C   0  0  0  0  0  0  0  0  0  0  0  0
   -0.5279   -8.2168   17.0717 C   0  0  0  0  0  0  0  0  0  0  0  0
    6.9694   -4.0191   27.8190 C   0  0  0  0  0  0  0  0  0  0  0  0
    5.1733   -4.5469   29.8123 C   0  0  0  0  0  0  0  0  0  0  0  0
   -1.7508  -11.3016   18.6072 C   0  0  0  0  0  0  0  0  0  0  0  0
    1.7497   -5.6771   26.4971 C   0  0  0  0  0  0  0  0  0  0  0  0
   -1.5799   -9.9322   18.3468 C   0  0  0  0  0  0  0  0  0  0  0  0
   -1.0871  -12.2214   17.8851 C   0  0  0  0  0  0  0  0  0  0  0  0
   -2.2706   -8.9669   19.0691 C   0  0  0  0  0  0  0  0  0  0  0  0
    3.0279   -5.3073   26.8197 C   0  0  0  0  0  0  0  0  0  0  0  0
    7.3282   -3.8948   29.1186 C   0  0  0  0  0  0  0  0  0  0  0  0
  1  3  4  0
  1  7  4  0
  2  3  1  0
  2  6  4  0
  2 16  4  0
  3 22  4  0
  4  9  4  0
  4 10  1  0
  4 20  4  0
  5 16  4  0
  5 23  4  0
  6 15  4  0
  7 12  4  0
  8 13  4  0
  8 14  4  0
  9 11  4  0
 11 14  4  0
 11 19  4  0
 12 18  4  0
 13 21  4  0
 15 23  4  0
 17 19  4  0
 17 20  4  0
 18 22  4  0
 19 21  4  0
M  END
$$$$

 Created by Python create_sdf_string function

 23 25  0  0  0  0  0  0  0  0999 V2000
    2.4610   -5.3070   29.1240 C   0  0  0  0  0  0  0  0  0  0  0  0
    4.7710   -4.6952   28.4803 C   0  0  0  0  0  0  0  0  0  0  0  0
    3.4047   -5.1087   28.1314 C   0  0  0  0  0  0  0  0  0  0  0  0
   -0.2234  -11.8615   16.8874 C   0  0  0  0  0  0  0  0  0  0  0  0
    6.4491   -4.1532   30.1213 C   0  0  0  0  0  0  0  0  0  0  0  0
    5.7060   -4.4340   27.4975 C   0  0  0  0  0  0  0  0  0  0  0  0
    1.1818   -5.6612   28.8399 C   0  0  0  0  0  0  0  0  0  0  0  0
   -1.2067   -7.3287   17.7772 C   0  0  0  0  0  0  0  0  0  0  0  0
   -0.0206  -10.5585   16.6210 C   0  0  0  0  0  0  0  0  0  0  0  0
    0.3696  -12.7626   16.2169 O   0  0  0  0  0  0  0  0  0  0  0  0
   -0.6895   -9.5676   17.3297 C   0  0  0  0  0  0  0  0  0  0  0  0
    0.8388   -5.8417   27.5264 C   0  0  0  0  0  0  0  0  0  0  0  0
   -2.0709   -7.6637   18.7817 C   0  0  0  0  0  0  0  0  0  0  0  0
   -0.5279   -8.2168   17.0717 C   0  0  0  0  0  0  0  0  0  0  0  0
    6.9694   -4.0191   27.8190 C   0  0  0  0  0  0  0  0  0  0  0  0
    5.1733   -4.5469   29.8123 C   0  0  0  0  0  0  0  0  0  0  0  0
   -1.7508  -11.3016   18.6072 C   0  0  0  0  0  0  0  0  0  0  0  0
    1.7497   -5.6771   26.4971 C   0  0  0  0  0  0  0  0  0  0  0  0
   -1.5799   -9.9322   18.3468 C   0  0  0  0  0  0  0  0  0  0  0  0
   -1.0871  -12.2214   17.8851 C   0  0  0  0  0  0  0  0  0  0  0  0
   -2.2706   -8.9669   19.0691 C   0  0  0  0  0  0  0  0  0  0  0  0
    3.0279   -5.3073   26.8197 C   0  0  0  0  0  0  0  0  0  0  0  0
    7.3282   -3.8948   29.1186 C   0  0  0  0  0  0  0  0  0  0  0  0
  1  3  4  0
  1  7  4  0
  2  3  1  0
  2  6  4  0
  2 16  4  0
  3 22  4  0
  4  9  4  0
  4 10  1  0
  4 20  4  0
  5 16  4  0
  5 23  4  0
  6 15  4  0
  7 12  4  0
  8 13  4  0
  8 14  4  0
  9 11  4  0
 11 14  4  0
 11 19  4  0
 12 18  4  0
 13 21  4  0
 15 23  4  0
 17 19  4  0
 17 20  4  0
 18 22  4  0
 19 21  4  0
M  END
$$$$

 Created by Python create_sdf_string function

 23 25  0  0  0  0  0  0  0  0999 V2000
    2.4610   -5.3070   29.1240 C   0  0  0  0  0  0  0  0  0  0  0  0
    4.7710   -4.6952   28.4803 C   0  0  0  0  0  0  0  0  0  0  0  0
    3.4047   -5.1087   28.1314 C   0  0  0  0  0  0  0  0  0  0  0  0
   -0.2234  -11.8615   16.8874 C   0  0  0  0  0  0  0  0  0  0  0  0
    6.4491   -4.1532   30.1213 C   0  0  0  0  0  0  0  0  0  0  0  0
    5.7060   -4.4340   27.4975 C   0  0  0  0  0  0  0  0  0  0  0  0
    1.1818   -5.6612   28.8399 C   0  0  0  0  0  0  0  0  0  0  0  0
   -1.2067   -7.3287   17.7772 C   0  0  0  0  0  0  0  0  0  0  0  0
   -0.0206  -10.5585   16.6210 C   0  0  0  0  0  0  0  0  0  0  0  0
    0.3696  -12.7626   16.2169 O   0  0  0  0  0  0  0  0  0  0  0  0
   -0.6895   -9.5676   17.3297 C   0  0  0  0  0  0  0  0  0  0  0  0
    0.8388   -5.8417   27.5264 C   0  0  0  0  0  0  0  0  0  0  0  0
   -2.0709   -7.6637   18.7817 C   0  0  0  0  0  0  0  0  0  0  0  0
   -0.5279   -8.2168   17.0717 C   0  0  0  0  0  0  0  0  0  0  0  0
    6.9694   -4.0191   27.8190 C   0  0  0  0  0  0  0  0  0  0  0  0
    5.1733   -4.5469   29.8123 C   0  0  0  0  0  0  0  0  0  0  0  0
   -1.7508  -11.3016   18.6072 C   0  0  0  0  0  0  0  0  0  0  0  0
    1.7497   -5.6771   26.4971 C   0  0  0  0  0  0  0  0  0  0  0  0
   -1.5799   -9.9322   18.3468 C   0  0  0  0  0  0  0  0  0  0  0  0
   -1.0871  -12.2214   17.8851 C   0  0  0  0  0  0  0  0  0  0  0  0
   -2.2706   -8.9669   19.0691 C   0  0  0  0  0  0  0  0  0  0  0  0
    3.0279   -5.3073   26.8197 C   0  0  0  0  0  0  0  0  0  0  0  0
    7.3282   -3.8948   29.1186 C   0  0  0  0  0  0  0  0  0  0  0  0
  1  3  4  0
  1  7  4  0
  2  3  1  0
  2  6  4  0
  2 16  4  0
  3 22  4  0
  4  9  4  0
  4 10  1  0
  4 20  4  0
  5 16  4  0
  5 23  4  0
  6 15  4  0
  7 12  4  0
  8 13  4  0
  8 14  4  0
  9 11  4  0
 11 14  4  0
 11 19  4  0
 12 18  4  0
 13 21  4  0
 15 23  4  0
 17 19  4  0
 17 20  4  0
 18 22  4  0
 19 21  4  0
M  END
$$$$

 Created by Python create_sdf_string function

 23 25  0  0  0  0  0  0  0  0999 V2000
    2.4610   -5.3070   29.1240 C   0  0  0  0  0  0  0  0  0  0  0  0
    4.7710   -4.6952   28.4803 C   0  0  0  0  0  0  0  0  0  0  0  0
    3.4047   -5.1087   28.1314 C   0  0  0  0  0  0  0  0  0  0  0  0
   -0.2234  -11.8615   16.8874 C   0  0  0  0  0  0  0  0  0  0  0  0
    6.4491   -4.1532   30.1213 C   0  0  0  0  0  0  0  0  0  0  0  0
    5.7060   -4.4340   27.4975 C   0  0  0  0  0  0  0  0  0  0  0  0
    1.1818   -5.6612   28.8399 C   0  0  0  0  0  0  0  0  0  0  0  0
   -1.2067   -7.3287   17.7772 C   0  0  0  0  0  0  0  0  0  0  0  0
   -0.0206  -10.5585   16.6210 C   0  0  0  0  0  0  0  0  0  0  0  0
    0.3696  -12.7626   16.2169 O   0  0  0  0  0  0  0  0  0  0  0  0
   -0.6895   -9.5676   17.3297 C   0  0  0  0  0  0  0  0  0  0  0  0
    0.8388   -5.8417   27.5264 C   0  0  0  0  0  0  0  0  0  0  0  0
   -2.0709   -7.6637   18.7817 C   0  0  0  0  0  0  0  0  0  0  0  0
   -0.5279   -8.2168   17.0717 C   0  0  0  0  0  0  0  0  0  0  0  0
    6.9694   -4.0191   27.8190 C   0  0  0  0  0  0  0  0  0  0  0  0
    5.1733   -4.5469   29.8123 C   0  0  0  0  0  0  0  0  0  0  0  0
   -1.7508  -11.3016   18.6072 C   0  0  0  0  0  0  0  0  0  0  0  0
    1.7497   -5.6771   26.4971 C   0  0  0  0  0  0  0  0  0  0  0  0
   -1.5799   -9.9322   18.3468 C   0  0  0  0  0  0  0  0  0  0  0  0
   -1.0871  -12.2214   17.8851 C   0  0  0  0  0  0  0  0  0  0  0  0
   -2.2706   -8.9669   19.0691 C   0  0  0  0  0  0  0  0  0  0  0  0
    3.0279   -5.3073   26.8197 C   0  0  0  0  0  0  0  0  0  0  0  0
    7.3282   -3.8948   29.1186 C   0  0  0  0  0  0  0  0  0  0  0  0
  1  3  4  0
  1  7  4  0
  2  3  1  0
  2  6  4  0
  2 16  4  0
  3 22  4  0
  4  9  4  0
  4 10  1  0
  4 20  4  0
  5 16  4  0
  5 23  4  0
  6 15  4  0
  7 12  4  0
  8 13  4  0
  8 14  4  0
  9 11  4  0
 11 14  4  0
 11 19  4  0
 12 18  4  0
 13 21  4  0
 15 23  4  0
 17 19  4  0
 17 20  4  0
 18 22  4  0
 19 21  4  0
M  END
$$$$

 Created by Python create_sdf_string function

 23 25  0  0  0  0  0  0  0  0999 V2000
    2.4610   -5.3070   29.1240 C   0  0  0  0  0  0  0  0  0  0  0  0
    4.7710   -4.6952   28.4803 C   0  0  0  0  0  0  0  0  0  0  0  0
    3.4047   -5.1087   28.1314 C   0  0  0  0  0  0  0  0  0  0  0  0
   -0.2234  -11.8615   16.8874 C   0  0  0  0  0  0  0  0  0  0  0  0
    6.4491   -4.1532   30.1213 C   0  0  0  0  0  0  0  0  0  0  0  0
    5.7060   -4.4340   27.4975 C   0  0  0  0  0  0  0  0  0  0  0  0
    1.1818   -5.6612   28.8399 C   0  0  0  0  0  0  0  0  0  0  0  0
   -1.2067   -7.3287   17.7772 C   0  0  0  0  0  0  0  0  0  0  0  0
   -0.0206  -10.5585   16.6210 C   0  0  0  0  0  0  0  0  0  0  0  0
    0.3696  -12.7626   16.2169 O   0  0  0  0  0  0  0  0  0  0  0  0
   -0.6895   -9.5676   17.3297 C   0  0  0  0  0  0  0  0  0  0  0  0
    0.8388   -5.8417   27.5264 C   0  0  0  0  0  0  0  0  0  0  0  0
   -2.0709   -7.6637   18.7817 C   0  0  0  0  0  0  0  0  0  0  0  0
   -0.5279   -8.2168   17.0717 C   0  0  0  0  0  0  0  0  0  0  0  0
    6.9694   -4.0191   27.8190 C   0  0  0  0  0  0  0  0  0  0  0  0
    5.1733   -4.5469   29.8123 C   0  0  0  0  0  0  0  0  0  0  0  0
   -1.7508  -11.3016   18.6072 C   0  0  0  0  0  0  0  0  0  0  0  0
    1.7497   -5.6771   26.4971 C   0  0  0  0  0  0  0  0  0  0  0  0
   -1.5799   -9.9322   18.3468 C   0  0  0  0  0  0  0  0  0  0  0  0
   -1.0871  -12.2214   17.8851 C   0  0  0  0  0  0  0  0  0  0  0  0
   -2.2706   -8.9669   19.0691 C   0  0  0  0  0  0  0  0  0  0  0  0
    3.0279   -5.3073   26.8197 C   0  0  0  0  0  0  0  0  0  0  0  0
    7.3282   -3.8948   29.1186 C   0  0  0  0  0  0  0  0  0  0  0  0
  1  3  4  0
  1  7  4  0
  2  3  1  0
  2  6  4  0
  2 16  4  0
  3 22  4  0
  4  9  4  0
  4 10  1  0
  4 20  4  0
  5 16  4  0
  5 23  4  0
  6 15  4  0
  7 12  4  0
  8 13  4  0
  8 14  4  0
  9 11  4  0
 11 14  4  0
 11 19  4  0
 12 18  4  0
 13 21  4  0
 15 23  4  0
 17 19  4  0
 17 20  4  0
 18 22  4  0
 19 21  4  0
M  END
$$$$

 Created by Python create_sdf_string function

 23 25  0  0  0  0  0  0  0  0999 V2000
    2.4610   -5.3070   29.1240 C   0  0  0  0  0  0  0  0  0  0  0  0
    4.7710   -4.6952   28.4803 C   0  0  0  0  0  0  0  0  0  0  0  0
    3.4047   -5.1087   28.1314 C   0  0  0  0  0  0  0  0  0  0  0  0
   -0.2234  -11.8615   16.8874 C   0  0  0  0  0  0  0  0  0  0  0  0
    6.4491   -4.1532   30.1213 C   0  0  0  0  0  0  0  0  0  0  0  0
    5.7060   -4.4340   27.4975 C   0  0  0  0  0  0  0  0  0  0  0  0
    1.1818   -5.6612   28.8399 C   0  0  0  0  0  0  0  0  0  0  0  0
   -1.2067   -7.3287   17.7772 C   0  0  0  0  0  0  0  0  0  0  0  0
   -0.0206  -10.5585   16.6210 C   0  0  0  0  0  0  0  0  0  0  0  0
    0.3696  -12.7626   16.2169 O   0  0  0  0  0  0  0  0  0  0  0  0
   -0.6895   -9.5676   17.3297 C   0  0  0  0  0  0  0  0  0  0  0  0
    0.8388   -5.8417   27.5264 C   0  0  0  0  0  0  0  0  0  0  0  0
   -2.0709   -7.6637   18.7817 C   0  0  0  0  0  0  0  0  0  0  0  0
   -0.5279   -8.2168   17.0717 C   0  0  0  0  0  0  0  0  0  0  0  0
    6.9694   -4.0191   27.8190 C   0  0  0  0  0  0  0  0  0  0  0  0
    5.1733   -4.5469   29.8123 C   0  0  0  0  0  0  0  0  0  0  0  0
   -1.7508  -11.3016   18.6072 C   0  0  0  0  0  0  0  0  0  0  0  0
    1.7497   -5.6771   26.4971 C   0  0  0  0  0  0  0  0  0  0  0  0
   -1.5799   -9.9322   18.3468 C   0  0  0  0  0  0  0  0  0  0  0  0
   -1.0871  -12.2214   17.8851 C   0  0  0  0  0  0  0  0  0  0  0  0
   -2.2706   -8.9669   19.0691 C   0  0  0  0  0  0  0  0  0  0  0  0
    3.0279   -5.3073   26.8197 C   0  0  0  0  0  0  0  0  0  0  0  0
    7.3282   -3.8948   29.1186 C   0  0  0  0  0  0  0  0  0  0  0  0
  1  3  4  0
  1  7  4  0
  2  3  1  0
  2  6  4  0
  2 16  4  0
  3 22  4  0
  4  9  4  0
  4 10  1  0
  4 20  4  0
  5 16  4  0
  5 23  4  0
  6 15  4  0
  7 12  4  0
  8 13  4  0
  8 14  4  0
  9 11  4  0
 11 14  4  0
 11 19  4  0
 12 18  4  0
 13 21  4  0
 15 23  4  0
 17 19  4  0
 17 20  4  0
 18 22  4  0
 19 21  4  0
M  END
$$$$

 Created by Python create_sdf_string function

 23 25  0  0  0  0  0  0  0  0999 V2000
    2.4610   -5.3070   29.1240 C   0  0  0  0  0  0  0  0  0  0  0  0
    4.7710   -4.6952   28.4803 C   0  0  0  0  0  0  0  0  0  0  0  0
    3.4047   -5.1087   28.1314 C   0  0  0  0  0  0  0  0  0  0  0  0
   -0.2234  -11.8615   16.8874 C   0  0  0  0  0  0  0  0  0  0  0  0
    6.4491   -4.1532   30.1213 C   0  0  0  0  0  0  0  0  0  0  0  0
    5.7060   -4.4340   27.4975 C   0  0  0  0  0  0  0  0  0  0  0  0
    1.1818   -5.6612   28.8399 C   0  0  0  0  0  0  0  0  0  0  0  0
   -1.2067   -7.3287   17.7772 C   0  0  0  0  0  0  0  0  0  0  0  0
   -0.0206  -10.5585   16.6210 C   0  0  0  0  0  0  0  0  0  0  0  0
    0.3696  -12.7626   16.2169 O   0  0  0  0  0  0  0  0  0  0  0  0
   -0.6895   -9.5676   17.3297 C   0  0  0  0  0  0  0  0  0  0  0  0
    0.8388   -5.8417   27.5264 C   0  0  0  0  0  0  0  0  0  0  0  0
   -2.0709   -7.6637   18.7817 C   0  0  0  0  0  0  0  0  0  0  0  0
   -0.5279   -8.2168   17.0717 C   0  0  0  0  0  0  0  0  0  0  0  0
    6.9694   -4.0191   27.8190 C   0  0  0  0  0  0  0  0  0  0  0  0
    5.1733   -4.5469   29.8123 C   0  0  0  0  0  0  0  0  0  0  0  0
   -1.7508  -11.3016   18.6072 C   0  0  0  0  0  0  0  0  0  0  0  0
    1.7497   -5.6771   26.4971 C   0  0  0  0  0  0  0  0  0  0  0  0
   -1.5799   -9.9322   18.3468 C   0  0  0  0  0  0  0  0  0  0  0  0
   -1.0871  -12.2214   17.8851 C   0  0  0  0  0  0  0  0  0  0  0  0
   -2.2706   -8.9669   19.0691 C   0  0  0  0  0  0  0  0  0  0  0  0
    3.0279   -5.3073   26.8197 C   0  0  0  0  0  0  0  0  0  0  0  0
    7.3282   -3.8948   29.1186 C   0  0  0  0  0  0  0  0  0  0  0  0
  1  3  4  0
  1  7  4  0
  2  3  1  0
  2  6  4  0
  2 16  4  0
  3 22  4  0
  4  9  4  0
  4 10  1  0
  4 20  4  0
  5 16  4  0
  5 23  4  0
  6 15  4  0
  7 12  4  0
  8 13  4  0
  8 14  4  0
  9 11  4  0
 11 14  4  0
 11 19  4  0
 12 18  4  0
 13 21  4  0
 15 23  4  0
 17 19  4  0
 17 20  4  0
 18 22  4  0
 19 21  4  0
M  END
$$$$

 Created by Python create_sdf_string function

 23 25  0  0  0  0  0  0  0  0999 V2000
    2.4610   -5.3070   29.1240 C   0  0  0  0  0  0  0  0  0  0  0  0
    4.7710   -4.6952   28.4803 C   0  0  0  0  0  0  0  0  0  0  0  0
    3.4047   -5.1087   28.1314 C   0  0  0  0  0  0  0  0  0  0  0  0
   -0.2234  -11.8615   16.8874 C   0  0  0  0  0  0  0  0  0  0  0  0
    6.4491   -4.1532   30.1213 C   0  0  0  0  0  0  0  0  0  0  0  0
    5.7060   -4.4340   27.4975 C   0  0  0  0  0  0  0  0  0  0  0  0
    1.1818   -5.6612   28.8399 C   0  0  0  0  0  0  0  0  0  0  0  0
   -1.2067   -7.3287   17.7772 C   0  0  0  0  0  0  0  0  0  0  0  0
   -0.0206  -10.5585   16.6210 C   0  0  0  0  0  0  0  0  0  0  0  0
    0.3696  -12.7626   16.2169 O   0  0  0  0  0  0  0  0  0  0  0  0
   -0.6895   -9.5676   17.3297 C   0  0  0  0  0  0  0  0  0  0  0  0
    0.8388   -5.8417   27.5264 C   0  0  0  0  0  0  0  0  0  0  0  0
   -2.0709   -7.6637   18.7817 C   0  0  0  0  0  0  0  0  0  0  0  0
   -0.5279   -8.2168   17.0717 C   0  0  0  0  0  0  0  0  0  0  0  0
    6.9694   -4.0191   27.8190 C   0  0  0  0  0  0  0  0  0  0  0  0
    5.1733   -4.5469   29.8123 C   0  0  0  0  0  0  0  0  0  0  0  0
   -1.7508  -11.3016   18.6072 C   0  0  0  0  0  0  0  0  0  0  0  0
    1.7497   -5.6771   26.4971 C   0  0  0  0  0  0  0  0  0  0  0  0
   -1.5799   -9.9322   18.3468 C   0  0  0  0  0  0  0  0  0  0  0  0
   -1.0871  -12.2214   17.8851 C   0  0  0  0  0  0  0  0  0  0  0  0
   -2.2706   -8.9669   19.0691 C   0  0  0  0  0  0  0  0  0  0  0  0
    3.0279   -5.3073   26.8197 C   0  0  0  0  0  0  0  0  0  0  0  0
    7.3282   -3.8948   29.1186 C   0  0  0  0  0  0  0  0  0  0  0  0
  1  3  4  0
  1  7  4  0
  2  3  1  0
  2  6  4  0
  2 16  4  0
  3 22  4  0
  4  9  4  0
  4 10  1  0
  4 20  4  0
  5 16  4  0
  5 23  4  0
  6 15  4  0
  7 12  4  0
  8 13  4  0
  8 14  4  0
  9 11  4  0
 11 14  4  0
 11 19  4  0
 12 18  4  0
 13 21  4  0
 15 23  4  0
 17 19  4  0
 17 20  4  0
 18 22  4  0
 19 21  4  0
M  END
$$$$

 Created by Python create_sdf_string function

 23 25  0  0  0  0  0  0  0  0999 V2000
    2.4610   -5.3070   29.1240 C   0  0  0  0  0  0  0  0  0  0  0  0
    4.7710   -4.6952   28.4803 C   0  0  0  0  0  0  0  0  0  0  0  0
    3.4047   -5.1087   28.1314 C   0  0  0  0  0  0  0  0  0  0  0  0
   -0.2234  -11.8615   16.8874 C   0  0  0  0  0  0  0  0  0  0  0  0
    6.4491   -4.1532   30.1213 C   0  0  0  0  0  0  0  0  0  0  0  0
    5.7060   -4.4340   27.4975 C   0  0  0  0  0  0  0  0  0  0  0  0
    1.1818   -5.6612   28.8399 C   0  0  0  0  0  0  0  0  0  0  0  0
   -1.2067   -7.3287   17.7772 C   0  0  0  0  0  0  0  0  0  0  0  0
   -0.0206  -10.5585   16.6210 C   0  0  0  0  0  0  0  0  0  0  0  0
    0.3696  -12.7626   16.2169 O   0  0  0  0  0  0  0  0  0  0  0  0
   -0.6895   -9.5676   17.3297 C   0  0  0  0  0  0  0  0  0  0  0  0
    0.8388   -5.8417   27.5264 C   0  0  0  0  0  0  0  0  0  0  0  0
   -2.0709   -7.6637   18.7817 C   0  0  0  0  0  0  0  0  0  0  0  0
   -0.5279   -8.2168   17.0717 C   0  0  0  0  0  0  0  0  0  0  0  0
    6.9694   -4.0191   27.8190 C   0  0  0  0  0  0  0  0  0  0  0  0
    5.1733   -4.5469   29.8123 C   0  0  0  0  0  0  0  0  0  0  0  0
   -1.7508  -11.3016   18.6072 C   0  0  0  0  0  0  0  0  0  0  0  0
    1.7497   -5.6771   26.4971 C   0  0  0  0  0  0  0  0  0  0  0  0
   -1.5799   -9.9322   18.3468 C   0  0  0  0  0  0  0  0  0  0  0  0
   -1.0871  -12.2214   17.8851 C   0  0  0  0  0  0  0  0  0  0  0  0
   -2.2706   -8.9669   19.0691 C   0  0  0  0  0  0  0  0  0  0  0  0
    3.0279   -5.3073   26.8197 C   0  0  0  0  0  0  0  0  0  0  0  0
    7.3282   -3.8948   29.1186 C   0  0  0  0  0  0  0  0  0  0  0  0
  1  3  4  0
  1  7  4  0
  2  3  1  0
  2  6  4  0
  2 16  4  0
  3 22  4  0
  4  9  4  0
  4 10  1  0
  4 20  4  0
  5 16  4  0
  5 23  4  0
  6 15  4  0
  7 12  4  0
  8 13  4  0
  8 14  4  0
  9 11  4  0
 11 14  4  0
 11 19  4  0
 12 18  4  0
 13 21  4  0
 15 23  4  0
 17 19  4  0
 17 20  4  0
 18 22  4  0
 19 21  4  0
M  END
$$$$

 Created by Python create_sdf_string function

 23 25  0  0  0  0  0  0  0  0999 V2000
    2.4610   -5.3070   29.1240 C   0  0  0  0  0  0  0  0  0  0  0  0
    4.7710   -4.6952   28.4803 C   0  0  0  0  0  0  0  0  0  0  0  0
    3.4047   -5.1087   28.1314 C   0  0  0  0  0  0  0  0  0  0  0  0
   -0.2234  -11.8615   16.8874 C   0  0  0  0  0  0  0  0  0  0  0  0
    6.4491   -4.1532   30.1213 C   0  0  0  0  0  0  0  0  0  0  0  0
    5.7060   -4.4340   27.4975 C   0  0  0  0  0  0  0  0  0  0  0  0
    1.1818   -5.6612   28.8399 C   0  0  0  0  0  0  0  0  0  0  0  0
   -1.2067   -7.3287   17.7772 C   0  0  0  0  0  0  0  0  0  0  0  0
   -0.0206  -10.5585   16.6210 C   0  0  0  0  0  0  0  0  0  0  0  0
    0.3696  -12.7626   16.2169 O   0  0  0  0  0  0  0  0  0  0  0  0
   -0.6895   -9.5676   17.3297 C   0  0  0  0  0  0  0  0  0  0  0  0
    0.8388   -5.8417   27.5264 C   0  0  0  0  0  0  0  0  0  0  0  0
   -2.0709   -7.6637   18.7817 C   0  0  0  0  0  0  0  0  0  0  0  0
   -0.5279   -8.2168   17.0717 C   0  0  0  0  0  0  0  0  0  0  0  0
    6.9694   -4.0191   27.8190 C   0  0  0  0  0  0  0  0  0  0  0  0
    5.1733   -4.5469   29.8123 C   0  0  0  0  0  0  0  0  0  0  0  0
   -1.7508  -11.3016   18.6072 C   0  0  0  0  0  0  0  0  0  0  0  0
    1.7497   -5.6771   26.4971 C   0  0  0  0  0  0  0  0  0  0  0  0
   -1.5799   -9.9322   18.3468 C   0  0  0  0  0  0  0  0  0  0  0  0
   -1.0871  -12.2214   17.8851 C   0  0  0  0  0  0  0  0  0  0  0  0
   -2.2706   -8.9669   19.0691 C   0  0  0  0  0  0  0  0  0  0  0  0
    3.0279   -5.3073   26.8197 C   0  0  0  0  0  0  0  0  0  0  0  0
    7.3282   -3.8948   29.1186 C   0  0  0  0  0  0  0  0  0  0  0  0
  1  3  4  0
  1  7  4  0
  2  3  1  0
  2  6  4  0
  2 16  4  0
  3 22  4  0
  4  9  4  0
  4 10  1  0
  4 20  4  0
  5 16  4  0
  5 23  4  0
  6 15  4  0
  7 12  4  0
  8 13  4  0
  8 14  4  0
  9 11  4  0
 11 14  4  0
 11 19  4  0
 12 18  4  0
 13 21  4  0
 15 23  4  0
 17 19  4  0
 17 20  4  0
 18 22  4  0
 19 21  4  0
M  END
$$$$

 Created by Python create_sdf_string function

 23 25  0  0  0  0  0  0  0  0999 V2000
    2.4610   -5.3070   29.1240 C   0  0  0  0  0  0  0  0  0  0  0  0
    4.7710   -4.6952   28.4803 C   0  0  0  0  0  0  0  0  0  0  0  0
    3.4047   -5.1087   28.1314 C   0  0  0  0  0  0  0  0  0  0  0  0
   -0.2234  -11.8615   16.8874 C   0  0  0  0  0  0  0  0  0  0  0  0
    6.4491   -4.1532   30.1213 C   0  0  0  0  0  0  0  0  0  0  0  0
    5.7060   -4.4340   27.4975 C   0  0  0  0  0  0  0  0  0  0  0  0
    1.1818   -5.6612   28.8399 C   0  0  0  0  0  0  0  0  0  0  0  0
   -1.2067   -7.3287   17.7772 C   0  0  0  0  0  0  0  0  0  0  0  0
   -0.0206  -10.5585   16.6210 C   0  0  0  0  0  0  0  0  0  0  0  0
    0.3696  -12.7626   16.2169 O   0  0  0  0  0  0  0  0  0  0  0  0
   -0.6895   -9.5676   17.3297 C   0  0  0  0  0  0  0  0  0  0  0  0
    0.8388   -5.8417   27.5264 C   0  0  0  0  0  0  0  0  0  0  0  0
   -2.0709   -7.6637   18.7817 C   0  0  0  0  0  0  0  0  0  0  0  0
   -0.5279   -8.2168   17.0717 C   0  0  0  0  0  0  0  0  0  0  0  0
    6.9694   -4.0191   27.8190 C   0  0  0  0  0  0  0  0  0  0  0  0
    5.1733   -4.5469   29.8123 C   0  0  0  0  0  0  0  0  0  0  0  0
   -1.7508  -11.3016   18.6072 C   0  0  0  0  0  0  0  0  0  0  0  0
    1.7497   -5.6771   26.4971 C   0  0  0  0  0  0  0  0  0  0  0  0
   -1.5799   -9.9322   18.3468 C   0  0  0  0  0  0  0  0  0  0  0  0
   -1.0871  -12.2214   17.8851 C   0  0  0  0  0  0  0  0  0  0  0  0
   -2.2706   -8.9669   19.0691 C   0  0  0  0  0  0  0  0  0  0  0  0
    3.0279   -5.3073   26.8197 C   0  0  0  0  0  0  0  0  0  0  0  0
    7.3282   -3.8948   29.1186 C   0  0  0  0  0  0  0  0  0  0  0  0
  1  3  4  0
  1  7  4  0
  2  3  1  0
  2  6  4  0
  2 16  4  0
  3 22  4  0
  4  9  4  0
  4 10  1  0
  4 20  4  0
  5 16  4  0
  5 23  4  0
  6 15  4  0
  7 12  4  0
  8 13  4  0
  8 14  4  0
  9 11  4  0
 11 14  4  0
 11 19  4  0
 12 18  4  0
 13 21  4  0
 15 23  4  0
 17 19  4  0
 17 20  4  0
 18 22  4  0
 19 21  4  0
M  END
$$$$

 Created by Python create_sdf_string function

 23 25  0  0  0  0  0  0  0  0999 V2000
    2.4610   -5.3070   29.1240 C   0  0  0  0  0  0  0  0  0  0  0  0
    4.7710   -4.6952   28.4803 C   0  0  0  0  0  0  0  0  0  0  0  0
    3.4047   -5.1087   28.1314 C   0  0  0  0  0  0  0  0  0  0  0  0
   -0.2234  -11.8615   16.8874 C   0  0  0  0  0  0  0  0  0  0  0  0
    6.4491   -4.1532   30.1213 C   0  0  0  0  0  0  0  0  0  0  0  0
    5.7060   -4.4340   27.4975 C   0  0  0  0  0  0  0  0  0  0  0  0
    1.1818   -5.6612   28.8399 C   0  0  0  0  0  0  0  0  0  0  0  0
   -1.2067   -7.3287   17.7772 C   0  0  0  0  0  0  0  0  0  0  0  0
   -0.0206  -10.5585   16.6210 C   0  0  0  0  0  0  0  0  0  0  0  0
    0.3696  -12.7626   16.2169 O   0  0  0  0  0  0  0  0  0  0  0  0
   -0.6895   -9.5676   17.3297 C   0  0  0  0  0  0  0  0  0  0  0  0
    0.8388   -5.8417   27.5264 C   0  0  0  0  0  0  0  0  0  0  0  0
   -2.0709   -7.6637   18.7817 C   0  0  0  0  0  0  0  0  0  0  0  0
   -0.5279   -8.2168   17.0717 C   0  0  0  0  0  0  0  0  0  0  0  0
    6.9694   -4.0191   27.8190 C   0  0  0  0  0  0  0  0  0  0  0  0
    5.1733   -4.5469   29.8123 C   0  0  0  0  0  0  0  0  0  0  0  0
   -1.7508  -11.3016   18.6072 C   0  0  0  0  0  0  0  0  0  0  0  0
    1.7497   -5.6771   26.4971 C   0  0  0  0  0  0  0  0  0  0  0  0
   -1.5799   -9.9322   18.3468 C   0  0  0  0  0  0  0  0  0  0  0  0
   -1.0871  -12.2214   17.8851 C   0  0  0  0  0  0  0  0  0  0  0  0
   -2.2706   -8.9669   19.0691 C   0  0  0  0  0  0  0  0  0  0  0  0
    3.0279   -5.3073   26.8197 C   0  0  0  0  0  0  0  0  0  0  0  0
    7.3282   -3.8948   29.1186 C   0  0  0  0  0  0  0  0  0  0  0  0
  1  3  4  0
  1  7  4  0
  2  3  1  0
  2  6  4  0
  2 16  4  0
  3 22  4  0
  4  9  4  0
  4 10  1  0
  4 20  4  0
  5 16  4  0
  5 23  4  0
  6 15  4  0
  7 12  4  0
  8 13  4  0
  8 14  4  0
  9 11  4  0
 11 14  4  0
 11 19  4  0
 12 18  4  0
 13 21  4  0
 15 23  4  0
 17 19  4  0
 17 20  4  0
 18 22  4  0
 19 21  4  0
M  END
$$$$

 Created by Python create_sdf_string function

 23 25  0  0  0  0  0  0  0  0999 V2000
    2.4610   -5.3070   29.1240 C   0  0  0  0  0  0  0  0  0  0  0  0
    4.7710   -4.6952   28.4803 C   0  0  0  0  0  0  0  0  0  0  0  0
    3.4047   -5.1087   28.1314 C   0  0  0  0  0  0  0  0  0  0  0  0
   -0.2234  -11.8615   16.8874 C   0  0  0  0  0  0  0  0  0  0  0  0
    6.4491   -4.1532   30.1213 C   0  0  0  0  0  0  0  0  0  0  0  0
    5.7060   -4.4340   27.4975 C   0  0  0  0  0  0  0  0  0  0  0  0
    1.1818   -5.6612   28.8399 C   0  0  0  0  0  0  0  0  0  0  0  0
   -1.2067   -7.3287   17.7772 C   0  0  0  0  0  0  0  0  0  0  0  0
   -0.0206  -10.5585   16.6210 C   0  0  0  0  0  0  0  0  0  0  0  0
    0.3696  -12.7626   16.2169 O   0  0  0  0  0  0  0  0  0  0  0  0
   -0.6895   -9.5676   17.3297 C   0  0  0  0  0  0  0  0  0  0  0  0
    0.8388   -5.8417   27.5264 C   0  0  0  0  0  0  0  0  0  0  0  0
   -2.0709   -7.6637   18.7817 C   0  0  0  0  0  0  0  0  0  0  0  0
   -0.5279   -8.2168   17.0717 C   0  0  0  0  0  0  0  0  0  0  0  0
    6.9694   -4.0191   27.8190 C   0  0  0  0  0  0  0  0  0  0  0  0
    5.1733   -4.5469   29.8123 C   0  0  0  0  0  0  0  0  0  0  0  0
   -1.7508  -11.3016   18.6072 C   0  0  0  0  0  0  0  0  0  0  0  0
    1.7497   -5.6771   26.4971 C   0  0  0  0  0  0  0  0  0  0  0  0
   -1.5799   -9.9322   18.3468 C   0  0  0  0  0  0  0  0  0  0  0  0
   -1.0871  -12.2214   17.8851 C   0  0  0  0  0  0  0  0  0  0  0  0
   -2.2706   -8.9669   19.0691 C   0  0  0  0  0  0  0  0  0  0  0  0
    3.0279   -5.3073   26.8197 C   0  0  0  0  0  0  0  0  0  0  0  0
    7.3282   -3.8948   29.1186 C   0  0  0  0  0  0  0  0  0  0  0  0
  1  3  4  0
  1  7  4  0
  2  3  1  0
  2  6  4  0
  2 16  4  0
  3 22  4  0
  4  9  4  0
  4 10  1  0
  4 20  4  0
  5 16  4  0
  5 23  4  0
  6 15  4  0
  7 12  4  0
  8 13  4  0
  8 14  4  0
  9 11  4  0
 11 14  4  0
 11 19  4  0
 12 18  4  0
 13 21  4  0
 15 23  4  0
 17 19  4  0
 17 20  4  0
 18 22  4  0
 19 21  4  0
M  END
$$$$

 Created by Python create_sdf_string function

 23 25  0  0  0  0  0  0  0  0999 V2000
    2.4610   -5.3070   29.1240 C   0  0  0  0  0  0  0  0  0  0  0  0
    4.7710   -4.6952   28.4803 C   0  0  0  0  0  0  0  0  0  0  0  0
    3.4047   -5.1087   28.1314 C   0  0  0  0  0  0  0  0  0  0  0  0
   -0.2234  -11.8615   16.8874 C   0  0  0  0  0  0  0  0  0  0  0  0
    6.4491   -4.1532   30.1213 C   0  0  0  0  0  0  0  0  0  0  0  0
    5.7060   -4.4340   27.4975 C   0  0  0  0  0  0  0  0  0  0  0  0
    1.1818   -5.6612   28.8399 C   0  0  0  0  0  0  0  0  0  0  0  0
   -1.2067   -7.3287   17.7772 C   0  0  0  0  0  0  0  0  0  0  0  0
   -0.0206  -10.5585   16.6210 C   0  0  0  0  0  0  0  0  0  0  0  0
    0.3696  -12.7626   16.2169 O   0  0  0  0  0  0  0  0  0  0  0  0
   -0.6895   -9.5676   17.3297 C   0  0  0  0  0  0  0  0  0  0  0  0
    0.8388   -5.8417   27.5264 C   0  0  0  0  0  0  0  0  0  0  0  0
   -2.0709   -7.6637   18.7817 C   0  0  0  0  0  0  0  0  0  0  0  0
   -0.5279   -8.2168   17.0717 C   0  0  0  0  0  0  0  0  0  0  0  0
    6.9694   -4.0191   27.8190 C   0  0  0  0  0  0  0  0  0  0  0  0
    5.1733   -4.5469   29.8123 C   0  0  0  0  0  0  0  0  0  0  0  0
   -1.7508  -11.3016   18.6072 C   0  0  0  0  0  0  0  0  0  0  0  0
    1.7497   -5.6771   26.4971 C   0  0  0  0  0  0  0  0  0  0  0  0
   -1.5799   -9.9322   18.3468 C   0  0  0  0  0  0  0  0  0  0  0  0
   -1.0871  -12.2214   17.8851 C   0  0  0  0  0  0  0  0  0  0  0  0
   -2.2706   -8.9669   19.0691 C   0  0  0  0  0  0  0  0  0  0  0  0
    3.0279   -5.3073   26.8197 C   0  0  0  0  0  0  0  0  0  0  0  0
    7.3282   -3.8948   29.1186 C   0  0  0  0  0  0  0  0  0  0  0  0
  1  3  4  0
  1  7  4  0
  2  3  1  0
  2  6  4  0
  2 16  4  0
  3 22  4  0
  4  9  4  0
  4 10  1  0
  4 20  4  0
  5 16  4  0
  5 23  4  0
  6 15  4  0
  7 12  4  0
  8 13  4  0
  8 14  4  0
  9 11  4  0
 11 14  4  0
 11 19  4  0
 12 18  4  0
 13 21  4  0
 15 23  4  0
 17 19  4  0
 17 20  4  0
 18 22  4  0
 19 21  4  0
M  END
$$$$

 Created by Python create_sdf_string function

 23 25  0  0  0  0  0  0  0  0999 V2000
    2.4610   -5.3070   29.1240 C   0  0  0  0  0  0  0  0  0  0  0  0
    4.7710   -4.6952   28.4803 C   0  0  0  0  0  0  0  0  0  0  0  0
    3.4047   -5.1087   28.1314 C   0  0  0  0  0  0  0  0  0  0  0  0
   -0.2234  -11.8615   16.8874 C   0  0  0  0  0  0  0  0  0  0  0  0
    6.4491   -4.1532   30.1213 C   0  0  0  0  0  0  0  0  0  0  0  0
    5.7060   -4.4340   27.4975 C   0  0  0  0  0  0  0  0  0  0  0  0
    1.1818   -5.6612   28.8399 C   0  0  0  0  0  0  0  0  0  0  0  0
   -1.2067   -7.3287   17.7772 C   0  0  0  0  0  0  0  0  0  0  0  0
   -0.0206  -10.5585   16.6210 C   0  0  0  0  0  0  0  0  0  0  0  0
    0.3696  -12.7626   16.2169 O   0  0  0  0  0  0  0  0  0  0  0  0
   -0.6895   -9.5676   17.3297 C   0  0  0  0  0  0  0  0  0  0  0  0
    0.8388   -5.8417   27.5264 C   0  0  0  0  0  0  0  0  0  0  0  0
   -2.0709   -7.6637   18.7817 C   0  0  0  0  0  0  0  0  0  0  0  0
   -0.5279   -8.2168   17.0717 C   0  0  0  0  0  0  0  0  0  0  0  0
    6.9694   -4.0191   27.8190 C   0  0  0  0  0  0  0  0  0  0  0  0
    5.1733   -4.5469   29.8123 C   0  0  0  0  0  0  0  0  0  0  0  0
   -1.7508  -11.3016   18.6072 C   0  0  0  0  0  0  0  0  0  0  0  0
    1.7497   -5.6771   26.4971 C   0  0  0  0  0  0  0  0  0  0  0  0
   -1.5799   -9.9322   18.3468 C   0  0  0  0  0  0  0  0  0  0  0  0
   -1.0871  -12.2214   17.8851 C   0  0  0  0  0  0  0  0  0  0  0  0
   -2.2706   -8.9669   19.0691 C   0  0  0  0  0  0  0  0  0  0  0  0
    3.0279   -5.3073   26.8197 C   0  0  0  0  0  0  0  0  0  0  0  0
    7.3282   -3.8948   29.1186 C   0  0  0  0  0  0  0  0  0  0  0  0
  1  3  4  0
  1  7  4  0
  2  3  1  0
  2  6  4  0
  2 16  4  0
  3 22  4  0
  4  9  4  0
  4 10  1  0
  4 20  4  0
  5 16  4  0
  5 23  4  0
  6 15  4  0
  7 12  4  0
  8 13  4  0
  8 14  4  0
  9 11  4  0
 11 14  4  0
 11 19  4  0
 12 18  4  0
 13 21  4  0
 15 23  4  0
 17 19  4  0
 17 20  4  0
 18 22  4  0
 19 21  4  0
M  END
$$$$

 Created by Python create_sdf_string function

 23 25  0  0  0  0  0  0  0  0999 V2000
    2.4610   -5.3070   29.1240 C   0  0  0  0  0  0  0  0  0  0  0  0
    4.7710   -4.6952   28.4803 C   0  0  0  0  0  0  0  0  0  0  0  0
    3.4047   -5.1087   28.1314 C   0  0  0  0  0  0  0  0  0  0  0  0
   -0.2234  -11.8615   16.8874 C   0  0  0  0  0  0  0  0  0  0  0  0
    6.4491   -4.1532   30.1213 C   0  0  0  0  0  0  0  0  0  0  0  0
    5.7060   -4.4340   27.4975 C   0  0  0  0  0  0  0  0  0  0  0  0
    1.1818   -5.6612   28.8399 C   0  0  0  0  0  0  0  0  0  0  0  0
   -1.2067   -7.3287   17.7772 C   0  0  0  0  0  0  0  0  0  0  0  0
   -0.0206  -10.5585   16.6210 C   0  0  0  0  0  0  0  0  0  0  0  0
    0.3696  -12.7626   16.2169 O   0  0  0  0  0  0  0  0  0  0  0  0
   -0.6895   -9.5676   17.3297 C   0  0  0  0  0  0  0  0  0  0  0  0
    0.8388   -5.8417   27.5264 C   0  0  0  0  0  0  0  0  0  0  0  0
   -2.0709   -7.6637   18.7817 C   0  0  0  0  0  0  0  0  0  0  0  0
   -0.5279   -8.2168   17.0717 C   0  0  0  0  0  0  0  0  0  0  0  0
    6.9694   -4.0191   27.8190 C   0  0  0  0  0  0  0  0  0  0  0  0
    5.1733   -4.5469   29.8123 C   0  0  0  0  0  0  0  0  0  0  0  0
   -1.7508  -11.3016   18.6072 C   0  0  0  0  0  0  0  0  0  0  0  0
    1.7497   -5.6771   26.4971 C   0  0  0  0  0  0  0  0  0  0  0  0
   -1.5799   -9.9322   18.3468 C   0  0  0  0  0  0  0  0  0  0  0  0
   -1.0871  -12.2214   17.8851 C   0  0  0  0  0  0  0  0  0  0  0  0
   -2.2706   -8.9669   19.0691 C   0  0  0  0  0  0  0  0  0  0  0  0
    3.0279   -5.3073   26.8197 C   0  0  0  0  0  0  0  0  0  0  0  0
    7.3282   -3.8948   29.1186 C   0  0  0  0  0  0  0  0  0  0  0  0
  1  3  4  0
  1  7  4  0
  2  3  1  0
  2  6  4  0
  2 16  4  0
  3 22  4  0
  4  9  4  0
  4 10  1  0
  4 20  4  0
  5 16  4  0
  5 23  4  0
  6 15  4  0
  7 12  4  0
  8 13  4  0
  8 14  4  0
  9 11  4  0
 11 14  4  0
 11 19  4  0
 12 18  4  0
 13 21  4  0
 15 23  4  0
 17 19  4  0
 17 20  4  0
 18 22  4  0
 19 21  4  0
M  END
$$$$

 Created by Python create_sdf_string function

 23 25  0  0  0  0  0  0  0  0999 V2000
    2.4610   -5.3070   29.1240 C   0  0  0  0  0  0  0  0  0  0  0  0
    4.7710   -4.6952   28.4803 C   0  0  0  0  0  0  0  0  0  0  0  0
    3.4047   -5.1087   28.1314 C   0  0  0  0  0  0  0  0  0  0  0  0
   -0.2234  -11.8615   16.8874 C   0  0  0  0  0  0  0  0  0  0  0  0
    6.4491   -4.1532   30.1213 C   0  0  0  0  0  0  0  0  0  0  0  0
    5.7060   -4.4340   27.4975 C   0  0  0  0  0  0  0  0  0  0  0  0
    1.1818   -5.6612   28.8399 C   0  0  0  0  0  0  0  0  0  0  0  0
   -1.2067   -7.3287   17.7772 C   0  0  0  0  0  0  0  0  0  0  0  0
   -0.0206  -10.5585   16.6210 C   0  0  0  0  0  0  0  0  0  0  0  0
    0.3696  -12.7626   16.2169 O   0  0  0  0  0  0  0  0  0  0  0  0
   -0.6895   -9.5676   17.3297 C   0  0  0  0  0  0  0  0  0  0  0  0
    0.8388   -5.8417   27.5264 C   0  0  0  0  0  0  0  0  0  0  0  0
   -2.0709   -7.6637   18.7817 C   0  0  0  0  0  0  0  0  0  0  0  0
   -0.5279   -8.2168   17.0717 C   0  0  0  0  0  0  0  0  0  0  0  0
    6.9694   -4.0191   27.8190 C   0  0  0  0  0  0  0  0  0  0  0  0
    5.1733   -4.5469   29.8123 C   0  0  0  0  0  0  0  0  0  0  0  0
   -1.7508  -11.3016   18.6072 C   0  0  0  0  0  0  0  0  0  0  0  0
    1.7497   -5.6771   26.4971 C   0  0  0  0  0  0  0  0  0  0  0  0
   -1.5799   -9.9322   18.3468 C   0  0  0  0  0  0  0  0  0  0  0  0
   -1.0871  -12.2214   17.8851 C   0  0  0  0  0  0  0  0  0  0  0  0
   -2.2706   -8.9669   19.0691 C   0  0  0  0  0  0  0  0  0  0  0  0
    3.0279   -5.3073   26.8197 C   0  0  0  0  0  0  0  0  0  0  0  0
    7.3282   -3.8948   29.1186 C   0  0  0  0  0  0  0  0  0  0  0  0
  1  3  4  0
  1  7  4  0
  2  3  1  0
  2  6  4  0
  2 16  4  0
  3 22  4  0
  4  9  4  0
  4 10  1  0
  4 20  4  0
  5 16  4  0
  5 23  4  0
  6 15  4  0
  7 12  4  0
  8 13  4  0
  8 14  4  0
  9 11  4  0
 11 14  4  0
 11 19  4  0
 12 18  4  0
 13 21  4  0
 15 23  4  0
 17 19  4  0
 17 20  4  0
 18 22  4  0
 19 21  4  0
M  END
$$$$

 Created by Python create_sdf_string function

 23 25  0  0  0  0  0  0  0  0999 V2000
    2.4610   -5.3070   29.1240 C   0  0  0  0  0  0  0  0  0  0  0  0
    4.7710   -4.6952   28.4803 C   0  0  0  0  0  0  0  0  0  0  0  0
    3.4047   -5.1087   28.1314 C   0  0  0  0  0  0  0  0  0  0  0  0
   -0.2234  -11.8615   16.8874 C   0  0  0  0  0  0  0  0  0  0  0  0
    6.4491   -4.1532   30.1213 C   0  0  0  0  0  0  0  0  0  0  0  0
    5.7060   -4.4340   27.4975 C   0  0  0  0  0  0  0  0  0  0  0  0
    1.1818   -5.6612   28.8399 C   0  0  0  0  0  0  0  0  0  0  0  0
   -1.2067   -7.3287   17.7772 C   0  0  0  0  0  0  0  0  0  0  0  0
   -0.0206  -10.5585   16.6210 C   0  0  0  0  0  0  0  0  0  0  0  0
    0.3696  -12.7626   16.2169 O   0  0  0  0  0  0  0  0  0  0  0  0
   -0.6895   -9.5676   17.3297 C   0  0  0  0  0  0  0  0  0  0  0  0
    0.8388   -5.8417   27.5264 C   0  0  0  0  0  0  0  0  0  0  0  0
   -2.0709   -7.6637   18.7817 C   0  0  0  0  0  0  0  0  0  0  0  0
   -0.5279   -8.2168   17.0717 C   0  0  0  0  0  0  0  0  0  0  0  0
    6.9694   -4.0191   27.8190 C   0  0  0  0  0  0  0  0  0  0  0  0
    5.1733   -4.5469   29.8123 C   0  0  0  0  0  0  0  0  0  0  0  0
   -1.7508  -11.3016   18.6072 C   0  0  0  0  0  0  0  0  0  0  0  0
    1.7497   -5.6771   26.4971 C   0  0  0  0  0  0  0  0  0  0  0  0
   -1.5799   -9.9322   18.3468 C   0  0  0  0  0  0  0  0  0  0  0  0
   -1.0871  -12.2214   17.8851 C   0  0  0  0  0  0  0  0  0  0  0  0
   -2.2706   -8.9669   19.0691 C   0  0  0  0  0  0  0  0  0  0  0  0
    3.0279   -5.3073   26.8197 C   0  0  0  0  0  0  0  0  0  0  0  0
    7.3282   -3.8948   29.1186 C   0  0  0  0  0  0  0  0  0  0  0  0
  1  3  4  0
  1  7  4  0
  2  3  1  0
  2  6  4  0
  2 16  4  0
  3 22  4  0
  4  9  4  0
  4 10  1  0
  4 20  4  0
  5 16  4  0
  5 23  4  0
  6 15  4  0
  7 12  4  0
  8 13  4  0
  8 14  4  0
  9 11  4  0
 11 14  4  0
 11 19  4  0
 12 18  4  0
 13 21  4  0
 15 23  4  0
 17 19  4  0
 17 20  4  0
 18 22  4  0
 19 21  4  0
M  END
$$$$

 Created by Python create_sdf_string function

 23 25  0  0  0  0  0  0  0  0999 V2000
    2.4610   -5.3070   29.1240 C   0  0  0  0  0  0  0  0  0  0  0  0
    4.7710   -4.6952   28.4803 C   0  0  0  0  0  0  0  0  0  0  0  0
    3.4047   -5.1087   28.1314 C   0  0  0  0  0  0  0  0  0  0  0  0
   -0.2234  -11.8615   16.8874 C   0  0  0  0  0  0  0  0  0  0  0  0
    6.4491   -4.1532   30.1213 C   0  0  0  0  0  0  0  0  0  0  0  0
    5.7060   -4.4340   27.4975 C   0  0  0  0  0  0  0  0  0  0  0  0
    1.1818   -5.6612   28.8399 C   0  0  0  0  0  0  0  0  0  0  0  0
   -1.2067   -7.3287   17.7772 C   0  0  0  0  0  0  0  0  0  0  0  0
   -0.0206  -10.5585   16.6210 C   0  0  0  0  0  0  0  0  0  0  0  0
    0.3696  -12.7626   16.2169 O   0  0  0  0  0  0  0  0  0  0  0  0
   -0.6895   -9.5676   17.3297 C   0  0  0  0  0  0  0  0  0  0  0  0
    0.8388   -5.8417   27.5264 C   0  0  0  0  0  0  0  0  0  0  0  0
   -2.0709   -7.6637   18.7817 C   0  0  0  0  0  0  0  0  0  0  0  0
   -0.5279   -8.2168   17.0717 C   0  0  0  0  0  0  0  0  0  0  0  0
    6.9694   -4.0191   27.8190 C   0  0  0  0  0  0  0  0  0  0  0  0
    5.1733   -4.5469   29.8123 C   0  0  0  0  0  0  0  0  0  0  0  0
   -1.7508  -11.3016   18.6072 C   0  0  0  0  0  0  0  0  0  0  0  0
    1.7497   -5.6771   26.4971 C   0  0  0  0  0  0  0  0  0  0  0  0
   -1.5799   -9.9322   18.3468 C   0  0  0  0  0  0  0  0  0  0  0  0
   -1.0871  -12.2214   17.8851 C   0  0  0  0  0  0  0  0  0  0  0  0
   -2.2706   -8.9669   19.0691 C   0  0  0  0  0  0  0  0  0  0  0  0
    3.0279   -5.3073   26.8197 C   0  0  0  0  0  0  0  0  0  0  0  0
    7.3282   -3.8948   29.1186 C   0  0  0  0  0  0  0  0  0  0  0  0
  1  3  4  0
  1  7  4  0
  2  3  1  0
  2  6  4  0
  2 16  4  0
  3 22  4  0
  4  9  4  0
  4 10  1  0
  4 20  4  0
  5 16  4  0
  5 23  4  0
  6 15  4  0
  7 12  4  0
  8 13  4  0
  8 14  4  0
  9 11  4  0
 11 14  4  0
 11 19  4  0
 12 18  4  0
 13 21  4  0
 15 23  4  0
 17 19  4  0
 17 20  4  0
 18 22  4  0
 19 21  4  0
M  END
$$$$

 Created by Python create_sdf_string function

 23 25  0  0  0  0  0  0  0  0999 V2000
    2.4610   -5.3070   29.1240 C   0  0  0  0  0  0  0  0  0  0  0  0
    4.7710   -4.6952   28.4803 C   0  0  0  0  0  0  0  0  0  0  0  0
    3.4047   -5.1087   28.1314 C   0  0  0  0  0  0  0  0  0  0  0  0
   -0.2234  -11.8615   16.8874 C   0  0  0  0  0  0  0  0  0  0  0  0
    6.4491   -4.1532   30.1213 C   0  0  0  0  0  0  0  0  0  0  0  0
    5.7060   -4.4340   27.4975 C   0  0  0  0  0  0  0  0  0  0  0  0
    1.1818   -5.6612   28.8399 C   0  0  0  0  0  0  0  0  0  0  0  0
   -1.2067   -7.3287   17.7772 C   0  0  0  0  0  0  0  0  0  0  0  0
   -0.0206  -10.5585   16.6210 C   0  0  0  0  0  0  0  0  0  0  0  0
    0.3696  -12.7626   16.2169 O   0  0  0  0  0  0  0  0  0  0  0  0
   -0.6895   -9.5676   17.3297 C   0  0  0  0  0  0  0  0  0  0  0  0
    0.8388   -5.8417   27.5264 C   0  0  0  0  0  0  0  0  0  0  0  0
   -2.0709   -7.6637   18.7817 C   0  0  0  0  0  0  0  0  0  0  0  0
   -0.5279   -8.2168   17.0717 C   0  0  0  0  0  0  0  0  0  0  0  0
    6.9694   -4.0191   27.8190 C   0  0  0  0  0  0  0  0  0  0  0  0
    5.1733   -4.5469   29.8123 C   0  0  0  0  0  0  0  0  0  0  0  0
   -1.7508  -11.3016   18.6072 C   0  0  0  0  0  0  0  0  0  0  0  0
    1.7497   -5.6771   26.4971 C   0  0  0  0  0  0  0  0  0  0  0  0
   -1.5799   -9.9322   18.3468 C   0  0  0  0  0  0  0  0  0  0  0  0
   -1.0871  -12.2214   17.8851 C   0  0  0  0  0  0  0  0  0  0  0  0
   -2.2706   -8.9669   19.0691 C   0  0  0  0  0  0  0  0  0  0  0  0
    3.0279   -5.3073   26.8197 C   0  0  0  0  0  0  0  0  0  0  0  0
    7.3282   -3.8948   29.1186 C   0  0  0  0  0  0  0  0  0  0  0  0
  1  3  4  0
  1  7  4  0
  2  3  1  0
  2  6  4  0
  2 16  4  0
  3 22  4  0
  4  9  4  0
  4 10  1  0
  4 20  4  0
  5 16  4  0
  5 23  4  0
  6 15  4  0
  7 12  4  0
  8 13  4  0
  8 14  4  0
  9 11  4  0
 11 14  4  0
 11 19  4  0
 12 18  4  0
 13 21  4  0
 15 23  4  0
 17 19  4  0
 17 20  4  0
 18 22  4  0
 19 21  4  0
M  END
$$$$

 Created by Python create_sdf_string function

 23 25  0  0  0  0  0  0  0  0999 V2000
    2.4610   -5.3070   29.1240 C   0  0  0  0  0  0  0  0  0  0  0  0
    4.7710   -4.6952   28.4803 C   0  0  0  0  0  0  0  0  0  0  0  0
    3.4047   -5.1087   28.1314 C   0  0  0  0  0  0  0  0  0  0  0  0
   -0.2234  -11.8615   16.8874 C   0  0  0  0  0  0  0  0  0  0  0  0
    6.4491   -4.1532   30.1213 C   0  0  0  0  0  0  0  0  0  0  0  0
    5.7060   -4.4340   27.4975 C   0  0  0  0  0  0  0  0  0  0  0  0
    1.1818   -5.6612   28.8399 C   0  0  0  0  0  0  0  0  0  0  0  0
   -1.2067   -7.3287   17.7772 C   0  0  0  0  0  0  0  0  0  0  0  0
   -0.0206  -10.5585   16.6210 C   0  0  0  0  0  0  0  0  0  0  0  0
    0.3696  -12.7626   16.2169 O   0  0  0  0  0  0  0  0  0  0  0  0
   -0.6895   -9.5676   17.3297 C   0  0  0  0  0  0  0  0  0  0  0  0
    0.8388   -5.8417   27.5264 C   0  0  0  0  0  0  0  0  0  0  0  0
   -2.0709   -7.6637   18.7817 C   0  0  0  0  0  0  0  0  0  0  0  0
   -0.5279   -8.2168   17.0717 C   0  0  0  0  0  0  0  0  0  0  0  0
    6.9694   -4.0191   27.8190 C   0  0  0  0  0  0  0  0  0  0  0  0
    5.1733   -4.5469   29.8123 C   0  0  0  0  0  0  0  0  0  0  0  0
   -1.7508  -11.3016   18.6072 C   0  0  0  0  0  0  0  0  0  0  0  0
    1.7497   -5.6771   26.4971 C   0  0  0  0  0  0  0  0  0  0  0  0
   -1.5799   -9.9322   18.3468 C   0  0  0  0  0  0  0  0  0  0  0  0
   -1.0871  -12.2214   17.8851 C   0  0  0  0  0  0  0  0  0  0  0  0
   -2.2706   -8.9669   19.0691 C   0  0  0  0  0  0  0  0  0  0  0  0
    3.0279   -5.3073   26.8197 C   0  0  0  0  0  0  0  0  0  0  0  0
    7.3282   -3.8948   29.1186 C   0  0  0  0  0  0  0  0  0  0  0  0
  1  3  4  0
  1  7  4  0
  2  3  1  0
  2  6  4  0
  2 16  4  0
  3 22  4  0
  4  9  4  0
  4 10  1  0
  4 20  4  0
  5 16  4  0
  5 23  4  0
  6 15  4  0
  7 12  4  0
  8 13  4  0
  8 14  4  0
  9 11  4  0
 11 14  4  0
 11 19  4  0
 12 18  4  0
 13 21  4  0
 15 23  4  0
 17 19  4  0
 17 20  4  0
 18 22  4  0
 19 21  4  0
M  END
$$$$

 Created by Python create_sdf_string function

 23 25  0  0  0  0  0  0  0  0999 V2000
    2.4610   -5.3070   29.1240 C   0  0  0  0  0  0  0  0  0  0  0  0
    4.7710   -4.6952   28.4803 C   0  0  0  0  0  0  0  0  0  0  0  0
    3.4047   -5.1087   28.1314 C   0  0  0  0  0  0  0  0  0  0  0  0
   -0.2234  -11.8615   16.8874 C   0  0  0  0  0  0  0  0  0  0  0  0
    6.4491   -4.1532   30.1213 C   0  0  0  0  0  0  0  0  0  0  0  0
    5.7060   -4.4340   27.4975 C   0  0  0  0  0  0  0  0  0  0  0  0
    1.1818   -5.6612   28.8399 C   0  0  0  0  0  0  0  0  0  0  0  0
   -1.2067   -7.3287   17.7772 C   0  0  0  0  0  0  0  0  0  0  0  0
   -0.0206  -10.5585   16.6210 C   0  0  0  0  0  0  0  0  0  0  0  0
    0.3696  -12.7626   16.2169 O   0  0  0  0  0  0  0  0  0  0  0  0
   -0.6895   -9.5676   17.3297 C   0  0  0  0  0  0  0  0  0  0  0  0
    0.8388   -5.8417   27.5264 C   0  0  0  0  0  0  0  0  0  0  0  0
   -2.0709   -7.6637   18.7817 C   0  0  0  0  0  0  0  0  0  0  0  0
   -0.5279   -8.2168   17.0717 C   0  0  0  0  0  0  0  0  0  0  0  0
    6.9694   -4.0191   27.8190 C   0  0  0  0  0  0  0  0  0  0  0  0
    5.1733   -4.5469   29.8123 C   0  0  0  0  0  0  0  0  0  0  0  0
   -1.7508  -11.3016   18.6072 C   0  0  0  0  0  0  0  0  0  0  0  0
    1.7497   -5.6771   26.4971 C   0  0  0  0  0  0  0  0  0  0  0  0
   -1.5799   -9.9322   18.3468 C   0  0  0  0  0  0  0  0  0  0  0  0
   -1.0871  -12.2214   17.8851 C   0  0  0  0  0  0  0  0  0  0  0  0
   -2.2706   -8.9669   19.0691 C   0  0  0  0  0  0  0  0  0  0  0  0
    3.0279   -5.3073   26.8197 C   0  0  0  0  0  0  0  0  0  0  0  0
    7.3282   -3.8948   29.1186 C   0  0  0  0  0  0  0  0  0  0  0  0
  1  3  4  0
  1  7  4  0
  2  3  1  0
  2  6  4  0
  2 16  4  0
  3 22  4  0
  4  9  4  0
  4 10  1  0
  4 20  4  0
  5 16  4  0
  5 23  4  0
  6 15  4  0
  7 12  4  0
  8 13  4  0
  8 14  4  0
  9 11  4  0
 11 14  4  0
 11 19  4  0
 12 18  4  0
 13 21  4  0
 15 23  4  0
 17 19  4  0
 17 20  4  0
 18 22  4  0
 19 21  4  0
M  END
$$$$

 Created by Python create_sdf_string function

 23 25  0  0  0  0  0  0  0  0999 V2000
    2.4610   -5.3070   29.1240 C   0  0  0  0  0  0  0  0  0  0  0  0
    4.7710   -4.6952   28.4803 C   0  0  0  0  0  0  0  0  0  0  0  0
    3.4047   -5.1087   28.1314 C   0  0  0  0  0  0  0  0  0  0  0  0
   -0.2234  -11.8615   16.8874 C   0  0  0  0  0  0  0  0  0  0  0  0
    6.4491   -4.1532   30.1213 C   0  0  0  0  0  0  0  0  0  0  0  0
    5.7060   -4.4340   27.4975 C   0  0  0  0  0  0  0  0  0  0  0  0
    1.1818   -5.6612   28.8399 C   0  0  0  0  0  0  0  0  0  0  0  0
   -1.2067   -7.3287   17.7772 C   0  0  0  0  0  0  0  0  0  0  0  0
   -0.0206  -10.5585   16.6210 C   0  0  0  0  0  0  0  0  0  0  0  0
    0.3696  -12.7626   16.2169 O   0  0  0  0  0  0  0  0  0  0  0  0
   -0.6895   -9.5676   17.3297 C   0  0  0  0  0  0  0  0  0  0  0  0
    0.8388   -5.8417   27.5264 C   0  0  0  0  0  0  0  0  0  0  0  0
   -2.0709   -7.6637   18.7817 C   0  0  0  0  0  0  0  0  0  0  0  0
   -0.5279   -8.2168   17.0717 C   0  0  0  0  0  0  0  0  0  0  0  0
    6.9694   -4.0191   27.8190 C   0  0  0  0  0  0  0  0  0  0  0  0
    5.1733   -4.5469   29.8123 C   0  0  0  0  0  0  0  0  0  0  0  0
   -1.7508  -11.3016   18.6072 C   0  0  0  0  0  0  0  0  0  0  0  0
    1.7497   -5.6771   26.4971 C   0  0  0  0  0  0  0  0  0  0  0  0
   -1.5799   -9.9322   18.3468 C   0  0  0  0  0  0  0  0  0  0  0  0
   -1.0871  -12.2214   17.8851 C   0  0  0  0  0  0  0  0  0  0  0  0
   -2.2706   -8.9669   19.0691 C   0  0  0  0  0  0  0  0  0  0  0  0
    3.0279   -5.3073   26.8197 C   0  0  0  0  0  0  0  0  0  0  0  0
    7.3282   -3.8948   29.1186 C   0  0  0  0  0  0  0  0  0  0  0  0
  1  3  4  0
  1  7  4  0
  2  3  1  0
  2  6  4  0
  2 16  4  0
  3 22  4  0
  4  9  4  0
  4 10  1  0
  4 20  4  0
  5 16  4  0
  5 23  4  0
  6 15  4  0
  7 12  4  0
  8 13  4  0
  8 14  4  0
  9 11  4  0
 11 14  4  0
 11 19  4  0
 12 18  4  0
 13 21  4  0
 15 23  4  0
 17 19  4  0
 17 20  4  0
 18 22  4  0
 19 21  4  0
M  END
$$$$

 Created by Python create_sdf_string function

 23 25  0  0  0  0  0  0  0  0999 V2000
    2.4610   -5.3070   29.1240 C   0  0  0  0  0  0  0  0  0  0  0  0
    4.7710   -4.6952   28.4803 C   0  0  0  0  0  0  0  0  0  0  0  0
    3.4047   -5.1087   28.1314 C   0  0  0  0  0  0  0  0  0  0  0  0
   -0.2234  -11.8615   16.8874 C   0  0  0  0  0  0  0  0  0  0  0  0
    6.4491   -4.1532   30.1213 C   0  0  0  0  0  0  0  0  0  0  0  0
    5.7060   -4.4340   27.4975 C   0  0  0  0  0  0  0  0  0  0  0  0
    1.1818   -5.6612   28.8399 C   0  0  0  0  0  0  0  0  0  0  0  0
   -1.2067   -7.3287   17.7772 C   0  0  0  0  0  0  0  0  0  0  0  0
   -0.0206  -10.5585   16.6210 C   0  0  0  0  0  0  0  0  0  0  0  0
    0.3696  -12.7626   16.2169 O   0  0  0  0  0  0  0  0  0  0  0  0
   -0.6895   -9.5676   17.3297 C   0  0  0  0  0  0  0  0  0  0  0  0
    0.8388   -5.8417   27.5264 C   0  0  0  0  0  0  0  0  0  0  0  0
   -2.0709   -7.6637   18.7817 C   0  0  0  0  0  0  0  0  0  0  0  0
   -0.5279   -8.2168   17.0717 C   0  0  0  0  0  0  0  0  0  0  0  0
    6.9694   -4.0191   27.8190 C   0  0  0  0  0  0  0  0  0  0  0  0
    5.1733   -4.5469   29.8123 C   0  0  0  0  0  0  0  0  0  0  0  0
   -1.7508  -11.3016   18.6072 C   0  0  0  0  0  0  0  0  0  0  0  0
    1.7497   -5.6771   26.4971 C   0  0  0  0  0  0  0  0  0  0  0  0
   -1.5799   -9.9322   18.3468 C   0  0  0  0  0  0  0  0  0  0  0  0
   -1.0871  -12.2214   17.8851 C   0  0  0  0  0  0  0  0  0  0  0  0
   -2.2706   -8.9669   19.0691 C   0  0  0  0  0  0  0  0  0  0  0  0
    3.0279   -5.3073   26.8197 C   0  0  0  0  0  0  0  0  0  0  0  0
    7.3282   -3.8948   29.1186 C   0  0  0  0  0  0  0  0  0  0  0  0
  1  3  4  0
  1  7  4  0
  2  3  1  0
  2  6  4  0
  2 16  4  0
  3 22  4  0
  4  9  4  0
  4 10  1  0
  4 20  4  0
  5 16  4  0
  5 23  4  0
  6 15  4  0
  7 12  4  0
  8 13  4  0
  8 14  4  0
  9 11  4  0
 11 14  4  0
 11 19  4  0
 12 18  4  0
 13 21  4  0
 15 23  4  0
 17 19  4  0
 17 20  4  0
 18 22  4  0
 19 21  4  0
M  END
$$$$

 Created by Python create_sdf_string function

 23 25  0  0  0  0  0  0  0  0999 V2000
    2.4610   -5.3070   29.1240 C   0  0  0  0  0  0  0  0  0  0  0  0
    4.7710   -4.6952   28.4803 C   0  0  0  0  0  0  0  0  0  0  0  0
    3.4047   -5.1087   28.1314 C   0  0  0  0  0  0  0  0  0  0  0  0
   -0.2234  -11.8615   16.8874 C   0  0  0  0  0  0  0  0  0  0  0  0
    6.4491   -4.1532   30.1213 C   0  0  0  0  0  0  0  0  0  0  0  0
    5.7060   -4.4340   27.4975 C   0  0  0  0  0  0  0  0  0  0  0  0
    1.1818   -5.6612   28.8399 C   0  0  0  0  0  0  0  0  0  0  0  0
   -1.2067   -7.3287   17.7772 C   0  0  0  0  0  0  0  0  0  0  0  0
   -0.0206  -10.5585   16.6210 C   0  0  0  0  0  0  0  0  0  0  0  0
    0.3696  -12.7626   16.2169 O   0  0  0  0  0  0  0  0  0  0  0  0
   -0.6895   -9.5676   17.3297 C   0  0  0  0  0  0  0  0  0  0  0  0
    0.8388   -5.8417   27.5264 C   0  0  0  0  0  0  0  0  0  0  0  0
   -2.0709   -7.6637   18.7817 C   0  0  0  0  0  0  0  0  0  0  0  0
   -0.5279   -8.2168   17.0717 C   0  0  0  0  0  0  0  0  0  0  0  0
    6.9694   -4.0191   27.8190 C   0  0  0  0  0  0  0  0  0  0  0  0
    5.1733   -4.5469   29.8123 C   0  0  0  0  0  0  0  0  0  0  0  0
   -1.7508  -11.3016   18.6072 C   0  0  0  0  0  0  0  0  0  0  0  0
    1.7497   -5.6771   26.4971 C   0  0  0  0  0  0  0  0  0  0  0  0
   -1.5799   -9.9322   18.3468 C   0  0  0  0  0  0  0  0  0  0  0  0
   -1.0871  -12.2214   17.8851 C   0  0  0  0  0  0  0  0  0  0  0  0
   -2.2706   -8.9669   19.0691 C   0  0  0  0  0  0  0  0  0  0  0  0
    3.0279   -5.3073   26.8197 C   0  0  0  0  0  0  0  0  0  0  0  0
    7.3282   -3.8948   29.1186 C   0  0  0  0  0  0  0  0  0  0  0  0
  1  3  4  0
  1  7  4  0
  2  3  1  0
  2  6  4  0
  2 16  4  0
  3 22  4  0
  4  9  4  0
  4 10  1  0
  4 20  4  0
  5 16  4  0
  5 23  4  0
  6 15  4  0
  7 12  4  0
  8 13  4  0
  8 14  4  0
  9 11  4  0
 11 14  4  0
 11 19  4  0
 12 18  4  0
 13 21  4  0
 15 23  4  0
 17 19  4  0
 17 20  4  0
 18 22  4  0
 19 21  4  0
M  END
$$$$

 Created by Python create_sdf_string function

 23 25  0  0  0  0  0  0  0  0999 V2000
    2.4610   -5.3070   29.1240 C   0  0  0  0  0  0  0  0  0  0  0  0
    4.7710   -4.6952   28.4803 C   0  0  0  0  0  0  0  0  0  0  0  0
    3.4047   -5.1087   28.1314 C   0  0  0  0  0  0  0  0  0  0  0  0
   -0.2234  -11.8615   16.8874 C   0  0  0  0  0  0  0  0  0  0  0  0
    6.4491   -4.1532   30.1213 C   0  0  0  0  0  0  0  0  0  0  0  0
    5.7060   -4.4340   27.4975 C   0  0  0  0  0  0  0  0  0  0  0  0
    1.1818   -5.6612   28.8399 C   0  0  0  0  0  0  0  0  0  0  0  0
   -1.2067   -7.3287   17.7772 C   0  0  0  0  0  0  0  0  0  0  0  0
   -0.0206  -10.5585   16.6210 C   0  0  0  0  0  0  0  0  0  0  0  0
    0.3696  -12.7626   16.2169 O   0  0  0  0  0  0  0  0  0  0  0  0
   -0.6895   -9.5676   17.3297 C   0  0  0  0  0  0  0  0  0  0  0  0
    0.8388   -5.8417   27.5264 C   0  0  0  0  0  0  0  0  0  0  0  0
   -2.0709   -7.6637   18.7817 C   0  0  0  0  0  0  0  0  0  0  0  0
   -0.5279   -8.2168   17.0717 C   0  0  0  0  0  0  0  0  0  0  0  0
    6.9694   -4.0191   27.8190 C   0  0  0  0  0  0  0  0  0  0  0  0
    5.1733   -4.5469   29.8123 C   0  0  0  0  0  0  0  0  0  0  0  0
   -1.7508  -11.3016   18.6072 C   0  0  0  0  0  0  0  0  0  0  0  0
    1.7497   -5.6771   26.4971 C   0  0  0  0  0  0  0  0  0  0  0  0
   -1.5799   -9.9322   18.3468 C   0  0  0  0  0  0  0  0  0  0  0  0
   -1.0871  -12.2214   17.8851 C   0  0  0  0  0  0  0  0  0  0  0  0
   -2.2706   -8.9669   19.0691 C   0  0  0  0  0  0  0  0  0  0  0  0
    3.0279   -5.3073   26.8197 C   0  0  0  0  0  0  0  0  0  0  0  0
    7.3282   -3.8948   29.1186 C   0  0  0  0  0  0  0  0  0  0  0  0
  1  3  4  0
  1  7  4  0
  2  3  1  0
  2  6  4  0
  2 16  4  0
  3 22  4  0
  4  9  4  0
  4 10  1  0
  4 20  4  0
  5 16  4  0
  5 23  4  0
  6 15  4  0
  7 12  4  0
  8 13  4  0
  8 14  4  0
  9 11  4  0
 11 14  4  0
 11 19  4  0
 12 18  4  0
 13 21  4  0
 15 23  4  0
 17 19  4  0
 17 20  4  0
 18 22  4  0
 19 21  4  0
M  END
$$$$

 Created by Python create_sdf_string function

 23 25  0  0  0  0  0  0  0  0999 V2000
    2.4610   -5.3070   29.1240 C   0  0  0  0  0  0  0  0  0  0  0  0
    4.7710   -4.6952   28.4803 C   0  0  0  0  0  0  0  0  0  0  0  0
    3.4047   -5.1087   28.1314 C   0  0  0  0  0  0  0  0  0  0  0  0
   -0.2234  -11.8615   16.8874 C   0  0  0  0  0  0  0  0  0  0  0  0
    6.4491   -4.1532   30.1213 C   0  0  0  0  0  0  0  0  0  0  0  0
    5.7060   -4.4340   27.4975 C   0  0  0  0  0  0  0  0  0  0  0  0
    1.1818   -5.6612   28.8399 C   0  0  0  0  0  0  0  0  0  0  0  0
   -1.2067   -7.3287   17.7772 C   0  0  0  0  0  0  0  0  0  0  0  0
   -0.0206  -10.5585   16.6210 C   0  0  0  0  0  0  0  0  0  0  0  0
    0.3696  -12.7626   16.2169 O   0  0  0  0  0  0  0  0  0  0  0  0
   -0.6895   -9.5676   17.3297 C   0  0  0  0  0  0  0  0  0  0  0  0
    0.8388   -5.8417   27.5264 C   0  0  0  0  0  0  0  0  0  0  0  0
   -2.0709   -7.6637   18.7817 C   0  0  0  0  0  0  0  0  0  0  0  0
   -0.5279   -8.2168   17.0717 C   0  0  0  0  0  0  0  0  0  0  0  0
    6.9694   -4.0191   27.8190 C   0  0  0  0  0  0  0  0  0  0  0  0
    5.1733   -4.5469   29.8123 C   0  0  0  0  0  0  0  0  0  0  0  0
   -1.7508  -11.3016   18.6072 C   0  0  0  0  0  0  0  0  0  0  0  0
    1.7497   -5.6771   26.4971 C   0  0  0  0  0  0  0  0  0  0  0  0
   -1.5799   -9.9322   18.3468 C   0  0  0  0  0  0  0  0  0  0  0  0
   -1.0871  -12.2214   17.8851 C   0  0  0  0  0  0  0  0  0  0  0  0
   -2.2706   -8.9669   19.0691 C   0  0  0  0  0  0  0  0  0  0  0  0
    3.0279   -5.3073   26.8197 C   0  0  0  0  0  0  0  0  0  0  0  0
    7.3282   -3.8948   29.1186 C   0  0  0  0  0  0  0  0  0  0  0  0
  1  3  4  0
  1  7  4  0
  2  3  1  0
  2  6  4  0
  2 16  4  0
  3 22  4  0
  4  9  4  0
  4 10  1  0
  4 20  4  0
  5 16  4  0
  5 23  4  0
  6 15  4  0
  7 12  4  0
  8 13  4  0
  8 14  4  0
  9 11  4  0
 11 14  4  0
 11 19  4  0
 12 18  4  0
 13 21  4  0
 15 23  4  0
 17 19  4  0
 17 20  4  0
 18 22  4  0
 19 21  4  0
M  END
$$$$

 Created by Python create_sdf_string function

 23 25  0  0  0  0  0  0  0  0999 V2000
    2.4610   -5.3070   29.1240 C   0  0  0  0  0  0  0  0  0  0  0  0
    4.7710   -4.6952   28.4803 C   0  0  0  0  0  0  0  0  0  0  0  0
    3.4047   -5.1087   28.1314 C   0  0  0  0  0  0  0  0  0  0  0  0
   -0.2234  -11.8615   16.8874 C   0  0  0  0  0  0  0  0  0  0  0  0
    6.4491   -4.1532   30.1213 C   0  0  0  0  0  0  0  0  0  0  0  0
    5.7060   -4.4340   27.4975 C   0  0  0  0  0  0  0  0  0  0  0  0
    1.1818   -5.6612   28.8399 C   0  0  0  0  0  0  0  0  0  0  0  0
   -1.2067   -7.3287   17.7772 C   0  0  0  0  0  0  0  0  0  0  0  0
   -0.0206  -10.5585   16.6210 C   0  0  0  0  0  0  0  0  0  0  0  0
    0.3696  -12.7626   16.2169 O   0  0  0  0  0  0  0  0  0  0  0  0
   -0.6895   -9.5676   17.3297 C   0  0  0  0  0  0  0  0  0  0  0  0
    0.8388   -5.8417   27.5264 C   0  0  0  0  0  0  0  0  0  0  0  0
   -2.0709   -7.6637   18.7817 C   0  0  0  0  0  0  0  0  0  0  0  0
   -0.5279   -8.2168   17.0717 C   0  0  0  0  0  0  0  0  0  0  0  0
    6.9694   -4.0191   27.8190 C   0  0  0  0  0  0  0  0  0  0  0  0
    5.1733   -4.5469   29.8123 C   0  0  0  0  0  0  0  0  0  0  0  0
   -1.7508  -11.3016   18.6072 C   0  0  0  0  0  0  0  0  0  0  0  0
    1.7497   -5.6771   26.4971 C   0  0  0  0  0  0  0  0  0  0  0  0
   -1.5799   -9.9322   18.3468 C   0  0  0  0  0  0  0  0  0  0  0  0
   -1.0871  -12.2214   17.8851 C   0  0  0  0  0  0  0  0  0  0  0  0
   -2.2706   -8.9669   19.0691 C   0  0  0  0  0  0  0  0  0  0  0  0
    3.0279   -5.3073   26.8197 C   0  0  0  0  0  0  0  0  0  0  0  0
    7.3282   -3.8948   29.1186 C   0  0  0  0  0  0  0  0  0  0  0  0
  1  3  4  0
  1  7  4  0
  2  3  1  0
  2  6  4  0
  2 16  4  0
  3 22  4  0
  4  9  4  0
  4 10  1  0
  4 20  4  0
  5 16  4  0
  5 23  4  0
  6 15  4  0
  7 12  4  0
  8 13  4  0
  8 14  4  0
  9 11  4  0
 11 14  4  0
 11 19  4  0
 12 18  4  0
 13 21  4  0
 15 23  4  0
 17 19  4  0
 17 20  4  0
 18 22  4  0
 19 21  4  0
M  END
$$$$

 Created by Python create_sdf_string function

 23 25  0  0  0  0  0  0  0  0999 V2000
    2.4610   -5.3070   29.1240 C   0  0  0  0  0  0  0  0  0  0  0  0
    4.7710   -4.6952   28.4803 C   0  0  0  0  0  0  0  0  0  0  0  0
    3.4047   -5.1087   28.1314 C   0  0  0  0  0  0  0  0  0  0  0  0
   -0.2234  -11.8615   16.8874 C   0  0  0  0  0  0  0  0  0  0  0  0
    6.4491   -4.1532   30.1213 C   0  0  0  0  0  0  0  0  0  0  0  0
    5.7060   -4.4340   27.4975 C   0  0  0  0  0  0  0  0  0  0  0  0
    1.1818   -5.6612   28.8399 C   0  0  0  0  0  0  0  0  0  0  0  0
   -1.2067   -7.3287   17.7772 C   0  0  0  0  0  0  0  0  0  0  0  0
   -0.0206  -10.5585   16.6210 C   0  0  0  0  0  0  0  0  0  0  0  0
    0.3696  -12.7626   16.2169 O   0  0  0  0  0  0  0  0  0  0  0  0
   -0.6895   -9.5676   17.3297 C   0  0  0  0  0  0  0  0  0  0  0  0
    0.8388   -5.8417   27.5264 C   0  0  0  0  0  0  0  0  0  0  0  0
   -2.0709   -7.6637   18.7817 C   0  0  0  0  0  0  0  0  0  0  0  0
   -0.5279   -8.2168   17.0717 C   0  0  0  0  0  0  0  0  0  0  0  0
    6.9694   -4.0191   27.8190 C   0  0  0  0  0  0  0  0  0  0  0  0
    5.1733   -4.5469   29.8123 C   0  0  0  0  0  0  0  0  0  0  0  0
   -1.7508  -11.3016   18.6072 C   0  0  0  0  0  0  0  0  0  0  0  0
    1.7497   -5.6771   26.4971 C   0  0  0  0  0  0  0  0  0  0  0  0
   -1.5799   -9.9322   18.3468 C   0  0  0  0  0  0  0  0  0  0  0  0
   -1.0871  -12.2214   17.8851 C   0  0  0  0  0  0  0  0  0  0  0  0
   -2.2706   -8.9669   19.0691 C   0  0  0  0  0  0  0  0  0  0  0  0
    3.0279   -5.3073   26.8197 C   0  0  0  0  0  0  0  0  0  0  0  0
    7.3282   -3.8948   29.1186 C   0  0  0  0  0  0  0  0  0  0  0  0
  1  3  4  0
  1  7  4  0
  2  3  1  0
  2  6  4  0
  2 16  4  0
  3 22  4  0
  4  9  4  0
  4 10  1  0
  4 20  4  0
  5 16  4  0
  5 23  4  0
  6 15  4  0
  7 12  4  0
  8 13  4  0
  8 14  4  0
  9 11  4  0
 11 14  4  0
 11 19  4  0
 12 18  4  0
 13 21  4  0
 15 23  4  0
 17 19  4  0
 17 20  4  0
 18 22  4  0
 19 21  4  0
M  END
$$$$

 Created by Python create_sdf_string function

 23 25  0  0  0  0  0  0  0  0999 V2000
    2.4610   -5.3070   29.1240 C   0  0  0  0  0  0  0  0  0  0  0  0
    4.7710   -4.6952   28.4803 C   0  0  0  0  0  0  0  0  0  0  0  0
    3.4047   -5.1087   28.1314 C   0  0  0  0  0  0  0  0  0  0  0  0
   -0.2234  -11.8615   16.8874 C   0  0  0  0  0  0  0  0  0  0  0  0
    6.4491   -4.1532   30.1213 C   0  0  0  0  0  0  0  0  0  0  0  0
    5.7060   -4.4340   27.4975 C   0  0  0  0  0  0  0  0  0  0  0  0
    1.1818   -5.6612   28.8399 C   0  0  0  0  0  0  0  0  0  0  0  0
   -1.2067   -7.3287   17.7772 C   0  0  0  0  0  0  0  0  0  0  0  0
   -0.0206  -10.5585   16.6210 C   0  0  0  0  0  0  0  0  0  0  0  0
    0.3696  -12.7626   16.2169 O   0  0  0  0  0  0  0  0  0  0  0  0
   -0.6895   -9.5676   17.3297 C   0  0  0  0  0  0  0  0  0  0  0  0
    0.8388   -5.8417   27.5264 C   0  0  0  0  0  0  0  0  0  0  0  0
   -2.0709   -7.6637   18.7817 C   0  0  0  0  0  0  0  0  0  0  0  0
   -0.5279   -8.2168   17.0717 C   0  0  0  0  0  0  0  0  0  0  0  0
    6.9694   -4.0191   27.8190 C   0  0  0  0  0  0  0  0  0  0  0  0
    5.1733   -4.5469   29.8123 C   0  0  0  0  0  0  0  0  0  0  0  0
   -1.7508  -11.3016   18.6072 C   0  0  0  0  0  0  0  0  0  0  0  0
    1.7497   -5.6771   26.4971 C   0  0  0  0  0  0  0  0  0  0  0  0
   -1.5799   -9.9322   18.3468 C   0  0  0  0  0  0  0  0  0  0  0  0
   -1.0871  -12.2214   17.8851 C   0  0  0  0  0  0  0  0  0  0  0  0
   -2.2706   -8.9669   19.0691 C   0  0  0  0  0  0  0  0  0  0  0  0
    3.0279   -5.3073   26.8197 C   0  0  0  0  0  0  0  0  0  0  0  0
    7.3282   -3.8948   29.1186 C   0  0  0  0  0  0  0  0  0  0  0  0
  1  3  4  0
  1  7  4  0
  2  3  1  0
  2  6  4  0
  2 16  4  0
  3 22  4  0
  4  9  4  0
  4 10  1  0
  4 20  4  0
  5 16  4  0
  5 23  4  0
  6 15  4  0
  7 12  4  0
  8 13  4  0
  8 14  4  0
  9 11  4  0
 11 14  4  0
 11 19  4  0
 12 18  4  0
 13 21  4  0
 15 23  4  0
 17 19  4  0
 17 20  4  0
 18 22  4  0
 19 21  4  0
M  END
$$$$

 Created by Python create_sdf_string function

 23 25  0  0  0  0  0  0  0  0999 V2000
    2.4610   -5.3070   29.1240 C   0  0  0  0  0  0  0  0  0  0  0  0
    4.7710   -4.6952   28.4803 C   0  0  0  0  0  0  0  0  0  0  0  0
    3.4047   -5.1087   28.1314 C   0  0  0  0  0  0  0  0  0  0  0  0
   -0.2234  -11.8615   16.8874 C   0  0  0  0  0  0  0  0  0  0  0  0
    6.4491   -4.1532   30.1213 C   0  0  0  0  0  0  0  0  0  0  0  0
    5.7060   -4.4340   27.4975 C   0  0  0  0  0  0  0  0  0  0  0  0
    1.1818   -5.6612   28.8399 C   0  0  0  0  0  0  0  0  0  0  0  0
   -1.2067   -7.3287   17.7772 C   0  0  0  0  0  0  0  0  0  0  0  0
   -0.0206  -10.5585   16.6210 C   0  0  0  0  0  0  0  0  0  0  0  0
    0.3696  -12.7626   16.2169 O   0  0  0  0  0  0  0  0  0  0  0  0
   -0.6895   -9.5676   17.3297 C   0  0  0  0  0  0  0  0  0  0  0  0
    0.8388   -5.8417   27.5264 C   0  0  0  0  0  0  0  0  0  0  0  0
   -2.0709   -7.6637   18.7817 C   0  0  0  0  0  0  0  0  0  0  0  0
   -0.5279   -8.2168   17.0717 C   0  0  0  0  0  0  0  0  0  0  0  0
    6.9694   -4.0191   27.8190 C   0  0  0  0  0  0  0  0  0  0  0  0
    5.1733   -4.5469   29.8123 C   0  0  0  0  0  0  0  0  0  0  0  0
   -1.7508  -11.3016   18.6072 C   0  0  0  0  0  0  0  0  0  0  0  0
    1.7497   -5.6771   26.4971 C   0  0  0  0  0  0  0  0  0  0  0  0
   -1.5799   -9.9322   18.3468 C   0  0  0  0  0  0  0  0  0  0  0  0
   -1.0871  -12.2214   17.8851 C   0  0  0  0  0  0  0  0  0  0  0  0
   -2.2706   -8.9669   19.0691 C   0  0  0  0  0  0  0  0  0  0  0  0
    3.0279   -5.3073   26.8197 C   0  0  0  0  0  0  0  0  0  0  0  0
    7.3282   -3.8948   29.1186 C   0  0  0  0  0  0  0  0  0  0  0  0
  1  3  4  0
  1  7  4  0
  2  3  1  0
  2  6  4  0
  2 16  4  0
  3 22  4  0
  4  9  4  0
  4 10  1  0
  4 20  4  0
  5 16  4  0
  5 23  4  0
  6 15  4  0
  7 12  4  0
  8 13  4  0
  8 14  4  0
  9 11  4  0
 11 14  4  0
 11 19  4  0
 12 18  4  0
 13 21  4  0
 15 23  4  0
 17 19  4  0
 17 20  4  0
 18 22  4  0
 19 21  4  0
M  END
$$$$

 Created by Python create_sdf_string function

 23 25  0  0  0  0  0  0  0  0999 V2000
    2.4610   -5.3070   29.1240 C   0  0  0  0  0  0  0  0  0  0  0  0
    4.7710   -4.6952   28.4803 C   0  0  0  0  0  0  0  0  0  0  0  0
    3.4047   -5.1087   28.1314 C   0  0  0  0  0  0  0  0  0  0  0  0
   -0.2234  -11.8615   16.8874 C   0  0  0  0  0  0  0  0  0  0  0  0
    6.4491   -4.1532   30.1213 C   0  0  0  0  0  0  0  0  0  0  0  0
    5.7060   -4.4340   27.4975 C   0  0  0  0  0  0  0  0  0  0  0  0
    1.1818   -5.6612   28.8399 C   0  0  0  0  0  0  0  0  0  0  0  0
   -1.2067   -7.3287   17.7772 C   0  0  0  0  0  0  0  0  0  0  0  0
   -0.0206  -10.5585   16.6210 C   0  0  0  0  0  0  0  0  0  0  0  0
    0.3696  -12.7626   16.2169 O   0  0  0  0  0  0  0  0  0  0  0  0
   -0.6895   -9.5676   17.3297 C   0  0  0  0  0  0  0  0  0  0  0  0
    0.8388   -5.8417   27.5264 C   0  0  0  0  0  0  0  0  0  0  0  0
   -2.0709   -7.6637   18.7817 C   0  0  0  0  0  0  0  0  0  0  0  0
   -0.5279   -8.2168   17.0717 C   0  0  0  0  0  0  0  0  0  0  0  0
    6.9694   -4.0191   27.8190 C   0  0  0  0  0  0  0  0  0  0  0  0
    5.1733   -4.5469   29.8123 C   0  0  0  0  0  0  0  0  0  0  0  0
   -1.7508  -11.3016   18.6072 C   0  0  0  0  0  0  0  0  0  0  0  0
    1.7497   -5.6771   26.4971 C   0  0  0  0  0  0  0  0  0  0  0  0
   -1.5799   -9.9322   18.3468 C   0  0  0  0  0  0  0  0  0  0  0  0
   -1.0871  -12.2214   17.8851 C   0  0  0  0  0  0  0  0  0  0  0  0
   -2.2706   -8.9669   19.0691 C   0  0  0  0  0  0  0  0  0  0  0  0
    3.0279   -5.3073   26.8197 C   0  0  0  0  0  0  0  0  0  0  0  0
    7.3282   -3.8948   29.1186 C   0  0  0  0  0  0  0  0  0  0  0  0
  1  3  4  0
  1  7  4  0
  2  3  1  0
  2  6  4  0
  2 16  4  0
  3 22  4  0
  4  9  4  0
  4 10  1  0
  4 20  4  0
  5 16  4  0
  5 23  4  0
  6 15  4  0
  7 12  4  0
  8 13  4  0
  8 14  4  0
  9 11  4  0
 11 14  4  0
 11 19  4  0
 12 18  4  0
 13 21  4  0
 15 23  4  0
 17 19  4  0
 17 20  4  0
 18 22  4  0
 19 21  4  0
M  END
$$$$

 Created by Python create_sdf_string function

 23 25  0  0  0  0  0  0  0  0999 V2000
    2.4610   -5.3070   29.1240 C   0  0  0  0  0  0  0  0  0  0  0  0
    4.7710   -4.6952   28.4803 C   0  0  0  0  0  0  0  0  0  0  0  0
    3.4047   -5.1087   28.1314 C   0  0  0  0  0  0  0  0  0  0  0  0
   -0.2234  -11.8615   16.8874 C   0  0  0  0  0  0  0  0  0  0  0  0
    6.4491   -4.1532   30.1213 C   0  0  0  0  0  0  0  0  0  0  0  0
    5.7060   -4.4340   27.4975 C   0  0  0  0  0  0  0  0  0  0  0  0
    1.1818   -5.6612   28.8399 C   0  0  0  0  0  0  0  0  0  0  0  0
   -1.2067   -7.3287   17.7772 C   0  0  0  0  0  0  0  0  0  0  0  0
   -0.0206  -10.5585   16.6210 C   0  0  0  0  0  0  0  0  0  0  0  0
    0.3696  -12.7626   16.2169 O   0  0  0  0  0  0  0  0  0  0  0  0
   -0.6895   -9.5676   17.3297 C   0  0  0  0  0  0  0  0  0  0  0  0
    0.8388   -5.8417   27.5264 C   0  0  0  0  0  0  0  0  0  0  0  0
   -2.0709   -7.6637   18.7817 C   0  0  0  0  0  0  0  0  0  0  0  0
   -0.5279   -8.2168   17.0717 C   0  0  0  0  0  0  0  0  0  0  0  0
    6.9694   -4.0191   27.8190 C   0  0  0  0  0  0  0  0  0  0  0  0
    5.1733   -4.5469   29.8123 C   0  0  0  0  0  0  0  0  0  0  0  0
   -1.7508  -11.3016   18.6072 C   0  0  0  0  0  0  0  0  0  0  0  0
    1.7497   -5.6771   26.4971 C   0  0  0  0  0  0  0  0  0  0  0  0
   -1.5799   -9.9322   18.3468 C   0  0  0  0  0  0  0  0  0  0  0  0
   -1.0871  -12.2214   17.8851 C   0  0  0  0  0  0  0  0  0  0  0  0
   -2.2706   -8.9669   19.0691 C   0  0  0  0  0  0  0  0  0  0  0  0
    3.0279   -5.3073   26.8197 C   0  0  0  0  0  0  0  0  0  0  0  0
    7.3282   -3.8948   29.1186 C   0  0  0  0  0  0  0  0  0  0  0  0
  1  3  4  0
  1  7  4  0
  2  3  1  0
  2  6  4  0
  2 16  4  0
  3 22  4  0
  4  9  4  0
  4 10  1  0
  4 20  4  0
  5 16  4  0
  5 23  4  0
  6 15  4  0
  7 12  4  0
  8 13  4  0
  8 14  4  0
  9 11  4  0
 11 14  4  0
 11 19  4  0
 12 18  4  0
 13 21  4  0
 15 23  4  0
 17 19  4  0
 17 20  4  0
 18 22  4  0
 19 21  4  0
M  END
$$$$

 Created by Python create_sdf_string function

 23 25  0  0  0  0  0  0  0  0999 V2000
    2.4610   -5.3070   29.1240 C   0  0  0  0  0  0  0  0  0  0  0  0
    4.7710   -4.6952   28.4803 C   0  0  0  0  0  0  0  0  0  0  0  0
    3.4047   -5.1087   28.1314 C   0  0  0  0  0  0  0  0  0  0  0  0
   -0.2234  -11.8615   16.8874 C   0  0  0  0  0  0  0  0  0  0  0  0
    6.4491   -4.1532   30.1213 C   0  0  0  0  0  0  0  0  0  0  0  0
    5.7060   -4.4340   27.4975 C   0  0  0  0  0  0  0  0  0  0  0  0
    1.1818   -5.6612   28.8399 C   0  0  0  0  0  0  0  0  0  0  0  0
   -1.2067   -7.3287   17.7772 C   0  0  0  0  0  0  0  0  0  0  0  0
   -0.0206  -10.5585   16.6210 C   0  0  0  0  0  0  0  0  0  0  0  0
    0.3696  -12.7626   16.2169 O   0  0  0  0  0  0  0  0  0  0  0  0
   -0.6895   -9.5676   17.3297 C   0  0  0  0  0  0  0  0  0  0  0  0
    0.8388   -5.8417   27.5264 C   0  0  0  0  0  0  0  0  0  0  0  0
   -2.0709   -7.6637   18.7817 C   0  0  0  0  0  0  0  0  0  0  0  0
   -0.5279   -8.2168   17.0717 C   0  0  0  0  0  0  0  0  0  0  0  0
    6.9694   -4.0191   27.8190 C   0  0  0  0  0  0  0  0  0  0  0  0
    5.1733   -4.5469   29.8123 C   0  0  0  0  0  0  0  0  0  0  0  0
   -1.7508  -11.3016   18.6072 C   0  0  0  0  0  0  0  0  0  0  0  0
    1.7497   -5.6771   26.4971 C   0  0  0  0  0  0  0  0  0  0  0  0
   -1.5799   -9.9322   18.3468 C   0  0  0  0  0  0  0  0  0  0  0  0
   -1.0871  -12.2214   17.8851 C   0  0  0  0  0  0  0  0  0  0  0  0
   -2.2706   -8.9669   19.0691 C   0  0  0  0  0  0  0  0  0  0  0  0
    3.0279   -5.3073   26.8197 C   0  0  0  0  0  0  0  0  0  0  0  0
    7.3282   -3.8948   29.1186 C   0  0  0  0  0  0  0  0  0  0  0  0
  1  3  4  0
  1  7  4  0
  2  3  1  0
  2  6  4  0
  2 16  4  0
  3 22  4  0
  4  9  4  0
  4 10  1  0
  4 20  4  0
  5 16  4  0
  5 23  4  0
  6 15  4  0
  7 12  4  0
  8 13  4  0
  8 14  4  0
  9 11  4  0
 11 14  4  0
 11 19  4  0
 12 18  4  0
 13 21  4  0
 15 23  4  0
 17 19  4  0
 17 20  4  0
 18 22  4  0
 19 21  4  0
M  END
$$$$

 Created by Python create_sdf_string function

 23 25  0  0  0  0  0  0  0  0999 V2000
    2.4610   -5.3070   29.1240 C   0  0  0  0  0  0  0  0  0  0  0  0
    4.7710   -4.6952   28.4803 C   0  0  0  0  0  0  0  0  0  0  0  0
    3.4047   -5.1087   28.1314 C   0  0  0  0  0  0  0  0  0  0  0  0
   -0.2234  -11.8615   16.8874 C   0  0  0  0  0  0  0  0  0  0  0  0
    6.4491   -4.1532   30.1213 C   0  0  0  0  0  0  0  0  0  0  0  0
    5.7060   -4.4340   27.4975 C   0  0  0  0  0  0  0  0  0  0  0  0
    1.1818   -5.6612   28.8399 C   0  0  0  0  0  0  0  0  0  0  0  0
   -1.2067   -7.3287   17.7772 C   0  0  0  0  0  0  0  0  0  0  0  0
   -0.0206  -10.5585   16.6210 C   0  0  0  0  0  0  0  0  0  0  0  0
    0.3696  -12.7626   16.2169 O   0  0  0  0  0  0  0  0  0  0  0  0
   -0.6895   -9.5676   17.3297 C   0  0  0  0  0  0  0  0  0  0  0  0
    0.8388   -5.8417   27.5264 C   0  0  0  0  0  0  0  0  0  0  0  0
   -2.0709   -7.6637   18.7817 C   0  0  0  0  0  0  0  0  0  0  0  0
   -0.5279   -8.2168   17.0717 C   0  0  0  0  0  0  0  0  0  0  0  0
    6.9694   -4.0191   27.8190 C   0  0  0  0  0  0  0  0  0  0  0  0
    5.1733   -4.5469   29.8123 C   0  0  0  0  0  0  0  0  0  0  0  0
   -1.7508  -11.3016   18.6072 C   0  0  0  0  0  0  0  0  0  0  0  0
    1.7497   -5.6771   26.4971 C   0  0  0  0  0  0  0  0  0  0  0  0
   -1.5799   -9.9322   18.3468 C   0  0  0  0  0  0  0  0  0  0  0  0
   -1.0871  -12.2214   17.8851 C   0  0  0  0  0  0  0  0  0  0  0  0
   -2.2706   -8.9669   19.0691 C   0  0  0  0  0  0  0  0  0  0  0  0
    3.0279   -5.3073   26.8197 C   0  0  0  0  0  0  0  0  0  0  0  0
    7.3282   -3.8948   29.1186 C   0  0  0  0  0  0  0  0  0  0  0  0
  1  3  4  0
  1  7  4  0
  2  3  1  0
  2  6  4  0
  2 16  4  0
  3 22  4  0
  4  9  4  0
  4 10  1  0
  4 20  4  0
  5 16  4  0
  5 23  4  0
  6 15  4  0
  7 12  4  0
  8 13  4  0
  8 14  4  0
  9 11  4  0
 11 14  4  0
 11 19  4  0
 12 18  4  0
 13 21  4  0
 15 23  4  0
 17 19  4  0
 17 20  4  0
 18 22  4  0
 19 21  4  0
M  END
$$$$

 Created by Python create_sdf_string function

 23 25  0  0  0  0  0  0  0  0999 V2000
    2.4610   -5.3070   29.1240 C   0  0  0  0  0  0  0  0  0  0  0  0
    4.7710   -4.6952   28.4803 C   0  0  0  0  0  0  0  0  0  0  0  0
    3.4047   -5.1087   28.1314 C   0  0  0  0  0  0  0  0  0  0  0  0
   -0.2234  -11.8615   16.8874 C   0  0  0  0  0  0  0  0  0  0  0  0
    6.4491   -4.1532   30.1213 C   0  0  0  0  0  0  0  0  0  0  0  0
    5.7060   -4.4340   27.4975 C   0  0  0  0  0  0  0  0  0  0  0  0
    1.1818   -5.6612   28.8399 C   0  0  0  0  0  0  0  0  0  0  0  0
   -1.2067   -7.3287   17.7772 C   0  0  0  0  0  0  0  0  0  0  0  0
   -0.0206  -10.5585   16.6210 C   0  0  0  0  0  0  0  0  0  0  0  0
    0.3696  -12.7626   16.2169 O   0  0  0  0  0  0  0  0  0  0  0  0
   -0.6895   -9.5676   17.3297 C   0  0  0  0  0  0  0  0  0  0  0  0
    0.8388   -5.8417   27.5264 C   0  0  0  0  0  0  0  0  0  0  0  0
   -2.0709   -7.6637   18.7817 C   0  0  0  0  0  0  0  0  0  0  0  0
   -0.5279   -8.2168   17.0717 C   0  0  0  0  0  0  0  0  0  0  0  0
    6.9694   -4.0191   27.8190 C   0  0  0  0  0  0  0  0  0  0  0  0
    5.1733   -4.5469   29.8123 C   0  0  0  0  0  0  0  0  0  0  0  0
   -1.7508  -11.3016   18.6072 C   0  0  0  0  0  0  0  0  0  0  0  0
    1.7497   -5.6771   26.4971 C   0  0  0  0  0  0  0  0  0  0  0  0
   -1.5799   -9.9322   18.3468 C   0  0  0  0  0  0  0  0  0  0  0  0
   -1.0871  -12.2214   17.8851 C   0  0  0  0  0  0  0  0  0  0  0  0
   -2.2706   -8.9669   19.0691 C   0  0  0  0  0  0  0  0  0  0  0  0
    3.0279   -5.3073   26.8197 C   0  0  0  0  0  0  0  0  0  0  0  0
    7.3282   -3.8948   29.1186 C   0  0  0  0  0  0  0  0  0  0  0  0
  1  3  4  0
  1  7  4  0
  2  3  1  0
  2  6  4  0
  2 16  4  0
  3 22  4  0
  4  9  4  0
  4 10  1  0
  4 20  4  0
  5 16  4  0
  5 23  4  0
  6 15  4  0
  7 12  4  0
  8 13  4  0
  8 14  4  0
  9 11  4  0
 11 14  4  0
 11 19  4  0
 12 18  4  0
 13 21  4  0
 15 23  4  0
 17 19  4  0
 17 20  4  0
 18 22  4  0
 19 21  4  0
M  END
$$$$

 Created by Python create_sdf_string function

 23 25  0  0  0  0  0  0  0  0999 V2000
    2.4610   -5.3070   29.1240 C   0  0  0  0  0  0  0  0  0  0  0  0
    4.7710   -4.6952   28.4803 C   0  0  0  0  0  0  0  0  0  0  0  0
    3.4047   -5.1087   28.1314 C   0  0  0  0  0  0  0  0  0  0  0  0
   -0.2234  -11.8615   16.8874 C   0  0  0  0  0  0  0  0  0  0  0  0
    6.4491   -4.1532   30.1213 C   0  0  0  0  0  0  0  0  0  0  0  0
    5.7060   -4.4340   27.4975 C   0  0  0  0  0  0  0  0  0  0  0  0
    1.1818   -5.6612   28.8399 C   0  0  0  0  0  0  0  0  0  0  0  0
   -1.2067   -7.3287   17.7772 C   0  0  0  0  0  0  0  0  0  0  0  0
   -0.0206  -10.5585   16.6210 C   0  0  0  0  0  0  0  0  0  0  0  0
    0.3696  -12.7626   16.2169 O   0  0  0  0  0  0  0  0  0  0  0  0
   -0.6895   -9.5676   17.3297 C   0  0  0  0  0  0  0  0  0  0  0  0
    0.8388   -5.8417   27.5264 C   0  0  0  0  0  0  0  0  0  0  0  0
   -2.0709   -7.6637   18.7817 C   0  0  0  0  0  0  0  0  0  0  0  0
   -0.5279   -8.2168   17.0717 C   0  0  0  0  0  0  0  0  0  0  0  0
    6.9694   -4.0191   27.8190 C   0  0  0  0  0  0  0  0  0  0  0  0
    5.1733   -4.5469   29.8123 C   0  0  0  0  0  0  0  0  0  0  0  0
   -1.7508  -11.3016   18.6072 C   0  0  0  0  0  0  0  0  0  0  0  0
    1.7497   -5.6771   26.4971 C   0  0  0  0  0  0  0  0  0  0  0  0
   -1.5799   -9.9322   18.3468 C   0  0  0  0  0  0  0  0  0  0  0  0
   -1.0871  -12.2214   17.8851 C   0  0  0  0  0  0  0  0  0  0  0  0
   -2.2706   -8.9669   19.0691 C   0  0  0  0  0  0  0  0  0  0  0  0
    3.0279   -5.3073   26.8197 C   0  0  0  0  0  0  0  0  0  0  0  0
    7.3282   -3.8948   29.1186 C   0  0  0  0  0  0  0  0  0  0  0  0
  1  3  4  0
  1  7  4  0
  2  3  1  0
  2  6  4  0
  2 16  4  0
  3 22  4  0
  4  9  4  0
  4 10  1  0
  4 20  4  0
  5 16  4  0
  5 23  4  0
  6 15  4  0
  7 12  4  0
  8 13  4  0
  8 14  4  0
  9 11  4  0
 11 14  4  0
 11 19  4  0
 12 18  4  0
 13 21  4  0
 15 23  4  0
 17 19  4  0
 17 20  4  0
 18 22  4  0
 19 21  4  0
M  END
$$$$

 Created by Python create_sdf_string function

 23 25  0  0  0  0  0  0  0  0999 V2000
    2.4610   -5.3070   29.1240 C   0  0  0  0  0  0  0  0  0  0  0  0
    4.7710   -4.6952   28.4803 C   0  0  0  0  0  0  0  0  0  0  0  0
    3.4047   -5.1087   28.1314 C   0  0  0  0  0  0  0  0  0  0  0  0
   -0.2234  -11.8615   16.8874 C   0  0  0  0  0  0  0  0  0  0  0  0
    6.4491   -4.1532   30.1213 C   0  0  0  0  0  0  0  0  0  0  0  0
    5.7060   -4.4340   27.4975 C   0  0  0  0  0  0  0  0  0  0  0  0
    1.1818   -5.6612   28.8399 C   0  0  0  0  0  0  0  0  0  0  0  0
   -1.2067   -7.3287   17.7772 C   0  0  0  0  0  0  0  0  0  0  0  0
   -0.0206  -10.5585   16.6210 C   0  0  0  0  0  0  0  0  0  0  0  0
    0.3696  -12.7626   16.2169 O   0  0  0  0  0  0  0  0  0  0  0  0
   -0.6895   -9.5676   17.3297 C   0  0  0  0  0  0  0  0  0  0  0  0
    0.8388   -5.8417   27.5264 C   0  0  0  0  0  0  0  0  0  0  0  0
   -2.0709   -7.6637   18.7817 C   0  0  0  0  0  0  0  0  0  0  0  0
   -0.5279   -8.2168   17.0717 C   0  0  0  0  0  0  0  0  0  0  0  0
    6.9694   -4.0191   27.8190 C   0  0  0  0  0  0  0  0  0  0  0  0
    5.1733   -4.5469   29.8123 C   0  0  0  0  0  0  0  0  0  0  0  0
   -1.7508  -11.3016   18.6072 C   0  0  0  0  0  0  0  0  0  0  0  0
    1.7497   -5.6771   26.4971 C   0  0  0  0  0  0  0  0  0  0  0  0
   -1.5799   -9.9322   18.3468 C   0  0  0  0  0  0  0  0  0  0  0  0
   -1.0871  -12.2214   17.8851 C   0  0  0  0  0  0  0  0  0  0  0  0
   -2.2706   -8.9669   19.0691 C   0  0  0  0  0  0  0  0  0  0  0  0
    3.0279   -5.3073   26.8197 C   0  0  0  0  0  0  0  0  0  0  0  0
    7.3282   -3.8948   29.1186 C   0  0  0  0  0  0  0  0  0  0  0  0
  1  3  4  0
  1  7  4  0
  2  3  1  0
  2  6  4  0
  2 16  4  0
  3 22  4  0
  4  9  4  0
  4 10  1  0
  4 20  4  0
  5 16  4  0
  5 23  4  0
  6 15  4  0
  7 12  4  0
  8 13  4  0
  8 14  4  0
  9 11  4  0
 11 14  4  0
 11 19  4  0
 12 18  4  0
 13 21  4  0
 15 23  4  0
 17 19  4  0
 17 20  4  0
 18 22  4  0
 19 21  4  0
M  END
$$$$

 Created by Python create_sdf_string function

 23 25  0  0  0  0  0  0  0  0999 V2000
    2.4610   -5.3070   29.1240 C   0  0  0  0  0  0  0  0  0  0  0  0
    4.7710   -4.6952   28.4803 C   0  0  0  0  0  0  0  0  0  0  0  0
    3.4047   -5.1087   28.1314 C   0  0  0  0  0  0  0  0  0  0  0  0
   -0.2234  -11.8615   16.8874 C   0  0  0  0  0  0  0  0  0  0  0  0
    6.4491   -4.1532   30.1213 C   0  0  0  0  0  0  0  0  0  0  0  0
    5.7060   -4.4340   27.4975 C   0  0  0  0  0  0  0  0  0  0  0  0
    1.1818   -5.6612   28.8399 C   0  0  0  0  0  0  0  0  0  0  0  0
   -1.2067   -7.3287   17.7772 C   0  0  0  0  0  0  0  0  0  0  0  0
   -0.0206  -10.5585   16.6210 C   0  0  0  0  0  0  0  0  0  0  0  0
    0.3696  -12.7626   16.2169 O   0  0  0  0  0  0  0  0  0  0  0  0
   -0.6895   -9.5676   17.3297 C   0  0  0  0  0  0  0  0  0  0  0  0
    0.8388   -5.8417   27.5264 C   0  0  0  0  0  0  0  0  0  0  0  0
   -2.0709   -7.6637   18.7817 C   0  0  0  0  0  0  0  0  0  0  0  0
   -0.5279   -8.2168   17.0717 C   0  0  0  0  0  0  0  0  0  0  0  0
    6.9694   -4.0191   27.8190 C   0  0  0  0  0  0  0  0  0  0  0  0
    5.1733   -4.5469   29.8123 C   0  0  0  0  0  0  0  0  0  0  0  0
   -1.7508  -11.3016   18.6072 C   0  0  0  0  0  0  0  0  0  0  0  0
    1.7497   -5.6771   26.4971 C   0  0  0  0  0  0  0  0  0  0  0  0
   -1.5799   -9.9322   18.3468 C   0  0  0  0  0  0  0  0  0  0  0  0
   -1.0871  -12.2214   17.8851 C   0  0  0  0  0  0  0  0  0  0  0  0
   -2.2706   -8.9669   19.0691 C   0  0  0  0  0  0  0  0  0  0  0  0
    3.0279   -5.3073   26.8197 C   0  0  0  0  0  0  0  0  0  0  0  0
    7.3282   -3.8948   29.1186 C   0  0  0  0  0  0  0  0  0  0  0  0
  1  3  4  0
  1  7  4  0
  2  3  1  0
  2  6  4  0
  2 16  4  0
  3 22  4  0
  4  9  4  0
  4 10  1  0
  4 20  4  0
  5 16  4  0
  5 23  4  0
  6 15  4  0
  7 12  4  0
  8 13  4  0
  8 14  4  0
  9 11  4  0
 11 14  4  0
 11 19  4  0
 12 18  4  0
 13 21  4  0
 15 23  4  0
 17 19  4  0
 17 20  4  0
 18 22  4  0
 19 21  4  0
M  END
$$$$

 Created by Python create_sdf_string function

 23 25  0  0  0  0  0  0  0  0999 V2000
    2.4610   -5.3070   29.1240 C   0  0  0  0  0  0  0  0  0  0  0  0
    4.7710   -4.6952   28.4803 C   0  0  0  0  0  0  0  0  0  0  0  0
    3.4047   -5.1087   28.1314 C   0  0  0  0  0  0  0  0  0  0  0  0
   -0.2234  -11.8615   16.8874 C   0  0  0  0  0  0  0  0  0  0  0  0
    6.4491   -4.1532   30.1213 C   0  0  0  0  0  0  0  0  0  0  0  0
    5.7060   -4.4340   27.4975 C   0  0  0  0  0  0  0  0  0  0  0  0
    1.1818   -5.6612   28.8399 C   0  0  0  0  0  0  0  0  0  0  0  0
   -1.2067   -7.3287   17.7772 C   0  0  0  0  0  0  0  0  0  0  0  0
   -0.0206  -10.5585   16.6210 C   0  0  0  0  0  0  0  0  0  0  0  0
    0.3696  -12.7626   16.2169 O   0  0  0  0  0  0  0  0  0  0  0  0
   -0.6895   -9.5676   17.3297 C   0  0  0  0  0  0  0  0  0  0  0  0
    0.8388   -5.8417   27.5264 C   0  0  0  0  0  0  0  0  0  0  0  0
   -2.0709   -7.6637   18.7817 C   0  0  0  0  0  0  0  0  0  0  0  0
   -0.5279   -8.2168   17.0717 C   0  0  0  0  0  0  0  0  0  0  0  0
    6.9694   -4.0191   27.8190 C   0  0  0  0  0  0  0  0  0  0  0  0
    5.1733   -4.5469   29.8123 C   0  0  0  0  0  0  0  0  0  0  0  0
   -1.7508  -11.3016   18.6072 C   0  0  0  0  0  0  0  0  0  0  0  0
    1.7497   -5.6771   26.4971 C   0  0  0  0  0  0  0  0  0  0  0  0
   -1.5799   -9.9322   18.3468 C   0  0  0  0  0  0  0  0  0  0  0  0
   -1.0871  -12.2214   17.8851 C   0  0  0  0  0  0  0  0  0  0  0  0
   -2.2706   -8.9669   19.0691 C   0  0  0  0  0  0  0  0  0  0  0  0
    3.0279   -5.3073   26.8197 C   0  0  0  0  0  0  0  0  0  0  0  0
    7.3282   -3.8948   29.1186 C   0  0  0  0  0  0  0  0  0  0  0  0
  1  3  4  0
  1  7  4  0
  2  3  1  0
  2  6  4  0
  2 16  4  0
  3 22  4  0
  4  9  4  0
  4 10  1  0
  4 20  4  0
  5 16  4  0
  5 23  4  0
  6 15  4  0
  7 12  4  0
  8 13  4  0
  8 14  4  0
  9 11  4  0
 11 14  4  0
 11 19  4  0
 12 18  4  0
 13 21  4  0
 15 23  4  0
 17 19  4  0
 17 20  4  0
 18 22  4  0
 19 21  4  0
M  END
$$$$

 Created by Python create_sdf_string function

 23 25  0  0  0  0  0  0  0  0999 V2000
    2.4610   -5.3070   29.1240 C   0  0  0  0  0  0  0  0  0  0  0  0
    4.7710   -4.6952   28.4803 C   0  0  0  0  0  0  0  0  0  0  0  0
    3.4047   -5.1087   28.1314 C   0  0  0  0  0  0  0  0  0  0  0  0
   -0.2234  -11.8615   16.8874 C   0  0  0  0  0  0  0  0  0  0  0  0
    6.4491   -4.1532   30.1213 C   0  0  0  0  0  0  0  0  0  0  0  0
    5.7060   -4.4340   27.4975 C   0  0  0  0  0  0  0  0  0  0  0  0
    1.1818   -5.6612   28.8399 C   0  0  0  0  0  0  0  0  0  0  0  0
   -1.2067   -7.3287   17.7772 C   0  0  0  0  0  0  0  0  0  0  0  0
   -0.0206  -10.5585   16.6210 C   0  0  0  0  0  0  0  0  0  0  0  0
    0.3696  -12.7626   16.2169 O   0  0  0  0  0  0  0  0  0  0  0  0
   -0.6895   -9.5676   17.3297 C   0  0  0  0  0  0  0  0  0  0  0  0
    0.8388   -5.8417   27.5264 C   0  0  0  0  0  0  0  0  0  0  0  0
   -2.0709   -7.6637   18.7817 C   0  0  0  0  0  0  0  0  0  0  0  0
   -0.5279   -8.2168   17.0717 C   0  0  0  0  0  0  0  0  0  0  0  0
    6.9694   -4.0191   27.8190 C   0  0  0  0  0  0  0  0  0  0  0  0
    5.1733   -4.5469   29.8123 C   0  0  0  0  0  0  0  0  0  0  0  0
   -1.7508  -11.3016   18.6072 C   0  0  0  0  0  0  0  0  0  0  0  0
    1.7497   -5.6771   26.4971 C   0  0  0  0  0  0  0  0  0  0  0  0
   -1.5799   -9.9322   18.3468 C   0  0  0  0  0  0  0  0  0  0  0  0
   -1.0871  -12.2214   17.8851 C   0  0  0  0  0  0  0  0  0  0  0  0
   -2.2706   -8.9669   19.0691 C   0  0  0  0  0  0  0  0  0  0  0  0
    3.0279   -5.3073   26.8197 C   0  0  0  0  0  0  0  0  0  0  0  0
    7.3282   -3.8948   29.1186 C   0  0  0  0  0  0  0  0  0  0  0  0
  1  3  4  0
  1  7  4  0
  2  3  1  0
  2  6  4  0
  2 16  4  0
  3 22  4  0
  4  9  4  0
  4 10  1  0
  4 20  4  0
  5 16  4  0
  5 23  4  0
  6 15  4  0
  7 12  4  0
  8 13  4  0
  8 14  4  0
  9 11  4  0
 11 14  4  0
 11 19  4  0
 12 18  4  0
 13 21  4  0
 15 23  4  0
 17 19  4  0
 17 20  4  0
 18 22  4  0
 19 21  4  0
M  END
$$$$

 Created by Python create_sdf_string function

 23 25  0  0  0  0  0  0  0  0999 V2000
    2.4610   -5.3070   29.1240 C   0  0  0  0  0  0  0  0  0  0  0  0
    4.7710   -4.6952   28.4803 C   0  0  0  0  0  0  0  0  0  0  0  0
    3.4047   -5.1087   28.1314 C   0  0  0  0  0  0  0  0  0  0  0  0
   -0.2234  -11.8615   16.8874 C   0  0  0  0  0  0  0  0  0  0  0  0
    6.4491   -4.1532   30.1213 C   0  0  0  0  0  0  0  0  0  0  0  0
    5.7060   -4.4340   27.4975 C   0  0  0  0  0  0  0  0  0  0  0  0
    1.1818   -5.6612   28.8399 C   0  0  0  0  0  0  0  0  0  0  0  0
   -1.2067   -7.3287   17.7772 C   0  0  0  0  0  0  0  0  0  0  0  0
   -0.0206  -10.5585   16.6210 C   0  0  0  0  0  0  0  0  0  0  0  0
    0.3696  -12.7626   16.2169 O   0  0  0  0  0  0  0  0  0  0  0  0
   -0.6895   -9.5676   17.3297 C   0  0  0  0  0  0  0  0  0  0  0  0
    0.8388   -5.8417   27.5264 C   0  0  0  0  0  0  0  0  0  0  0  0
   -2.0709   -7.6637   18.7817 C   0  0  0  0  0  0  0  0  0  0  0  0
   -0.5279   -8.2168   17.0717 C   0  0  0  0  0  0  0  0  0  0  0  0
    6.9694   -4.0191   27.8190 C   0  0  0  0  0  0  0  0  0  0  0  0
    5.1733   -4.5469   29.8123 C   0  0  0  0  0  0  0  0  0  0  0  0
   -1.7508  -11.3016   18.6072 C   0  0  0  0  0  0  0  0  0  0  0  0
    1.7497   -5.6771   26.4971 C   0  0  0  0  0  0  0  0  0  0  0  0
   -1.5799   -9.9322   18.3468 C   0  0  0  0  0  0  0  0  0  0  0  0
   -1.0871  -12.2214   17.8851 C   0  0  0  0  0  0  0  0  0  0  0  0
   -2.2706   -8.9669   19.0691 C   0  0  0  0  0  0  0  0  0  0  0  0
    3.0279   -5.3073   26.8197 C   0  0  0  0  0  0  0  0  0  0  0  0
    7.3282   -3.8948   29.1186 C   0  0  0  0  0  0  0  0  0  0  0  0
  1  3  4  0
  1  7  4  0
  2  3  1  0
  2  6  4  0
  2 16  4  0
  3 22  4  0
  4  9  4  0
  4 10  1  0
  4 20  4  0
  5 16  4  0
  5 23  4  0
  6 15  4  0
  7 12  4  0
  8 13  4  0
  8 14  4  0
  9 11  4  0
 11 14  4  0
 11 19  4  0
 12 18  4  0
 13 21  4  0
 15 23  4  0
 17 19  4  0
 17 20  4  0
 18 22  4  0
 19 21  4  0
M  END
$$$$

 Created by Python create_sdf_string function

 23 25  0  0  0  0  0  0  0  0999 V2000
    2.4610   -5.3070   29.1240 C   0  0  0  0  0  0  0  0  0  0  0  0
    4.7710   -4.6952   28.4803 C   0  0  0  0  0  0  0  0  0  0  0  0
    3.4047   -5.1087   28.1314 C   0  0  0  0  0  0  0  0  0  0  0  0
   -0.2234  -11.8615   16.8874 C   0  0  0  0  0  0  0  0  0  0  0  0
    6.4491   -4.1532   30.1213 C   0  0  0  0  0  0  0  0  0  0  0  0
    5.7060   -4.4340   27.4975 C   0  0  0  0  0  0  0  0  0  0  0  0
    1.1818   -5.6612   28.8399 C   0  0  0  0  0  0  0  0  0  0  0  0
   -1.2067   -7.3287   17.7772 C   0  0  0  0  0  0  0  0  0  0  0  0
   -0.0206  -10.5585   16.6210 C   0  0  0  0  0  0  0  0  0  0  0  0
    0.3696  -12.7626   16.2169 O   0  0  0  0  0  0  0  0  0  0  0  0
   -0.6895   -9.5676   17.3297 C   0  0  0  0  0  0  0  0  0  0  0  0
    0.8388   -5.8417   27.5264 C   0  0  0  0  0  0  0  0  0  0  0  0
   -2.0709   -7.6637   18.7817 C   0  0  0  0  0  0  0  0  0  0  0  0
   -0.5279   -8.2168   17.0717 C   0  0  0  0  0  0  0  0  0  0  0  0
    6.9694   -4.0191   27.8190 C   0  0  0  0  0  0  0  0  0  0  0  0
    5.1733   -4.5469   29.8123 C   0  0  0  0  0  0  0  0  0  0  0  0
   -1.7508  -11.3016   18.6072 C   0  0  0  0  0  0  0  0  0  0  0  0
    1.7497   -5.6771   26.4971 C   0  0  0  0  0  0  0  0  0  0  0  0
   -1.5799   -9.9322   18.3468 C   0  0  0  0  0  0  0  0  0  0  0  0
   -1.0871  -12.2214   17.8851 C   0  0  0  0  0  0  0  0  0  0  0  0
   -2.2706   -8.9669   19.0691 C   0  0  0  0  0  0  0  0  0  0  0  0
    3.0279   -5.3073   26.8197 C   0  0  0  0  0  0  0  0  0  0  0  0
    7.3282   -3.8948   29.1186 C   0  0  0  0  0  0  0  0  0  0  0  0
  1  3  4  0
  1  7  4  0
  2  3  1  0
  2  6  4  0
  2 16  4  0
  3 22  4  0
  4  9  4  0
  4 10  1  0
  4 20  4  0
  5 16  4  0
  5 23  4  0
  6 15  4  0
  7 12  4  0
  8 13  4  0
  8 14  4  0
  9 11  4  0
 11 14  4  0
 11 19  4  0
 12 18  4  0
 13 21  4  0
 15 23  4  0
 17 19  4  0
 17 20  4  0
 18 22  4  0
 19 21  4  0
M  END
$$$$

 Created by Python create_sdf_string function

 23 25  0  0  0  0  0  0  0  0999 V2000
    2.4610   -5.3070   29.1240 C   0  0  0  0  0  0  0  0  0  0  0  0
    4.7710   -4.6952   28.4803 C   0  0  0  0  0  0  0  0  0  0  0  0
    3.4047   -5.1087   28.1314 C   0  0  0  0  0  0  0  0  0  0  0  0
   -0.2234  -11.8615   16.8874 C   0  0  0  0  0  0  0  0  0  0  0  0
    6.4491   -4.1532   30.1213 C   0  0  0  0  0  0  0  0  0  0  0  0
    5.7060   -4.4340   27.4975 C   0  0  0  0  0  0  0  0  0  0  0  0
    1.1818   -5.6612   28.8399 C   0  0  0  0  0  0  0  0  0  0  0  0
   -1.2067   -7.3287   17.7772 C   0  0  0  0  0  0  0  0  0  0  0  0
   -0.0206  -10.5585   16.6210 C   0  0  0  0  0  0  0  0  0  0  0  0
    0.3696  -12.7626   16.2169 O   0  0  0  0  0  0  0  0  0  0  0  0
   -0.6895   -9.5676   17.3297 C   0  0  0  0  0  0  0  0  0  0  0  0
    0.8388   -5.8417   27.5264 C   0  0  0  0  0  0  0  0  0  0  0  0
   -2.0709   -7.6637   18.7817 C   0  0  0  0  0  0  0  0  0  0  0  0
   -0.5279   -8.2168   17.0717 C   0  0  0  0  0  0  0  0  0  0  0  0
    6.9694   -4.0191   27.8190 C   0  0  0  0  0  0  0  0  0  0  0  0
    5.1733   -4.5469   29.8123 C   0  0  0  0  0  0  0  0  0  0  0  0
   -1.7508  -11.3016   18.6072 C   0  0  0  0  0  0  0  0  0  0  0  0
    1.7497   -5.6771   26.4971 C   0  0  0  0  0  0  0  0  0  0  0  0
   -1.5799   -9.9322   18.3468 C   0  0  0  0  0  0  0  0  0  0  0  0
   -1.0871  -12.2214   17.8851 C   0  0  0  0  0  0  0  0  0  0  0  0
   -2.2706   -8.9669   19.0691 C   0  0  0  0  0  0  0  0  0  0  0  0
    3.0279   -5.3073   26.8197 C   0  0  0  0  0  0  0  0  0  0  0  0
    7.3282   -3.8948   29.1186 C   0  0  0  0  0  0  0  0  0  0  0  0
  1  3  4  0
  1  7  4  0
  2  3  1  0
  2  6  4  0
  2 16  4  0
  3 22  4  0
  4  9  4  0
  4 10  1  0
  4 20  4  0
  5 16  4  0
  5 23  4  0
  6 15  4  0
  7 12  4  0
  8 13  4  0
  8 14  4  0
  9 11  4  0
 11 14  4  0
 11 19  4  0
 12 18  4  0
 13 21  4  0
 15 23  4  0
 17 19  4  0
 17 20  4  0
 18 22  4  0
 19 21  4  0
M  END
$$$$

 Created by Python create_sdf_string function

 23 25  0  0  0  0  0  0  0  0999 V2000
    2.4610   -5.3070   29.1240 C   0  0  0  0  0  0  0  0  0  0  0  0
    4.7710   -4.6952   28.4803 C   0  0  0  0  0  0  0  0  0  0  0  0
    3.4047   -5.1087   28.1314 C   0  0  0  0  0  0  0  0  0  0  0  0
   -0.2234  -11.8615   16.8874 C   0  0  0  0  0  0  0  0  0  0  0  0
    6.4491   -4.1532   30.1213 C   0  0  0  0  0  0  0  0  0  0  0  0
    5.7060   -4.4340   27.4975 C   0  0  0  0  0  0  0  0  0  0  0  0
    1.1818   -5.6612   28.8399 C   0  0  0  0  0  0  0  0  0  0  0  0
   -1.2067   -7.3287   17.7772 C   0  0  0  0  0  0  0  0  0  0  0  0
   -0.0206  -10.5585   16.6210 C   0  0  0  0  0  0  0  0  0  0  0  0
    0.3696  -12.7626   16.2169 O   0  0  0  0  0  0  0  0  0  0  0  0
   -0.6895   -9.5676   17.3297 C   0  0  0  0  0  0  0  0  0  0  0  0
    0.8388   -5.8417   27.5264 C   0  0  0  0  0  0  0  0  0  0  0  0
   -2.0709   -7.6637   18.7817 C   0  0  0  0  0  0  0  0  0  0  0  0
   -0.5279   -8.2168   17.0717 C   0  0  0  0  0  0  0  0  0  0  0  0
    6.9694   -4.0191   27.8190 C   0  0  0  0  0  0  0  0  0  0  0  0
    5.1733   -4.5469   29.8123 C   0  0  0  0  0  0  0  0  0  0  0  0
   -1.7508  -11.3016   18.6072 C   0  0  0  0  0  0  0  0  0  0  0  0
    1.7497   -5.6771   26.4971 C   0  0  0  0  0  0  0  0  0  0  0  0
   -1.5799   -9.9322   18.3468 C   0  0  0  0  0  0  0  0  0  0  0  0
   -1.0871  -12.2214   17.8851 C   0  0  0  0  0  0  0  0  0  0  0  0
   -2.2706   -8.9669   19.0691 C   0  0  0  0  0  0  0  0  0  0  0  0
    3.0279   -5.3073   26.8197 C   0  0  0  0  0  0  0  0  0  0  0  0
    7.3282   -3.8948   29.1186 C   0  0  0  0  0  0  0  0  0  0  0  0
  1  3  4  0
  1  7  4  0
  2  3  1  0
  2  6  4  0
  2 16  4  0
  3 22  4  0
  4  9  4  0
  4 10  1  0
  4 20  4  0
  5 16  4  0
  5 23  4  0
  6 15  4  0
  7 12  4  0
  8 13  4  0
  8 14  4  0
  9 11  4  0
 11 14  4  0
 11 19  4  0
 12 18  4  0
 13 21  4  0
 15 23  4  0
 17 19  4  0
 17 20  4  0
 18 22  4  0
 19 21  4  0
M  END
$$$$

 Created by Python create_sdf_string function

 23 25  0  0  0  0  0  0  0  0999 V2000
    2.4610   -5.3070   29.1240 C   0  0  0  0  0  0  0  0  0  0  0  0
    4.7710   -4.6952   28.4803 C   0  0  0  0  0  0  0  0  0  0  0  0
    3.4047   -5.1087   28.1314 C   0  0  0  0  0  0  0  0  0  0  0  0
   -0.2234  -11.8615   16.8874 C   0  0  0  0  0  0  0  0  0  0  0  0
    6.4491   -4.1532   30.1213 C   0  0  0  0  0  0  0  0  0  0  0  0
    5.7060   -4.4340   27.4975 C   0  0  0  0  0  0  0  0  0  0  0  0
    1.1818   -5.6612   28.8399 C   0  0  0  0  0  0  0  0  0  0  0  0
   -1.2067   -7.3287   17.7772 C   0  0  0  0  0  0  0  0  0  0  0  0
   -0.0206  -10.5585   16.6210 C   0  0  0  0  0  0  0  0  0  0  0  0
    0.3696  -12.7626   16.2169 O   0  0  0  0  0  0  0  0  0  0  0  0
   -0.6895   -9.5676   17.3297 C   0  0  0  0  0  0  0  0  0  0  0  0
    0.8388   -5.8417   27.5264 C   0  0  0  0  0  0  0  0  0  0  0  0
   -2.0709   -7.6637   18.7817 C   0  0  0  0  0  0  0  0  0  0  0  0
   -0.5279   -8.2168   17.0717 C   0  0  0  0  0  0  0  0  0  0  0  0
    6.9694   -4.0191   27.8190 C   0  0  0  0  0  0  0  0  0  0  0  0
    5.1733   -4.5469   29.8123 C   0  0  0  0  0  0  0  0  0  0  0  0
   -1.7508  -11.3016   18.6072 C   0  0  0  0  0  0  0  0  0  0  0  0
    1.7497   -5.6771   26.4971 C   0  0  0  0  0  0  0  0  0  0  0  0
   -1.5799   -9.9322   18.3468 C   0  0  0  0  0  0  0  0  0  0  0  0
   -1.0871  -12.2214   17.8851 C   0  0  0  0  0  0  0  0  0  0  0  0
   -2.2706   -8.9669   19.0691 C   0  0  0  0  0  0  0  0  0  0  0  0
    3.0279   -5.3073   26.8197 C   0  0  0  0  0  0  0  0  0  0  0  0
    7.3282   -3.8948   29.1186 C   0  0  0  0  0  0  0  0  0  0  0  0
  1  3  4  0
  1  7  4  0
  2  3  1  0
  2  6  4  0
  2 16  4  0
  3 22  4  0
  4  9  4  0
  4 10  1  0
  4 20  4  0
  5 16  4  0
  5 23  4  0
  6 15  4  0
  7 12  4  0
  8 13  4  0
  8 14  4  0
  9 11  4  0
 11 14  4  0
 11 19  4  0
 12 18  4  0
 13 21  4  0
 15 23  4  0
 17 19  4  0
 17 20  4  0
 18 22  4  0
 19 21  4  0
M  END
$$$$

 Created by Python create_sdf_string function

 23 25  0  0  0  0  0  0  0  0999 V2000
    2.4610   -5.3070   29.1240 C   0  0  0  0  0  0  0  0  0  0  0  0
    4.7710   -4.6952   28.4803 C   0  0  0  0  0  0  0  0  0  0  0  0
    3.4047   -5.1087   28.1314 C   0  0  0  0  0  0  0  0  0  0  0  0
   -0.2234  -11.8615   16.8874 C   0  0  0  0  0  0  0  0  0  0  0  0
    6.4491   -4.1532   30.1213 C   0  0  0  0  0  0  0  0  0  0  0  0
    5.7060   -4.4340   27.4975 C   0  0  0  0  0  0  0  0  0  0  0  0
    1.1818   -5.6612   28.8399 C   0  0  0  0  0  0  0  0  0  0  0  0
   -1.2067   -7.3287   17.7772 C   0  0  0  0  0  0  0  0  0  0  0  0
   -0.0206  -10.5585   16.6210 C   0  0  0  0  0  0  0  0  0  0  0  0
    0.3696  -12.7626   16.2169 O   0  0  0  0  0  0  0  0  0  0  0  0
   -0.6895   -9.5676   17.3297 C   0  0  0  0  0  0  0  0  0  0  0  0
    0.8388   -5.8417   27.5264 C   0  0  0  0  0  0  0  0  0  0  0  0
   -2.0709   -7.6637   18.7817 C   0  0  0  0  0  0  0  0  0  0  0  0
   -0.5279   -8.2168   17.0717 C   0  0  0  0  0  0  0  0  0  0  0  0
    6.9694   -4.0191   27.8190 C   0  0  0  0  0  0  0  0  0  0  0  0
    5.1733   -4.5469   29.8123 C   0  0  0  0  0  0  0  0  0  0  0  0
   -1.7508  -11.3016   18.6072 C   0  0  0  0  0  0  0  0  0  0  0  0
    1.7497   -5.6771   26.4971 C   0  0  0  0  0  0  0  0  0  0  0  0
   -1.5799   -9.9322   18.3468 C   0  0  0  0  0  0  0  0  0  0  0  0
   -1.0871  -12.2214   17.8851 C   0  0  0  0  0  0  0  0  0  0  0  0
   -2.2706   -8.9669   19.0691 C   0  0  0  0  0  0  0  0  0  0  0  0
    3.0279   -5.3073   26.8197 C   0  0  0  0  0  0  0  0  0  0  0  0
    7.3282   -3.8948   29.1186 C   0  0  0  0  0  0  0  0  0  0  0  0
  1  3  4  0
  1  7  4  0
  2  3  1  0
  2  6  4  0
  2 16  4  0
  3 22  4  0
  4  9  4  0
  4 10  1  0
  4 20  4  0
  5 16  4  0
  5 23  4  0
  6 15  4  0
  7 12  4  0
  8 13  4  0
  8 14  4  0
  9 11  4  0
 11 14  4  0
 11 19  4  0
 12 18  4  0
 13 21  4  0
 15 23  4  0
 17 19  4  0
 17 20  4  0
 18 22  4  0
 19 21  4  0
M  END
$$$$

 Created by Python create_sdf_string function

 23 25  0  0  0  0  0  0  0  0999 V2000
    2.4610   -5.3070   29.1240 C   0  0  0  0  0  0  0  0  0  0  0  0
    4.7710   -4.6952   28.4803 C   0  0  0  0  0  0  0  0  0  0  0  0
    3.4047   -5.1087   28.1314 C   0  0  0  0  0  0  0  0  0  0  0  0
   -0.2234  -11.8615   16.8874 C   0  0  0  0  0  0  0  0  0  0  0  0
    6.4491   -4.1532   30.1213 C   0  0  0  0  0  0  0  0  0  0  0  0
    5.7060   -4.4340   27.4975 C   0  0  0  0  0  0  0  0  0  0  0  0
    1.1818   -5.6612   28.8399 C   0  0  0  0  0  0  0  0  0  0  0  0
   -1.2067   -7.3287   17.7772 C   0  0  0  0  0  0  0  0  0  0  0  0
   -0.0206  -10.5585   16.6210 C   0  0  0  0  0  0  0  0  0  0  0  0
    0.3696  -12.7626   16.2169 O   0  0  0  0  0  0  0  0  0  0  0  0
   -0.6895   -9.5676   17.3297 C   0  0  0  0  0  0  0  0  0  0  0  0
    0.8388   -5.8417   27.5264 C   0  0  0  0  0  0  0  0  0  0  0  0
   -2.0709   -7.6637   18.7817 C   0  0  0  0  0  0  0  0  0  0  0  0
   -0.5279   -8.2168   17.0717 C   0  0  0  0  0  0  0  0  0  0  0  0
    6.9694   -4.0191   27.8190 C   0  0  0  0  0  0  0  0  0  0  0  0
    5.1733   -4.5469   29.8123 C   0  0  0  0  0  0  0  0  0  0  0  0
   -1.7508  -11.3016   18.6072 C   0  0  0  0  0  0  0  0  0  0  0  0
    1.7497   -5.6771   26.4971 C   0  0  0  0  0  0  0  0  0  0  0  0
   -1.5799   -9.9322   18.3468 C   0  0  0  0  0  0  0  0  0  0  0  0
   -1.0871  -12.2214   17.8851 C   0  0  0  0  0  0  0  0  0  0  0  0
   -2.2706   -8.9669   19.0691 C   0  0  0  0  0  0  0  0  0  0  0  0
    3.0279   -5.3073   26.8197 C   0  0  0  0  0  0  0  0  0  0  0  0
    7.3282   -3.8948   29.1186 C   0  0  0  0  0  0  0  0  0  0  0  0
  1  3  4  0
  1  7  4  0
  2  3  1  0
  2  6  4  0
  2 16  4  0
  3 22  4  0
  4  9  4  0
  4 10  1  0
  4 20  4  0
  5 16  4  0
  5 23  4  0
  6 15  4  0
  7 12  4  0
  8 13  4  0
  8 14  4  0
  9 11  4  0
 11 14  4  0
 11 19  4  0
 12 18  4  0
 13 21  4  0
 15 23  4  0
 17 19  4  0
 17 20  4  0
 18 22  4  0
 19 21  4  0
M  END
$$$$

 Created by Python create_sdf_string function

 23 25  0  0  0  0  0  0  0  0999 V2000
    2.4610   -5.3070   29.1240 C   0  0  0  0  0  0  0  0  0  0  0  0
    4.7710   -4.6952   28.4803 C   0  0  0  0  0  0  0  0  0  0  0  0
    3.4047   -5.1087   28.1314 C   0  0  0  0  0  0  0  0  0  0  0  0
   -0.2234  -11.8615   16.8874 C   0  0  0  0  0  0  0  0  0  0  0  0
    6.4491   -4.1532   30.1213 C   0  0  0  0  0  0  0  0  0  0  0  0
    5.7060   -4.4340   27.4975 C   0  0  0  0  0  0  0  0  0  0  0  0
    1.1818   -5.6612   28.8399 C   0  0  0  0  0  0  0  0  0  0  0  0
   -1.2067   -7.3287   17.7772 C   0  0  0  0  0  0  0  0  0  0  0  0
   -0.0206  -10.5585   16.6210 C   0  0  0  0  0  0  0  0  0  0  0  0
    0.3696  -12.7626   16.2169 O   0  0  0  0  0  0  0  0  0  0  0  0
   -0.6895   -9.5676   17.3297 C   0  0  0  0  0  0  0  0  0  0  0  0
    0.8388   -5.8417   27.5264 C   0  0  0  0  0  0  0  0  0  0  0  0
   -2.0709   -7.6637   18.7817 C   0  0  0  0  0  0  0  0  0  0  0  0
   -0.5279   -8.2168   17.0717 C   0  0  0  0  0  0  0  0  0  0  0  0
    6.9694   -4.0191   27.8190 C   0  0  0  0  0  0  0  0  0  0  0  0
    5.1733   -4.5469   29.8123 C   0  0  0  0  0  0  0  0  0  0  0  0
   -1.7508  -11.3016   18.6072 C   0  0  0  0  0  0  0  0  0  0  0  0
    1.7497   -5.6771   26.4971 C   0  0  0  0  0  0  0  0  0  0  0  0
   -1.5799   -9.9322   18.3468 C   0  0  0  0  0  0  0  0  0  0  0  0
   -1.0871  -12.2214   17.8851 C   0  0  0  0  0  0  0  0  0  0  0  0
   -2.2706   -8.9669   19.0691 C   0  0  0  0  0  0  0  0  0  0  0  0
    3.0279   -5.3073   26.8197 C   0  0  0  0  0  0  0  0  0  0  0  0
    7.3282   -3.8948   29.1186 C   0  0  0  0  0  0  0  0  0  0  0  0
  1  3  4  0
  1  7  4  0
  2  3  1  0
  2  6  4  0
  2 16  4  0
  3 22  4  0
  4  9  4  0
  4 10  1  0
  4 20  4  0
  5 16  4  0
  5 23  4  0
  6 15  4  0
  7 12  4  0
  8 13  4  0
  8 14  4  0
  9 11  4  0
 11 14  4  0
 11 19  4  0
 12 18  4  0
 13 21  4  0
 15 23  4  0
 17 19  4  0
 17 20  4  0
 18 22  4  0
 19 21  4  0
M  END
$$$$

 Created by Python create_sdf_string function

 23 25  0  0  0  0  0  0  0  0999 V2000
    2.4610   -5.3070   29.1240 C   0  0  0  0  0  0  0  0  0  0  0  0
    4.7710   -4.6952   28.4803 C   0  0  0  0  0  0  0  0  0  0  0  0
    3.4047   -5.1087   28.1314 C   0  0  0  0  0  0  0  0  0  0  0  0
   -0.2234  -11.8615   16.8874 C   0  0  0  0  0  0  0  0  0  0  0  0
    6.4491   -4.1532   30.1213 C   0  0  0  0  0  0  0  0  0  0  0  0
    5.7060   -4.4340   27.4975 C   0  0  0  0  0  0  0  0  0  0  0  0
    1.1818   -5.6612   28.8399 C   0  0  0  0  0  0  0  0  0  0  0  0
   -1.2067   -7.3287   17.7772 C   0  0  0  0  0  0  0  0  0  0  0  0
   -0.0206  -10.5585   16.6210 C   0  0  0  0  0  0  0  0  0  0  0  0
    0.3696  -12.7626   16.2169 O   0  0  0  0  0  0  0  0  0  0  0  0
   -0.6895   -9.5676   17.3297 C   0  0  0  0  0  0  0  0  0  0  0  0
    0.8388   -5.8417   27.5264 C   0  0  0  0  0  0  0  0  0  0  0  0
   -2.0709   -7.6637   18.7817 C   0  0  0  0  0  0  0  0  0  0  0  0
   -0.5279   -8.2168   17.0717 C   0  0  0  0  0  0  0  0  0  0  0  0
    6.9694   -4.0191   27.8190 C   0  0  0  0  0  0  0  0  0  0  0  0
    5.1733   -4.5469   29.8123 C   0  0  0  0  0  0  0  0  0  0  0  0
   -1.7508  -11.3016   18.6072 C   0  0  0  0  0  0  0  0  0  0  0  0
    1.7497   -5.6771   26.4971 C   0  0  0  0  0  0  0  0  0  0  0  0
   -1.5799   -9.9322   18.3468 C   0  0  0  0  0  0  0  0  0  0  0  0
   -1.0871  -12.2214   17.8851 C   0  0  0  0  0  0  0  0  0  0  0  0
   -2.2706   -8.9669   19.0691 C   0  0  0  0  0  0  0  0  0  0  0  0
    3.0279   -5.3073   26.8197 C   0  0  0  0  0  0  0  0  0  0  0  0
    7.3282   -3.8948   29.1186 C   0  0  0  0  0  0  0  0  0  0  0  0
  1  3  4  0
  1  7  4  0
  2  3  1  0
  2  6  4  0
  2 16  4  0
  3 22  4  0
  4  9  4  0
  4 10  1  0
  4 20  4  0
  5 16  4  0
  5 23  4  0
  6 15  4  0
  7 12  4  0
  8 13  4  0
  8 14  4  0
  9 11  4  0
 11 14  4  0
 11 19  4  0
 12 18  4  0
 13 21  4  0
 15 23  4  0
 17 19  4  0
 17 20  4  0
 18 22  4  0
 19 21  4  0
M  END
$$$$

 Created by Python create_sdf_string function

 23 25  0  0  0  0  0  0  0  0999 V2000
    2.4610   -5.3070   29.1240 C   0  0  0  0  0  0  0  0  0  0  0  0
    4.7710   -4.6952   28.4803 C   0  0  0  0  0  0  0  0  0  0  0  0
    3.4047   -5.1087   28.1314 C   0  0  0  0  0  0  0  0  0  0  0  0
   -0.2234  -11.8615   16.8874 C   0  0  0  0  0  0  0  0  0  0  0  0
    6.4491   -4.1532   30.1213 C   0  0  0  0  0  0  0  0  0  0  0  0
    5.7060   -4.4340   27.4975 C   0  0  0  0  0  0  0  0  0  0  0  0
    1.1818   -5.6612   28.8399 C   0  0  0  0  0  0  0  0  0  0  0  0
   -1.2067   -7.3287   17.7772 C   0  0  0  0  0  0  0  0  0  0  0  0
   -0.0206  -10.5585   16.6210 C   0  0  0  0  0  0  0  0  0  0  0  0
    0.3696  -12.7626   16.2169 O   0  0  0  0  0  0  0  0  0  0  0  0
   -0.6895   -9.5676   17.3297 C   0  0  0  0  0  0  0  0  0  0  0  0
    0.8388   -5.8417   27.5264 C   0  0  0  0  0  0  0  0  0  0  0  0
   -2.0709   -7.6637   18.7817 C   0  0  0  0  0  0  0  0  0  0  0  0
   -0.5279   -8.2168   17.0717 C   0  0  0  0  0  0  0  0  0  0  0  0
    6.9694   -4.0191   27.8190 C   0  0  0  0  0  0  0  0  0  0  0  0
    5.1733   -4.5469   29.8123 C   0  0  0  0  0  0  0  0  0  0  0  0
   -1.7508  -11.3016   18.6072 C   0  0  0  0  0  0  0  0  0  0  0  0
    1.7497   -5.6771   26.4971 C   0  0  0  0  0  0  0  0  0  0  0  0
   -1.5799   -9.9322   18.3468 C   0  0  0  0  0  0  0  0  0  0  0  0
   -1.0871  -12.2214   17.8851 C   0  0  0  0  0  0  0  0  0  0  0  0
   -2.2706   -8.9669   19.0691 C   0  0  0  0  0  0  0  0  0  0  0  0
    3.0279   -5.3073   26.8197 C   0  0  0  0  0  0  0  0  0  0  0  0
    7.3282   -3.8948   29.1186 C   0  0  0  0  0  0  0  0  0  0  0  0
  1  3  4  0
  1  7  4  0
  2  3  1  0
  2  6  4  0
  2 16  4  0
  3 22  4  0
  4  9  4  0
  4 10  1  0
  4 20  4  0
  5 16  4  0
  5 23  4  0
  6 15  4  0
  7 12  4  0
  8 13  4  0
  8 14  4  0
  9 11  4  0
 11 14  4  0
 11 19  4  0
 12 18  4  0
 13 21  4  0
 15 23  4  0
 17 19  4  0
 17 20  4  0
 18 22  4  0
 19 21  4  0
M  END
$$$$

 Created by Python create_sdf_string function

 23 25  0  0  0  0  0  0  0  0999 V2000
    2.4610   -5.3070   29.1240 C   0  0  0  0  0  0  0  0  0  0  0  0
    4.7710   -4.6952   28.4803 C   0  0  0  0  0  0  0  0  0  0  0  0
    3.4047   -5.1087   28.1314 C   0  0  0  0  0  0  0  0  0  0  0  0
   -0.2234  -11.8615   16.8874 C   0  0  0  0  0  0  0  0  0  0  0  0
    6.4491   -4.1532   30.1213 C   0  0  0  0  0  0  0  0  0  0  0  0
    5.7060   -4.4340   27.4975 C   0  0  0  0  0  0  0  0  0  0  0  0
    1.1818   -5.6612   28.8399 C   0  0  0  0  0  0  0  0  0  0  0  0
   -1.2067   -7.3287   17.7772 C   0  0  0  0  0  0  0  0  0  0  0  0
   -0.0206  -10.5585   16.6210 C   0  0  0  0  0  0  0  0  0  0  0  0
    0.3696  -12.7626   16.2169 O   0  0  0  0  0  0  0  0  0  0  0  0
   -0.6895   -9.5676   17.3297 C   0  0  0  0  0  0  0  0  0  0  0  0
    0.8388   -5.8417   27.5264 C   0  0  0  0  0  0  0  0  0  0  0  0
   -2.0709   -7.6637   18.7817 C   0  0  0  0  0  0  0  0  0  0  0  0
   -0.5279   -8.2168   17.0717 C   0  0  0  0  0  0  0  0  0  0  0  0
    6.9694   -4.0191   27.8190 C   0  0  0  0  0  0  0  0  0  0  0  0
    5.1733   -4.5469   29.8123 C   0  0  0  0  0  0  0  0  0  0  0  0
   -1.7508  -11.3016   18.6072 C   0  0  0  0  0  0  0  0  0  0  0  0
    1.7497   -5.6771   26.4971 C   0  0  0  0  0  0  0  0  0  0  0  0
   -1.5799   -9.9322   18.3468 C   0  0  0  0  0  0  0  0  0  0  0  0
   -1.0871  -12.2214   17.8851 C   0  0  0  0  0  0  0  0  0  0  0  0
   -2.2706   -8.9669   19.0691 C   0  0  0  0  0  0  0  0  0  0  0  0
    3.0279   -5.3073   26.8197 C   0  0  0  0  0  0  0  0  0  0  0  0
    7.3282   -3.8948   29.1186 C   0  0  0  0  0  0  0  0  0  0  0  0
  1  3  4  0
  1  7  4  0
  2  3  1  0
  2  6  4  0
  2 16  4  0
  3 22  4  0
  4  9  4  0
  4 10  1  0
  4 20  4  0
  5 16  4  0
  5 23  4  0
  6 15  4  0
  7 12  4  0
  8 13  4  0
  8 14  4  0
  9 11  4  0
 11 14  4  0
 11 19  4  0
 12 18  4  0
 13 21  4  0
 15 23  4  0
 17 19  4  0
 17 20  4  0
 18 22  4  0
 19 21  4  0
M  END
$$$$

 Created by Python create_sdf_string function

 23 25  0  0  0  0  0  0  0  0999 V2000
    2.4610   -5.3070   29.1240 C   0  0  0  0  0  0  0  0  0  0  0  0
    4.7710   -4.6952   28.4803 C   0  0  0  0  0  0  0  0  0  0  0  0
    3.4047   -5.1087   28.1314 C   0  0  0  0  0  0  0  0  0  0  0  0
   -0.2234  -11.8615   16.8874 C   0  0  0  0  0  0  0  0  0  0  0  0
    6.4491   -4.1532   30.1213 C   0  0  0  0  0  0  0  0  0  0  0  0
    5.7060   -4.4340   27.4975 C   0  0  0  0  0  0  0  0  0  0  0  0
    1.1818   -5.6612   28.8399 C   0  0  0  0  0  0  0  0  0  0  0  0
   -1.2067   -7.3287   17.7772 C   0  0  0  0  0  0  0  0  0  0  0  0
   -0.0206  -10.5585   16.6210 C   0  0  0  0  0  0  0  0  0  0  0  0
    0.3696  -12.7626   16.2169 O   0  0  0  0  0  0  0  0  0  0  0  0
   -0.6895   -9.5676   17.3297 C   0  0  0  0  0  0  0  0  0  0  0  0
    0.8388   -5.8417   27.5264 C   0  0  0  0  0  0  0  0  0  0  0  0
   -2.0709   -7.6637   18.7817 C   0  0  0  0  0  0  0  0  0  0  0  0
   -0.5279   -8.2168   17.0717 C   0  0  0  0  0  0  0  0  0  0  0  0
    6.9694   -4.0191   27.8190 C   0  0  0  0  0  0  0  0  0  0  0  0
    5.1733   -4.5469   29.8123 C   0  0  0  0  0  0  0  0  0  0  0  0
   -1.7508  -11.3016   18.6072 C   0  0  0  0  0  0  0  0  0  0  0  0
    1.7497   -5.6771   26.4971 C   0  0  0  0  0  0  0  0  0  0  0  0
   -1.5799   -9.9322   18.3468 C   0  0  0  0  0  0  0  0  0  0  0  0
   -1.0871  -12.2214   17.8851 C   0  0  0  0  0  0  0  0  0  0  0  0
   -2.2706   -8.9669   19.0691 C   0  0  0  0  0  0  0  0  0  0  0  0
    3.0279   -5.3073   26.8197 C   0  0  0  0  0  0  0  0  0  0  0  0
    7.3282   -3.8948   29.1186 C   0  0  0  0  0  0  0  0  0  0  0  0
  1  3  4  0
  1  7  4  0
  2  3  1  0
  2  6  4  0
  2 16  4  0
  3 22  4  0
  4  9  4  0
  4 10  1  0
  4 20  4  0
  5 16  4  0
  5 23  4  0
  6 15  4  0
  7 12  4  0
  8 13  4  0
  8 14  4  0
  9 11  4  0
 11 14  4  0
 11 19  4  0
 12 18  4  0
 13 21  4  0
 15 23  4  0
 17 19  4  0
 17 20  4  0
 18 22  4  0
 19 21  4  0
M  END
$$$$

 Created by Python create_sdf_string function

 23 25  0  0  0  0  0  0  0  0999 V2000
    2.4610   -5.3070   29.1240 C   0  0  0  0  0  0  0  0  0  0  0  0
    4.7710   -4.6952   28.4803 C   0  0  0  0  0  0  0  0  0  0  0  0
    3.4047   -5.1087   28.1314 C   0  0  0  0  0  0  0  0  0  0  0  0
   -0.2234  -11.8615   16.8874 C   0  0  0  0  0  0  0  0  0  0  0  0
    6.4491   -4.1532   30.1213 C   0  0  0  0  0  0  0  0  0  0  0  0
    5.7060   -4.4340   27.4975 C   0  0  0  0  0  0  0  0  0  0  0  0
    1.1818   -5.6612   28.8399 C   0  0  0  0  0  0  0  0  0  0  0  0
   -1.2067   -7.3287   17.7772 C   0  0  0  0  0  0  0  0  0  0  0  0
   -0.0206  -10.5585   16.6210 C   0  0  0  0  0  0  0  0  0  0  0  0
    0.3696  -12.7626   16.2169 O   0  0  0  0  0  0  0  0  0  0  0  0
   -0.6895   -9.5676   17.3297 C   0  0  0  0  0  0  0  0  0  0  0  0
    0.8388   -5.8417   27.5264 C   0  0  0  0  0  0  0  0  0  0  0  0
   -2.0709   -7.6637   18.7817 C   0  0  0  0  0  0  0  0  0  0  0  0
   -0.5279   -8.2168   17.0717 C   0  0  0  0  0  0  0  0  0  0  0  0
    6.9694   -4.0191   27.8190 C   0  0  0  0  0  0  0  0  0  0  0  0
    5.1733   -4.5469   29.8123 C   0  0  0  0  0  0  0  0  0  0  0  0
   -1.7508  -11.3016   18.6072 C   0  0  0  0  0  0  0  0  0  0  0  0
    1.7497   -5.6771   26.4971 C   0  0  0  0  0  0  0  0  0  0  0  0
   -1.5799   -9.9322   18.3468 C   0  0  0  0  0  0  0  0  0  0  0  0
   -1.0871  -12.2214   17.8851 C   0  0  0  0  0  0  0  0  0  0  0  0
   -2.2706   -8.9669   19.0691 C   0  0  0  0  0  0  0  0  0  0  0  0
    3.0279   -5.3073   26.8197 C   0  0  0  0  0  0  0  0  0  0  0  0
    7.3282   -3.8948   29.1186 C   0  0  0  0  0  0  0  0  0  0  0  0
  1  3  4  0
  1  7  4  0
  2  3  1  0
  2  6  4  0
  2 16  4  0
  3 22  4  0
  4  9  4  0
  4 10  1  0
  4 20  4  0
  5 16  4  0
  5 23  4  0
  6 15  4  0
  7 12  4  0
  8 13  4  0
  8 14  4  0
  9 11  4  0
 11 14  4  0
 11 19  4  0
 12 18  4  0
 13 21  4  0
 15 23  4  0
 17 19  4  0
 17 20  4  0
 18 22  4  0
 19 21  4  0
M  END
$$$$

 Created by Python create_sdf_string function

 23 25  0  0  0  0  0  0  0  0999 V2000
    2.4610   -5.3070   29.1240 C   0  0  0  0  0  0  0  0  0  0  0  0
    4.7710   -4.6952   28.4803 C   0  0  0  0  0  0  0  0  0  0  0  0
    3.4047   -5.1087   28.1314 C   0  0  0  0  0  0  0  0  0  0  0  0
   -0.2234  -11.8615   16.8874 C   0  0  0  0  0  0  0  0  0  0  0  0
    6.4491   -4.1532   30.1213 C   0  0  0  0  0  0  0  0  0  0  0  0
    5.7060   -4.4340   27.4975 C   0  0  0  0  0  0  0  0  0  0  0  0
    1.1818   -5.6612   28.8399 C   0  0  0  0  0  0  0  0  0  0  0  0
   -1.2067   -7.3287   17.7772 C   0  0  0  0  0  0  0  0  0  0  0  0
   -0.0206  -10.5585   16.6210 C   0  0  0  0  0  0  0  0  0  0  0  0
    0.3696  -12.7626   16.2169 O   0  0  0  0  0  0  0  0  0  0  0  0
   -0.6895   -9.5676   17.3297 C   0  0  0  0  0  0  0  0  0  0  0  0
    0.8388   -5.8417   27.5264 C   0  0  0  0  0  0  0  0  0  0  0  0
   -2.0709   -7.6637   18.7817 C   0  0  0  0  0  0  0  0  0  0  0  0
   -0.5279   -8.2168   17.0717 C   0  0  0  0  0  0  0  0  0  0  0  0
    6.9694   -4.0191   27.8190 C   0  0  0  0  0  0  0  0  0  0  0  0
    5.1733   -4.5469   29.8123 C   0  0  0  0  0  0  0  0  0  0  0  0
   -1.7508  -11.3016   18.6072 C   0  0  0  0  0  0  0  0  0  0  0  0
    1.7497   -5.6771   26.4971 C   0  0  0  0  0  0  0  0  0  0  0  0
   -1.5799   -9.9322   18.3468 C   0  0  0  0  0  0  0  0  0  0  0  0
   -1.0871  -12.2214   17.8851 C   0  0  0  0  0  0  0  0  0  0  0  0
   -2.2706   -8.9669   19.0691 C   0  0  0  0  0  0  0  0  0  0  0  0
    3.0279   -5.3073   26.8197 C   0  0  0  0  0  0  0  0  0  0  0  0
    7.3282   -3.8948   29.1186 C   0  0  0  0  0  0  0  0  0  0  0  0
  1  3  4  0
  1  7  4  0
  2  3  1  0
  2  6  4  0
  2 16  4  0
  3 22  4  0
  4  9  4  0
  4 10  1  0
  4 20  4  0
  5 16  4  0
  5 23  4  0
  6 15  4  0
  7 12  4  0
  8 13  4  0
  8 14  4  0
  9 11  4  0
 11 14  4  0
 11 19  4  0
 12 18  4  0
 13 21  4  0
 15 23  4  0
 17 19  4  0
 17 20  4  0
 18 22  4  0
 19 21  4  0
M  END
$$$$

 Created by Python create_sdf_string function

 23 25  0  0  0  0  0  0  0  0999 V2000
    2.4610   -5.3070   29.1240 C   0  0  0  0  0  0  0  0  0  0  0  0
    4.7710   -4.6952   28.4803 C   0  0  0  0  0  0  0  0  0  0  0  0
    3.4047   -5.1087   28.1314 C   0  0  0  0  0  0  0  0  0  0  0  0
   -0.2234  -11.8615   16.8874 C   0  0  0  0  0  0  0  0  0  0  0  0
    6.4491   -4.1532   30.1213 C   0  0  0  0  0  0  0  0  0  0  0  0
    5.7060   -4.4340   27.4975 C   0  0  0  0  0  0  0  0  0  0  0  0
    1.1818   -5.6612   28.8399 C   0  0  0  0  0  0  0  0  0  0  0  0
   -1.2067   -7.3287   17.7772 C   0  0  0  0  0  0  0  0  0  0  0  0
   -0.0206  -10.5585   16.6210 C   0  0  0  0  0  0  0  0  0  0  0  0
    0.3696  -12.7626   16.2169 O   0  0  0  0  0  0  0  0  0  0  0  0
   -0.6895   -9.5676   17.3297 C   0  0  0  0  0  0  0  0  0  0  0  0
    0.8388   -5.8417   27.5264 C   0  0  0  0  0  0  0  0  0  0  0  0
   -2.0709   -7.6637   18.7817 C   0  0  0  0  0  0  0  0  0  0  0  0
   -0.5279   -8.2168   17.0717 C   0  0  0  0  0  0  0  0  0  0  0  0
    6.9694   -4.0191   27.8190 C   0  0  0  0  0  0  0  0  0  0  0  0
    5.1733   -4.5469   29.8123 C   0  0  0  0  0  0  0  0  0  0  0  0
   -1.7508  -11.3016   18.6072 C   0  0  0  0  0  0  0  0  0  0  0  0
    1.7497   -5.6771   26.4971 C   0  0  0  0  0  0  0  0  0  0  0  0
   -1.5799   -9.9322   18.3468 C   0  0  0  0  0  0  0  0  0  0  0  0
   -1.0871  -12.2214   17.8851 C   0  0  0  0  0  0  0  0  0  0  0  0
   -2.2706   -8.9669   19.0691 C   0  0  0  0  0  0  0  0  0  0  0  0
    3.0279   -5.3073   26.8197 C   0  0  0  0  0  0  0  0  0  0  0  0
    7.3282   -3.8948   29.1186 C   0  0  0  0  0  0  0  0  0  0  0  0
  1  3  4  0
  1  7  4  0
  2  3  1  0
  2  6  4  0
  2 16  4  0
  3 22  4  0
  4  9  4  0
  4 10  1  0
  4 20  4  0
  5 16  4  0
  5 23  4  0
  6 15  4  0
  7 12  4  0
  8 13  4  0
  8 14  4  0
  9 11  4  0
 11 14  4  0
 11 19  4  0
 12 18  4  0
 13 21  4  0
 15 23  4  0
 17 19  4  0
 17 20  4  0
 18 22  4  0
 19 21  4  0
M  END
$$$$

 Created by Python create_sdf_string function

 23 25  0  0  0  0  0  0  0  0999 V2000
    2.4610   -5.3070   29.1240 C   0  0  0  0  0  0  0  0  0  0  0  0
    4.7710   -4.6952   28.4803 C   0  0  0  0  0  0  0  0  0  0  0  0
    3.4047   -5.1087   28.1314 C   0  0  0  0  0  0  0  0  0  0  0  0
   -0.2234  -11.8615   16.8874 C   0  0  0  0  0  0  0  0  0  0  0  0
    6.4491   -4.1532   30.1213 C   0  0  0  0  0  0  0  0  0  0  0  0
    5.7060   -4.4340   27.4975 C   0  0  0  0  0  0  0  0  0  0  0  0
    1.1818   -5.6612   28.8399 C   0  0  0  0  0  0  0  0  0  0  0  0
   -1.2067   -7.3287   17.7772 C   0  0  0  0  0  0  0  0  0  0  0  0
   -0.0206  -10.5585   16.6210 C   0  0  0  0  0  0  0  0  0  0  0  0
    0.3696  -12.7626   16.2169 O   0  0  0  0  0  0  0  0  0  0  0  0
   -0.6895   -9.5676   17.3297 C   0  0  0  0  0  0  0  0  0  0  0  0
    0.8388   -5.8417   27.5264 C   0  0  0  0  0  0  0  0  0  0  0  0
   -2.0709   -7.6637   18.7817 C   0  0  0  0  0  0  0  0  0  0  0  0
   -0.5279   -8.2168   17.0717 C   0  0  0  0  0  0  0  0  0  0  0  0
    6.9694   -4.0191   27.8190 C   0  0  0  0  0  0  0  0  0  0  0  0
    5.1733   -4.5469   29.8123 C   0  0  0  0  0  0  0  0  0  0  0  0
   -1.7508  -11.3016   18.6072 C   0  0  0  0  0  0  0  0  0  0  0  0
    1.7497   -5.6771   26.4971 C   0  0  0  0  0  0  0  0  0  0  0  0
   -1.5799   -9.9322   18.3468 C   0  0  0  0  0  0  0  0  0  0  0  0
   -1.0871  -12.2214   17.8851 C   0  0  0  0  0  0  0  0  0  0  0  0
   -2.2706   -8.9669   19.0691 C   0  0  0  0  0  0  0  0  0  0  0  0
    3.0279   -5.3073   26.8197 C   0  0  0  0  0  0  0  0  0  0  0  0
    7.3282   -3.8948   29.1186 C   0  0  0  0  0  0  0  0  0  0  0  0
  1  3  4  0
  1  7  4  0
  2  3  1  0
  2  6  4  0
  2 16  4  0
  3 22  4  0
  4  9  4  0
  4 10  1  0
  4 20  4  0
  5 16  4  0
  5 23  4  0
  6 15  4  0
  7 12  4  0
  8 13  4  0
  8 14  4  0
  9 11  4  0
 11 14  4  0
 11 19  4  0
 12 18  4  0
 13 21  4  0
 15 23  4  0
 17 19  4  0
 17 20  4  0
 18 22  4  0
 19 21  4  0
M  END
$$$$

 Created by Python create_sdf_string function

 23 25  0  0  0  0  0  0  0  0999 V2000
    2.4610   -5.3070   29.1240 C   0  0  0  0  0  0  0  0  0  0  0  0
    4.7710   -4.6952   28.4803 C   0  0  0  0  0  0  0  0  0  0  0  0
    3.4047   -5.1087   28.1314 C   0  0  0  0  0  0  0  0  0  0  0  0
   -0.2234  -11.8615   16.8874 C   0  0  0  0  0  0  0  0  0  0  0  0
    6.4491   -4.1532   30.1213 C   0  0  0  0  0  0  0  0  0  0  0  0
    5.7060   -4.4340   27.4975 C   0  0  0  0  0  0  0  0  0  0  0  0
    1.1818   -5.6612   28.8399 C   0  0  0  0  0  0  0  0  0  0  0  0
   -1.2067   -7.3287   17.7772 C   0  0  0  0  0  0  0  0  0  0  0  0
   -0.0206  -10.5585   16.6210 C   0  0  0  0  0  0  0  0  0  0  0  0
    0.3696  -12.7626   16.2169 O   0  0  0  0  0  0  0  0  0  0  0  0
   -0.6895   -9.5676   17.3297 C   0  0  0  0  0  0  0  0  0  0  0  0
    0.8388   -5.8417   27.5264 C   0  0  0  0  0  0  0  0  0  0  0  0
   -2.0709   -7.6637   18.7817 C   0  0  0  0  0  0  0  0  0  0  0  0
   -0.5279   -8.2168   17.0717 C   0  0  0  0  0  0  0  0  0  0  0  0
    6.9694   -4.0191   27.8190 C   0  0  0  0  0  0  0  0  0  0  0  0
    5.1733   -4.5469   29.8123 C   0  0  0  0  0  0  0  0  0  0  0  0
   -1.7508  -11.3016   18.6072 C   0  0  0  0  0  0  0  0  0  0  0  0
    1.7497   -5.6771   26.4971 C   0  0  0  0  0  0  0  0  0  0  0  0
   -1.5799   -9.9322   18.3468 C   0  0  0  0  0  0  0  0  0  0  0  0
   -1.0871  -12.2214   17.8851 C   0  0  0  0  0  0  0  0  0  0  0  0
   -2.2706   -8.9669   19.0691 C   0  0  0  0  0  0  0  0  0  0  0  0
    3.0279   -5.3073   26.8197 C   0  0  0  0  0  0  0  0  0  0  0  0
    7.3282   -3.8948   29.1186 C   0  0  0  0  0  0  0  0  0  0  0  0
  1  3  4  0
  1  7  4  0
  2  3  1  0
  2  6  4  0
  2 16  4  0
  3 22  4  0
  4  9  4  0
  4 10  1  0
  4 20  4  0
  5 16  4  0
  5 23  4  0
  6 15  4  0
  7 12  4  0
  8 13  4  0
  8 14  4  0
  9 11  4  0
 11 14  4  0
 11 19  4  0
 12 18  4  0
 13 21  4  0
 15 23  4  0
 17 19  4  0
 17 20  4  0
 18 22  4  0
 19 21  4  0
M  END
$$$$

 Created by Python create_sdf_string function

 23 25  0  0  0  0  0  0  0  0999 V2000
    2.4610   -5.3070   29.1240 C   0  0  0  0  0  0  0  0  0  0  0  0
    4.7710   -4.6952   28.4803 C   0  0  0  0  0  0  0  0  0  0  0  0
    3.4047   -5.1087   28.1314 C   0  0  0  0  0  0  0  0  0  0  0  0
   -0.2234  -11.8615   16.8874 C   0  0  0  0  0  0  0  0  0  0  0  0
    6.4491   -4.1532   30.1213 C   0  0  0  0  0  0  0  0  0  0  0  0
    5.7060   -4.4340   27.4975 C   0  0  0  0  0  0  0  0  0  0  0  0
    1.1818   -5.6612   28.8399 C   0  0  0  0  0  0  0  0  0  0  0  0
   -1.2067   -7.3287   17.7772 C   0  0  0  0  0  0  0  0  0  0  0  0
   -0.0206  -10.5585   16.6210 C   0  0  0  0  0  0  0  0  0  0  0  0
    0.3696  -12.7626   16.2169 O   0  0  0  0  0  0  0  0  0  0  0  0
   -0.6895   -9.5676   17.3297 C   0  0  0  0  0  0  0  0  0  0  0  0
    0.8388   -5.8417   27.5264 C   0  0  0  0  0  0  0  0  0  0  0  0
   -2.0709   -7.6637   18.7817 C   0  0  0  0  0  0  0  0  0  0  0  0
   -0.5279   -8.2168   17.0717 C   0  0  0  0  0  0  0  0  0  0  0  0
    6.9694   -4.0191   27.8190 C   0  0  0  0  0  0  0  0  0  0  0  0
    5.1733   -4.5469   29.8123 C   0  0  0  0  0  0  0  0  0  0  0  0
   -1.7508  -11.3016   18.6072 C   0  0  0  0  0  0  0  0  0  0  0  0
    1.7497   -5.6771   26.4971 C   0  0  0  0  0  0  0  0  0  0  0  0
   -1.5799   -9.9322   18.3468 C   0  0  0  0  0  0  0  0  0  0  0  0
   -1.0871  -12.2214   17.8851 C   0  0  0  0  0  0  0  0  0  0  0  0
   -2.2706   -8.9669   19.0691 C   0  0  0  0  0  0  0  0  0  0  0  0
    3.0279   -5.3073   26.8197 C   0  0  0  0  0  0  0  0  0  0  0  0
    7.3282   -3.8948   29.1186 C   0  0  0  0  0  0  0  0  0  0  0  0
  1  3  4  0
  1  7  4  0
  2  3  1  0
  2  6  4  0
  2 16  4  0
  3 22  4  0
  4  9  4  0
  4 10  1  0
  4 20  4  0
  5 16  4  0
  5 23  4  0
  6 15  4  0
  7 12  4  0
  8 13  4  0
  8 14  4  0
  9 11  4  0
 11 14  4  0
 11 19  4  0
 12 18  4  0
 13 21  4  0
 15 23  4  0
 17 19  4  0
 17 20  4  0
 18 22  4  0
 19 21  4  0
M  END
$$$$

 Created by Python create_sdf_string function

 23 25  0  0  0  0  0  0  0  0999 V2000
    2.4610   -5.3070   29.1240 C   0  0  0  0  0  0  0  0  0  0  0  0
    4.7710   -4.6952   28.4803 C   0  0  0  0  0  0  0  0  0  0  0  0
    3.4047   -5.1087   28.1314 C   0  0  0  0  0  0  0  0  0  0  0  0
   -0.2234  -11.8615   16.8874 C   0  0  0  0  0  0  0  0  0  0  0  0
    6.4491   -4.1532   30.1213 C   0  0  0  0  0  0  0  0  0  0  0  0
    5.7060   -4.4340   27.4975 C   0  0  0  0  0  0  0  0  0  0  0  0
    1.1818   -5.6612   28.8399 C   0  0  0  0  0  0  0  0  0  0  0  0
   -1.2067   -7.3287   17.7772 C   0  0  0  0  0  0  0  0  0  0  0  0
   -0.0206  -10.5585   16.6210 C   0  0  0  0  0  0  0  0  0  0  0  0
    0.3696  -12.7626   16.2169 O   0  0  0  0  0  0  0  0  0  0  0  0
   -0.6895   -9.5676   17.3297 C   0  0  0  0  0  0  0  0  0  0  0  0
    0.8388   -5.8417   27.5264 C   0  0  0  0  0  0  0  0  0  0  0  0
   -2.0709   -7.6637   18.7817 C   0  0  0  0  0  0  0  0  0  0  0  0
   -0.5279   -8.2168   17.0717 C   0  0  0  0  0  0  0  0  0  0  0  0
    6.9694   -4.0191   27.8190 C   0  0  0  0  0  0  0  0  0  0  0  0
    5.1733   -4.5469   29.8123 C   0  0  0  0  0  0  0  0  0  0  0  0
   -1.7508  -11.3016   18.6072 C   0  0  0  0  0  0  0  0  0  0  0  0
    1.7497   -5.6771   26.4971 C   0  0  0  0  0  0  0  0  0  0  0  0
   -1.5799   -9.9322   18.3468 C   0  0  0  0  0  0  0  0  0  0  0  0
   -1.0871  -12.2214   17.8851 C   0  0  0  0  0  0  0  0  0  0  0  0
   -2.2706   -8.9669   19.0691 C   0  0  0  0  0  0  0  0  0  0  0  0
    3.0279   -5.3073   26.8197 C   0  0  0  0  0  0  0  0  0  0  0  0
    7.3282   -3.8948   29.1186 C   0  0  0  0  0  0  0  0  0  0  0  0
  1  3  4  0
  1  7  4  0
  2  3  1  0
  2  6  4  0
  2 16  4  0
  3 22  4  0
  4  9  4  0
  4 10  1  0
  4 20  4  0
  5 16  4  0
  5 23  4  0
  6 15  4  0
  7 12  4  0
  8 13  4  0
  8 14  4  0
  9 11  4  0
 11 14  4  0
 11 19  4  0
 12 18  4  0
 13 21  4  0
 15 23  4  0
 17 19  4  0
 17 20  4  0
 18 22  4  0
 19 21  4  0
M  END
$$$$

 Created by Python create_sdf_string function

 23 25  0  0  0  0  0  0  0  0999 V2000
    2.4610   -5.3070   29.1240 C   0  0  0  0  0  0  0  0  0  0  0  0
    4.7710   -4.6952   28.4803 C   0  0  0  0  0  0  0  0  0  0  0  0
    3.4047   -5.1087   28.1314 C   0  0  0  0  0  0  0  0  0  0  0  0
   -0.2234  -11.8615   16.8874 C   0  0  0  0  0  0  0  0  0  0  0  0
    6.4491   -4.1532   30.1213 C   0  0  0  0  0  0  0  0  0  0  0  0
    5.7060   -4.4340   27.4975 C   0  0  0  0  0  0  0  0  0  0  0  0
    1.1818   -5.6612   28.8399 C   0  0  0  0  0  0  0  0  0  0  0  0
   -1.2067   -7.3287   17.7772 C   0  0  0  0  0  0  0  0  0  0  0  0
   -0.0206  -10.5585   16.6210 C   0  0  0  0  0  0  0  0  0  0  0  0
    0.3696  -12.7626   16.2169 O   0  0  0  0  0  0  0  0  0  0  0  0
   -0.6895   -9.5676   17.3297 C   0  0  0  0  0  0  0  0  0  0  0  0
    0.8388   -5.8417   27.5264 C   0  0  0  0  0  0  0  0  0  0  0  0
   -2.0709   -7.6637   18.7817 C   0  0  0  0  0  0  0  0  0  0  0  0
   -0.5279   -8.2168   17.0717 C   0  0  0  0  0  0  0  0  0  0  0  0
    6.9694   -4.0191   27.8190 C   0  0  0  0  0  0  0  0  0  0  0  0
    5.1733   -4.5469   29.8123 C   0  0  0  0  0  0  0  0  0  0  0  0
   -1.7508  -11.3016   18.6072 C   0  0  0  0  0  0  0  0  0  0  0  0
    1.7497   -5.6771   26.4971 C   0  0  0  0  0  0  0  0  0  0  0  0
   -1.5799   -9.9322   18.3468 C   0  0  0  0  0  0  0  0  0  0  0  0
   -1.0871  -12.2214   17.8851 C   0  0  0  0  0  0  0  0  0  0  0  0
   -2.2706   -8.9669   19.0691 C   0  0  0  0  0  0  0  0  0  0  0  0
    3.0279   -5.3073   26.8197 C   0  0  0  0  0  0  0  0  0  0  0  0
    7.3282   -3.8948   29.1186 C   0  0  0  0  0  0  0  0  0  0  0  0
  1  3  4  0
  1  7  4  0
  2  3  1  0
  2  6  4  0
  2 16  4  0
  3 22  4  0
  4  9  4  0
  4 10  1  0
  4 20  4  0
  5 16  4  0
  5 23  4  0
  6 15  4  0
  7 12  4  0
  8 13  4  0
  8 14  4  0
  9 11  4  0
 11 14  4  0
 11 19  4  0
 12 18  4  0
 13 21  4  0
 15 23  4  0
 17 19  4  0
 17 20  4  0
 18 22  4  0
 19 21  4  0
M  END
$$$$

 Created by Python create_sdf_string function

 23 25  0  0  0  0  0  0  0  0999 V2000
    2.4610   -5.3070   29.1240 C   0  0  0  0  0  0  0  0  0  0  0  0
    4.7710   -4.6952   28.4803 C   0  0  0  0  0  0  0  0  0  0  0  0
    3.4047   -5.1087   28.1314 C   0  0  0  0  0  0  0  0  0  0  0  0
   -0.2234  -11.8615   16.8874 C   0  0  0  0  0  0  0  0  0  0  0  0
    6.4491   -4.1532   30.1213 C   0  0  0  0  0  0  0  0  0  0  0  0
    5.7060   -4.4340   27.4975 C   0  0  0  0  0  0  0  0  0  0  0  0
    1.1818   -5.6612   28.8399 C   0  0  0  0  0  0  0  0  0  0  0  0
   -1.2067   -7.3287   17.7772 C   0  0  0  0  0  0  0  0  0  0  0  0
   -0.0206  -10.5585   16.6210 C   0  0  0  0  0  0  0  0  0  0  0  0
    0.3696  -12.7626   16.2169 O   0  0  0  0  0  0  0  0  0  0  0  0
   -0.6895   -9.5676   17.3297 C   0  0  0  0  0  0  0  0  0  0  0  0
    0.8388   -5.8417   27.5264 C   0  0  0  0  0  0  0  0  0  0  0  0
   -2.0709   -7.6637   18.7817 C   0  0  0  0  0  0  0  0  0  0  0  0
   -0.5279   -8.2168   17.0717 C   0  0  0  0  0  0  0  0  0  0  0  0
    6.9694   -4.0191   27.8190 C   0  0  0  0  0  0  0  0  0  0  0  0
    5.1733   -4.5469   29.8123 C   0  0  0  0  0  0  0  0  0  0  0  0
   -1.7508  -11.3016   18.6072 C   0  0  0  0  0  0  0  0  0  0  0  0
    1.7497   -5.6771   26.4971 C   0  0  0  0  0  0  0  0  0  0  0  0
   -1.5799   -9.9322   18.3468 C   0  0  0  0  0  0  0  0  0  0  0  0
   -1.0871  -12.2214   17.8851 C   0  0  0  0  0  0  0  0  0  0  0  0
   -2.2706   -8.9669   19.0691 C   0  0  0  0  0  0  0  0  0  0  0  0
    3.0279   -5.3073   26.8197 C   0  0  0  0  0  0  0  0  0  0  0  0
    7.3282   -3.8948   29.1186 C   0  0  0  0  0  0  0  0  0  0  0  0
  1  3  4  0
  1  7  4  0
  2  3  1  0
  2  6  4  0
  2 16  4  0
  3 22  4  0
  4  9  4  0
  4 10  1  0
  4 20  4  0
  5 16  4  0
  5 23  4  0
  6 15  4  0
  7 12  4  0
  8 13  4  0
  8 14  4  0
  9 11  4  0
 11 14  4  0
 11 19  4  0
 12 18  4  0
 13 21  4  0
 15 23  4  0
 17 19  4  0
 17 20  4  0
 18 22  4  0
 19 21  4  0
M  END
$$$$

 Created by Python create_sdf_string function

 23 25  0  0  0  0  0  0  0  0999 V2000
    2.4610   -5.3070   29.1240 C   0  0  0  0  0  0  0  0  0  0  0  0
    4.7710   -4.6952   28.4803 C   0  0  0  0  0  0  0  0  0  0  0  0
    3.4047   -5.1087   28.1314 C   0  0  0  0  0  0  0  0  0  0  0  0
   -0.2234  -11.8615   16.8874 C   0  0  0  0  0  0  0  0  0  0  0  0
    6.4491   -4.1532   30.1213 C   0  0  0  0  0  0  0  0  0  0  0  0
    5.7060   -4.4340   27.4975 C   0  0  0  0  0  0  0  0  0  0  0  0
    1.1818   -5.6612   28.8399 C   0  0  0  0  0  0  0  0  0  0  0  0
   -1.2067   -7.3287   17.7772 C   0  0  0  0  0  0  0  0  0  0  0  0
   -0.0206  -10.5585   16.6210 C   0  0  0  0  0  0  0  0  0  0  0  0
    0.3696  -12.7626   16.2169 O   0  0  0  0  0  0  0  0  0  0  0  0
   -0.6895   -9.5676   17.3297 C   0  0  0  0  0  0  0  0  0  0  0  0
    0.8388   -5.8417   27.5264 C   0  0  0  0  0  0  0  0  0  0  0  0
   -2.0709   -7.6637   18.7817 C   0  0  0  0  0  0  0  0  0  0  0  0
   -0.5279   -8.2168   17.0717 C   0  0  0  0  0  0  0  0  0  0  0  0
    6.9694   -4.0191   27.8190 C   0  0  0  0  0  0  0  0  0  0  0  0
    5.1733   -4.5469   29.8123 C   0  0  0  0  0  0  0  0  0  0  0  0
   -1.7508  -11.3016   18.6072 C   0  0  0  0  0  0  0  0  0  0  0  0
    1.7497   -5.6771   26.4971 C   0  0  0  0  0  0  0  0  0  0  0  0
   -1.5799   -9.9322   18.3468 C   0  0  0  0  0  0  0  0  0  0  0  0
   -1.0871  -12.2214   17.8851 C   0  0  0  0  0  0  0  0  0  0  0  0
   -2.2706   -8.9669   19.0691 C   0  0  0  0  0  0  0  0  0  0  0  0
    3.0279   -5.3073   26.8197 C   0  0  0  0  0  0  0  0  0  0  0  0
    7.3282   -3.8948   29.1186 C   0  0  0  0  0  0  0  0  0  0  0  0
  1  3  4  0
  1  7  4  0
  2  3  1  0
  2  6  4  0
  2 16  4  0
  3 22  4  0
  4  9  4  0
  4 10  1  0
  4 20  4  0
  5 16  4  0
  5 23  4  0
  6 15  4  0
  7 12  4  0
  8 13  4  0
  8 14  4  0
  9 11  4  0
 11 14  4  0
 11 19  4  0
 12 18  4  0
 13 21  4  0
 15 23  4  0
 17 19  4  0
 17 20  4  0
 18 22  4  0
 19 21  4  0
M  END
$$$$

 Created by Python create_sdf_string function

 23 25  0  0  0  0  0  0  0  0999 V2000
    2.4610   -5.3070   29.1240 C   0  0  0  0  0  0  0  0  0  0  0  0
    4.7710   -4.6952   28.4803 C   0  0  0  0  0  0  0  0  0  0  0  0
    3.4047   -5.1087   28.1314 C   0  0  0  0  0  0  0  0  0  0  0  0
   -0.2234  -11.8615   16.8874 C   0  0  0  0  0  0  0  0  0  0  0  0
    6.4491   -4.1532   30.1213 C   0  0  0  0  0  0  0  0  0  0  0  0
    5.7060   -4.4340   27.4975 C   0  0  0  0  0  0  0  0  0  0  0  0
    1.1818   -5.6612   28.8399 C   0  0  0  0  0  0  0  0  0  0  0  0
   -1.2067   -7.3287   17.7772 C   0  0  0  0  0  0  0  0  0  0  0  0
   -0.0206  -10.5585   16.6210 C   0  0  0  0  0  0  0  0  0  0  0  0
    0.3696  -12.7626   16.2169 O   0  0  0  0  0  0  0  0  0  0  0  0
   -0.6895   -9.5676   17.3297 C   0  0  0  0  0  0  0  0  0  0  0  0
    0.8388   -5.8417   27.5264 C   0  0  0  0  0  0  0  0  0  0  0  0
   -2.0709   -7.6637   18.7817 C   0  0  0  0  0  0  0  0  0  0  0  0
   -0.5279   -8.2168   17.0717 C   0  0  0  0  0  0  0  0  0  0  0  0
    6.9694   -4.0191   27.8190 C   0  0  0  0  0  0  0  0  0  0  0  0
    5.1733   -4.5469   29.8123 C   0  0  0  0  0  0  0  0  0  0  0  0
   -1.7508  -11.3016   18.6072 C   0  0  0  0  0  0  0  0  0  0  0  0
    1.7497   -5.6771   26.4971 C   0  0  0  0  0  0  0  0  0  0  0  0
   -1.5799   -9.9322   18.3468 C   0  0  0  0  0  0  0  0  0  0  0  0
   -1.0871  -12.2214   17.8851 C   0  0  0  0  0  0  0  0  0  0  0  0
   -2.2706   -8.9669   19.0691 C   0  0  0  0  0  0  0  0  0  0  0  0
    3.0279   -5.3073   26.8197 C   0  0  0  0  0  0  0  0  0  0  0  0
    7.3282   -3.8948   29.1186 C   0  0  0  0  0  0  0  0  0  0  0  0
  1  3  4  0
  1  7  4  0
  2  3  1  0
  2  6  4  0
  2 16  4  0
  3 22  4  0
  4  9  4  0
  4 10  1  0
  4 20  4  0
  5 16  4  0
  5 23  4  0
  6 15  4  0
  7 12  4  0
  8 13  4  0
  8 14  4  0
  9 11  4  0
 11 14  4  0
 11 19  4  0
 12 18  4  0
 13 21  4  0
 15 23  4  0
 17 19  4  0
 17 20  4  0
 18 22  4  0
 19 21  4  0
M  END
$$$$

 Created by Python create_sdf_string function

 23 25  0  0  0  0  0  0  0  0999 V2000
    2.4610   -5.3070   29.1240 C   0  0  0  0  0  0  0  0  0  0  0  0
    4.7710   -4.6952   28.4803 C   0  0  0  0  0  0  0  0  0  0  0  0
    3.4047   -5.1087   28.1314 C   0  0  0  0  0  0  0  0  0  0  0  0
   -0.2234  -11.8615   16.8874 C   0  0  0  0  0  0  0  0  0  0  0  0
    6.4491   -4.1532   30.1213 C   0  0  0  0  0  0  0  0  0  0  0  0
    5.7060   -4.4340   27.4975 C   0  0  0  0  0  0  0  0  0  0  0  0
    1.1818   -5.6612   28.8399 C   0  0  0  0  0  0  0  0  0  0  0  0
   -1.2067   -7.3287   17.7772 C   0  0  0  0  0  0  0  0  0  0  0  0
   -0.0206  -10.5585   16.6210 C   0  0  0  0  0  0  0  0  0  0  0  0
    0.3696  -12.7626   16.2169 O   0  0  0  0  0  0  0  0  0  0  0  0
   -0.6895   -9.5676   17.3297 C   0  0  0  0  0  0  0  0  0  0  0  0
    0.8388   -5.8417   27.5264 C   0  0  0  0  0  0  0  0  0  0  0  0
   -2.0709   -7.6637   18.7817 C   0  0  0  0  0  0  0  0  0  0  0  0
   -0.5279   -8.2168   17.0717 C   0  0  0  0  0  0  0  0  0  0  0  0
    6.9694   -4.0191   27.8190 C   0  0  0  0  0  0  0  0  0  0  0  0
    5.1733   -4.5469   29.8123 C   0  0  0  0  0  0  0  0  0  0  0  0
   -1.7508  -11.3016   18.6072 C   0  0  0  0  0  0  0  0  0  0  0  0
    1.7497   -5.6771   26.4971 C   0  0  0  0  0  0  0  0  0  0  0  0
   -1.5799   -9.9322   18.3468 C   0  0  0  0  0  0  0  0  0  0  0  0
   -1.0871  -12.2214   17.8851 C   0  0  0  0  0  0  0  0  0  0  0  0
   -2.2706   -8.9669   19.0691 C   0  0  0  0  0  0  0  0  0  0  0  0
    3.0279   -5.3073   26.8197 C   0  0  0  0  0  0  0  0  0  0  0  0
    7.3282   -3.8948   29.1186 C   0  0  0  0  0  0  0  0  0  0  0  0
  1  3  4  0
  1  7  4  0
  2  3  1  0
  2  6  4  0
  2 16  4  0
  3 22  4  0
  4  9  4  0
  4 10  1  0
  4 20  4  0
  5 16  4  0
  5 23  4  0
  6 15  4  0
  7 12  4  0
  8 13  4  0
  8 14  4  0
  9 11  4  0
 11 14  4  0
 11 19  4  0
 12 18  4  0
 13 21  4  0
 15 23  4  0
 17 19  4  0
 17 20  4  0
 18 22  4  0
 19 21  4  0
M  END
$$$$

 Created by Python create_sdf_string function

 23 25  0  0  0  0  0  0  0  0999 V2000
    2.4610   -5.3070   29.1240 C   0  0  0  0  0  0  0  0  0  0  0  0
    4.7710   -4.6952   28.4803 C   0  0  0  0  0  0  0  0  0  0  0  0
    3.4047   -5.1087   28.1314 C   0  0  0  0  0  0  0  0  0  0  0  0
   -0.2234  -11.8615   16.8874 C   0  0  0  0  0  0  0  0  0  0  0  0
    6.4491   -4.1532   30.1213 C   0  0  0  0  0  0  0  0  0  0  0  0
    5.7060   -4.4340   27.4975 C   0  0  0  0  0  0  0  0  0  0  0  0
    1.1818   -5.6612   28.8399 C   0  0  0  0  0  0  0  0  0  0  0  0
   -1.2067   -7.3287   17.7772 C   0  0  0  0  0  0  0  0  0  0  0  0
   -0.0206  -10.5585   16.6210 C   0  0  0  0  0  0  0  0  0  0  0  0
    0.3696  -12.7626   16.2169 O   0  0  0  0  0  0  0  0  0  0  0  0
   -0.6895   -9.5676   17.3297 C   0  0  0  0  0  0  0  0  0  0  0  0
    0.8388   -5.8417   27.5264 C   0  0  0  0  0  0  0  0  0  0  0  0
   -2.0709   -7.6637   18.7817 C   0  0  0  0  0  0  0  0  0  0  0  0
   -0.5279   -8.2168   17.0717 C   0  0  0  0  0  0  0  0  0  0  0  0
    6.9694   -4.0191   27.8190 C   0  0  0  0  0  0  0  0  0  0  0  0
    5.1733   -4.5469   29.8123 C   0  0  0  0  0  0  0  0  0  0  0  0
   -1.7508  -11.3016   18.6072 C   0  0  0  0  0  0  0  0  0  0  0  0
    1.7497   -5.6771   26.4971 C   0  0  0  0  0  0  0  0  0  0  0  0
   -1.5799   -9.9322   18.3468 C   0  0  0  0  0  0  0  0  0  0  0  0
   -1.0871  -12.2214   17.8851 C   0  0  0  0  0  0  0  0  0  0  0  0
   -2.2706   -8.9669   19.0691 C   0  0  0  0  0  0  0  0  0  0  0  0
    3.0279   -5.3073   26.8197 C   0  0  0  0  0  0  0  0  0  0  0  0
    7.3282   -3.8948   29.1186 C   0  0  0  0  0  0  0  0  0  0  0  0
  1  3  4  0
  1  7  4  0
  2  3  1  0
  2  6  4  0
  2 16  4  0
  3 22  4  0
  4  9  4  0
  4 10  1  0
  4 20  4  0
  5 16  4  0
  5 23  4  0
  6 15  4  0
  7 12  4  0
  8 13  4  0
  8 14  4  0
  9 11  4  0
 11 14  4  0
 11 19  4  0
 12 18  4  0
 13 21  4  0
 15 23  4  0
 17 19  4  0
 17 20  4  0
 18 22  4  0
 19 21  4  0
M  END
$$$$

 Created by Python create_sdf_string function

 23 25  0  0  0  0  0  0  0  0999 V2000
    2.4610   -5.3070   29.1240 C   0  0  0  0  0  0  0  0  0  0  0  0
    4.7710   -4.6952   28.4803 C   0  0  0  0  0  0  0  0  0  0  0  0
    3.4047   -5.1087   28.1314 C   0  0  0  0  0  0  0  0  0  0  0  0
   -0.2234  -11.8615   16.8874 C   0  0  0  0  0  0  0  0  0  0  0  0
    6.4491   -4.1532   30.1213 C   0  0  0  0  0  0  0  0  0  0  0  0
    5.7060   -4.4340   27.4975 C   0  0  0  0  0  0  0  0  0  0  0  0
    1.1818   -5.6612   28.8399 C   0  0  0  0  0  0  0  0  0  0  0  0
   -1.2067   -7.3287   17.7772 C   0  0  0  0  0  0  0  0  0  0  0  0
   -0.0206  -10.5585   16.6210 C   0  0  0  0  0  0  0  0  0  0  0  0
    0.3696  -12.7626   16.2169 O   0  0  0  0  0  0  0  0  0  0  0  0
   -0.6895   -9.5676   17.3297 C   0  0  0  0  0  0  0  0  0  0  0  0
    0.8388   -5.8417   27.5264 C   0  0  0  0  0  0  0  0  0  0  0  0
   -2.0709   -7.6637   18.7817 C   0  0  0  0  0  0  0  0  0  0  0  0
   -0.5279   -8.2168   17.0717 C   0  0  0  0  0  0  0  0  0  0  0  0
    6.9694   -4.0191   27.8190 C   0  0  0  0  0  0  0  0  0  0  0  0
    5.1733   -4.5469   29.8123 C   0  0  0  0  0  0  0  0  0  0  0  0
   -1.7508  -11.3016   18.6072 C   0  0  0  0  0  0  0  0  0  0  0  0
    1.7497   -5.6771   26.4971 C   0  0  0  0  0  0  0  0  0  0  0  0
   -1.5799   -9.9322   18.3468 C   0  0  0  0  0  0  0  0  0  0  0  0
   -1.0871  -12.2214   17.8851 C   0  0  0  0  0  0  0  0  0  0  0  0
   -2.2706   -8.9669   19.0691 C   0  0  0  0  0  0  0  0  0  0  0  0
    3.0279   -5.3073   26.8197 C   0  0  0  0  0  0  0  0  0  0  0  0
    7.3282   -3.8948   29.1186 C   0  0  0  0  0  0  0  0  0  0  0  0
  1  3  4  0
  1  7  4  0
  2  3  1  0
  2  6  4  0
  2 16  4  0
  3 22  4  0
  4  9  4  0
  4 10  1  0
  4 20  4  0
  5 16  4  0
  5 23  4  0
  6 15  4  0
  7 12  4  0
  8 13  4  0
  8 14  4  0
  9 11  4  0
 11 14  4  0
 11 19  4  0
 12 18  4  0
 13 21  4  0
 15 23  4  0
 17 19  4  0
 17 20  4  0
 18 22  4  0
 19 21  4  0
M  END
$$$$

 Created by Python create_sdf_string function

 23 25  0  0  0  0  0  0  0  0999 V2000
    2.4610   -5.3070   29.1240 C   0  0  0  0  0  0  0  0  0  0  0  0
    4.7710   -4.6952   28.4803 C   0  0  0  0  0  0  0  0  0  0  0  0
    3.4047   -5.1087   28.1314 C   0  0  0  0  0  0  0  0  0  0  0  0
   -0.2234  -11.8615   16.8874 C   0  0  0  0  0  0  0  0  0  0  0  0
    6.4491   -4.1532   30.1213 C   0  0  0  0  0  0  0  0  0  0  0  0
    5.7060   -4.4340   27.4975 C   0  0  0  0  0  0  0  0  0  0  0  0
    1.1818   -5.6612   28.8399 C   0  0  0  0  0  0  0  0  0  0  0  0
   -1.2067   -7.3287   17.7772 C   0  0  0  0  0  0  0  0  0  0  0  0
   -0.0206  -10.5585   16.6210 C   0  0  0  0  0  0  0  0  0  0  0  0
    0.3696  -12.7626   16.2169 O   0  0  0  0  0  0  0  0  0  0  0  0
   -0.6895   -9.5676   17.3297 C   0  0  0  0  0  0  0  0  0  0  0  0
    0.8388   -5.8417   27.5264 C   0  0  0  0  0  0  0  0  0  0  0  0
   -2.0709   -7.6637   18.7817 C   0  0  0  0  0  0  0  0  0  0  0  0
   -0.5279   -8.2168   17.0717 C   0  0  0  0  0  0  0  0  0  0  0  0
    6.9694   -4.0191   27.8190 C   0  0  0  0  0  0  0  0  0  0  0  0
    5.1733   -4.5469   29.8123 C   0  0  0  0  0  0  0  0  0  0  0  0
   -1.7508  -11.3016   18.6072 C   0  0  0  0  0  0  0  0  0  0  0  0
    1.7497   -5.6771   26.4971 C   0  0  0  0  0  0  0  0  0  0  0  0
   -1.5799   -9.9322   18.3468 C   0  0  0  0  0  0  0  0  0  0  0  0
   -1.0871  -12.2214   17.8851 C   0  0  0  0  0  0  0  0  0  0  0  0
   -2.2706   -8.9669   19.0691 C   0  0  0  0  0  0  0  0  0  0  0  0
    3.0279   -5.3073   26.8197 C   0  0  0  0  0  0  0  0  0  0  0  0
    7.3282   -3.8948   29.1186 C   0  0  0  0  0  0  0  0  0  0  0  0
  1  3  4  0
  1  7  4  0
  2  3  1  0
  2  6  4  0
  2 16  4  0
  3 22  4  0
  4  9  4  0
  4 10  1  0
  4 20  4  0
  5 16  4  0
  5 23  4  0
  6 15  4  0
  7 12  4  0
  8 13  4  0
  8 14  4  0
  9 11  4  0
 11 14  4  0
 11 19  4  0
 12 18  4  0
 13 21  4  0
 15 23  4  0
 17 19  4  0
 17 20  4  0
 18 22  4  0
 19 21  4  0
M  END
$$$$

 Created by Python create_sdf_string function

 23 25  0  0  0  0  0  0  0  0999 V2000
    2.4610   -5.3070   29.1240 C   0  0  0  0  0  0  0  0  0  0  0  0
    4.7710   -4.6952   28.4803 C   0  0  0  0  0  0  0  0  0  0  0  0
    3.4047   -5.1087   28.1314 C   0  0  0  0  0  0  0  0  0  0  0  0
   -0.2234  -11.8615   16.8874 C   0  0  0  0  0  0  0  0  0  0  0  0
    6.4491   -4.1532   30.1213 C   0  0  0  0  0  0  0  0  0  0  0  0
    5.7060   -4.4340   27.4975 C   0  0  0  0  0  0  0  0  0  0  0  0
    1.1818   -5.6612   28.8399 C   0  0  0  0  0  0  0  0  0  0  0  0
   -1.2067   -7.3287   17.7772 C   0  0  0  0  0  0  0  0  0  0  0  0
   -0.0206  -10.5585   16.6210 C   0  0  0  0  0  0  0  0  0  0  0  0
    0.3696  -12.7626   16.2169 O   0  0  0  0  0  0  0  0  0  0  0  0
   -0.6895   -9.5676   17.3297 C   0  0  0  0  0  0  0  0  0  0  0  0
    0.8388   -5.8417   27.5264 C   0  0  0  0  0  0  0  0  0  0  0  0
   -2.0709   -7.6637   18.7817 C   0  0  0  0  0  0  0  0  0  0  0  0
   -0.5279   -8.2168   17.0717 C   0  0  0  0  0  0  0  0  0  0  0  0
    6.9694   -4.0191   27.8190 C   0  0  0  0  0  0  0  0  0  0  0  0
    5.1733   -4.5469   29.8123 C   0  0  0  0  0  0  0  0  0  0  0  0
   -1.7508  -11.3016   18.6072 C   0  0  0  0  0  0  0  0  0  0  0  0
    1.7497   -5.6771   26.4971 C   0  0  0  0  0  0  0  0  0  0  0  0
   -1.5799   -9.9322   18.3468 C   0  0  0  0  0  0  0  0  0  0  0  0
   -1.0871  -12.2214   17.8851 C   0  0  0  0  0  0  0  0  0  0  0  0
   -2.2706   -8.9669   19.0691 C   0  0  0  0  0  0  0  0  0  0  0  0
    3.0279   -5.3073   26.8197 C   0  0  0  0  0  0  0  0  0  0  0  0
    7.3282   -3.8948   29.1186 C   0  0  0  0  0  0  0  0  0  0  0  0
  1  3  4  0
  1  7  4  0
  2  3  1  0
  2  6  4  0
  2 16  4  0
  3 22  4  0
  4  9  4  0
  4 10  1  0
  4 20  4  0
  5 16  4  0
  5 23  4  0
  6 15  4  0
  7 12  4  0
  8 13  4  0
  8 14  4  0
  9 11  4  0
 11 14  4  0
 11 19  4  0
 12 18  4  0
 13 21  4  0
 15 23  4  0
 17 19  4  0
 17 20  4  0
 18 22  4  0
 19 21  4  0
M  END
$$$$

 Created by Python create_sdf_string function

 23 25  0  0  0  0  0  0  0  0999 V2000
    2.4610   -5.3070   29.1240 C   0  0  0  0  0  0  0  0  0  0  0  0
    4.7710   -4.6952   28.4803 C   0  0  0  0  0  0  0  0  0  0  0  0
    3.4047   -5.1087   28.1314 C   0  0  0  0  0  0  0  0  0  0  0  0
   -0.2234  -11.8615   16.8874 C   0  0  0  0  0  0  0  0  0  0  0  0
    6.4491   -4.1532   30.1213 C   0  0  0  0  0  0  0  0  0  0  0  0
    5.7060   -4.4340   27.4975 C   0  0  0  0  0  0  0  0  0  0  0  0
    1.1818   -5.6612   28.8399 C   0  0  0  0  0  0  0  0  0  0  0  0
   -1.2067   -7.3287   17.7772 C   0  0  0  0  0  0  0  0  0  0  0  0
   -0.0206  -10.5585   16.6210 C   0  0  0  0  0  0  0  0  0  0  0  0
    0.3696  -12.7626   16.2169 O   0  0  0  0  0  0  0  0  0  0  0  0
   -0.6895   -9.5676   17.3297 C   0  0  0  0  0  0  0  0  0  0  0  0
    0.8388   -5.8417   27.5264 C   0  0  0  0  0  0  0  0  0  0  0  0
   -2.0709   -7.6637   18.7817 C   0  0  0  0  0  0  0  0  0  0  0  0
   -0.5279   -8.2168   17.0717 C   0  0  0  0  0  0  0  0  0  0  0  0
    6.9694   -4.0191   27.8190 C   0  0  0  0  0  0  0  0  0  0  0  0
    5.1733   -4.5469   29.8123 C   0  0  0  0  0  0  0  0  0  0  0  0
   -1.7508  -11.3016   18.6072 C   0  0  0  0  0  0  0  0  0  0  0  0
    1.7497   -5.6771   26.4971 C   0  0  0  0  0  0  0  0  0  0  0  0
   -1.5799   -9.9322   18.3468 C   0  0  0  0  0  0  0  0  0  0  0  0
   -1.0871  -12.2214   17.8851 C   0  0  0  0  0  0  0  0  0  0  0  0
   -2.2706   -8.9669   19.0691 C   0  0  0  0  0  0  0  0  0  0  0  0
    3.0279   -5.3073   26.8197 C   0  0  0  0  0  0  0  0  0  0  0  0
    7.3282   -3.8948   29.1186 C   0  0  0  0  0  0  0  0  0  0  0  0
  1  3  4  0
  1  7  4  0
  2  3  1  0
  2  6  4  0
  2 16  4  0
  3 22  4  0
  4  9  4  0
  4 10  1  0
  4 20  4  0
  5 16  4  0
  5 23  4  0
  6 15  4  0
  7 12  4  0
  8 13  4  0
  8 14  4  0
  9 11  4  0
 11 14  4  0
 11 19  4  0
 12 18  4  0
 13 21  4  0
 15 23  4  0
 17 19  4  0
 17 20  4  0
 18 22  4  0
 19 21  4  0
M  END
$$$$

 Created by Python create_sdf_string function

 23 25  0  0  0  0  0  0  0  0999 V2000
    2.4610   -5.3070   29.1240 C   0  0  0  0  0  0  0  0  0  0  0  0
    4.7710   -4.6952   28.4803 C   0  0  0  0  0  0  0  0  0  0  0  0
    3.4047   -5.1087   28.1314 C   0  0  0  0  0  0  0  0  0  0  0  0
   -0.2234  -11.8615   16.8874 C   0  0  0  0  0  0  0  0  0  0  0  0
    6.4491   -4.1532   30.1213 C   0  0  0  0  0  0  0  0  0  0  0  0
    5.7060   -4.4340   27.4975 C   0  0  0  0  0  0  0  0  0  0  0  0
    1.1818   -5.6612   28.8399 C   0  0  0  0  0  0  0  0  0  0  0  0
   -1.2067   -7.3287   17.7772 C   0  0  0  0  0  0  0  0  0  0  0  0
   -0.0206  -10.5585   16.6210 C   0  0  0  0  0  0  0  0  0  0  0  0
    0.3696  -12.7626   16.2169 O   0  0  0  0  0  0  0  0  0  0  0  0
   -0.6895   -9.5676   17.3297 C   0  0  0  0  0  0  0  0  0  0  0  0
    0.8388   -5.8417   27.5264 C   0  0  0  0  0  0  0  0  0  0  0  0
   -2.0709   -7.6637   18.7817 C   0  0  0  0  0  0  0  0  0  0  0  0
   -0.5279   -8.2168   17.0717 C   0  0  0  0  0  0  0  0  0  0  0  0
    6.9694   -4.0191   27.8190 C   0  0  0  0  0  0  0  0  0  0  0  0
    5.1733   -4.5469   29.8123 C   0  0  0  0  0  0  0  0  0  0  0  0
   -1.7508  -11.3016   18.6072 C   0  0  0  0  0  0  0  0  0  0  0  0
    1.7497   -5.6771   26.4971 C   0  0  0  0  0  0  0  0  0  0  0  0
   -1.5799   -9.9322   18.3468 C   0  0  0  0  0  0  0  0  0  0  0  0
   -1.0871  -12.2214   17.8851 C   0  0  0  0  0  0  0  0  0  0  0  0
   -2.2706   -8.9669   19.0691 C   0  0  0  0  0  0  0  0  0  0  0  0
    3.0279   -5.3073   26.8197 C   0  0  0  0  0  0  0  0  0  0  0  0
    7.3282   -3.8948   29.1186 C   0  0  0  0  0  0  0  0  0  0  0  0
  1  3  4  0
  1  7  4  0
  2  3  1  0
  2  6  4  0
  2 16  4  0
  3 22  4  0
  4  9  4  0
  4 10  1  0
  4 20  4  0
  5 16  4  0
  5 23  4  0
  6 15  4  0
  7 12  4  0
  8 13  4  0
  8 14  4  0
  9 11  4  0
 11 14  4  0
 11 19  4  0
 12 18  4  0
 13 21  4  0
 15 23  4  0
 17 19  4  0
 17 20  4  0
 18 22  4  0
 19 21  4  0
M  END
$$$$

 Created by Python create_sdf_string function

 23 25  0  0  0  0  0  0  0  0999 V2000
    2.4610   -5.3070   29.1240 C   0  0  0  0  0  0  0  0  0  0  0  0
    4.7710   -4.6952   28.4803 C   0  0  0  0  0  0  0  0  0  0  0  0
    3.4047   -5.1087   28.1314 C   0  0  0  0  0  0  0  0  0  0  0  0
   -0.2234  -11.8615   16.8874 C   0  0  0  0  0  0  0  0  0  0  0  0
    6.4491   -4.1532   30.1213 C   0  0  0  0  0  0  0  0  0  0  0  0
    5.7060   -4.4340   27.4975 C   0  0  0  0  0  0  0  0  0  0  0  0
    1.1818   -5.6612   28.8399 C   0  0  0  0  0  0  0  0  0  0  0  0
   -1.2067   -7.3287   17.7772 C   0  0  0  0  0  0  0  0  0  0  0  0
   -0.0206  -10.5585   16.6210 C   0  0  0  0  0  0  0  0  0  0  0  0
    0.3696  -12.7626   16.2169 O   0  0  0  0  0  0  0  0  0  0  0  0
   -0.6895   -9.5676   17.3297 C   0  0  0  0  0  0  0  0  0  0  0  0
    0.8388   -5.8417   27.5264 C   0  0  0  0  0  0  0  0  0  0  0  0
   -2.0709   -7.6637   18.7817 C   0  0  0  0  0  0  0  0  0  0  0  0
   -0.5279   -8.2168   17.0717 C   0  0  0  0  0  0  0  0  0  0  0  0
    6.9694   -4.0191   27.8190 C   0  0  0  0  0  0  0  0  0  0  0  0
    5.1733   -4.5469   29.8123 C   0  0  0  0  0  0  0  0  0  0  0  0
   -1.7508  -11.3016   18.6072 C   0  0  0  0  0  0  0  0  0  0  0  0
    1.7497   -5.6771   26.4971 C   0  0  0  0  0  0  0  0  0  0  0  0
   -1.5799   -9.9322   18.3468 C   0  0  0  0  0  0  0  0  0  0  0  0
   -1.0871  -12.2214   17.8851 C   0  0  0  0  0  0  0  0  0  0  0  0
   -2.2706   -8.9669   19.0691 C   0  0  0  0  0  0  0  0  0  0  0  0
    3.0279   -5.3073   26.8197 C   0  0  0  0  0  0  0  0  0  0  0  0
    7.3282   -3.8948   29.1186 C   0  0  0  0  0  0  0  0  0  0  0  0
  1  3  4  0
  1  7  4  0
  2  3  1  0
  2  6  4  0
  2 16  4  0
  3 22  4  0
  4  9  4  0
  4 10  1  0
  4 20  4  0
  5 16  4  0
  5 23  4  0
  6 15  4  0
  7 12  4  0
  8 13  4  0
  8 14  4  0
  9 11  4  0
 11 14  4  0
 11 19  4  0
 12 18  4  0
 13 21  4  0
 15 23  4  0
 17 19  4  0
 17 20  4  0
 18 22  4  0
 19 21  4  0
M  END
$$$$

 Created by Python create_sdf_string function

 23 25  0  0  0  0  0  0  0  0999 V2000
    2.4610   -5.3070   29.1240 C   0  0  0  0  0  0  0  0  0  0  0  0
    4.7710   -4.6952   28.4803 C   0  0  0  0  0  0  0  0  0  0  0  0
    3.4047   -5.1087   28.1314 C   0  0  0  0  0  0  0  0  0  0  0  0
   -0.2234  -11.8615   16.8874 C   0  0  0  0  0  0  0  0  0  0  0  0
    6.4491   -4.1532   30.1213 C   0  0  0  0  0  0  0  0  0  0  0  0
    5.7060   -4.4340   27.4975 C   0  0  0  0  0  0  0  0  0  0  0  0
    1.1818   -5.6612   28.8399 C   0  0  0  0  0  0  0  0  0  0  0  0
   -1.2067   -7.3287   17.7772 C   0  0  0  0  0  0  0  0  0  0  0  0
   -0.0206  -10.5585   16.6210 C   0  0  0  0  0  0  0  0  0  0  0  0
    0.3696  -12.7626   16.2169 O   0  0  0  0  0  0  0  0  0  0  0  0
   -0.6895   -9.5676   17.3297 C   0  0  0  0  0  0  0  0  0  0  0  0
    0.8388   -5.8417   27.5264 C   0  0  0  0  0  0  0  0  0  0  0  0
   -2.0709   -7.6637   18.7817 C   0  0  0  0  0  0  0  0  0  0  0  0
   -0.5279   -8.2168   17.0717 C   0  0  0  0  0  0  0  0  0  0  0  0
    6.9694   -4.0191   27.8190 C   0  0  0  0  0  0  0  0  0  0  0  0
    5.1733   -4.5469   29.8123 C   0  0  0  0  0  0  0  0  0  0  0  0
   -1.7508  -11.3016   18.6072 C   0  0  0  0  0  0  0  0  0  0  0  0
    1.7497   -5.6771   26.4971 C   0  0  0  0  0  0  0  0  0  0  0  0
   -1.5799   -9.9322   18.3468 C   0  0  0  0  0  0  0  0  0  0  0  0
   -1.0871  -12.2214   17.8851 C   0  0  0  0  0  0  0  0  0  0  0  0
   -2.2706   -8.9669   19.0691 C   0  0  0  0  0  0  0  0  0  0  0  0
    3.0279   -5.3073   26.8197 C   0  0  0  0  0  0  0  0  0  0  0  0
    7.3282   -3.8948   29.1186 C   0  0  0  0  0  0  0  0  0  0  0  0
  1  3  4  0
  1  7  4  0
  2  3  1  0
  2  6  4  0
  2 16  4  0
  3 22  4  0
  4  9  4  0
  4 10  1  0
  4 20  4  0
  5 16  4  0
  5 23  4  0
  6 15  4  0
  7 12  4  0
  8 13  4  0
  8 14  4  0
  9 11  4  0
 11 14  4  0
 11 19  4  0
 12 18  4  0
 13 21  4  0
 15 23  4  0
 17 19  4  0
 17 20  4  0
 18 22  4  0
 19 21  4  0
M  END
$$$$

 Created by Python create_sdf_string function

 23 25  0  0  0  0  0  0  0  0999 V2000
    2.4610   -5.3070   29.1240 C   0  0  0  0  0  0  0  0  0  0  0  0
    4.7710   -4.6952   28.4803 C   0  0  0  0  0  0  0  0  0  0  0  0
    3.4047   -5.1087   28.1314 C   0  0  0  0  0  0  0  0  0  0  0  0
   -0.2234  -11.8615   16.8874 C   0  0  0  0  0  0  0  0  0  0  0  0
    6.4491   -4.1532   30.1213 C   0  0  0  0  0  0  0  0  0  0  0  0
    5.7060   -4.4340   27.4975 C   0  0  0  0  0  0  0  0  0  0  0  0
    1.1818   -5.6612   28.8399 C   0  0  0  0  0  0  0  0  0  0  0  0
   -1.2067   -7.3287   17.7772 C   0  0  0  0  0  0  0  0  0  0  0  0
   -0.0206  -10.5585   16.6210 C   0  0  0  0  0  0  0  0  0  0  0  0
    0.3696  -12.7626   16.2169 O   0  0  0  0  0  0  0  0  0  0  0  0
   -0.6895   -9.5676   17.3297 C   0  0  0  0  0  0  0  0  0  0  0  0
    0.8388   -5.8417   27.5264 C   0  0  0  0  0  0  0  0  0  0  0  0
   -2.0709   -7.6637   18.7817 C   0  0  0  0  0  0  0  0  0  0  0  0
   -0.5279   -8.2168   17.0717 C   0  0  0  0  0  0  0  0  0  0  0  0
    6.9694   -4.0191   27.8190 C   0  0  0  0  0  0  0  0  0  0  0  0
    5.1733   -4.5469   29.8123 C   0  0  0  0  0  0  0  0  0  0  0  0
   -1.7508  -11.3016   18.6072 C   0  0  0  0  0  0  0  0  0  0  0  0
    1.7497   -5.6771   26.4971 C   0  0  0  0  0  0  0  0  0  0  0  0
   -1.5799   -9.9322   18.3468 C   0  0  0  0  0  0  0  0  0  0  0  0
   -1.0871  -12.2214   17.8851 C   0  0  0  0  0  0  0  0  0  0  0  0
   -2.2706   -8.9669   19.0691 C   0  0  0  0  0  0  0  0  0  0  0  0
    3.0279   -5.3073   26.8197 C   0  0  0  0  0  0  0  0  0  0  0  0
    7.3282   -3.8948   29.1186 C   0  0  0  0  0  0  0  0  0  0  0  0
  1  3  4  0
  1  7  4  0
  2  3  1  0
  2  6  4  0
  2 16  4  0
  3 22  4  0
  4  9  4  0
  4 10  1  0
  4 20  4  0
  5 16  4  0
  5 23  4  0
  6 15  4  0
  7 12  4  0
  8 13  4  0
  8 14  4  0
  9 11  4  0
 11 14  4  0
 11 19  4  0
 12 18  4  0
 13 21  4  0
 15 23  4  0
 17 19  4  0
 17 20  4  0
 18 22  4  0
 19 21  4  0
M  END
$$$$

 Created by Python create_sdf_string function

 23 25  0  0  0  0  0  0  0  0999 V2000
    2.4610   -5.3070   29.1240 C   0  0  0  0  0  0  0  0  0  0  0  0
    4.7710   -4.6952   28.4803 C   0  0  0  0  0  0  0  0  0  0  0  0
    3.4047   -5.1087   28.1314 C   0  0  0  0  0  0  0  0  0  0  0  0
   -0.2234  -11.8615   16.8874 C   0  0  0  0  0  0  0  0  0  0  0  0
    6.4491   -4.1532   30.1213 C   0  0  0  0  0  0  0  0  0  0  0  0
    5.7060   -4.4340   27.4975 C   0  0  0  0  0  0  0  0  0  0  0  0
    1.1818   -5.6612   28.8399 C   0  0  0  0  0  0  0  0  0  0  0  0
   -1.2067   -7.3287   17.7772 C   0  0  0  0  0  0  0  0  0  0  0  0
   -0.0206  -10.5585   16.6210 C   0  0  0  0  0  0  0  0  0  0  0  0
    0.3696  -12.7626   16.2169 O   0  0  0  0  0  0  0  0  0  0  0  0
   -0.6895   -9.5676   17.3297 C   0  0  0  0  0  0  0  0  0  0  0  0
    0.8388   -5.8417   27.5264 C   0  0  0  0  0  0  0  0  0  0  0  0
   -2.0709   -7.6637   18.7817 C   0  0  0  0  0  0  0  0  0  0  0  0
   -0.5279   -8.2168   17.0717 C   0  0  0  0  0  0  0  0  0  0  0  0
    6.9694   -4.0191   27.8190 C   0  0  0  0  0  0  0  0  0  0  0  0
    5.1733   -4.5469   29.8123 C   0  0  0  0  0  0  0  0  0  0  0  0
   -1.7508  -11.3016   18.6072 C   0  0  0  0  0  0  0  0  0  0  0  0
    1.7497   -5.6771   26.4971 C   0  0  0  0  0  0  0  0  0  0  0  0
   -1.5799   -9.9322   18.3468 C   0  0  0  0  0  0  0  0  0  0  0  0
   -1.0871  -12.2214   17.8851 C   0  0  0  0  0  0  0  0  0  0  0  0
   -2.2706   -8.9669   19.0691 C   0  0  0  0  0  0  0  0  0  0  0  0
    3.0279   -5.3073   26.8197 C   0  0  0  0  0  0  0  0  0  0  0  0
    7.3282   -3.8948   29.1186 C   0  0  0  0  0  0  0  0  0  0  0  0
  1  3  4  0
  1  7  4  0
  2  3  1  0
  2  6  4  0
  2 16  4  0
  3 22  4  0
  4  9  4  0
  4 10  1  0
  4 20  4  0
  5 16  4  0
  5 23  4  0
  6 15  4  0
  7 12  4  0
  8 13  4  0
  8 14  4  0
  9 11  4  0
 11 14  4  0
 11 19  4  0
 12 18  4  0
 13 21  4  0
 15 23  4  0
 17 19  4  0
 17 20  4  0
 18 22  4  0
 19 21  4  0
M  END
$$$$

 Created by Python create_sdf_string function

 23 25  0  0  0  0  0  0  0  0999 V2000
    2.4610   -5.3070   29.1240 C   0  0  0  0  0  0  0  0  0  0  0  0
    4.7710   -4.6952   28.4803 C   0  0  0  0  0  0  0  0  0  0  0  0
    3.4047   -5.1087   28.1314 C   0  0  0  0  0  0  0  0  0  0  0  0
   -0.2234  -11.8615   16.8874 C   0  0  0  0  0  0  0  0  0  0  0  0
    6.4491   -4.1532   30.1213 C   0  0  0  0  0  0  0  0  0  0  0  0
    5.7060   -4.4340   27.4975 C   0  0  0  0  0  0  0  0  0  0  0  0
    1.1818   -5.6612   28.8399 C   0  0  0  0  0  0  0  0  0  0  0  0
   -1.2067   -7.3287   17.7772 C   0  0  0  0  0  0  0  0  0  0  0  0
   -0.0206  -10.5585   16.6210 C   0  0  0  0  0  0  0  0  0  0  0  0
    0.3696  -12.7626   16.2169 O   0  0  0  0  0  0  0  0  0  0  0  0
   -0.6895   -9.5676   17.3297 C   0  0  0  0  0  0  0  0  0  0  0  0
    0.8388   -5.8417   27.5264 C   0  0  0  0  0  0  0  0  0  0  0  0
   -2.0709   -7.6637   18.7817 C   0  0  0  0  0  0  0  0  0  0  0  0
   -0.5279   -8.2168   17.0717 C   0  0  0  0  0  0  0  0  0  0  0  0
    6.9694   -4.0191   27.8190 C   0  0  0  0  0  0  0  0  0  0  0  0
    5.1733   -4.5469   29.8123 C   0  0  0  0  0  0  0  0  0  0  0  0
   -1.7508  -11.3016   18.6072 C   0  0  0  0  0  0  0  0  0  0  0  0
    1.7497   -5.6771   26.4971 C   0  0  0  0  0  0  0  0  0  0  0  0
   -1.5799   -9.9322   18.3468 C   0  0  0  0  0  0  0  0  0  0  0  0
   -1.0871  -12.2214   17.8851 C   0  0  0  0  0  0  0  0  0  0  0  0
   -2.2706   -8.9669   19.0691 C   0  0  0  0  0  0  0  0  0  0  0  0
    3.0279   -5.3073   26.8197 C   0  0  0  0  0  0  0  0  0  0  0  0
    7.3282   -3.8948   29.1186 C   0  0  0  0  0  0  0  0  0  0  0  0
  1  3  4  0
  1  7  4  0
  2  3  1  0
  2  6  4  0
  2 16  4  0
  3 22  4  0
  4  9  4  0
  4 10  1  0
  4 20  4  0
  5 16  4  0
  5 23  4  0
  6 15  4  0
  7 12  4  0
  8 13  4  0
  8 14  4  0
  9 11  4  0
 11 14  4  0
 11 19  4  0
 12 18  4  0
 13 21  4  0
 15 23  4  0
 17 19  4  0
 17 20  4  0
 18 22  4  0
 19 21  4  0
M  END
$$$$

 Created by Python create_sdf_string function

 23 25  0  0  0  0  0  0  0  0999 V2000
    2.4610   -5.3070   29.1240 C   0  0  0  0  0  0  0  0  0  0  0  0
    4.7710   -4.6952   28.4803 C   0  0  0  0  0  0  0  0  0  0  0  0
    3.4047   -5.1087   28.1314 C   0  0  0  0  0  0  0  0  0  0  0  0
   -0.2234  -11.8615   16.8874 C   0  0  0  0  0  0  0  0  0  0  0  0
    6.4491   -4.1532   30.1213 C   0  0  0  0  0  0  0  0  0  0  0  0
    5.7060   -4.4340   27.4975 C   0  0  0  0  0  0  0  0  0  0  0  0
    1.1818   -5.6612   28.8399 C   0  0  0  0  0  0  0  0  0  0  0  0
   -1.2067   -7.3287   17.7772 C   0  0  0  0  0  0  0  0  0  0  0  0
   -0.0206  -10.5585   16.6210 C   0  0  0  0  0  0  0  0  0  0  0  0
    0.3696  -12.7626   16.2169 O   0  0  0  0  0  0  0  0  0  0  0  0
   -0.6895   -9.5676   17.3297 C   0  0  0  0  0  0  0  0  0  0  0  0
    0.8388   -5.8417   27.5264 C   0  0  0  0  0  0  0  0  0  0  0  0
   -2.0709   -7.6637   18.7817 C   0  0  0  0  0  0  0  0  0  0  0  0
   -0.5279   -8.2168   17.0717 C   0  0  0  0  0  0  0  0  0  0  0  0
    6.9694   -4.0191   27.8190 C   0  0  0  0  0  0  0  0  0  0  0  0
    5.1733   -4.5469   29.8123 C   0  0  0  0  0  0  0  0  0  0  0  0
   -1.7508  -11.3016   18.6072 C   0  0  0  0  0  0  0  0  0  0  0  0
    1.7497   -5.6771   26.4971 C   0  0  0  0  0  0  0  0  0  0  0  0
   -1.5799   -9.9322   18.3468 C   0  0  0  0  0  0  0  0  0  0  0  0
   -1.0871  -12.2214   17.8851 C   0  0  0  0  0  0  0  0  0  0  0  0
   -2.2706   -8.9669   19.0691 C   0  0  0  0  0  0  0  0  0  0  0  0
    3.0279   -5.3073   26.8197 C   0  0  0  0  0  0  0  0  0  0  0  0
    7.3282   -3.8948   29.1186 C   0  0  0  0  0  0  0  0  0  0  0  0
  1  3  4  0
  1  7  4  0
  2  3  1  0
  2  6  4  0
  2 16  4  0
  3 22  4  0
  4  9  4  0
  4 10  1  0
  4 20  4  0
  5 16  4  0
  5 23  4  0
  6 15  4  0
  7 12  4  0
  8 13  4  0
  8 14  4  0
  9 11  4  0
 11 14  4  0
 11 19  4  0
 12 18  4  0
 13 21  4  0
 15 23  4  0
 17 19  4  0
 17 20  4  0
 18 22  4  0
 19 21  4  0
M  END
$$$$

 Created by Python create_sdf_string function

 23 25  0  0  0  0  0  0  0  0999 V2000
    2.4610   -5.3070   29.1240 C   0  0  0  0  0  0  0  0  0  0  0  0
    4.7710   -4.6952   28.4803 C   0  0  0  0  0  0  0  0  0  0  0  0
    3.4047   -5.1087   28.1314 C   0  0  0  0  0  0  0  0  0  0  0  0
   -0.2234  -11.8615   16.8874 C   0  0  0  0  0  0  0  0  0  0  0  0
    6.4491   -4.1532   30.1213 C   0  0  0  0  0  0  0  0  0  0  0  0
    5.7060   -4.4340   27.4975 C   0  0  0  0  0  0  0  0  0  0  0  0
    1.1818   -5.6612   28.8399 C   0  0  0  0  0  0  0  0  0  0  0  0
   -1.2067   -7.3287   17.7772 C   0  0  0  0  0  0  0  0  0  0  0  0
   -0.0206  -10.5585   16.6210 C   0  0  0  0  0  0  0  0  0  0  0  0
    0.3696  -12.7626   16.2169 O   0  0  0  0  0  0  0  0  0  0  0  0
   -0.6895   -9.5676   17.3297 C   0  0  0  0  0  0  0  0  0  0  0  0
    0.8388   -5.8417   27.5264 C   0  0  0  0  0  0  0  0  0  0  0  0
   -2.0709   -7.6637   18.7817 C   0  0  0  0  0  0  0  0  0  0  0  0
   -0.5279   -8.2168   17.0717 C   0  0  0  0  0  0  0  0  0  0  0  0
    6.9694   -4.0191   27.8190 C   0  0  0  0  0  0  0  0  0  0  0  0
    5.1733   -4.5469   29.8123 C   0  0  0  0  0  0  0  0  0  0  0  0
   -1.7508  -11.3016   18.6072 C   0  0  0  0  0  0  0  0  0  0  0  0
    1.7497   -5.6771   26.4971 C   0  0  0  0  0  0  0  0  0  0  0  0
   -1.5799   -9.9322   18.3468 C   0  0  0  0  0  0  0  0  0  0  0  0
   -1.0871  -12.2214   17.8851 C   0  0  0  0  0  0  0  0  0  0  0  0
   -2.2706   -8.9669   19.0691 C   0  0  0  0  0  0  0  0  0  0  0  0
    3.0279   -5.3073   26.8197 C   0  0  0  0  0  0  0  0  0  0  0  0
    7.3282   -3.8948   29.1186 C   0  0  0  0  0  0  0  0  0  0  0  0
  1  3  4  0
  1  7  4  0
  2  3  1  0
  2  6  4  0
  2 16  4  0
  3 22  4  0
  4  9  4  0
  4 10  1  0
  4 20  4  0
  5 16  4  0
  5 23  4  0
  6 15  4  0
  7 12  4  0
  8 13  4  0
  8 14  4  0
  9 11  4  0
 11 14  4  0
 11 19  4  0
 12 18  4  0
 13 21  4  0
 15 23  4  0
 17 19  4  0
 17 20  4  0
 18 22  4  0
 19 21  4  0
M  END
$$$$

 Created by Python create_sdf_string function

 23 25  0  0  0  0  0  0  0  0999 V2000
    2.4610   -5.3070   29.1240 C   0  0  0  0  0  0  0  0  0  0  0  0
    4.7710   -4.6952   28.4803 C   0  0  0  0  0  0  0  0  0  0  0  0
    3.4047   -5.1087   28.1314 C   0  0  0  0  0  0  0  0  0  0  0  0
   -0.2234  -11.8615   16.8874 C   0  0  0  0  0  0  0  0  0  0  0  0
    6.4491   -4.1532   30.1213 C   0  0  0  0  0  0  0  0  0  0  0  0
    5.7060   -4.4340   27.4975 C   0  0  0  0  0  0  0  0  0  0  0  0
    1.1818   -5.6612   28.8399 C   0  0  0  0  0  0  0  0  0  0  0  0
   -1.2067   -7.3287   17.7772 C   0  0  0  0  0  0  0  0  0  0  0  0
   -0.0206  -10.5585   16.6210 C   0  0  0  0  0  0  0  0  0  0  0  0
    0.3696  -12.7626   16.2169 O   0  0  0  0  0  0  0  0  0  0  0  0
   -0.6895   -9.5676   17.3297 C   0  0  0  0  0  0  0  0  0  0  0  0
    0.8388   -5.8417   27.5264 C   0  0  0  0  0  0  0  0  0  0  0  0
   -2.0709   -7.6637   18.7817 C   0  0  0  0  0  0  0  0  0  0  0  0
   -0.5279   -8.2168   17.0717 C   0  0  0  0  0  0  0  0  0  0  0  0
    6.9694   -4.0191   27.8190 C   0  0  0  0  0  0  0  0  0  0  0  0
    5.1733   -4.5469   29.8123 C   0  0  0  0  0  0  0  0  0  0  0  0
   -1.7508  -11.3016   18.6072 C   0  0  0  0  0  0  0  0  0  0  0  0
    1.7497   -5.6771   26.4971 C   0  0  0  0  0  0  0  0  0  0  0  0
   -1.5799   -9.9322   18.3468 C   0  0  0  0  0  0  0  0  0  0  0  0
   -1.0871  -12.2214   17.8851 C   0  0  0  0  0  0  0  0  0  0  0  0
   -2.2706   -8.9669   19.0691 C   0  0  0  0  0  0  0  0  0  0  0  0
    3.0279   -5.3073   26.8197 C   0  0  0  0  0  0  0  0  0  0  0  0
    7.3282   -3.8948   29.1186 C   0  0  0  0  0  0  0  0  0  0  0  0
  1  3  4  0
  1  7  4  0
  2  3  1  0
  2  6  4  0
  2 16  4  0
  3 22  4  0
  4  9  4  0
  4 10  1  0
  4 20  4  0
  5 16  4  0
  5 23  4  0
  6 15  4  0
  7 12  4  0
  8 13  4  0
  8 14  4  0
  9 11  4  0
 11 14  4  0
 11 19  4  0
 12 18  4  0
 13 21  4  0
 15 23  4  0
 17 19  4  0
 17 20  4  0
 18 22  4  0
 19 21  4  0
M  END
$$$$

 Created by Python create_sdf_string function

 23 25  0  0  0  0  0  0  0  0999 V2000
    2.4610   -5.3070   29.1240 C   0  0  0  0  0  0  0  0  0  0  0  0
    4.7710   -4.6952   28.4803 C   0  0  0  0  0  0  0  0  0  0  0  0
    3.4047   -5.1087   28.1314 C   0  0  0  0  0  0  0  0  0  0  0  0
   -0.2234  -11.8615   16.8874 C   0  0  0  0  0  0  0  0  0  0  0  0
    6.4491   -4.1532   30.1213 C   0  0  0  0  0  0  0  0  0  0  0  0
    5.7060   -4.4340   27.4975 C   0  0  0  0  0  0  0  0  0  0  0  0
    1.1818   -5.6612   28.8399 C   0  0  0  0  0  0  0  0  0  0  0  0
   -1.2067   -7.3287   17.7772 C   0  0  0  0  0  0  0  0  0  0  0  0
   -0.0206  -10.5585   16.6210 C   0  0  0  0  0  0  0  0  0  0  0  0
    0.3696  -12.7626   16.2169 O   0  0  0  0  0  0  0  0  0  0  0  0
   -0.6895   -9.5676   17.3297 C   0  0  0  0  0  0  0  0  0  0  0  0
    0.8388   -5.8417   27.5264 C   0  0  0  0  0  0  0  0  0  0  0  0
   -2.0709   -7.6637   18.7817 C   0  0  0  0  0  0  0  0  0  0  0  0
   -0.5279   -8.2168   17.0717 C   0  0  0  0  0  0  0  0  0  0  0  0
    6.9694   -4.0191   27.8190 C   0  0  0  0  0  0  0  0  0  0  0  0
    5.1733   -4.5469   29.8123 C   0  0  0  0  0  0  0  0  0  0  0  0
   -1.7508  -11.3016   18.6072 C   0  0  0  0  0  0  0  0  0  0  0  0
    1.7497   -5.6771   26.4971 C   0  0  0  0  0  0  0  0  0  0  0  0
   -1.5799   -9.9322   18.3468 C   0  0  0  0  0  0  0  0  0  0  0  0
   -1.0871  -12.2214   17.8851 C   0  0  0  0  0  0  0  0  0  0  0  0
   -2.2706   -8.9669   19.0691 C   0  0  0  0  0  0  0  0  0  0  0  0
    3.0279   -5.3073   26.8197 C   0  0  0  0  0  0  0  0  0  0  0  0
    7.3282   -3.8948   29.1186 C   0  0  0  0  0  0  0  0  0  0  0  0
  1  3  4  0
  1  7  4  0
  2  3  1  0
  2  6  4  0
  2 16  4  0
  3 22  4  0
  4  9  4  0
  4 10  1  0
  4 20  4  0
  5 16  4  0
  5 23  4  0
  6 15  4  0
  7 12  4  0
  8 13  4  0
  8 14  4  0
  9 11  4  0
 11 14  4  0
 11 19  4  0
 12 18  4  0
 13 21  4  0
 15 23  4  0
 17 19  4  0
 17 20  4  0
 18 22  4  0
 19 21  4  0
M  END
$$$$

 Created by Python create_sdf_string function

 23 25  0  0  0  0  0  0  0  0999 V2000
    2.4610   -5.3070   29.1240 C   0  0  0  0  0  0  0  0  0  0  0  0
    4.7710   -4.6952   28.4803 C   0  0  0  0  0  0  0  0  0  0  0  0
    3.4047   -5.1087   28.1314 C   0  0  0  0  0  0  0  0  0  0  0  0
   -0.2234  -11.8615   16.8874 C   0  0  0  0  0  0  0  0  0  0  0  0
    6.4491   -4.1532   30.1213 C   0  0  0  0  0  0  0  0  0  0  0  0
    5.7060   -4.4340   27.4975 C   0  0  0  0  0  0  0  0  0  0  0  0
    1.1818   -5.6612   28.8399 C   0  0  0  0  0  0  0  0  0  0  0  0
   -1.2067   -7.3287   17.7772 C   0  0  0  0  0  0  0  0  0  0  0  0
   -0.0206  -10.5585   16.6210 C   0  0  0  0  0  0  0  0  0  0  0  0
    0.3696  -12.7626   16.2169 O   0  0  0  0  0  0  0  0  0  0  0  0
   -0.6895   -9.5676   17.3297 C   0  0  0  0  0  0  0  0  0  0  0  0
    0.8388   -5.8417   27.5264 C   0  0  0  0  0  0  0  0  0  0  0  0
   -2.0709   -7.6637   18.7817 C   0  0  0  0  0  0  0  0  0  0  0  0
   -0.5279   -8.2168   17.0717 C   0  0  0  0  0  0  0  0  0  0  0  0
    6.9694   -4.0191   27.8190 C   0  0  0  0  0  0  0  0  0  0  0  0
    5.1733   -4.5469   29.8123 C   0  0  0  0  0  0  0  0  0  0  0  0
   -1.7508  -11.3016   18.6072 C   0  0  0  0  0  0  0  0  0  0  0  0
    1.7497   -5.6771   26.4971 C   0  0  0  0  0  0  0  0  0  0  0  0
   -1.5799   -9.9322   18.3468 C   0  0  0  0  0  0  0  0  0  0  0  0
   -1.0871  -12.2214   17.8851 C   0  0  0  0  0  0  0  0  0  0  0  0
   -2.2706   -8.9669   19.0691 C   0  0  0  0  0  0  0  0  0  0  0  0
    3.0279   -5.3073   26.8197 C   0  0  0  0  0  0  0  0  0  0  0  0
    7.3282   -3.8948   29.1186 C   0  0  0  0  0  0  0  0  0  0  0  0
  1  3  4  0
  1  7  4  0
  2  3  1  0
  2  6  4  0
  2 16  4  0
  3 22  4  0
  4  9  4  0
  4 10  1  0
  4 20  4  0
  5 16  4  0
  5 23  4  0
  6 15  4  0
  7 12  4  0
  8 13  4  0
  8 14  4  0
  9 11  4  0
 11 14  4  0
 11 19  4  0
 12 18  4  0
 13 21  4  0
 15 23  4  0
 17 19  4  0
 17 20  4  0
 18 22  4  0
 19 21  4  0
M  END
$$$$

 Created by Python create_sdf_string function

 23 25  0  0  0  0  0  0  0  0999 V2000
    2.4610   -5.3070   29.1240 C   0  0  0  0  0  0  0  0  0  0  0  0
    4.7710   -4.6952   28.4803 C   0  0  0  0  0  0  0  0  0  0  0  0
    3.4047   -5.1087   28.1314 C   0  0  0  0  0  0  0  0  0  0  0  0
   -0.2234  -11.8615   16.8874 C   0  0  0  0  0  0  0  0  0  0  0  0
    6.4491   -4.1532   30.1213 C   0  0  0  0  0  0  0  0  0  0  0  0
    5.7060   -4.4340   27.4975 C   0  0  0  0  0  0  0  0  0  0  0  0
    1.1818   -5.6612   28.8399 C   0  0  0  0  0  0  0  0  0  0  0  0
   -1.2067   -7.3287   17.7772 C   0  0  0  0  0  0  0  0  0  0  0  0
   -0.0206  -10.5585   16.6210 C   0  0  0  0  0  0  0  0  0  0  0  0
    0.3696  -12.7626   16.2169 O   0  0  0  0  0  0  0  0  0  0  0  0
   -0.6895   -9.5676   17.3297 C   0  0  0  0  0  0  0  0  0  0  0  0
    0.8388   -5.8417   27.5264 C   0  0  0  0  0  0  0  0  0  0  0  0
   -2.0709   -7.6637   18.7817 C   0  0  0  0  0  0  0  0  0  0  0  0
   -0.5279   -8.2168   17.0717 C   0  0  0  0  0  0  0  0  0  0  0  0
    6.9694   -4.0191   27.8190 C   0  0  0  0  0  0  0  0  0  0  0  0
    5.1733   -4.5469   29.8123 C   0  0  0  0  0  0  0  0  0  0  0  0
   -1.7508  -11.3016   18.6072 C   0  0  0  0  0  0  0  0  0  0  0  0
    1.7497   -5.6771   26.4971 C   0  0  0  0  0  0  0  0  0  0  0  0
   -1.5799   -9.9322   18.3468 C   0  0  0  0  0  0  0  0  0  0  0  0
   -1.0871  -12.2214   17.8851 C   0  0  0  0  0  0  0  0  0  0  0  0
   -2.2706   -8.9669   19.0691 C   0  0  0  0  0  0  0  0  0  0  0  0
    3.0279   -5.3073   26.8197 C   0  0  0  0  0  0  0  0  0  0  0  0
    7.3282   -3.8948   29.1186 C   0  0  0  0  0  0  0  0  0  0  0  0
  1  3  4  0
  1  7  4  0
  2  3  1  0
  2  6  4  0
  2 16  4  0
  3 22  4  0
  4  9  4  0
  4 10  1  0
  4 20  4  0
  5 16  4  0
  5 23  4  0
  6 15  4  0
  7 12  4  0
  8 13  4  0
  8 14  4  0
  9 11  4  0
 11 14  4  0
 11 19  4  0
 12 18  4  0
 13 21  4  0
 15 23  4  0
 17 19  4  0
 17 20  4  0
 18 22  4  0
 19 21  4  0
M  END
$$$$

 Created by Python create_sdf_string function

 23 25  0  0  0  0  0  0  0  0999 V2000
    2.4610   -5.3070   29.1240 C   0  0  0  0  0  0  0  0  0  0  0  0
    4.7710   -4.6952   28.4803 C   0  0  0  0  0  0  0  0  0  0  0  0
    3.4047   -5.1087   28.1314 C   0  0  0  0  0  0  0  0  0  0  0  0
   -0.2234  -11.8615   16.8874 C   0  0  0  0  0  0  0  0  0  0  0  0
    6.4491   -4.1532   30.1213 C   0  0  0  0  0  0  0  0  0  0  0  0
    5.7060   -4.4340   27.4975 C   0  0  0  0  0  0  0  0  0  0  0  0
    1.1818   -5.6612   28.8399 C   0  0  0  0  0  0  0  0  0  0  0  0
   -1.2067   -7.3287   17.7772 C   0  0  0  0  0  0  0  0  0  0  0  0
   -0.0206  -10.5585   16.6210 C   0  0  0  0  0  0  0  0  0  0  0  0
    0.3696  -12.7626   16.2169 O   0  0  0  0  0  0  0  0  0  0  0  0
   -0.6895   -9.5676   17.3297 C   0  0  0  0  0  0  0  0  0  0  0  0
    0.8388   -5.8417   27.5264 C   0  0  0  0  0  0  0  0  0  0  0  0
   -2.0709   -7.6637   18.7817 C   0  0  0  0  0  0  0  0  0  0  0  0
   -0.5279   -8.2168   17.0717 C   0  0  0  0  0  0  0  0  0  0  0  0
    6.9694   -4.0191   27.8190 C   0  0  0  0  0  0  0  0  0  0  0  0
    5.1733   -4.5469   29.8123 C   0  0  0  0  0  0  0  0  0  0  0  0
   -1.7508  -11.3016   18.6072 C   0  0  0  0  0  0  0  0  0  0  0  0
    1.7497   -5.6771   26.4971 C   0  0  0  0  0  0  0  0  0  0  0  0
   -1.5799   -9.9322   18.3468 C   0  0  0  0  0  0  0  0  0  0  0  0
   -1.0871  -12.2214   17.8851 C   0  0  0  0  0  0  0  0  0  0  0  0
   -2.2706   -8.9669   19.0691 C   0  0  0  0  0  0  0  0  0  0  0  0
    3.0279   -5.3073   26.8197 C   0  0  0  0  0  0  0  0  0  0  0  0
    7.3282   -3.8948   29.1186 C   0  0  0  0  0  0  0  0  0  0  0  0
  1  3  4  0
  1  7  4  0
  2  3  1  0
  2  6  4  0
  2 16  4  0
  3 22  4  0
  4  9  4  0
  4 10  1  0
  4 20  4  0
  5 16  4  0
  5 23  4  0
  6 15  4  0
  7 12  4  0
  8 13  4  0
  8 14  4  0
  9 11  4  0
 11 14  4  0
 11 19  4  0
 12 18  4  0
 13 21  4  0
 15 23  4  0
 17 19  4  0
 17 20  4  0
 18 22  4  0
 19 21  4  0
M  END
$$$$

 Created by Python create_sdf_string function

 23 25  0  0  0  0  0  0  0  0999 V2000
    2.4610   -5.3070   29.1240 C   0  0  0  0  0  0  0  0  0  0  0  0
    4.7710   -4.6952   28.4803 C   0  0  0  0  0  0  0  0  0  0  0  0
    3.4047   -5.1087   28.1314 C   0  0  0  0  0  0  0  0  0  0  0  0
   -0.2234  -11.8615   16.8874 C   0  0  0  0  0  0  0  0  0  0  0  0
    6.4491   -4.1532   30.1213 C   0  0  0  0  0  0  0  0  0  0  0  0
    5.7060   -4.4340   27.4975 C   0  0  0  0  0  0  0  0  0  0  0  0
    1.1818   -5.6612   28.8399 C   0  0  0  0  0  0  0  0  0  0  0  0
   -1.2067   -7.3287   17.7772 C   0  0  0  0  0  0  0  0  0  0  0  0
   -0.0206  -10.5585   16.6210 C   0  0  0  0  0  0  0  0  0  0  0  0
    0.3696  -12.7626   16.2169 O   0  0  0  0  0  0  0  0  0  0  0  0
   -0.6895   -9.5676   17.3297 C   0  0  0  0  0  0  0  0  0  0  0  0
    0.8388   -5.8417   27.5264 C   0  0  0  0  0  0  0  0  0  0  0  0
   -2.0709   -7.6637   18.7817 C   0  0  0  0  0  0  0  0  0  0  0  0
   -0.5279   -8.2168   17.0717 C   0  0  0  0  0  0  0  0  0  0  0  0
    6.9694   -4.0191   27.8190 C   0  0  0  0  0  0  0  0  0  0  0  0
    5.1733   -4.5469   29.8123 C   0  0  0  0  0  0  0  0  0  0  0  0
   -1.7508  -11.3016   18.6072 C   0  0  0  0  0  0  0  0  0  0  0  0
    1.7497   -5.6771   26.4971 C   0  0  0  0  0  0  0  0  0  0  0  0
   -1.5799   -9.9322   18.3468 C   0  0  0  0  0  0  0  0  0  0  0  0
   -1.0871  -12.2214   17.8851 C   0  0  0  0  0  0  0  0  0  0  0  0
   -2.2706   -8.9669   19.0691 C   0  0  0  0  0  0  0  0  0  0  0  0
    3.0279   -5.3073   26.8197 C   0  0  0  0  0  0  0  0  0  0  0  0
    7.3282   -3.8948   29.1186 C   0  0  0  0  0  0  0  0  0  0  0  0
  1  3  4  0
  1  7  4  0
  2  3  1  0
  2  6  4  0
  2 16  4  0
  3 22  4  0
  4  9  4  0
  4 10  1  0
  4 20  4  0
  5 16  4  0
  5 23  4  0
  6 15  4  0
  7 12  4  0
  8 13  4  0
  8 14  4  0
  9 11  4  0
 11 14  4  0
 11 19  4  0
 12 18  4  0
 13 21  4  0
 15 23  4  0
 17 19  4  0
 17 20  4  0
 18 22  4  0
 19 21  4  0
M  END
$$$$

 Created by Python create_sdf_string function

 23 25  0  0  0  0  0  0  0  0999 V2000
    2.4610   -5.3070   29.1240 C   0  0  0  0  0  0  0  0  0  0  0  0
    4.7710   -4.6952   28.4803 C   0  0  0  0  0  0  0  0  0  0  0  0
    3.4047   -5.1087   28.1314 C   0  0  0  0  0  0  0  0  0  0  0  0
   -0.2234  -11.8615   16.8874 C   0  0  0  0  0  0  0  0  0  0  0  0
    6.4491   -4.1532   30.1213 C   0  0  0  0  0  0  0  0  0  0  0  0
    5.7060   -4.4340   27.4975 C   0  0  0  0  0  0  0  0  0  0  0  0
    1.1818   -5.6612   28.8399 C   0  0  0  0  0  0  0  0  0  0  0  0
   -1.2067   -7.3287   17.7772 C   0  0  0  0  0  0  0  0  0  0  0  0
   -0.0206  -10.5585   16.6210 C   0  0  0  0  0  0  0  0  0  0  0  0
    0.3696  -12.7626   16.2169 O   0  0  0  0  0  0  0  0  0  0  0  0
   -0.6895   -9.5676   17.3297 C   0  0  0  0  0  0  0  0  0  0  0  0
    0.8388   -5.8417   27.5264 C   0  0  0  0  0  0  0  0  0  0  0  0
   -2.0709   -7.6637   18.7817 C   0  0  0  0  0  0  0  0  0  0  0  0
   -0.5279   -8.2168   17.0717 C   0  0  0  0  0  0  0  0  0  0  0  0
    6.9694   -4.0191   27.8190 C   0  0  0  0  0  0  0  0  0  0  0  0
    5.1733   -4.5469   29.8123 C   0  0  0  0  0  0  0  0  0  0  0  0
   -1.7508  -11.3016   18.6072 C   0  0  0  0  0  0  0  0  0  0  0  0
    1.7497   -5.6771   26.4971 C   0  0  0  0  0  0  0  0  0  0  0  0
   -1.5799   -9.9322   18.3468 C   0  0  0  0  0  0  0  0  0  0  0  0
   -1.0871  -12.2214   17.8851 C   0  0  0  0  0  0  0  0  0  0  0  0
   -2.2706   -8.9669   19.0691 C   0  0  0  0  0  0  0  0  0  0  0  0
    3.0279   -5.3073   26.8197 C   0  0  0  0  0  0  0  0  0  0  0  0
    7.3282   -3.8948   29.1186 C   0  0  0  0  0  0  0  0  0  0  0  0
  1  3  4  0
  1  7  4  0
  2  3  1  0
  2  6  4  0
  2 16  4  0
  3 22  4  0
  4  9  4  0
  4 10  1  0
  4 20  4  0
  5 16  4  0
  5 23  4  0
  6 15  4  0
  7 12  4  0
  8 13  4  0
  8 14  4  0
  9 11  4  0
 11 14  4  0
 11 19  4  0
 12 18  4  0
 13 21  4  0
 15 23  4  0
 17 19  4  0
 17 20  4  0
 18 22  4  0
 19 21  4  0
M  END
$$$$

 Created by Python create_sdf_string function

 23 25  0  0  0  0  0  0  0  0999 V2000
    2.4610   -5.3070   29.1240 C   0  0  0  0  0  0  0  0  0  0  0  0
    4.7710   -4.6952   28.4803 C   0  0  0  0  0  0  0  0  0  0  0  0
    3.4047   -5.1087   28.1314 C   0  0  0  0  0  0  0  0  0  0  0  0
   -0.2234  -11.8615   16.8874 C   0  0  0  0  0  0  0  0  0  0  0  0
    6.4491   -4.1532   30.1213 C   0  0  0  0  0  0  0  0  0  0  0  0
    5.7060   -4.4340   27.4975 C   0  0  0  0  0  0  0  0  0  0  0  0
    1.1818   -5.6612   28.8399 C   0  0  0  0  0  0  0  0  0  0  0  0
   -1.2067   -7.3287   17.7772 C   0  0  0  0  0  0  0  0  0  0  0  0
   -0.0206  -10.5585   16.6210 C   0  0  0  0  0  0  0  0  0  0  0  0
    0.3696  -12.7626   16.2169 O   0  0  0  0  0  0  0  0  0  0  0  0
   -0.6895   -9.5676   17.3297 C   0  0  0  0  0  0  0  0  0  0  0  0
    0.8388   -5.8417   27.5264 C   0  0  0  0  0  0  0  0  0  0  0  0
   -2.0709   -7.6637   18.7817 C   0  0  0  0  0  0  0  0  0  0  0  0
   -0.5279   -8.2168   17.0717 C   0  0  0  0  0  0  0  0  0  0  0  0
    6.9694   -4.0191   27.8190 C   0  0  0  0  0  0  0  0  0  0  0  0
    5.1733   -4.5469   29.8123 C   0  0  0  0  0  0  0  0  0  0  0  0
   -1.7508  -11.3016   18.6072 C   0  0  0  0  0  0  0  0  0  0  0  0
    1.7497   -5.6771   26.4971 C   0  0  0  0  0  0  0  0  0  0  0  0
   -1.5799   -9.9322   18.3468 C   0  0  0  0  0  0  0  0  0  0  0  0
   -1.0871  -12.2214   17.8851 C   0  0  0  0  0  0  0  0  0  0  0  0
   -2.2706   -8.9669   19.0691 C   0  0  0  0  0  0  0  0  0  0  0  0
    3.0279   -5.3073   26.8197 C   0  0  0  0  0  0  0  0  0  0  0  0
    7.3282   -3.8948   29.1186 C   0  0  0  0  0  0  0  0  0  0  0  0
  1  3  4  0
  1  7  4  0
  2  3  1  0
  2  6  4  0
  2 16  4  0
  3 22  4  0
  4  9  4  0
  4 10  1  0
  4 20  4  0
  5 16  4  0
  5 23  4  0
  6 15  4  0
  7 12  4  0
  8 13  4  0
  8 14  4  0
  9 11  4  0
 11 14  4  0
 11 19  4  0
 12 18  4  0
 13 21  4  0
 15 23  4  0
 17 19  4  0
 17 20  4  0
 18 22  4  0
 19 21  4  0
M  END
$$$$

 Created by Python create_sdf_string function

 23 25  0  0  0  0  0  0  0  0999 V2000
    2.4610   -5.3070   29.1240 C   0  0  0  0  0  0  0  0  0  0  0  0
    4.7710   -4.6952   28.4803 C   0  0  0  0  0  0  0  0  0  0  0  0
    3.4047   -5.1087   28.1314 C   0  0  0  0  0  0  0  0  0  0  0  0
   -0.2234  -11.8615   16.8874 C   0  0  0  0  0  0  0  0  0  0  0  0
    6.4491   -4.1532   30.1213 C   0  0  0  0  0  0  0  0  0  0  0  0
    5.7060   -4.4340   27.4975 C   0  0  0  0  0  0  0  0  0  0  0  0
    1.1818   -5.6612   28.8399 C   0  0  0  0  0  0  0  0  0  0  0  0
   -1.2067   -7.3287   17.7772 C   0  0  0  0  0  0  0  0  0  0  0  0
   -0.0206  -10.5585   16.6210 C   0  0  0  0  0  0  0  0  0  0  0  0
    0.3696  -12.7626   16.2169 O   0  0  0  0  0  0  0  0  0  0  0  0
   -0.6895   -9.5676   17.3297 C   0  0  0  0  0  0  0  0  0  0  0  0
    0.8388   -5.8417   27.5264 C   0  0  0  0  0  0  0  0  0  0  0  0
   -2.0709   -7.6637   18.7817 C   0  0  0  0  0  0  0  0  0  0  0  0
   -0.5279   -8.2168   17.0717 C   0  0  0  0  0  0  0  0  0  0  0  0
    6.9694   -4.0191   27.8190 C   0  0  0  0  0  0  0  0  0  0  0  0
    5.1733   -4.5469   29.8123 C   0  0  0  0  0  0  0  0  0  0  0  0
   -1.7508  -11.3016   18.6072 C   0  0  0  0  0  0  0  0  0  0  0  0
    1.7497   -5.6771   26.4971 C   0  0  0  0  0  0  0  0  0  0  0  0
   -1.5799   -9.9322   18.3468 C   0  0  0  0  0  0  0  0  0  0  0  0
   -1.0871  -12.2214   17.8851 C   0  0  0  0  0  0  0  0  0  0  0  0
   -2.2706   -8.9669   19.0691 C   0  0  0  0  0  0  0  0  0  0  0  0
    3.0279   -5.3073   26.8197 C   0  0  0  0  0  0  0  0  0  0  0  0
    7.3282   -3.8948   29.1186 C   0  0  0  0  0  0  0  0  0  0  0  0
  1  3  4  0
  1  7  4  0
  2  3  1  0
  2  6  4  0
  2 16  4  0
  3 22  4  0
  4  9  4  0
  4 10  1  0
  4 20  4  0
  5 16  4  0
  5 23  4  0
  6 15  4  0
  7 12  4  0
  8 13  4  0
  8 14  4  0
  9 11  4  0
 11 14  4  0
 11 19  4  0
 12 18  4  0
 13 21  4  0
 15 23  4  0
 17 19  4  0
 17 20  4  0
 18 22  4  0
 19 21  4  0
M  END
$$$$

 Created by Python create_sdf_string function

 23 25  0  0  0  0  0  0  0  0999 V2000
    2.4610   -5.3070   29.1240 C   0  0  0  0  0  0  0  0  0  0  0  0
    4.7710   -4.6952   28.4803 C   0  0  0  0  0  0  0  0  0  0  0  0
    3.4047   -5.1087   28.1314 C   0  0  0  0  0  0  0  0  0  0  0  0
   -0.2234  -11.8615   16.8874 C   0  0  0  0  0  0  0  0  0  0  0  0
    6.4491   -4.1532   30.1213 C   0  0  0  0  0  0  0  0  0  0  0  0
    5.7060   -4.4340   27.4975 C   0  0  0  0  0  0  0  0  0  0  0  0
    1.1818   -5.6612   28.8399 C   0  0  0  0  0  0  0  0  0  0  0  0
   -1.2067   -7.3287   17.7772 C   0  0  0  0  0  0  0  0  0  0  0  0
   -0.0206  -10.5585   16.6210 C   0  0  0  0  0  0  0  0  0  0  0  0
    0.3696  -12.7626   16.2169 O   0  0  0  0  0  0  0  0  0  0  0  0
   -0.6895   -9.5676   17.3297 C   0  0  0  0  0  0  0  0  0  0  0  0
    0.8388   -5.8417   27.5264 C   0  0  0  0  0  0  0  0  0  0  0  0
   -2.0709   -7.6637   18.7817 C   0  0  0  0  0  0  0  0  0  0  0  0
   -0.5279   -8.2168   17.0717 C   0  0  0  0  0  0  0  0  0  0  0  0
    6.9694   -4.0191   27.8190 C   0  0  0  0  0  0  0  0  0  0  0  0
    5.1733   -4.5469   29.8123 C   0  0  0  0  0  0  0  0  0  0  0  0
   -1.7508  -11.3016   18.6072 C   0  0  0  0  0  0  0  0  0  0  0  0
    1.7497   -5.6771   26.4971 C   0  0  0  0  0  0  0  0  0  0  0  0
   -1.5799   -9.9322   18.3468 C   0  0  0  0  0  0  0  0  0  0  0  0
   -1.0871  -12.2214   17.8851 C   0  0  0  0  0  0  0  0  0  0  0  0
   -2.2706   -8.9669   19.0691 C   0  0  0  0  0  0  0  0  0  0  0  0
    3.0279   -5.3073   26.8197 C   0  0  0  0  0  0  0  0  0  0  0  0
    7.3282   -3.8948   29.1186 C   0  0  0  0  0  0  0  0  0  0  0  0
  1  3  4  0
  1  7  4  0
  2  3  1  0
  2  6  4  0
  2 16  4  0
  3 22  4  0
  4  9  4  0
  4 10  1  0
  4 20  4  0
  5 16  4  0
  5 23  4  0
  6 15  4  0
  7 12  4  0
  8 13  4  0
  8 14  4  0
  9 11  4  0
 11 14  4  0
 11 19  4  0
 12 18  4  0
 13 21  4  0
 15 23  4  0
 17 19  4  0
 17 20  4  0
 18 22  4  0
 19 21  4  0
M  END
$$$$

 Created by Python create_sdf_string function

 23 25  0  0  0  0  0  0  0  0999 V2000
    2.4610   -5.3070   29.1240 C   0  0  0  0  0  0  0  0  0  0  0  0
    4.7710   -4.6952   28.4803 C   0  0  0  0  0  0  0  0  0  0  0  0
    3.4047   -5.1087   28.1314 C   0  0  0  0  0  0  0  0  0  0  0  0
   -0.2234  -11.8615   16.8874 C   0  0  0  0  0  0  0  0  0  0  0  0
    6.4491   -4.1532   30.1213 C   0  0  0  0  0  0  0  0  0  0  0  0
    5.7060   -4.4340   27.4975 C   0  0  0  0  0  0  0  0  0  0  0  0
    1.1818   -5.6612   28.8399 C   0  0  0  0  0  0  0  0  0  0  0  0
   -1.2067   -7.3287   17.7772 C   0  0  0  0  0  0  0  0  0  0  0  0
   -0.0206  -10.5585   16.6210 C   0  0  0  0  0  0  0  0  0  0  0  0
    0.3696  -12.7626   16.2169 O   0  0  0  0  0  0  0  0  0  0  0  0
   -0.6895   -9.5676   17.3297 C   0  0  0  0  0  0  0  0  0  0  0  0
    0.8388   -5.8417   27.5264 C   0  0  0  0  0  0  0  0  0  0  0  0
   -2.0709   -7.6637   18.7817 C   0  0  0  0  0  0  0  0  0  0  0  0
   -0.5279   -8.2168   17.0717 C   0  0  0  0  0  0  0  0  0  0  0  0
    6.9694   -4.0191   27.8190 C   0  0  0  0  0  0  0  0  0  0  0  0
    5.1733   -4.5469   29.8123 C   0  0  0  0  0  0  0  0  0  0  0  0
   -1.7508  -11.3016   18.6072 C   0  0  0  0  0  0  0  0  0  0  0  0
    1.7497   -5.6771   26.4971 C   0  0  0  0  0  0  0  0  0  0  0  0
   -1.5799   -9.9322   18.3468 C   0  0  0  0  0  0  0  0  0  0  0  0
   -1.0871  -12.2214   17.8851 C   0  0  0  0  0  0  0  0  0  0  0  0
   -2.2706   -8.9669   19.0691 C   0  0  0  0  0  0  0  0  0  0  0  0
    3.0279   -5.3073   26.8197 C   0  0  0  0  0  0  0  0  0  0  0  0
    7.3282   -3.8948   29.1186 C   0  0  0  0  0  0  0  0  0  0  0  0
  1  3  4  0
  1  7  4  0
  2  3  1  0
  2  6  4  0
  2 16  4  0
  3 22  4  0
  4  9  4  0
  4 10  1  0
  4 20  4  0
  5 16  4  0
  5 23  4  0
  6 15  4  0
  7 12  4  0
  8 13  4  0
  8 14  4  0
  9 11  4  0
 11 14  4  0
 11 19  4  0
 12 18  4  0
 13 21  4  0
 15 23  4  0
 17 19  4  0
 17 20  4  0
 18 22  4  0
 19 21  4  0
M  END
$$$$

 Created by Python create_sdf_string function

 23 25  0  0  0  0  0  0  0  0999 V2000
    2.4610   -5.3070   29.1240 C   0  0  0  0  0  0  0  0  0  0  0  0
    4.7710   -4.6952   28.4803 C   0  0  0  0  0  0  0  0  0  0  0  0
    3.4047   -5.1087   28.1314 C   0  0  0  0  0  0  0  0  0  0  0  0
   -0.2234  -11.8615   16.8874 C   0  0  0  0  0  0  0  0  0  0  0  0
    6.4491   -4.1532   30.1213 C   0  0  0  0  0  0  0  0  0  0  0  0
    5.7060   -4.4340   27.4975 C   0  0  0  0  0  0  0  0  0  0  0  0
    1.1818   -5.6612   28.8399 C   0  0  0  0  0  0  0  0  0  0  0  0
   -1.2067   -7.3287   17.7772 C   0  0  0  0  0  0  0  0  0  0  0  0
   -0.0206  -10.5585   16.6210 C   0  0  0  0  0  0  0  0  0  0  0  0
    0.3696  -12.7626   16.2169 O   0  0  0  0  0  0  0  0  0  0  0  0
   -0.6895   -9.5676   17.3297 C   0  0  0  0  0  0  0  0  0  0  0  0
    0.8388   -5.8417   27.5264 C   0  0  0  0  0  0  0  0  0  0  0  0
   -2.0709   -7.6637   18.7817 C   0  0  0  0  0  0  0  0  0  0  0  0
   -0.5279   -8.2168   17.0717 C   0  0  0  0  0  0  0  0  0  0  0  0
    6.9694   -4.0191   27.8190 C   0  0  0  0  0  0  0  0  0  0  0  0
    5.1733   -4.5469   29.8123 C   0  0  0  0  0  0  0  0  0  0  0  0
   -1.7508  -11.3016   18.6072 C   0  0  0  0  0  0  0  0  0  0  0  0
    1.7497   -5.6771   26.4971 C   0  0  0  0  0  0  0  0  0  0  0  0
   -1.5799   -9.9322   18.3468 C   0  0  0  0  0  0  0  0  0  0  0  0
   -1.0871  -12.2214   17.8851 C   0  0  0  0  0  0  0  0  0  0  0  0
   -2.2706   -8.9669   19.0691 C   0  0  0  0  0  0  0  0  0  0  0  0
    3.0279   -5.3073   26.8197 C   0  0  0  0  0  0  0  0  0  0  0  0
    7.3282   -3.8948   29.1186 C   0  0  0  0  0  0  0  0  0  0  0  0
  1  3  4  0
  1  7  4  0
  2  3  1  0
  2  6  4  0
  2 16  4  0
  3 22  4  0
  4  9  4  0
  4 10  1  0
  4 20  4  0
  5 16  4  0
  5 23  4  0
  6 15  4  0
  7 12  4  0
  8 13  4  0
  8 14  4  0
  9 11  4  0
 11 14  4  0
 11 19  4  0
 12 18  4  0
 13 21  4  0
 15 23  4  0
 17 19  4  0
 17 20  4  0
 18 22  4  0
 19 21  4  0
M  END
$$$$

 Created by Python create_sdf_string function

 23 25  0  0  0  0  0  0  0  0999 V2000
    2.4610   -5.3070   29.1240 C   0  0  0  0  0  0  0  0  0  0  0  0
    4.7710   -4.6952   28.4803 C   0  0  0  0  0  0  0  0  0  0  0  0
    3.4047   -5.1087   28.1314 C   0  0  0  0  0  0  0  0  0  0  0  0
   -0.2234  -11.8615   16.8874 C   0  0  0  0  0  0  0  0  0  0  0  0
    6.4491   -4.1532   30.1213 C   0  0  0  0  0  0  0  0  0  0  0  0
    5.7060   -4.4340   27.4975 C   0  0  0  0  0  0  0  0  0  0  0  0
    1.1818   -5.6612   28.8399 C   0  0  0  0  0  0  0  0  0  0  0  0
   -1.2067   -7.3287   17.7772 C   0  0  0  0  0  0  0  0  0  0  0  0
   -0.0206  -10.5585   16.6210 C   0  0  0  0  0  0  0  0  0  0  0  0
    0.3696  -12.7626   16.2169 O   0  0  0  0  0  0  0  0  0  0  0  0
   -0.6895   -9.5676   17.3297 C   0  0  0  0  0  0  0  0  0  0  0  0
    0.8388   -5.8417   27.5264 C   0  0  0  0  0  0  0  0  0  0  0  0
   -2.0709   -7.6637   18.7817 C   0  0  0  0  0  0  0  0  0  0  0  0
   -0.5279   -8.2168   17.0717 C   0  0  0  0  0  0  0  0  0  0  0  0
    6.9694   -4.0191   27.8190 C   0  0  0  0  0  0  0  0  0  0  0  0
    5.1733   -4.5469   29.8123 C   0  0  0  0  0  0  0  0  0  0  0  0
   -1.7508  -11.3016   18.6072 C   0  0  0  0  0  0  0  0  0  0  0  0
    1.7497   -5.6771   26.4971 C   0  0  0  0  0  0  0  0  0  0  0  0
   -1.5799   -9.9322   18.3468 C   0  0  0  0  0  0  0  0  0  0  0  0
   -1.0871  -12.2214   17.8851 C   0  0  0  0  0  0  0  0  0  0  0  0
   -2.2706   -8.9669   19.0691 C   0  0  0  0  0  0  0  0  0  0  0  0
    3.0279   -5.3073   26.8197 C   0  0  0  0  0  0  0  0  0  0  0  0
    7.3282   -3.8948   29.1186 C   0  0  0  0  0  0  0  0  0  0  0  0
  1  3  4  0
  1  7  4  0
  2  3  1  0
  2  6  4  0
  2 16  4  0
  3 22  4  0
  4  9  4  0
  4 10  1  0
  4 20  4  0
  5 16  4  0
  5 23  4  0
  6 15  4  0
  7 12  4  0
  8 13  4  0
  8 14  4  0
  9 11  4  0
 11 14  4  0
 11 19  4  0
 12 18  4  0
 13 21  4  0
 15 23  4  0
 17 19  4  0
 17 20  4  0
 18 22  4  0
 19 21  4  0
M  END
$$$$

 Created by Python create_sdf_string function

 23 25  0  0  0  0  0  0  0  0999 V2000
    2.4610   -5.3070   29.1240 C   0  0  0  0  0  0  0  0  0  0  0  0
    4.7710   -4.6952   28.4803 C   0  0  0  0  0  0  0  0  0  0  0  0
    3.4047   -5.1087   28.1314 C   0  0  0  0  0  0  0  0  0  0  0  0
   -0.2234  -11.8615   16.8874 C   0  0  0  0  0  0  0  0  0  0  0  0
    6.4491   -4.1532   30.1213 C   0  0  0  0  0  0  0  0  0  0  0  0
    5.7060   -4.4340   27.4975 C   0  0  0  0  0  0  0  0  0  0  0  0
    1.1818   -5.6612   28.8399 C   0  0  0  0  0  0  0  0  0  0  0  0
   -1.2067   -7.3287   17.7772 C   0  0  0  0  0  0  0  0  0  0  0  0
   -0.0206  -10.5585   16.6210 C   0  0  0  0  0  0  0  0  0  0  0  0
    0.3696  -12.7626   16.2169 O   0  0  0  0  0  0  0  0  0  0  0  0
   -0.6895   -9.5676   17.3297 C   0  0  0  0  0  0  0  0  0  0  0  0
    0.8388   -5.8417   27.5264 C   0  0  0  0  0  0  0  0  0  0  0  0
   -2.0709   -7.6637   18.7817 C   0  0  0  0  0  0  0  0  0  0  0  0
   -0.5279   -8.2168   17.0717 C   0  0  0  0  0  0  0  0  0  0  0  0
    6.9694   -4.0191   27.8190 C   0  0  0  0  0  0  0  0  0  0  0  0
    5.1733   -4.5469   29.8123 C   0  0  0  0  0  0  0  0  0  0  0  0
   -1.7508  -11.3016   18.6072 C   0  0  0  0  0  0  0  0  0  0  0  0
    1.7497   -5.6771   26.4971 C   0  0  0  0  0  0  0  0  0  0  0  0
   -1.5799   -9.9322   18.3468 C   0  0  0  0  0  0  0  0  0  0  0  0
   -1.0871  -12.2214   17.8851 C   0  0  0  0  0  0  0  0  0  0  0  0
   -2.2706   -8.9669   19.0691 C   0  0  0  0  0  0  0  0  0  0  0  0
    3.0279   -5.3073   26.8197 C   0  0  0  0  0  0  0  0  0  0  0  0
    7.3282   -3.8948   29.1186 C   0  0  0  0  0  0  0  0  0  0  0  0
  1  3  4  0
  1  7  4  0
  2  3  1  0
  2  6  4  0
  2 16  4  0
  3 22  4  0
  4  9  4  0
  4 10  1  0
  4 20  4  0
  5 16  4  0
  5 23  4  0
  6 15  4  0
  7 12  4  0
  8 13  4  0
  8 14  4  0
  9 11  4  0
 11 14  4  0
 11 19  4  0
 12 18  4  0
 13 21  4  0
 15 23  4  0
 17 19  4  0
 17 20  4  0
 18 22  4  0
 19 21  4  0
M  END
$$$$

 Created by Python create_sdf_string function

 23 25  0  0  0  0  0  0  0  0999 V2000
    2.4610   -5.3070   29.1240 C   0  0  0  0  0  0  0  0  0  0  0  0
    4.7710   -4.6952   28.4803 C   0  0  0  0  0  0  0  0  0  0  0  0
    3.4047   -5.1087   28.1314 C   0  0  0  0  0  0  0  0  0  0  0  0
   -0.2234  -11.8615   16.8874 C   0  0  0  0  0  0  0  0  0  0  0  0
    6.4491   -4.1532   30.1213 C   0  0  0  0  0  0  0  0  0  0  0  0
    5.7060   -4.4340   27.4975 C   0  0  0  0  0  0  0  0  0  0  0  0
    1.1818   -5.6612   28.8399 C   0  0  0  0  0  0  0  0  0  0  0  0
   -1.2067   -7.3287   17.7772 C   0  0  0  0  0  0  0  0  0  0  0  0
   -0.0206  -10.5585   16.6210 C   0  0  0  0  0  0  0  0  0  0  0  0
    0.3696  -12.7626   16.2169 O   0  0  0  0  0  0  0  0  0  0  0  0
   -0.6895   -9.5676   17.3297 C   0  0  0  0  0  0  0  0  0  0  0  0
    0.8388   -5.8417   27.5264 C   0  0  0  0  0  0  0  0  0  0  0  0
   -2.0709   -7.6637   18.7817 C   0  0  0  0  0  0  0  0  0  0  0  0
   -0.5279   -8.2168   17.0717 C   0  0  0  0  0  0  0  0  0  0  0  0
    6.9694   -4.0191   27.8190 C   0  0  0  0  0  0  0  0  0  0  0  0
    5.1733   -4.5469   29.8123 C   0  0  0  0  0  0  0  0  0  0  0  0
   -1.7508  -11.3016   18.6072 C   0  0  0  0  0  0  0  0  0  0  0  0
    1.7497   -5.6771   26.4971 C   0  0  0  0  0  0  0  0  0  0  0  0
   -1.5799   -9.9322   18.3468 C   0  0  0  0  0  0  0  0  0  0  0  0
   -1.0871  -12.2214   17.8851 C   0  0  0  0  0  0  0  0  0  0  0  0
   -2.2706   -8.9669   19.0691 C   0  0  0  0  0  0  0  0  0  0  0  0
    3.0279   -5.3073   26.8197 C   0  0  0  0  0  0  0  0  0  0  0  0
    7.3282   -3.8948   29.1186 C   0  0  0  0  0  0  0  0  0  0  0  0
  1  3  4  0
  1  7  4  0
  2  3  1  0
  2  6  4  0
  2 16  4  0
  3 22  4  0
  4  9  4  0
  4 10  1  0
  4 20  4  0
  5 16  4  0
  5 23  4  0
  6 15  4  0
  7 12  4  0
  8 13  4  0
  8 14  4  0
  9 11  4  0
 11 14  4  0
 11 19  4  0
 12 18  4  0
 13 21  4  0
 15 23  4  0
 17 19  4  0
 17 20  4  0
 18 22  4  0
 19 21  4  0
M  END
$$$$

 Created by Python create_sdf_string function

 23 25  0  0  0  0  0  0  0  0999 V2000
    2.4610   -5.3070   29.1240 C   0  0  0  0  0  0  0  0  0  0  0  0
    4.7710   -4.6952   28.4803 C   0  0  0  0  0  0  0  0  0  0  0  0
    3.4047   -5.1087   28.1314 C   0  0  0  0  0  0  0  0  0  0  0  0
   -0.2234  -11.8615   16.8874 C   0  0  0  0  0  0  0  0  0  0  0  0
    6.4491   -4.1532   30.1213 C   0  0  0  0  0  0  0  0  0  0  0  0
    5.7060   -4.4340   27.4975 C   0  0  0  0  0  0  0  0  0  0  0  0
    1.1818   -5.6612   28.8399 C   0  0  0  0  0  0  0  0  0  0  0  0
   -1.2067   -7.3287   17.7772 C   0  0  0  0  0  0  0  0  0  0  0  0
   -0.0206  -10.5585   16.6210 C   0  0  0  0  0  0  0  0  0  0  0  0
    0.3696  -12.7626   16.2169 O   0  0  0  0  0  0  0  0  0  0  0  0
   -0.6895   -9.5676   17.3297 C   0  0  0  0  0  0  0  0  0  0  0  0
    0.8388   -5.8417   27.5264 C   0  0  0  0  0  0  0  0  0  0  0  0
   -2.0709   -7.6637   18.7817 C   0  0  0  0  0  0  0  0  0  0  0  0
   -0.5279   -8.2168   17.0717 C   0  0  0  0  0  0  0  0  0  0  0  0
    6.9694   -4.0191   27.8190 C   0  0  0  0  0  0  0  0  0  0  0  0
    5.1733   -4.5469   29.8123 C   0  0  0  0  0  0  0  0  0  0  0  0
   -1.7508  -11.3016   18.6072 C   0  0  0  0  0  0  0  0  0  0  0  0
    1.7497   -5.6771   26.4971 C   0  0  0  0  0  0  0  0  0  0  0  0
   -1.5799   -9.9322   18.3468 C   0  0  0  0  0  0  0  0  0  0  0  0
   -1.0871  -12.2214   17.8851 C   0  0  0  0  0  0  0  0  0  0  0  0
   -2.2706   -8.9669   19.0691 C   0  0  0  0  0  0  0  0  0  0  0  0
    3.0279   -5.3073   26.8197 C   0  0  0  0  0  0  0  0  0  0  0  0
    7.3282   -3.8948   29.1186 C   0  0  0  0  0  0  0  0  0  0  0  0
  1  3  4  0
  1  7  4  0
  2  3  1  0
  2  6  4  0
  2 16  4  0
  3 22  4  0
  4  9  4  0
  4 10  1  0
  4 20  4  0
  5 16  4  0
  5 23  4  0
  6 15  4  0
  7 12  4  0
  8 13  4  0
  8 14  4  0
  9 11  4  0
 11 14  4  0
 11 19  4  0
 12 18  4  0
 13 21  4  0
 15 23  4  0
 17 19  4  0
 17 20  4  0
 18 22  4  0
 19 21  4  0
M  END
$$$$

 Created by Python create_sdf_string function

 23 25  0  0  0  0  0  0  0  0999 V2000
    2.4610   -5.3070   29.1240 C   0  0  0  0  0  0  0  0  0  0  0  0
    4.7710   -4.6952   28.4803 C   0  0  0  0  0  0  0  0  0  0  0  0
    3.4047   -5.1087   28.1314 C   0  0  0  0  0  0  0  0  0  0  0  0
   -0.2234  -11.8615   16.8874 C   0  0  0  0  0  0  0  0  0  0  0  0
    6.4491   -4.1532   30.1213 C   0  0  0  0  0  0  0  0  0  0  0  0
    5.7060   -4.4340   27.4975 C   0  0  0  0  0  0  0  0  0  0  0  0
    1.1818   -5.6612   28.8399 C   0  0  0  0  0  0  0  0  0  0  0  0
   -1.2067   -7.3287   17.7772 C   0  0  0  0  0  0  0  0  0  0  0  0
   -0.0206  -10.5585   16.6210 C   0  0  0  0  0  0  0  0  0  0  0  0
    0.3696  -12.7626   16.2169 O   0  0  0  0  0  0  0  0  0  0  0  0
   -0.6895   -9.5676   17.3297 C   0  0  0  0  0  0  0  0  0  0  0  0
    0.8388   -5.8417   27.5264 C   0  0  0  0  0  0  0  0  0  0  0  0
   -2.0709   -7.6637   18.7817 C   0  0  0  0  0  0  0  0  0  0  0  0
   -0.5279   -8.2168   17.0717 C   0  0  0  0  0  0  0  0  0  0  0  0
    6.9694   -4.0191   27.8190 C   0  0  0  0  0  0  0  0  0  0  0  0
    5.1733   -4.5469   29.8123 C   0  0  0  0  0  0  0  0  0  0  0  0
   -1.7508  -11.3016   18.6072 C   0  0  0  0  0  0  0  0  0  0  0  0
    1.7497   -5.6771   26.4971 C   0  0  0  0  0  0  0  0  0  0  0  0
   -1.5799   -9.9322   18.3468 C   0  0  0  0  0  0  0  0  0  0  0  0
   -1.0871  -12.2214   17.8851 C   0  0  0  0  0  0  0  0  0  0  0  0
   -2.2706   -8.9669   19.0691 C   0  0  0  0  0  0  0  0  0  0  0  0
    3.0279   -5.3073   26.8197 C   0  0  0  0  0  0  0  0  0  0  0  0
    7.3282   -3.8948   29.1186 C   0  0  0  0  0  0  0  0  0  0  0  0
  1  3  4  0
  1  7  4  0
  2  3  1  0
  2  6  4  0
  2 16  4  0
  3 22  4  0
  4  9  4  0
  4 10  1  0
  4 20  4  0
  5 16  4  0
  5 23  4  0
  6 15  4  0
  7 12  4  0
  8 13  4  0
  8 14  4  0
  9 11  4  0
 11 14  4  0
 11 19  4  0
 12 18  4  0
 13 21  4  0
 15 23  4  0
 17 19  4  0
 17 20  4  0
 18 22  4  0
 19 21  4  0
M  END
$$$$

 Created by Python create_sdf_string function

 23 25  0  0  0  0  0  0  0  0999 V2000
    2.4610   -5.3070   29.1240 C   0  0  0  0  0  0  0  0  0  0  0  0
    4.7710   -4.6952   28.4803 C   0  0  0  0  0  0  0  0  0  0  0  0
    3.4047   -5.1087   28.1314 C   0  0  0  0  0  0  0  0  0  0  0  0
   -0.2234  -11.8615   16.8874 C   0  0  0  0  0  0  0  0  0  0  0  0
    6.4491   -4.1532   30.1213 C   0  0  0  0  0  0  0  0  0  0  0  0
    5.7060   -4.4340   27.4975 C   0  0  0  0  0  0  0  0  0  0  0  0
    1.1818   -5.6612   28.8399 C   0  0  0  0  0  0  0  0  0  0  0  0
   -1.2067   -7.3287   17.7772 C   0  0  0  0  0  0  0  0  0  0  0  0
   -0.0206  -10.5585   16.6210 C   0  0  0  0  0  0  0  0  0  0  0  0
    0.3696  -12.7626   16.2169 O   0  0  0  0  0  0  0  0  0  0  0  0
   -0.6895   -9.5676   17.3297 C   0  0  0  0  0  0  0  0  0  0  0  0
    0.8388   -5.8417   27.5264 C   0  0  0  0  0  0  0  0  0  0  0  0
   -2.0709   -7.6637   18.7817 C   0  0  0  0  0  0  0  0  0  0  0  0
   -0.5279   -8.2168   17.0717 C   0  0  0  0  0  0  0  0  0  0  0  0
    6.9694   -4.0191   27.8190 C   0  0  0  0  0  0  0  0  0  0  0  0
    5.1733   -4.5469   29.8123 C   0  0  0  0  0  0  0  0  0  0  0  0
   -1.7508  -11.3016   18.6072 C   0  0  0  0  0  0  0  0  0  0  0  0
    1.7497   -5.6771   26.4971 C   0  0  0  0  0  0  0  0  0  0  0  0
   -1.5799   -9.9322   18.3468 C   0  0  0  0  0  0  0  0  0  0  0  0
   -1.0871  -12.2214   17.8851 C   0  0  0  0  0  0  0  0  0  0  0  0
   -2.2706   -8.9669   19.0691 C   0  0  0  0  0  0  0  0  0  0  0  0
    3.0279   -5.3073   26.8197 C   0  0  0  0  0  0  0  0  0  0  0  0
    7.3282   -3.8948   29.1186 C   0  0  0  0  0  0  0  0  0  0  0  0
  1  3  4  0
  1  7  4  0
  2  3  1  0
  2  6  4  0
  2 16  4  0
  3 22  4  0
  4  9  4  0
  4 10  1  0
  4 20  4  0
  5 16  4  0
  5 23  4  0
  6 15  4  0
  7 12  4  0
  8 13  4  0
  8 14  4  0
  9 11  4  0
 11 14  4  0
 11 19  4  0
 12 18  4  0
 13 21  4  0
 15 23  4  0
 17 19  4  0
 17 20  4  0
 18 22  4  0
 19 21  4  0
M  END
$$$$

 Created by Python create_sdf_string function

 23 25  0  0  0  0  0  0  0  0999 V2000
    2.4610   -5.3070   29.1240 C   0  0  0  0  0  0  0  0  0  0  0  0
    4.7710   -4.6952   28.4803 C   0  0  0  0  0  0  0  0  0  0  0  0
    3.4047   -5.1087   28.1314 C   0  0  0  0  0  0  0  0  0  0  0  0
   -0.2234  -11.8615   16.8874 C   0  0  0  0  0  0  0  0  0  0  0  0
    6.4491   -4.1532   30.1213 C   0  0  0  0  0  0  0  0  0  0  0  0
    5.7060   -4.4340   27.4975 C   0  0  0  0  0  0  0  0  0  0  0  0
    1.1818   -5.6612   28.8399 C   0  0  0  0  0  0  0  0  0  0  0  0
   -1.2067   -7.3287   17.7772 C   0  0  0  0  0  0  0  0  0  0  0  0
   -0.0206  -10.5585   16.6210 C   0  0  0  0  0  0  0  0  0  0  0  0
    0.3696  -12.7626   16.2169 O   0  0  0  0  0  0  0  0  0  0  0  0
   -0.6895   -9.5676   17.3297 C   0  0  0  0  0  0  0  0  0  0  0  0
    0.8388   -5.8417   27.5264 C   0  0  0  0  0  0  0  0  0  0  0  0
   -2.0709   -7.6637   18.7817 C   0  0  0  0  0  0  0  0  0  0  0  0
   -0.5279   -8.2168   17.0717 C   0  0  0  0  0  0  0  0  0  0  0  0
    6.9694   -4.0191   27.8190 C   0  0  0  0  0  0  0  0  0  0  0  0
    5.1733   -4.5469   29.8123 C   0  0  0  0  0  0  0  0  0  0  0  0
   -1.7508  -11.3016   18.6072 C   0  0  0  0  0  0  0  0  0  0  0  0
    1.7497   -5.6771   26.4971 C   0  0  0  0  0  0  0  0  0  0  0  0
   -1.5799   -9.9322   18.3468 C   0  0  0  0  0  0  0  0  0  0  0  0
   -1.0871  -12.2214   17.8851 C   0  0  0  0  0  0  0  0  0  0  0  0
   -2.2706   -8.9669   19.0691 C   0  0  0  0  0  0  0  0  0  0  0  0
    3.0279   -5.3073   26.8197 C   0  0  0  0  0  0  0  0  0  0  0  0
    7.3282   -3.8948   29.1186 C   0  0  0  0  0  0  0  0  0  0  0  0
  1  3  4  0
  1  7  4  0
  2  3  1  0
  2  6  4  0
  2 16  4  0
  3 22  4  0
  4  9  4  0
  4 10  1  0
  4 20  4  0
  5 16  4  0
  5 23  4  0
  6 15  4  0
  7 12  4  0
  8 13  4  0
  8 14  4  0
  9 11  4  0
 11 14  4  0
 11 19  4  0
 12 18  4  0
 13 21  4  0
 15 23  4  0
 17 19  4  0
 17 20  4  0
 18 22  4  0
 19 21  4  0
M  END
$$$$

 Created by Python create_sdf_string function

 23 25  0  0  0  0  0  0  0  0999 V2000
    2.4610   -5.3070   29.1240 C   0  0  0  0  0  0  0  0  0  0  0  0
    4.7710   -4.6952   28.4803 C   0  0  0  0  0  0  0  0  0  0  0  0
    3.4047   -5.1087   28.1314 C   0  0  0  0  0  0  0  0  0  0  0  0
   -0.2234  -11.8615   16.8874 C   0  0  0  0  0  0  0  0  0  0  0  0
    6.4491   -4.1532   30.1213 C   0  0  0  0  0  0  0  0  0  0  0  0
    5.7060   -4.4340   27.4975 C   0  0  0  0  0  0  0  0  0  0  0  0
    1.1818   -5.6612   28.8399 C   0  0  0  0  0  0  0  0  0  0  0  0
   -1.2067   -7.3287   17.7772 C   0  0  0  0  0  0  0  0  0  0  0  0
   -0.0206  -10.5585   16.6210 C   0  0  0  0  0  0  0  0  0  0  0  0
    0.3696  -12.7626   16.2169 O   0  0  0  0  0  0  0  0  0  0  0  0
   -0.6895   -9.5676   17.3297 C   0  0  0  0  0  0  0  0  0  0  0  0
    0.8388   -5.8417   27.5264 C   0  0  0  0  0  0  0  0  0  0  0  0
   -2.0709   -7.6637   18.7817 C   0  0  0  0  0  0  0  0  0  0  0  0
   -0.5279   -8.2168   17.0717 C   0  0  0  0  0  0  0  0  0  0  0  0
    6.9694   -4.0191   27.8190 C   0  0  0  0  0  0  0  0  0  0  0  0
    5.1733   -4.5469   29.8123 C   0  0  0  0  0  0  0  0  0  0  0  0
   -1.7508  -11.3016   18.6072 C   0  0  0  0  0  0  0  0  0  0  0  0
    1.7497   -5.6771   26.4971 C   0  0  0  0  0  0  0  0  0  0  0  0
   -1.5799   -9.9322   18.3468 C   0  0  0  0  0  0  0  0  0  0  0  0
   -1.0871  -12.2214   17.8851 C   0  0  0  0  0  0  0  0  0  0  0  0
   -2.2706   -8.9669   19.0691 C   0  0  0  0  0  0  0  0  0  0  0  0
    3.0279   -5.3073   26.8197 C   0  0  0  0  0  0  0  0  0  0  0  0
    7.3282   -3.8948   29.1186 C   0  0  0  0  0  0  0  0  0  0  0  0
  1  3  4  0
  1  7  4  0
  2  3  1  0
  2  6  4  0
  2 16  4  0
  3 22  4  0
  4  9  4  0
  4 10  1  0
  4 20  4  0
  5 16  4  0
  5 23  4  0
  6 15  4  0
  7 12  4  0
  8 13  4  0
  8 14  4  0
  9 11  4  0
 11 14  4  0
 11 19  4  0
 12 18  4  0
 13 21  4  0
 15 23  4  0
 17 19  4  0
 17 20  4  0
 18 22  4  0
 19 21  4  0
M  END
$$$$

 Created by Python create_sdf_string function

 23 25  0  0  0  0  0  0  0  0999 V2000
    2.4610   -5.3070   29.1240 C   0  0  0  0  0  0  0  0  0  0  0  0
    4.7710   -4.6952   28.4803 C   0  0  0  0  0  0  0  0  0  0  0  0
    3.4047   -5.1087   28.1314 C   0  0  0  0  0  0  0  0  0  0  0  0
   -0.2234  -11.8615   16.8874 C   0  0  0  0  0  0  0  0  0  0  0  0
    6.4491   -4.1532   30.1213 C   0  0  0  0  0  0  0  0  0  0  0  0
    5.7060   -4.4340   27.4975 C   0  0  0  0  0  0  0  0  0  0  0  0
    1.1818   -5.6612   28.8399 C   0  0  0  0  0  0  0  0  0  0  0  0
   -1.2067   -7.3287   17.7772 C   0  0  0  0  0  0  0  0  0  0  0  0
   -0.0206  -10.5585   16.6210 C   0  0  0  0  0  0  0  0  0  0  0  0
    0.3696  -12.7626   16.2169 O   0  0  0  0  0  0  0  0  0  0  0  0
   -0.6895   -9.5676   17.3297 C   0  0  0  0  0  0  0  0  0  0  0  0
    0.8388   -5.8417   27.5264 C   0  0  0  0  0  0  0  0  0  0  0  0
   -2.0709   -7.6637   18.7817 C   0  0  0  0  0  0  0  0  0  0  0  0
   -0.5279   -8.2168   17.0717 C   0  0  0  0  0  0  0  0  0  0  0  0
    6.9694   -4.0191   27.8190 C   0  0  0  0  0  0  0  0  0  0  0  0
    5.1733   -4.5469   29.8123 C   0  0  0  0  0  0  0  0  0  0  0  0
   -1.7508  -11.3016   18.6072 C   0  0  0  0  0  0  0  0  0  0  0  0
    1.7497   -5.6771   26.4971 C   0  0  0  0  0  0  0  0  0  0  0  0
   -1.5799   -9.9322   18.3468 C   0  0  0  0  0  0  0  0  0  0  0  0
   -1.0871  -12.2214   17.8851 C   0  0  0  0  0  0  0  0  0  0  0  0
   -2.2706   -8.9669   19.0691 C   0  0  0  0  0  0  0  0  0  0  0  0
    3.0279   -5.3073   26.8197 C   0  0  0  0  0  0  0  0  0  0  0  0
    7.3282   -3.8948   29.1186 C   0  0  0  0  0  0  0  0  0  0  0  0
  1  3  4  0
  1  7  4  0
  2  3  1  0
  2  6  4  0
  2 16  4  0
  3 22  4  0
  4  9  4  0
  4 10  1  0
  4 20  4  0
  5 16  4  0
  5 23  4  0
  6 15  4  0
  7 12  4  0
  8 13  4  0
  8 14  4  0
  9 11  4  0
 11 14  4  0
 11 19  4  0
 12 18  4  0
 13 21  4  0
 15 23  4  0
 17 19  4  0
 17 20  4  0
 18 22  4  0
 19 21  4  0
M  END
$$$$

 Created by Python create_sdf_string function

 23 25  0  0  0  0  0  0  0  0999 V2000
    2.4610   -5.3070   29.1240 C   0  0  0  0  0  0  0  0  0  0  0  0
    4.7710   -4.6952   28.4803 C   0  0  0  0  0  0  0  0  0  0  0  0
    3.4047   -5.1087   28.1314 C   0  0  0  0  0  0  0  0  0  0  0  0
   -0.2234  -11.8615   16.8874 C   0  0  0  0  0  0  0  0  0  0  0  0
    6.4491   -4.1532   30.1213 C   0  0  0  0  0  0  0  0  0  0  0  0
    5.7060   -4.4340   27.4975 C   0  0  0  0  0  0  0  0  0  0  0  0
    1.1818   -5.6612   28.8399 C   0  0  0  0  0  0  0  0  0  0  0  0
   -1.2067   -7.3287   17.7772 C   0  0  0  0  0  0  0  0  0  0  0  0
   -0.0206  -10.5585   16.6210 C   0  0  0  0  0  0  0  0  0  0  0  0
    0.3696  -12.7626   16.2169 O   0  0  0  0  0  0  0  0  0  0  0  0
   -0.6895   -9.5676   17.3297 C   0  0  0  0  0  0  0  0  0  0  0  0
    0.8388   -5.8417   27.5264 C   0  0  0  0  0  0  0  0  0  0  0  0
   -2.0709   -7.6637   18.7817 C   0  0  0  0  0  0  0  0  0  0  0  0
   -0.5279   -8.2168   17.0717 C   0  0  0  0  0  0  0  0  0  0  0  0
    6.9694   -4.0191   27.8190 C   0  0  0  0  0  0  0  0  0  0  0  0
    5.1733   -4.5469   29.8123 C   0  0  0  0  0  0  0  0  0  0  0  0
   -1.7508  -11.3016   18.6072 C   0  0  0  0  0  0  0  0  0  0  0  0
    1.7497   -5.6771   26.4971 C   0  0  0  0  0  0  0  0  0  0  0  0
   -1.5799   -9.9322   18.3468 C   0  0  0  0  0  0  0  0  0  0  0  0
   -1.0871  -12.2214   17.8851 C   0  0  0  0  0  0  0  0  0  0  0  0
   -2.2706   -8.9669   19.0691 C   0  0  0  0  0  0  0  0  0  0  0  0
    3.0279   -5.3073   26.8197 C   0  0  0  0  0  0  0  0  0  0  0  0
    7.3282   -3.8948   29.1186 C   0  0  0  0  0  0  0  0  0  0  0  0
  1  3  4  0
  1  7  4  0
  2  3  1  0
  2  6  4  0
  2 16  4  0
  3 22  4  0
  4  9  4  0
  4 10  1  0
  4 20  4  0
  5 16  4  0
  5 23  4  0
  6 15  4  0
  7 12  4  0
  8 13  4  0
  8 14  4  0
  9 11  4  0
 11 14  4  0
 11 19  4  0
 12 18  4  0
 13 21  4  0
 15 23  4  0
 17 19  4  0
 17 20  4  0
 18 22  4  0
 19 21  4  0
M  END
$$$$

 Created by Python create_sdf_string function

 23 25  0  0  0  0  0  0  0  0999 V2000
    2.4610   -5.3070   29.1240 C   0  0  0  0  0  0  0  0  0  0  0  0
    4.7710   -4.6952   28.4803 C   0  0  0  0  0  0  0  0  0  0  0  0
    3.4047   -5.1087   28.1314 C   0  0  0  0  0  0  0  0  0  0  0  0
   -0.2234  -11.8615   16.8874 C   0  0  0  0  0  0  0  0  0  0  0  0
    6.4491   -4.1532   30.1213 C   0  0  0  0  0  0  0  0  0  0  0  0
    5.7060   -4.4340   27.4975 C   0  0  0  0  0  0  0  0  0  0  0  0
    1.1818   -5.6612   28.8399 C   0  0  0  0  0  0  0  0  0  0  0  0
   -1.2067   -7.3287   17.7772 C   0  0  0  0  0  0  0  0  0  0  0  0
   -0.0206  -10.5585   16.6210 C   0  0  0  0  0  0  0  0  0  0  0  0
    0.3696  -12.7626   16.2169 O   0  0  0  0  0  0  0  0  0  0  0  0
   -0.6895   -9.5676   17.3297 C   0  0  0  0  0  0  0  0  0  0  0  0
    0.8388   -5.8417   27.5264 C   0  0  0  0  0  0  0  0  0  0  0  0
   -2.0709   -7.6637   18.7817 C   0  0  0  0  0  0  0  0  0  0  0  0
   -0.5279   -8.2168   17.0717 C   0  0  0  0  0  0  0  0  0  0  0  0
    6.9694   -4.0191   27.8190 C   0  0  0  0  0  0  0  0  0  0  0  0
    5.1733   -4.5469   29.8123 C   0  0  0  0  0  0  0  0  0  0  0  0
   -1.7508  -11.3016   18.6072 C   0  0  0  0  0  0  0  0  0  0  0  0
    1.7497   -5.6771   26.4971 C   0  0  0  0  0  0  0  0  0  0  0  0
   -1.5799   -9.9322   18.3468 C   0  0  0  0  0  0  0  0  0  0  0  0
   -1.0871  -12.2214   17.8851 C   0  0  0  0  0  0  0  0  0  0  0  0
   -2.2706   -8.9669   19.0691 C   0  0  0  0  0  0  0  0  0  0  0  0
    3.0279   -5.3073   26.8197 C   0  0  0  0  0  0  0  0  0  0  0  0
    7.3282   -3.8948   29.1186 C   0  0  0  0  0  0  0  0  0  0  0  0
  1  3  4  0
  1  7  4  0
  2  3  1  0
  2  6  4  0
  2 16  4  0
  3 22  4  0
  4  9  4  0
  4 10  1  0
  4 20  4  0
  5 16  4  0
  5 23  4  0
  6 15  4  0
  7 12  4  0
  8 13  4  0
  8 14  4  0
  9 11  4  0
 11 14  4  0
 11 19  4  0
 12 18  4  0
 13 21  4  0
 15 23  4  0
 17 19  4  0
 17 20  4  0
 18 22  4  0
 19 21  4  0
M  END
$$$$

 Created by Python create_sdf_string function

 23 25  0  0  0  0  0  0  0  0999 V2000
    2.4610   -5.3070   29.1240 C   0  0  0  0  0  0  0  0  0  0  0  0
    4.7710   -4.6952   28.4803 C   0  0  0  0  0  0  0  0  0  0  0  0
    3.4047   -5.1087   28.1314 C   0  0  0  0  0  0  0  0  0  0  0  0
   -0.2234  -11.8615   16.8874 C   0  0  0  0  0  0  0  0  0  0  0  0
    6.4491   -4.1532   30.1213 C   0  0  0  0  0  0  0  0  0  0  0  0
    5.7060   -4.4340   27.4975 C   0  0  0  0  0  0  0  0  0  0  0  0
    1.1818   -5.6612   28.8399 C   0  0  0  0  0  0  0  0  0  0  0  0
   -1.2067   -7.3287   17.7772 C   0  0  0  0  0  0  0  0  0  0  0  0
   -0.0206  -10.5585   16.6210 C   0  0  0  0  0  0  0  0  0  0  0  0
    0.3696  -12.7626   16.2169 O   0  0  0  0  0  0  0  0  0  0  0  0
   -0.6895   -9.5676   17.3297 C   0  0  0  0  0  0  0  0  0  0  0  0
    0.8388   -5.8417   27.5264 C   0  0  0  0  0  0  0  0  0  0  0  0
   -2.0709   -7.6637   18.7817 C   0  0  0  0  0  0  0  0  0  0  0  0
   -0.5279   -8.2168   17.0717 C   0  0  0  0  0  0  0  0  0  0  0  0
    6.9694   -4.0191   27.8190 C   0  0  0  0  0  0  0  0  0  0  0  0
    5.1733   -4.5469   29.8123 C   0  0  0  0  0  0  0  0  0  0  0  0
   -1.7508  -11.3016   18.6072 C   0  0  0  0  0  0  0  0  0  0  0  0
    1.7497   -5.6771   26.4971 C   0  0  0  0  0  0  0  0  0  0  0  0
   -1.5799   -9.9322   18.3468 C   0  0  0  0  0  0  0  0  0  0  0  0
   -1.0871  -12.2214   17.8851 C   0  0  0  0  0  0  0  0  0  0  0  0
   -2.2706   -8.9669   19.0691 C   0  0  0  0  0  0  0  0  0  0  0  0
    3.0279   -5.3073   26.8197 C   0  0  0  0  0  0  0  0  0  0  0  0
    7.3282   -3.8948   29.1186 C   0  0  0  0  0  0  0  0  0  0  0  0
  1  3  4  0
  1  7  4  0
  2  3  1  0
  2  6  4  0
  2 16  4  0
  3 22  4  0
  4  9  4  0
  4 10  1  0
  4 20  4  0
  5 16  4  0
  5 23  4  0
  6 15  4  0
  7 12  4  0
  8 13  4  0
  8 14  4  0
  9 11  4  0
 11 14  4  0
 11 19  4  0
 12 18  4  0
 13 21  4  0
 15 23  4  0
 17 19  4  0
 17 20  4  0
 18 22  4  0
 19 21  4  0
M  END
$$$$

 Created by Python create_sdf_string function

 23 25  0  0  0  0  0  0  0  0999 V2000
    2.4610   -5.3070   29.1240 C   0  0  0  0  0  0  0  0  0  0  0  0
    4.7710   -4.6952   28.4803 C   0  0  0  0  0  0  0  0  0  0  0  0
    3.4047   -5.1087   28.1314 C   0  0  0  0  0  0  0  0  0  0  0  0
   -0.2234  -11.8615   16.8874 C   0  0  0  0  0  0  0  0  0  0  0  0
    6.4491   -4.1532   30.1213 C   0  0  0  0  0  0  0  0  0  0  0  0
    5.7060   -4.4340   27.4975 C   0  0  0  0  0  0  0  0  0  0  0  0
    1.1818   -5.6612   28.8399 C   0  0  0  0  0  0  0  0  0  0  0  0
   -1.2067   -7.3287   17.7772 C   0  0  0  0  0  0  0  0  0  0  0  0
   -0.0206  -10.5585   16.6210 C   0  0  0  0  0  0  0  0  0  0  0  0
    0.3696  -12.7626   16.2169 O   0  0  0  0  0  0  0  0  0  0  0  0
   -0.6895   -9.5676   17.3297 C   0  0  0  0  0  0  0  0  0  0  0  0
    0.8388   -5.8417   27.5264 C   0  0  0  0  0  0  0  0  0  0  0  0
   -2.0709   -7.6637   18.7817 C   0  0  0  0  0  0  0  0  0  0  0  0
   -0.5279   -8.2168   17.0717 C   0  0  0  0  0  0  0  0  0  0  0  0
    6.9694   -4.0191   27.8190 C   0  0  0  0  0  0  0  0  0  0  0  0
    5.1733   -4.5469   29.8123 C   0  0  0  0  0  0  0  0  0  0  0  0
   -1.7508  -11.3016   18.6072 C   0  0  0  0  0  0  0  0  0  0  0  0
    1.7497   -5.6771   26.4971 C   0  0  0  0  0  0  0  0  0  0  0  0
   -1.5799   -9.9322   18.3468 C   0  0  0  0  0  0  0  0  0  0  0  0
   -1.0871  -12.2214   17.8851 C   0  0  0  0  0  0  0  0  0  0  0  0
   -2.2706   -8.9669   19.0691 C   0  0  0  0  0  0  0  0  0  0  0  0
    3.0279   -5.3073   26.8197 C   0  0  0  0  0  0  0  0  0  0  0  0
    7.3282   -3.8948   29.1186 C   0  0  0  0  0  0  0  0  0  0  0  0
  1  3  4  0
  1  7  4  0
  2  3  1  0
  2  6  4  0
  2 16  4  0
  3 22  4  0
  4  9  4  0
  4 10  1  0
  4 20  4  0
  5 16  4  0
  5 23  4  0
  6 15  4  0
  7 12  4  0
  8 13  4  0
  8 14  4  0
  9 11  4  0
 11 14  4  0
 11 19  4  0
 12 18  4  0
 13 21  4  0
 15 23  4  0
 17 19  4  0
 17 20  4  0
 18 22  4  0
 19 21  4  0
M  END
$$$$

 Created by Python create_sdf_string function

 23 25  0  0  0  0  0  0  0  0999 V2000
    2.4610   -5.3070   29.1240 C   0  0  0  0  0  0  0  0  0  0  0  0
    4.7710   -4.6952   28.4803 C   0  0  0  0  0  0  0  0  0  0  0  0
    3.4047   -5.1087   28.1314 C   0  0  0  0  0  0  0  0  0  0  0  0
   -0.2234  -11.8615   16.8874 C   0  0  0  0  0  0  0  0  0  0  0  0
    6.4491   -4.1532   30.1213 C   0  0  0  0  0  0  0  0  0  0  0  0
    5.7060   -4.4340   27.4975 C   0  0  0  0  0  0  0  0  0  0  0  0
    1.1818   -5.6612   28.8399 C   0  0  0  0  0  0  0  0  0  0  0  0
   -1.2067   -7.3287   17.7772 C   0  0  0  0  0  0  0  0  0  0  0  0
   -0.0206  -10.5585   16.6210 C   0  0  0  0  0  0  0  0  0  0  0  0
    0.3696  -12.7626   16.2169 O   0  0  0  0  0  0  0  0  0  0  0  0
   -0.6895   -9.5676   17.3297 C   0  0  0  0  0  0  0  0  0  0  0  0
    0.8388   -5.8417   27.5264 C   0  0  0  0  0  0  0  0  0  0  0  0
   -2.0709   -7.6637   18.7817 C   0  0  0  0  0  0  0  0  0  0  0  0
   -0.5279   -8.2168   17.0717 C   0  0  0  0  0  0  0  0  0  0  0  0
    6.9694   -4.0191   27.8190 C   0  0  0  0  0  0  0  0  0  0  0  0
    5.1733   -4.5469   29.8123 C   0  0  0  0  0  0  0  0  0  0  0  0
   -1.7508  -11.3016   18.6072 C   0  0  0  0  0  0  0  0  0  0  0  0
    1.7497   -5.6771   26.4971 C   0  0  0  0  0  0  0  0  0  0  0  0
   -1.5799   -9.9322   18.3468 C   0  0  0  0  0  0  0  0  0  0  0  0
   -1.0871  -12.2214   17.8851 C   0  0  0  0  0  0  0  0  0  0  0  0
   -2.2706   -8.9669   19.0691 C   0  0  0  0  0  0  0  0  0  0  0  0
    3.0279   -5.3073   26.8197 C   0  0  0  0  0  0  0  0  0  0  0  0
    7.3282   -3.8948   29.1186 C   0  0  0  0  0  0  0  0  0  0  0  0
  1  3  4  0
  1  7  4  0
  2  3  1  0
  2  6  4  0
  2 16  4  0
  3 22  4  0
  4  9  4  0
  4 10  1  0
  4 20  4  0
  5 16  4  0
  5 23  4  0
  6 15  4  0
  7 12  4  0
  8 13  4  0
  8 14  4  0
  9 11  4  0
 11 14  4  0
 11 19  4  0
 12 18  4  0
 13 21  4  0
 15 23  4  0
 17 19  4  0
 17 20  4  0
 18 22  4  0
 19 21  4  0
M  END
$$$$

 Created by Python create_sdf_string function

 23 25  0  0  0  0  0  0  0  0999 V2000
    2.4610   -5.3070   29.1240 C   0  0  0  0  0  0  0  0  0  0  0  0
    4.7710   -4.6952   28.4803 C   0  0  0  0  0  0  0  0  0  0  0  0
    3.4047   -5.1087   28.1314 C   0  0  0  0  0  0  0  0  0  0  0  0
   -0.2234  -11.8615   16.8874 C   0  0  0  0  0  0  0  0  0  0  0  0
    6.4491   -4.1532   30.1213 C   0  0  0  0  0  0  0  0  0  0  0  0
    5.7060   -4.4340   27.4975 C   0  0  0  0  0  0  0  0  0  0  0  0
    1.1818   -5.6612   28.8399 C   0  0  0  0  0  0  0  0  0  0  0  0
   -1.2067   -7.3287   17.7772 C   0  0  0  0  0  0  0  0  0  0  0  0
   -0.0206  -10.5585   16.6210 C   0  0  0  0  0  0  0  0  0  0  0  0
    0.3696  -12.7626   16.2169 O   0  0  0  0  0  0  0  0  0  0  0  0
   -0.6895   -9.5676   17.3297 C   0  0  0  0  0  0  0  0  0  0  0  0
    0.8388   -5.8417   27.5264 C   0  0  0  0  0  0  0  0  0  0  0  0
   -2.0709   -7.6637   18.7817 C   0  0  0  0  0  0  0  0  0  0  0  0
   -0.5279   -8.2168   17.0717 C   0  0  0  0  0  0  0  0  0  0  0  0
    6.9694   -4.0191   27.8190 C   0  0  0  0  0  0  0  0  0  0  0  0
    5.1733   -4.5469   29.8123 C   0  0  0  0  0  0  0  0  0  0  0  0
   -1.7508  -11.3016   18.6072 C   0  0  0  0  0  0  0  0  0  0  0  0
    1.7497   -5.6771   26.4971 C   0  0  0  0  0  0  0  0  0  0  0  0
   -1.5799   -9.9322   18.3468 C   0  0  0  0  0  0  0  0  0  0  0  0
   -1.0871  -12.2214   17.8851 C   0  0  0  0  0  0  0  0  0  0  0  0
   -2.2706   -8.9669   19.0691 C   0  0  0  0  0  0  0  0  0  0  0  0
    3.0279   -5.3073   26.8197 C   0  0  0  0  0  0  0  0  0  0  0  0
    7.3282   -3.8948   29.1186 C   0  0  0  0  0  0  0  0  0  0  0  0
  1  3  4  0
  1  7  4  0
  2  3  1  0
  2  6  4  0
  2 16  4  0
  3 22  4  0
  4  9  4  0
  4 10  1  0
  4 20  4  0
  5 16  4  0
  5 23  4  0
  6 15  4  0
  7 12  4  0
  8 13  4  0
  8 14  4  0
  9 11  4  0
 11 14  4  0
 11 19  4  0
 12 18  4  0
 13 21  4  0
 15 23  4  0
 17 19  4  0
 17 20  4  0
 18 22  4  0
 19 21  4  0
M  END
$$$$

 Created by Python create_sdf_string function

 23 25  0  0  0  0  0  0  0  0999 V2000
    2.4610   -5.3070   29.1240 C   0  0  0  0  0  0  0  0  0  0  0  0
    4.7710   -4.6952   28.4803 C   0  0  0  0  0  0  0  0  0  0  0  0
    3.4047   -5.1087   28.1314 C   0  0  0  0  0  0  0  0  0  0  0  0
   -0.2234  -11.8615   16.8874 C   0  0  0  0  0  0  0  0  0  0  0  0
    6.4491   -4.1532   30.1213 C   0  0  0  0  0  0  0  0  0  0  0  0
    5.7060   -4.4340   27.4975 C   0  0  0  0  0  0  0  0  0  0  0  0
    1.1818   -5.6612   28.8399 C   0  0  0  0  0  0  0  0  0  0  0  0
   -1.2067   -7.3287   17.7772 C   0  0  0  0  0  0  0  0  0  0  0  0
   -0.0206  -10.5585   16.6210 C   0  0  0  0  0  0  0  0  0  0  0  0
    0.3696  -12.7626   16.2169 O   0  0  0  0  0  0  0  0  0  0  0  0
   -0.6895   -9.5676   17.3297 C   0  0  0  0  0  0  0  0  0  0  0  0
    0.8388   -5.8417   27.5264 C   0  0  0  0  0  0  0  0  0  0  0  0
   -2.0709   -7.6637   18.7817 C   0  0  0  0  0  0  0  0  0  0  0  0
   -0.5279   -8.2168   17.0717 C   0  0  0  0  0  0  0  0  0  0  0  0
    6.9694   -4.0191   27.8190 C   0  0  0  0  0  0  0  0  0  0  0  0
    5.1733   -4.5469   29.8123 C   0  0  0  0  0  0  0  0  0  0  0  0
   -1.7508  -11.3016   18.6072 C   0  0  0  0  0  0  0  0  0  0  0  0
    1.7497   -5.6771   26.4971 C   0  0  0  0  0  0  0  0  0  0  0  0
   -1.5799   -9.9322   18.3468 C   0  0  0  0  0  0  0  0  0  0  0  0
   -1.0871  -12.2214   17.8851 C   0  0  0  0  0  0  0  0  0  0  0  0
   -2.2706   -8.9669   19.0691 C   0  0  0  0  0  0  0  0  0  0  0  0
    3.0279   -5.3073   26.8197 C   0  0  0  0  0  0  0  0  0  0  0  0
    7.3282   -3.8948   29.1186 C   0  0  0  0  0  0  0  0  0  0  0  0
  1  3  4  0
  1  7  4  0
  2  3  1  0
  2  6  4  0
  2 16  4  0
  3 22  4  0
  4  9  4  0
  4 10  1  0
  4 20  4  0
  5 16  4  0
  5 23  4  0
  6 15  4  0
  7 12  4  0
  8 13  4  0
  8 14  4  0
  9 11  4  0
 11 14  4  0
 11 19  4  0
 12 18  4  0
 13 21  4  0
 15 23  4  0
 17 19  4  0
 17 20  4  0
 18 22  4  0
 19 21  4  0
M  END
$$$$

 Created by Python create_sdf_string function

 23 25  0  0  0  0  0  0  0  0999 V2000
    2.4610   -5.3070   29.1240 C   0  0  0  0  0  0  0  0  0  0  0  0
    4.7710   -4.6952   28.4803 C   0  0  0  0  0  0  0  0  0  0  0  0
    3.4047   -5.1087   28.1314 C   0  0  0  0  0  0  0  0  0  0  0  0
   -0.2234  -11.8615   16.8874 C   0  0  0  0  0  0  0  0  0  0  0  0
    6.4491   -4.1532   30.1213 C   0  0  0  0  0  0  0  0  0  0  0  0
    5.7060   -4.4340   27.4975 C   0  0  0  0  0  0  0  0  0  0  0  0
    1.1818   -5.6612   28.8399 C   0  0  0  0  0  0  0  0  0  0  0  0
   -1.2067   -7.3287   17.7772 C   0  0  0  0  0  0  0  0  0  0  0  0
   -0.0206  -10.5585   16.6210 C   0  0  0  0  0  0  0  0  0  0  0  0
    0.3696  -12.7626   16.2169 O   0  0  0  0  0  0  0  0  0  0  0  0
   -0.6895   -9.5676   17.3297 C   0  0  0  0  0  0  0  0  0  0  0  0
    0.8388   -5.8417   27.5264 C   0  0  0  0  0  0  0  0  0  0  0  0
   -2.0709   -7.6637   18.7817 C   0  0  0  0  0  0  0  0  0  0  0  0
   -0.5279   -8.2168   17.0717 C   0  0  0  0  0  0  0  0  0  0  0  0
    6.9694   -4.0191   27.8190 C   0  0  0  0  0  0  0  0  0  0  0  0
    5.1733   -4.5469   29.8123 C   0  0  0  0  0  0  0  0  0  0  0  0
   -1.7508  -11.3016   18.6072 C   0  0  0  0  0  0  0  0  0  0  0  0
    1.7497   -5.6771   26.4971 C   0  0  0  0  0  0  0  0  0  0  0  0
   -1.5799   -9.9322   18.3468 C   0  0  0  0  0  0  0  0  0  0  0  0
   -1.0871  -12.2214   17.8851 C   0  0  0  0  0  0  0  0  0  0  0  0
   -2.2706   -8.9669   19.0691 C   0  0  0  0  0  0  0  0  0  0  0  0
    3.0279   -5.3073   26.8197 C   0  0  0  0  0  0  0  0  0  0  0  0
    7.3282   -3.8948   29.1186 C   0  0  0  0  0  0  0  0  0  0  0  0
  1  3  4  0
  1  7  4  0
  2  3  1  0
  2  6  4  0
  2 16  4  0
  3 22  4  0
  4  9  4  0
  4 10  1  0
  4 20  4  0
  5 16  4  0
  5 23  4  0
  6 15  4  0
  7 12  4  0
  8 13  4  0
  8 14  4  0
  9 11  4  0
 11 14  4  0
 11 19  4  0
 12 18  4  0
 13 21  4  0
 15 23  4  0
 17 19  4  0
 17 20  4  0
 18 22  4  0
 19 21  4  0
M  END
$$$$

 Created by Python create_sdf_string function

 23 25  0  0  0  0  0  0  0  0999 V2000
    2.4610   -5.3070   29.1240 C   0  0  0  0  0  0  0  0  0  0  0  0
    4.7710   -4.6952   28.4803 C   0  0  0  0  0  0  0  0  0  0  0  0
    3.4047   -5.1087   28.1314 C   0  0  0  0  0  0  0  0  0  0  0  0
   -0.2234  -11.8615   16.8874 C   0  0  0  0  0  0  0  0  0  0  0  0
    6.4491   -4.1532   30.1213 C   0  0  0  0  0  0  0  0  0  0  0  0
    5.7060   -4.4340   27.4975 C   0  0  0  0  0  0  0  0  0  0  0  0
    1.1818   -5.6612   28.8399 C   0  0  0  0  0  0  0  0  0  0  0  0
   -1.2067   -7.3287   17.7772 C   0  0  0  0  0  0  0  0  0  0  0  0
   -0.0206  -10.5585   16.6210 C   0  0  0  0  0  0  0  0  0  0  0  0
    0.3696  -12.7626   16.2169 O   0  0  0  0  0  0  0  0  0  0  0  0
   -0.6895   -9.5676   17.3297 C   0  0  0  0  0  0  0  0  0  0  0  0
    0.8388   -5.8417   27.5264 C   0  0  0  0  0  0  0  0  0  0  0  0
   -2.0709   -7.6637   18.7817 C   0  0  0  0  0  0  0  0  0  0  0  0
   -0.5279   -8.2168   17.0717 C   0  0  0  0  0  0  0  0  0  0  0  0
    6.9694   -4.0191   27.8190 C   0  0  0  0  0  0  0  0  0  0  0  0
    5.1733   -4.5469   29.8123 C   0  0  0  0  0  0  0  0  0  0  0  0
   -1.7508  -11.3016   18.6072 C   0  0  0  0  0  0  0  0  0  0  0  0
    1.7497   -5.6771   26.4971 C   0  0  0  0  0  0  0  0  0  0  0  0
   -1.5799   -9.9322   18.3468 C   0  0  0  0  0  0  0  0  0  0  0  0
   -1.0871  -12.2214   17.8851 C   0  0  0  0  0  0  0  0  0  0  0  0
   -2.2706   -8.9669   19.0691 C   0  0  0  0  0  0  0  0  0  0  0  0
    3.0279   -5.3073   26.8197 C   0  0  0  0  0  0  0  0  0  0  0  0
    7.3282   -3.8948   29.1186 C   0  0  0  0  0  0  0  0  0  0  0  0
  1  3  4  0
  1  7  4  0
  2  3  1  0
  2  6  4  0
  2 16  4  0
  3 22  4  0
  4  9  4  0
  4 10  1  0
  4 20  4  0
  5 16  4  0
  5 23  4  0
  6 15  4  0
  7 12  4  0
  8 13  4  0
  8 14  4  0
  9 11  4  0
 11 14  4  0
 11 19  4  0
 12 18  4  0
 13 21  4  0
 15 23  4  0
 17 19  4  0
 17 20  4  0
 18 22  4  0
 19 21  4  0
M  END
$$$$

 Created by Python create_sdf_string function

 23 25  0  0  0  0  0  0  0  0999 V2000
    2.4610   -5.3070   29.1240 C   0  0  0  0  0  0  0  0  0  0  0  0
    4.7710   -4.6952   28.4803 C   0  0  0  0  0  0  0  0  0  0  0  0
    3.4047   -5.1087   28.1314 C   0  0  0  0  0  0  0  0  0  0  0  0
   -0.2234  -11.8615   16.8874 C   0  0  0  0  0  0  0  0  0  0  0  0
    6.4491   -4.1532   30.1213 C   0  0  0  0  0  0  0  0  0  0  0  0
    5.7060   -4.4340   27.4975 C   0  0  0  0  0  0  0  0  0  0  0  0
    1.1818   -5.6612   28.8399 C   0  0  0  0  0  0  0  0  0  0  0  0
   -1.2067   -7.3287   17.7772 C   0  0  0  0  0  0  0  0  0  0  0  0
   -0.0206  -10.5585   16.6210 C   0  0  0  0  0  0  0  0  0  0  0  0
    0.3696  -12.7626   16.2169 O   0  0  0  0  0  0  0  0  0  0  0  0
   -0.6895   -9.5676   17.3297 C   0  0  0  0  0  0  0  0  0  0  0  0
    0.8388   -5.8417   27.5264 C   0  0  0  0  0  0  0  0  0  0  0  0
   -2.0709   -7.6637   18.7817 C   0  0  0  0  0  0  0  0  0  0  0  0
   -0.5279   -8.2168   17.0717 C   0  0  0  0  0  0  0  0  0  0  0  0
    6.9694   -4.0191   27.8190 C   0  0  0  0  0  0  0  0  0  0  0  0
    5.1733   -4.5469   29.8123 C   0  0  0  0  0  0  0  0  0  0  0  0
   -1.7508  -11.3016   18.6072 C   0  0  0  0  0  0  0  0  0  0  0  0
    1.7497   -5.6771   26.4971 C   0  0  0  0  0  0  0  0  0  0  0  0
   -1.5799   -9.9322   18.3468 C   0  0  0  0  0  0  0  0  0  0  0  0
   -1.0871  -12.2214   17.8851 C   0  0  0  0  0  0  0  0  0  0  0  0
   -2.2706   -8.9669   19.0691 C   0  0  0  0  0  0  0  0  0  0  0  0
    3.0279   -5.3073   26.8197 C   0  0  0  0  0  0  0  0  0  0  0  0
    7.3282   -3.8948   29.1186 C   0  0  0  0  0  0  0  0  0  0  0  0
  1  3  4  0
  1  7  4  0
  2  3  1  0
  2  6  4  0
  2 16  4  0
  3 22  4  0
  4  9  4  0
  4 10  1  0
  4 20  4  0
  5 16  4  0
  5 23  4  0
  6 15  4  0
  7 12  4  0
  8 13  4  0
  8 14  4  0
  9 11  4  0
 11 14  4  0
 11 19  4  0
 12 18  4  0
 13 21  4  0
 15 23  4  0
 17 19  4  0
 17 20  4  0
 18 22  4  0
 19 21  4  0
M  END
$$$$

 Created by Python create_sdf_string function

 23 25  0  0  0  0  0  0  0  0999 V2000
    2.4610   -5.3070   29.1240 C   0  0  0  0  0  0  0  0  0  0  0  0
    4.7710   -4.6952   28.4803 C   0  0  0  0  0  0  0  0  0  0  0  0
    3.4047   -5.1087   28.1314 C   0  0  0  0  0  0  0  0  0  0  0  0
   -0.2234  -11.8615   16.8874 C   0  0  0  0  0  0  0  0  0  0  0  0
    6.4491   -4.1532   30.1213 C   0  0  0  0  0  0  0  0  0  0  0  0
    5.7060   -4.4340   27.4975 C   0  0  0  0  0  0  0  0  0  0  0  0
    1.1818   -5.6612   28.8399 C   0  0  0  0  0  0  0  0  0  0  0  0
   -1.2067   -7.3287   17.7772 C   0  0  0  0  0  0  0  0  0  0  0  0
   -0.0206  -10.5585   16.6210 C   0  0  0  0  0  0  0  0  0  0  0  0
    0.3696  -12.7626   16.2169 O   0  0  0  0  0  0  0  0  0  0  0  0
   -0.6895   -9.5676   17.3297 C   0  0  0  0  0  0  0  0  0  0  0  0
    0.8388   -5.8417   27.5264 C   0  0  0  0  0  0  0  0  0  0  0  0
   -2.0709   -7.6637   18.7817 C   0  0  0  0  0  0  0  0  0  0  0  0
   -0.5279   -8.2168   17.0717 C   0  0  0  0  0  0  0  0  0  0  0  0
    6.9694   -4.0191   27.8190 C   0  0  0  0  0  0  0  0  0  0  0  0
    5.1733   -4.5469   29.8123 C   0  0  0  0  0  0  0  0  0  0  0  0
   -1.7508  -11.3016   18.6072 C   0  0  0  0  0  0  0  0  0  0  0  0
    1.7497   -5.6771   26.4971 C   0  0  0  0  0  0  0  0  0  0  0  0
   -1.5799   -9.9322   18.3468 C   0  0  0  0  0  0  0  0  0  0  0  0
   -1.0871  -12.2214   17.8851 C   0  0  0  0  0  0  0  0  0  0  0  0
   -2.2706   -8.9669   19.0691 C   0  0  0  0  0  0  0  0  0  0  0  0
    3.0279   -5.3073   26.8197 C   0  0  0  0  0  0  0  0  0  0  0  0
    7.3282   -3.8948   29.1186 C   0  0  0  0  0  0  0  0  0  0  0  0
  1  3  4  0
  1  7  4  0
  2  3  1  0
  2  6  4  0
  2 16  4  0
  3 22  4  0
  4  9  4  0
  4 10  1  0
  4 20  4  0
  5 16  4  0
  5 23  4  0
  6 15  4  0
  7 12  4  0
  8 13  4  0
  8 14  4  0
  9 11  4  0
 11 14  4  0
 11 19  4  0
 12 18  4  0
 13 21  4  0
 15 23  4  0
 17 19  4  0
 17 20  4  0
 18 22  4  0
 19 21  4  0
M  END
$$$$

 Created by Python create_sdf_string function

 23 25  0  0  0  0  0  0  0  0999 V2000
    2.4610   -5.3070   29.1240 C   0  0  0  0  0  0  0  0  0  0  0  0
    4.7710   -4.6952   28.4803 C   0  0  0  0  0  0  0  0  0  0  0  0
    3.4047   -5.1087   28.1314 C   0  0  0  0  0  0  0  0  0  0  0  0
   -0.2234  -11.8615   16.8874 C   0  0  0  0  0  0  0  0  0  0  0  0
    6.4491   -4.1532   30.1213 C   0  0  0  0  0  0  0  0  0  0  0  0
    5.7060   -4.4340   27.4975 C   0  0  0  0  0  0  0  0  0  0  0  0
    1.1818   -5.6612   28.8399 C   0  0  0  0  0  0  0  0  0  0  0  0
   -1.2067   -7.3287   17.7772 C   0  0  0  0  0  0  0  0  0  0  0  0
   -0.0206  -10.5585   16.6210 C   0  0  0  0  0  0  0  0  0  0  0  0
    0.3696  -12.7626   16.2169 O   0  0  0  0  0  0  0  0  0  0  0  0
   -0.6895   -9.5676   17.3297 C   0  0  0  0  0  0  0  0  0  0  0  0
    0.8388   -5.8417   27.5264 C   0  0  0  0  0  0  0  0  0  0  0  0
   -2.0709   -7.6637   18.7817 C   0  0  0  0  0  0  0  0  0  0  0  0
   -0.5279   -8.2168   17.0717 C   0  0  0  0  0  0  0  0  0  0  0  0
    6.9694   -4.0191   27.8190 C   0  0  0  0  0  0  0  0  0  0  0  0
    5.1733   -4.5469   29.8123 C   0  0  0  0  0  0  0  0  0  0  0  0
   -1.7508  -11.3016   18.6072 C   0  0  0  0  0  0  0  0  0  0  0  0
    1.7497   -5.6771   26.4971 C   0  0  0  0  0  0  0  0  0  0  0  0
   -1.5799   -9.9322   18.3468 C   0  0  0  0  0  0  0  0  0  0  0  0
   -1.0871  -12.2214   17.8851 C   0  0  0  0  0  0  0  0  0  0  0  0
   -2.2706   -8.9669   19.0691 C   0  0  0  0  0  0  0  0  0  0  0  0
    3.0279   -5.3073   26.8197 C   0  0  0  0  0  0  0  0  0  0  0  0
    7.3282   -3.8948   29.1186 C   0  0  0  0  0  0  0  0  0  0  0  0
  1  3  4  0
  1  7  4  0
  2  3  1  0
  2  6  4  0
  2 16  4  0
  3 22  4  0
  4  9  4  0
  4 10  1  0
  4 20  4  0
  5 16  4  0
  5 23  4  0
  6 15  4  0
  7 12  4  0
  8 13  4  0
  8 14  4  0
  9 11  4  0
 11 14  4  0
 11 19  4  0
 12 18  4  0
 13 21  4  0
 15 23  4  0
 17 19  4  0
 17 20  4  0
 18 22  4  0
 19 21  4  0
M  END
$$$$

 Created by Python create_sdf_string function

 23 25  0  0  0  0  0  0  0  0999 V2000
    2.4610   -5.3070   29.1240 C   0  0  0  0  0  0  0  0  0  0  0  0
    4.7710   -4.6952   28.4803 C   0  0  0  0  0  0  0  0  0  0  0  0
    3.4047   -5.1087   28.1314 C   0  0  0  0  0  0  0  0  0  0  0  0
   -0.2234  -11.8615   16.8874 C   0  0  0  0  0  0  0  0  0  0  0  0
    6.4491   -4.1532   30.1213 C   0  0  0  0  0  0  0  0  0  0  0  0
    5.7060   -4.4340   27.4975 C   0  0  0  0  0  0  0  0  0  0  0  0
    1.1818   -5.6612   28.8399 C   0  0  0  0  0  0  0  0  0  0  0  0
   -1.2067   -7.3287   17.7772 C   0  0  0  0  0  0  0  0  0  0  0  0
   -0.0206  -10.5585   16.6210 C   0  0  0  0  0  0  0  0  0  0  0  0
    0.3696  -12.7626   16.2169 O   0  0  0  0  0  0  0  0  0  0  0  0
   -0.6895   -9.5676   17.3297 C   0  0  0  0  0  0  0  0  0  0  0  0
    0.8388   -5.8417   27.5264 C   0  0  0  0  0  0  0  0  0  0  0  0
   -2.0709   -7.6637   18.7817 C   0  0  0  0  0  0  0  0  0  0  0  0
   -0.5279   -8.2168   17.0717 C   0  0  0  0  0  0  0  0  0  0  0  0
    6.9694   -4.0191   27.8190 C   0  0  0  0  0  0  0  0  0  0  0  0
    5.1733   -4.5469   29.8123 C   0  0  0  0  0  0  0  0  0  0  0  0
   -1.7508  -11.3016   18.6072 C   0  0  0  0  0  0  0  0  0  0  0  0
    1.7497   -5.6771   26.4971 C   0  0  0  0  0  0  0  0  0  0  0  0
   -1.5799   -9.9322   18.3468 C   0  0  0  0  0  0  0  0  0  0  0  0
   -1.0871  -12.2214   17.8851 C   0  0  0  0  0  0  0  0  0  0  0  0
   -2.2706   -8.9669   19.0691 C   0  0  0  0  0  0  0  0  0  0  0  0
    3.0279   -5.3073   26.8197 C   0  0  0  0  0  0  0  0  0  0  0  0
    7.3282   -3.8948   29.1186 C   0  0  0  0  0  0  0  0  0  0  0  0
  1  3  4  0
  1  7  4  0
  2  3  1  0
  2  6  4  0
  2 16  4  0
  3 22  4  0
  4  9  4  0
  4 10  1  0
  4 20  4  0
  5 16  4  0
  5 23  4  0
  6 15  4  0
  7 12  4  0
  8 13  4  0
  8 14  4  0
  9 11  4  0
 11 14  4  0
 11 19  4  0
 12 18  4  0
 13 21  4  0
 15 23  4  0
 17 19  4  0
 17 20  4  0
 18 22  4  0
 19 21  4  0
M  END
$$$$

 Created by Python create_sdf_string function

 23 25  0  0  0  0  0  0  0  0999 V2000
    2.4610   -5.3070   29.1240 C   0  0  0  0  0  0  0  0  0  0  0  0
    4.7710   -4.6952   28.4803 C   0  0  0  0  0  0  0  0  0  0  0  0
    3.4047   -5.1087   28.1314 C   0  0  0  0  0  0  0  0  0  0  0  0
   -0.2234  -11.8615   16.8874 C   0  0  0  0  0  0  0  0  0  0  0  0
    6.4491   -4.1532   30.1213 C   0  0  0  0  0  0  0  0  0  0  0  0
    5.7060   -4.4340   27.4975 C   0  0  0  0  0  0  0  0  0  0  0  0
    1.1818   -5.6612   28.8399 C   0  0  0  0  0  0  0  0  0  0  0  0
   -1.2067   -7.3287   17.7772 C   0  0  0  0  0  0  0  0  0  0  0  0
   -0.0206  -10.5585   16.6210 C   0  0  0  0  0  0  0  0  0  0  0  0
    0.3696  -12.7626   16.2169 O   0  0  0  0  0  0  0  0  0  0  0  0
   -0.6895   -9.5676   17.3297 C   0  0  0  0  0  0  0  0  0  0  0  0
    0.8388   -5.8417   27.5264 C   0  0  0  0  0  0  0  0  0  0  0  0
   -2.0709   -7.6637   18.7817 C   0  0  0  0  0  0  0  0  0  0  0  0
   -0.5279   -8.2168   17.0717 C   0  0  0  0  0  0  0  0  0  0  0  0
    6.9694   -4.0191   27.8190 C   0  0  0  0  0  0  0  0  0  0  0  0
    5.1733   -4.5469   29.8123 C   0  0  0  0  0  0  0  0  0  0  0  0
   -1.7508  -11.3016   18.6072 C   0  0  0  0  0  0  0  0  0  0  0  0
    1.7497   -5.6771   26.4971 C   0  0  0  0  0  0  0  0  0  0  0  0
   -1.5799   -9.9322   18.3468 C   0  0  0  0  0  0  0  0  0  0  0  0
   -1.0871  -12.2214   17.8851 C   0  0  0  0  0  0  0  0  0  0  0  0
   -2.2706   -8.9669   19.0691 C   0  0  0  0  0  0  0  0  0  0  0  0
    3.0279   -5.3073   26.8197 C   0  0  0  0  0  0  0  0  0  0  0  0
    7.3282   -3.8948   29.1186 C   0  0  0  0  0  0  0  0  0  0  0  0
  1  3  4  0
  1  7  4  0
  2  3  1  0
  2  6  4  0
  2 16  4  0
  3 22  4  0
  4  9  4  0
  4 10  1  0
  4 20  4  0
  5 16  4  0
  5 23  4  0
  6 15  4  0
  7 12  4  0
  8 13  4  0
  8 14  4  0
  9 11  4  0
 11 14  4  0
 11 19  4  0
 12 18  4  0
 13 21  4  0
 15 23  4  0
 17 19  4  0
 17 20  4  0
 18 22  4  0
 19 21  4  0
M  END
$$$$

 Created by Python create_sdf_string function

 23 25  0  0  0  0  0  0  0  0999 V2000
    2.4610   -5.3070   29.1240 C   0  0  0  0  0  0  0  0  0  0  0  0
    4.7710   -4.6952   28.4803 C   0  0  0  0  0  0  0  0  0  0  0  0
    3.4047   -5.1087   28.1314 C   0  0  0  0  0  0  0  0  0  0  0  0
   -0.2234  -11.8615   16.8874 C   0  0  0  0  0  0  0  0  0  0  0  0
    6.4491   -4.1532   30.1213 C   0  0  0  0  0  0  0  0  0  0  0  0
    5.7060   -4.4340   27.4975 C   0  0  0  0  0  0  0  0  0  0  0  0
    1.1818   -5.6612   28.8399 C   0  0  0  0  0  0  0  0  0  0  0  0
   -1.2067   -7.3287   17.7772 C   0  0  0  0  0  0  0  0  0  0  0  0
   -0.0206  -10.5585   16.6210 C   0  0  0  0  0  0  0  0  0  0  0  0
    0.3696  -12.7626   16.2169 O   0  0  0  0  0  0  0  0  0  0  0  0
   -0.6895   -9.5676   17.3297 C   0  0  0  0  0  0  0  0  0  0  0  0
    0.8388   -5.8417   27.5264 C   0  0  0  0  0  0  0  0  0  0  0  0
   -2.0709   -7.6637   18.7817 C   0  0  0  0  0  0  0  0  0  0  0  0
   -0.5279   -8.2168   17.0717 C   0  0  0  0  0  0  0  0  0  0  0  0
    6.9694   -4.0191   27.8190 C   0  0  0  0  0  0  0  0  0  0  0  0
    5.1733   -4.5469   29.8123 C   0  0  0  0  0  0  0  0  0  0  0  0
   -1.7508  -11.3016   18.6072 C   0  0  0  0  0  0  0  0  0  0  0  0
    1.7497   -5.6771   26.4971 C   0  0  0  0  0  0  0  0  0  0  0  0
   -1.5799   -9.9322   18.3468 C   0  0  0  0  0  0  0  0  0  0  0  0
   -1.0871  -12.2214   17.8851 C   0  0  0  0  0  0  0  0  0  0  0  0
   -2.2706   -8.9669   19.0691 C   0  0  0  0  0  0  0  0  0  0  0  0
    3.0279   -5.3073   26.8197 C   0  0  0  0  0  0  0  0  0  0  0  0
    7.3282   -3.8948   29.1186 C   0  0  0  0  0  0  0  0  0  0  0  0
  1  3  4  0
  1  7  4  0
  2  3  1  0
  2  6  4  0
  2 16  4  0
  3 22  4  0
  4  9  4  0
  4 10  1  0
  4 20  4  0
  5 16  4  0
  5 23  4  0
  6 15  4  0
  7 12  4  0
  8 13  4  0
  8 14  4  0
  9 11  4  0
 11 14  4  0
 11 19  4  0
 12 18  4  0
 13 21  4  0
 15 23  4  0
 17 19  4  0
 17 20  4  0
 18 22  4  0
 19 21  4  0
M  END
$$$$

 Created by Python create_sdf_string function

 23 25  0  0  0  0  0  0  0  0999 V2000
    2.4610   -5.3070   29.1240 C   0  0  0  0  0  0  0  0  0  0  0  0
    4.7710   -4.6952   28.4803 C   0  0  0  0  0  0  0  0  0  0  0  0
    3.4047   -5.1087   28.1314 C   0  0  0  0  0  0  0  0  0  0  0  0
   -0.2234  -11.8615   16.8874 C   0  0  0  0  0  0  0  0  0  0  0  0
    6.4491   -4.1532   30.1213 C   0  0  0  0  0  0  0  0  0  0  0  0
    5.7060   -4.4340   27.4975 C   0  0  0  0  0  0  0  0  0  0  0  0
    1.1818   -5.6612   28.8399 C   0  0  0  0  0  0  0  0  0  0  0  0
   -1.2067   -7.3287   17.7772 C   0  0  0  0  0  0  0  0  0  0  0  0
   -0.0206  -10.5585   16.6210 C   0  0  0  0  0  0  0  0  0  0  0  0
    0.3696  -12.7626   16.2169 O   0  0  0  0  0  0  0  0  0  0  0  0
   -0.6895   -9.5676   17.3297 C   0  0  0  0  0  0  0  0  0  0  0  0
    0.8388   -5.8417   27.5264 C   0  0  0  0  0  0  0  0  0  0  0  0
   -2.0709   -7.6637   18.7817 C   0  0  0  0  0  0  0  0  0  0  0  0
   -0.5279   -8.2168   17.0717 C   0  0  0  0  0  0  0  0  0  0  0  0
    6.9694   -4.0191   27.8190 C   0  0  0  0  0  0  0  0  0  0  0  0
    5.1733   -4.5469   29.8123 C   0  0  0  0  0  0  0  0  0  0  0  0
   -1.7508  -11.3016   18.6072 C   0  0  0  0  0  0  0  0  0  0  0  0
    1.7497   -5.6771   26.4971 C   0  0  0  0  0  0  0  0  0  0  0  0
   -1.5799   -9.9322   18.3468 C   0  0  0  0  0  0  0  0  0  0  0  0
   -1.0871  -12.2214   17.8851 C   0  0  0  0  0  0  0  0  0  0  0  0
   -2.2706   -8.9669   19.0691 C   0  0  0  0  0  0  0  0  0  0  0  0
    3.0279   -5.3073   26.8197 C   0  0  0  0  0  0  0  0  0  0  0  0
    7.3282   -3.8948   29.1186 C   0  0  0  0  0  0  0  0  0  0  0  0
  1  3  4  0
  1  7  4  0
  2  3  1  0
  2  6  4  0
  2 16  4  0
  3 22  4  0
  4  9  4  0
  4 10  1  0
  4 20  4  0
  5 16  4  0
  5 23  4  0
  6 15  4  0
  7 12  4  0
  8 13  4  0
  8 14  4  0
  9 11  4  0
 11 14  4  0
 11 19  4  0
 12 18  4  0
 13 21  4  0
 15 23  4  0
 17 19  4  0
 17 20  4  0
 18 22  4  0
 19 21  4  0
M  END
$$$$

 Created by Python create_sdf_string function

 23 25  0  0  0  0  0  0  0  0999 V2000
    2.4610   -5.3070   29.1240 C   0  0  0  0  0  0  0  0  0  0  0  0
    4.7710   -4.6952   28.4803 C   0  0  0  0  0  0  0  0  0  0  0  0
    3.4047   -5.1087   28.1314 C   0  0  0  0  0  0  0  0  0  0  0  0
   -0.2234  -11.8615   16.8874 C   0  0  0  0  0  0  0  0  0  0  0  0
    6.4491   -4.1532   30.1213 C   0  0  0  0  0  0  0  0  0  0  0  0
    5.7060   -4.4340   27.4975 C   0  0  0  0  0  0  0  0  0  0  0  0
    1.1818   -5.6612   28.8399 C   0  0  0  0  0  0  0  0  0  0  0  0
   -1.2067   -7.3287   17.7772 C   0  0  0  0  0  0  0  0  0  0  0  0
   -0.0206  -10.5585   16.6210 C   0  0  0  0  0  0  0  0  0  0  0  0
    0.3696  -12.7626   16.2169 O   0  0  0  0  0  0  0  0  0  0  0  0
   -0.6895   -9.5676   17.3297 C   0  0  0  0  0  0  0  0  0  0  0  0
    0.8388   -5.8417   27.5264 C   0  0  0  0  0  0  0  0  0  0  0  0
   -2.0709   -7.6637   18.7817 C   0  0  0  0  0  0  0  0  0  0  0  0
   -0.5279   -8.2168   17.0717 C   0  0  0  0  0  0  0  0  0  0  0  0
    6.9694   -4.0191   27.8190 C   0  0  0  0  0  0  0  0  0  0  0  0
    5.1733   -4.5469   29.8123 C   0  0  0  0  0  0  0  0  0  0  0  0
   -1.7508  -11.3016   18.6072 C   0  0  0  0  0  0  0  0  0  0  0  0
    1.7497   -5.6771   26.4971 C   0  0  0  0  0  0  0  0  0  0  0  0
   -1.5799   -9.9322   18.3468 C   0  0  0  0  0  0  0  0  0  0  0  0
   -1.0871  -12.2214   17.8851 C   0  0  0  0  0  0  0  0  0  0  0  0
   -2.2706   -8.9669   19.0691 C   0  0  0  0  0  0  0  0  0  0  0  0
    3.0279   -5.3073   26.8197 C   0  0  0  0  0  0  0  0  0  0  0  0
    7.3282   -3.8948   29.1186 C   0  0  0  0  0  0  0  0  0  0  0  0
  1  3  4  0
  1  7  4  0
  2  3  1  0
  2  6  4  0
  2 16  4  0
  3 22  4  0
  4  9  4  0
  4 10  1  0
  4 20  4  0
  5 16  4  0
  5 23  4  0
  6 15  4  0
  7 12  4  0
  8 13  4  0
  8 14  4  0
  9 11  4  0
 11 14  4  0
 11 19  4  0
 12 18  4  0
 13 21  4  0
 15 23  4  0
 17 19  4  0
 17 20  4  0
 18 22  4  0
 19 21  4  0
M  END
$$$$

 Created by Python create_sdf_string function

 23 25  0  0  0  0  0  0  0  0999 V2000
    2.4610   -5.3070   29.1240 C   0  0  0  0  0  0  0  0  0  0  0  0
    4.7710   -4.6952   28.4803 C   0  0  0  0  0  0  0  0  0  0  0  0
    3.4047   -5.1087   28.1314 C   0  0  0  0  0  0  0  0  0  0  0  0
   -0.2234  -11.8615   16.8874 C   0  0  0  0  0  0  0  0  0  0  0  0
    6.4491   -4.1532   30.1213 C   0  0  0  0  0  0  0  0  0  0  0  0
    5.7060   -4.4340   27.4975 C   0  0  0  0  0  0  0  0  0  0  0  0
    1.1818   -5.6612   28.8399 C   0  0  0  0  0  0  0  0  0  0  0  0
   -1.2067   -7.3287   17.7772 C   0  0  0  0  0  0  0  0  0  0  0  0
   -0.0206  -10.5585   16.6210 C   0  0  0  0  0  0  0  0  0  0  0  0
    0.3696  -12.7626   16.2169 O   0  0  0  0  0  0  0  0  0  0  0  0
   -0.6895   -9.5676   17.3297 C   0  0  0  0  0  0  0  0  0  0  0  0
    0.8388   -5.8417   27.5264 C   0  0  0  0  0  0  0  0  0  0  0  0
   -2.0709   -7.6637   18.7817 C   0  0  0  0  0  0  0  0  0  0  0  0
   -0.5279   -8.2168   17.0717 C   0  0  0  0  0  0  0  0  0  0  0  0
    6.9694   -4.0191   27.8190 C   0  0  0  0  0  0  0  0  0  0  0  0
    5.1733   -4.5469   29.8123 C   0  0  0  0  0  0  0  0  0  0  0  0
   -1.7508  -11.3016   18.6072 C   0  0  0  0  0  0  0  0  0  0  0  0
    1.7497   -5.6771   26.4971 C   0  0  0  0  0  0  0  0  0  0  0  0
   -1.5799   -9.9322   18.3468 C   0  0  0  0  0  0  0  0  0  0  0  0
   -1.0871  -12.2214   17.8851 C   0  0  0  0  0  0  0  0  0  0  0  0
   -2.2706   -8.9669   19.0691 C   0  0  0  0  0  0  0  0  0  0  0  0
    3.0279   -5.3073   26.8197 C   0  0  0  0  0  0  0  0  0  0  0  0
    7.3282   -3.8948   29.1186 C   0  0  0  0  0  0  0  0  0  0  0  0
  1  3  4  0
  1  7  4  0
  2  3  1  0
  2  6  4  0
  2 16  4  0
  3 22  4  0
  4  9  4  0
  4 10  1  0
  4 20  4  0
  5 16  4  0
  5 23  4  0
  6 15  4  0
  7 12  4  0
  8 13  4  0
  8 14  4  0
  9 11  4  0
 11 14  4  0
 11 19  4  0
 12 18  4  0
 13 21  4  0
 15 23  4  0
 17 19  4  0
 17 20  4  0
 18 22  4  0
 19 21  4  0
M  END
$$$$

 Created by Python create_sdf_string function

 23 25  0  0  0  0  0  0  0  0999 V2000
    2.4610   -5.3070   29.1240 C   0  0  0  0  0  0  0  0  0  0  0  0
    4.7710   -4.6952   28.4803 C   0  0  0  0  0  0  0  0  0  0  0  0
    3.4047   -5.1087   28.1314 C   0  0  0  0  0  0  0  0  0  0  0  0
   -0.2234  -11.8615   16.8874 C   0  0  0  0  0  0  0  0  0  0  0  0
    6.4491   -4.1532   30.1213 C   0  0  0  0  0  0  0  0  0  0  0  0
    5.7060   -4.4340   27.4975 C   0  0  0  0  0  0  0  0  0  0  0  0
    1.1818   -5.6612   28.8399 C   0  0  0  0  0  0  0  0  0  0  0  0
   -1.2067   -7.3287   17.7772 C   0  0  0  0  0  0  0  0  0  0  0  0
   -0.0206  -10.5585   16.6210 C   0  0  0  0  0  0  0  0  0  0  0  0
    0.3696  -12.7626   16.2169 O   0  0  0  0  0  0  0  0  0  0  0  0
   -0.6895   -9.5676   17.3297 C   0  0  0  0  0  0  0  0  0  0  0  0
    0.8388   -5.8417   27.5264 C   0  0  0  0  0  0  0  0  0  0  0  0
   -2.0709   -7.6637   18.7817 C   0  0  0  0  0  0  0  0  0  0  0  0
   -0.5279   -8.2168   17.0717 C   0  0  0  0  0  0  0  0  0  0  0  0
    6.9694   -4.0191   27.8190 C   0  0  0  0  0  0  0  0  0  0  0  0
    5.1733   -4.5469   29.8123 C   0  0  0  0  0  0  0  0  0  0  0  0
   -1.7508  -11.3016   18.6072 C   0  0  0  0  0  0  0  0  0  0  0  0
    1.7497   -5.6771   26.4971 C   0  0  0  0  0  0  0  0  0  0  0  0
   -1.5799   -9.9322   18.3468 C   0  0  0  0  0  0  0  0  0  0  0  0
   -1.0871  -12.2214   17.8851 C   0  0  0  0  0  0  0  0  0  0  0  0
   -2.2706   -8.9669   19.0691 C   0  0  0  0  0  0  0  0  0  0  0  0
    3.0279   -5.3073   26.8197 C   0  0  0  0  0  0  0  0  0  0  0  0
    7.3282   -3.8948   29.1186 C   0  0  0  0  0  0  0  0  0  0  0  0
  1  3  4  0
  1  7  4  0
  2  3  1  0
  2  6  4  0
  2 16  4  0
  3 22  4  0
  4  9  4  0
  4 10  1  0
  4 20  4  0
  5 16  4  0
  5 23  4  0
  6 15  4  0
  7 12  4  0
  8 13  4  0
  8 14  4  0
  9 11  4  0
 11 14  4  0
 11 19  4  0
 12 18  4  0
 13 21  4  0
 15 23  4  0
 17 19  4  0
 17 20  4  0
 18 22  4  0
 19 21  4  0
M  END
$$$$

 Created by Python create_sdf_string function

 23 25  0  0  0  0  0  0  0  0999 V2000
    2.4610   -5.3070   29.1240 C   0  0  0  0  0  0  0  0  0  0  0  0
    4.7710   -4.6952   28.4803 C   0  0  0  0  0  0  0  0  0  0  0  0
    3.4047   -5.1087   28.1314 C   0  0  0  0  0  0  0  0  0  0  0  0
   -0.2234  -11.8615   16.8874 C   0  0  0  0  0  0  0  0  0  0  0  0
    6.4491   -4.1532   30.1213 C   0  0  0  0  0  0  0  0  0  0  0  0
    5.7060   -4.4340   27.4975 C   0  0  0  0  0  0  0  0  0  0  0  0
    1.1818   -5.6612   28.8399 C   0  0  0  0  0  0  0  0  0  0  0  0
   -1.2067   -7.3287   17.7772 C   0  0  0  0  0  0  0  0  0  0  0  0
   -0.0206  -10.5585   16.6210 C   0  0  0  0  0  0  0  0  0  0  0  0
    0.3696  -12.7626   16.2169 O   0  0  0  0  0  0  0  0  0  0  0  0
   -0.6895   -9.5676   17.3297 C   0  0  0  0  0  0  0  0  0  0  0  0
    0.8388   -5.8417   27.5264 C   0  0  0  0  0  0  0  0  0  0  0  0
   -2.0709   -7.6637   18.7817 C   0  0  0  0  0  0  0  0  0  0  0  0
   -0.5279   -8.2168   17.0717 C   0  0  0  0  0  0  0  0  0  0  0  0
    6.9694   -4.0191   27.8190 C   0  0  0  0  0  0  0  0  0  0  0  0
    5.1733   -4.5469   29.8123 C   0  0  0  0  0  0  0  0  0  0  0  0
   -1.7508  -11.3016   18.6072 C   0  0  0  0  0  0  0  0  0  0  0  0
    1.7497   -5.6771   26.4971 C   0  0  0  0  0  0  0  0  0  0  0  0
   -1.5799   -9.9322   18.3468 C   0  0  0  0  0  0  0  0  0  0  0  0
   -1.0871  -12.2214   17.8851 C   0  0  0  0  0  0  0  0  0  0  0  0
   -2.2706   -8.9669   19.0691 C   0  0  0  0  0  0  0  0  0  0  0  0
    3.0279   -5.3073   26.8197 C   0  0  0  0  0  0  0  0  0  0  0  0
    7.3282   -3.8948   29.1186 C   0  0  0  0  0  0  0  0  0  0  0  0
  1  3  4  0
  1  7  4  0
  2  3  1  0
  2  6  4  0
  2 16  4  0
  3 22  4  0
  4  9  4  0
  4 10  1  0
  4 20  4  0
  5 16  4  0
  5 23  4  0
  6 15  4  0
  7 12  4  0
  8 13  4  0
  8 14  4  0
  9 11  4  0
 11 14  4  0
 11 19  4  0
 12 18  4  0
 13 21  4  0
 15 23  4  0
 17 19  4  0
 17 20  4  0
 18 22  4  0
 19 21  4  0
M  END
$$$$

 Created by Python create_sdf_string function

 23 25  0  0  0  0  0  0  0  0999 V2000
    2.4610   -5.3070   29.1240 C   0  0  0  0  0  0  0  0  0  0  0  0
    4.7710   -4.6952   28.4803 C   0  0  0  0  0  0  0  0  0  0  0  0
    3.4047   -5.1087   28.1314 C   0  0  0  0  0  0  0  0  0  0  0  0
   -0.2234  -11.8615   16.8874 C   0  0  0  0  0  0  0  0  0  0  0  0
    6.4491   -4.1532   30.1213 C   0  0  0  0  0  0  0  0  0  0  0  0
    5.7060   -4.4340   27.4975 C   0  0  0  0  0  0  0  0  0  0  0  0
    1.1818   -5.6612   28.8399 C   0  0  0  0  0  0  0  0  0  0  0  0
   -1.2067   -7.3287   17.7772 C   0  0  0  0  0  0  0  0  0  0  0  0
   -0.0206  -10.5585   16.6210 C   0  0  0  0  0  0  0  0  0  0  0  0
    0.3696  -12.7626   16.2169 O   0  0  0  0  0  0  0  0  0  0  0  0
   -0.6895   -9.5676   17.3297 C   0  0  0  0  0  0  0  0  0  0  0  0
    0.8388   -5.8417   27.5264 C   0  0  0  0  0  0  0  0  0  0  0  0
   -2.0709   -7.6637   18.7817 C   0  0  0  0  0  0  0  0  0  0  0  0
   -0.5279   -8.2168   17.0717 C   0  0  0  0  0  0  0  0  0  0  0  0
    6.9694   -4.0191   27.8190 C   0  0  0  0  0  0  0  0  0  0  0  0
    5.1733   -4.5469   29.8123 C   0  0  0  0  0  0  0  0  0  0  0  0
   -1.7508  -11.3016   18.6072 C   0  0  0  0  0  0  0  0  0  0  0  0
    1.7497   -5.6771   26.4971 C   0  0  0  0  0  0  0  0  0  0  0  0
   -1.5799   -9.9322   18.3468 C   0  0  0  0  0  0  0  0  0  0  0  0
   -1.0871  -12.2214   17.8851 C   0  0  0  0  0  0  0  0  0  0  0  0
   -2.2706   -8.9669   19.0691 C   0  0  0  0  0  0  0  0  0  0  0  0
    3.0279   -5.3073   26.8197 C   0  0  0  0  0  0  0  0  0  0  0  0
    7.3282   -3.8948   29.1186 C   0  0  0  0  0  0  0  0  0  0  0  0
  1  3  4  0
  1  7  4  0
  2  3  1  0
  2  6  4  0
  2 16  4  0
  3 22  4  0
  4  9  4  0
  4 10  1  0
  4 20  4  0
  5 16  4  0
  5 23  4  0
  6 15  4  0
  7 12  4  0
  8 13  4  0
  8 14  4  0
  9 11  4  0
 11 14  4  0
 11 19  4  0
 12 18  4  0
 13 21  4  0
 15 23  4  0
 17 19  4  0
 17 20  4  0
 18 22  4  0
 19 21  4  0
M  END
$$$$

 Created by Python create_sdf_string function

 23 25  0  0  0  0  0  0  0  0999 V2000
    2.4610   -5.3070   29.1240 C   0  0  0  0  0  0  0  0  0  0  0  0
    4.7710   -4.6952   28.4803 C   0  0  0  0  0  0  0  0  0  0  0  0
    3.4047   -5.1087   28.1314 C   0  0  0  0  0  0  0  0  0  0  0  0
   -0.2234  -11.8615   16.8874 C   0  0  0  0  0  0  0  0  0  0  0  0
    6.4491   -4.1532   30.1213 C   0  0  0  0  0  0  0  0  0  0  0  0
    5.7060   -4.4340   27.4975 C   0  0  0  0  0  0  0  0  0  0  0  0
    1.1818   -5.6612   28.8399 C   0  0  0  0  0  0  0  0  0  0  0  0
   -1.2067   -7.3287   17.7772 C   0  0  0  0  0  0  0  0  0  0  0  0
   -0.0206  -10.5585   16.6210 C   0  0  0  0  0  0  0  0  0  0  0  0
    0.3696  -12.7626   16.2169 O   0  0  0  0  0  0  0  0  0  0  0  0
   -0.6895   -9.5676   17.3297 C   0  0  0  0  0  0  0  0  0  0  0  0
    0.8388   -5.8417   27.5264 C   0  0  0  0  0  0  0  0  0  0  0  0
   -2.0709   -7.6637   18.7817 C   0  0  0  0  0  0  0  0  0  0  0  0
   -0.5279   -8.2168   17.0717 C   0  0  0  0  0  0  0  0  0  0  0  0
    6.9694   -4.0191   27.8190 C   0  0  0  0  0  0  0  0  0  0  0  0
    5.1733   -4.5469   29.8123 C   0  0  0  0  0  0  0  0  0  0  0  0
   -1.7508  -11.3016   18.6072 C   0  0  0  0  0  0  0  0  0  0  0  0
    1.7497   -5.6771   26.4971 C   0  0  0  0  0  0  0  0  0  0  0  0
   -1.5799   -9.9322   18.3468 C   0  0  0  0  0  0  0  0  0  0  0  0
   -1.0871  -12.2214   17.8851 C   0  0  0  0  0  0  0  0  0  0  0  0
   -2.2706   -8.9669   19.0691 C   0  0  0  0  0  0  0  0  0  0  0  0
    3.0279   -5.3073   26.8197 C   0  0  0  0  0  0  0  0  0  0  0  0
    7.3282   -3.8948   29.1186 C   0  0  0  0  0  0  0  0  0  0  0  0
  1  3  4  0
  1  7  4  0
  2  3  1  0
  2  6  4  0
  2 16  4  0
  3 22  4  0
  4  9  4  0
  4 10  1  0
  4 20  4  0
  5 16  4  0
  5 23  4  0
  6 15  4  0
  7 12  4  0
  8 13  4  0
  8 14  4  0
  9 11  4  0
 11 14  4  0
 11 19  4  0
 12 18  4  0
 13 21  4  0
 15 23  4  0
 17 19  4  0
 17 20  4  0
 18 22  4  0
 19 21  4  0
M  END
$$$$

 Created by Python create_sdf_string function

 23 25  0  0  0  0  0  0  0  0999 V2000
    2.4610   -5.3070   29.1240 C   0  0  0  0  0  0  0  0  0  0  0  0
    4.7710   -4.6952   28.4803 C   0  0  0  0  0  0  0  0  0  0  0  0
    3.4047   -5.1087   28.1314 C   0  0  0  0  0  0  0  0  0  0  0  0
   -0.2234  -11.8615   16.8874 C   0  0  0  0  0  0  0  0  0  0  0  0
    6.4491   -4.1532   30.1213 C   0  0  0  0  0  0  0  0  0  0  0  0
    5.7060   -4.4340   27.4975 C   0  0  0  0  0  0  0  0  0  0  0  0
    1.1818   -5.6612   28.8399 C   0  0  0  0  0  0  0  0  0  0  0  0
   -1.2067   -7.3287   17.7772 C   0  0  0  0  0  0  0  0  0  0  0  0
   -0.0206  -10.5585   16.6210 C   0  0  0  0  0  0  0  0  0  0  0  0
    0.3696  -12.7626   16.2169 O   0  0  0  0  0  0  0  0  0  0  0  0
   -0.6895   -9.5676   17.3297 C   0  0  0  0  0  0  0  0  0  0  0  0
    0.8388   -5.8417   27.5264 C   0  0  0  0  0  0  0  0  0  0  0  0
   -2.0709   -7.6637   18.7817 C   0  0  0  0  0  0  0  0  0  0  0  0
   -0.5279   -8.2168   17.0717 C   0  0  0  0  0  0  0  0  0  0  0  0
    6.9694   -4.0191   27.8190 C   0  0  0  0  0  0  0  0  0  0  0  0
    5.1733   -4.5469   29.8123 C   0  0  0  0  0  0  0  0  0  0  0  0
   -1.7508  -11.3016   18.6072 C   0  0  0  0  0  0  0  0  0  0  0  0
    1.7497   -5.6771   26.4971 C   0  0  0  0  0  0  0  0  0  0  0  0
   -1.5799   -9.9322   18.3468 C   0  0  0  0  0  0  0  0  0  0  0  0
   -1.0871  -12.2214   17.8851 C   0  0  0  0  0  0  0  0  0  0  0  0
   -2.2706   -8.9669   19.0691 C   0  0  0  0  0  0  0  0  0  0  0  0
    3.0279   -5.3073   26.8197 C   0  0  0  0  0  0  0  0  0  0  0  0
    7.3282   -3.8948   29.1186 C   0  0  0  0  0  0  0  0  0  0  0  0
  1  3  4  0
  1  7  4  0
  2  3  1  0
  2  6  4  0
  2 16  4  0
  3 22  4  0
  4  9  4  0
  4 10  1  0
  4 20  4  0
  5 16  4  0
  5 23  4  0
  6 15  4  0
  7 12  4  0
  8 13  4  0
  8 14  4  0
  9 11  4  0
 11 14  4  0
 11 19  4  0
 12 18  4  0
 13 21  4  0
 15 23  4  0
 17 19  4  0
 17 20  4  0
 18 22  4  0
 19 21  4  0
M  END
$$$$

 Created by Python create_sdf_string function

 23 25  0  0  0  0  0  0  0  0999 V2000
    2.4610   -5.3070   29.1240 C   0  0  0  0  0  0  0  0  0  0  0  0
    4.7710   -4.6952   28.4803 C   0  0  0  0  0  0  0  0  0  0  0  0
    3.4047   -5.1087   28.1314 C   0  0  0  0  0  0  0  0  0  0  0  0
   -0.2234  -11.8615   16.8874 C   0  0  0  0  0  0  0  0  0  0  0  0
    6.4491   -4.1532   30.1213 C   0  0  0  0  0  0  0  0  0  0  0  0
    5.7060   -4.4340   27.4975 C   0  0  0  0  0  0  0  0  0  0  0  0
    1.1818   -5.6612   28.8399 C   0  0  0  0  0  0  0  0  0  0  0  0
   -1.2067   -7.3287   17.7772 C   0  0  0  0  0  0  0  0  0  0  0  0
   -0.0206  -10.5585   16.6210 C   0  0  0  0  0  0  0  0  0  0  0  0
    0.3696  -12.7626   16.2169 O   0  0  0  0  0  0  0  0  0  0  0  0
   -0.6895   -9.5676   17.3297 C   0  0  0  0  0  0  0  0  0  0  0  0
    0.8388   -5.8417   27.5264 C   0  0  0  0  0  0  0  0  0  0  0  0
   -2.0709   -7.6637   18.7817 C   0  0  0  0  0  0  0  0  0  0  0  0
   -0.5279   -8.2168   17.0717 C   0  0  0  0  0  0  0  0  0  0  0  0
    6.9694   -4.0191   27.8190 C   0  0  0  0  0  0  0  0  0  0  0  0
    5.1733   -4.5469   29.8123 C   0  0  0  0  0  0  0  0  0  0  0  0
   -1.7508  -11.3016   18.6072 C   0  0  0  0  0  0  0  0  0  0  0  0
    1.7497   -5.6771   26.4971 C   0  0  0  0  0  0  0  0  0  0  0  0
   -1.5799   -9.9322   18.3468 C   0  0  0  0  0  0  0  0  0  0  0  0
   -1.0871  -12.2214   17.8851 C   0  0  0  0  0  0  0  0  0  0  0  0
   -2.2706   -8.9669   19.0691 C   0  0  0  0  0  0  0  0  0  0  0  0
    3.0279   -5.3073   26.8197 C   0  0  0  0  0  0  0  0  0  0  0  0
    7.3282   -3.8948   29.1186 C   0  0  0  0  0  0  0  0  0  0  0  0
  1  3  4  0
  1  7  4  0
  2  3  1  0
  2  6  4  0
  2 16  4  0
  3 22  4  0
  4  9  4  0
  4 10  1  0
  4 20  4  0
  5 16  4  0
  5 23  4  0
  6 15  4  0
  7 12  4  0
  8 13  4  0
  8 14  4  0
  9 11  4  0
 11 14  4  0
 11 19  4  0
 12 18  4  0
 13 21  4  0
 15 23  4  0
 17 19  4  0
 17 20  4  0
 18 22  4  0
 19 21  4  0
M  END
$$$$

 Created by Python create_sdf_string function

 23 25  0  0  0  0  0  0  0  0999 V2000
    2.4610   -5.3070   29.1240 C   0  0  0  0  0  0  0  0  0  0  0  0
    4.7710   -4.6952   28.4803 C   0  0  0  0  0  0  0  0  0  0  0  0
    3.4047   -5.1087   28.1314 C   0  0  0  0  0  0  0  0  0  0  0  0
   -0.2234  -11.8615   16.8874 C   0  0  0  0  0  0  0  0  0  0  0  0
    6.4491   -4.1532   30.1213 C   0  0  0  0  0  0  0  0  0  0  0  0
    5.7060   -4.4340   27.4975 C   0  0  0  0  0  0  0  0  0  0  0  0
    1.1818   -5.6612   28.8399 C   0  0  0  0  0  0  0  0  0  0  0  0
   -1.2067   -7.3287   17.7772 C   0  0  0  0  0  0  0  0  0  0  0  0
   -0.0206  -10.5585   16.6210 C   0  0  0  0  0  0  0  0  0  0  0  0
    0.3696  -12.7626   16.2169 O   0  0  0  0  0  0  0  0  0  0  0  0
   -0.6895   -9.5676   17.3297 C   0  0  0  0  0  0  0  0  0  0  0  0
    0.8388   -5.8417   27.5264 C   0  0  0  0  0  0  0  0  0  0  0  0
   -2.0709   -7.6637   18.7817 C   0  0  0  0  0  0  0  0  0  0  0  0
   -0.5279   -8.2168   17.0717 C   0  0  0  0  0  0  0  0  0  0  0  0
    6.9694   -4.0191   27.8190 C   0  0  0  0  0  0  0  0  0  0  0  0
    5.1733   -4.5469   29.8123 C   0  0  0  0  0  0  0  0  0  0  0  0
   -1.7508  -11.3016   18.6072 C   0  0  0  0  0  0  0  0  0  0  0  0
    1.7497   -5.6771   26.4971 C   0  0  0  0  0  0  0  0  0  0  0  0
   -1.5799   -9.9322   18.3468 C   0  0  0  0  0  0  0  0  0  0  0  0
   -1.0871  -12.2214   17.8851 C   0  0  0  0  0  0  0  0  0  0  0  0
   -2.2706   -8.9669   19.0691 C   0  0  0  0  0  0  0  0  0  0  0  0
    3.0279   -5.3073   26.8197 C   0  0  0  0  0  0  0  0  0  0  0  0
    7.3282   -3.8948   29.1186 C   0  0  0  0  0  0  0  0  0  0  0  0
  1  3  4  0
  1  7  4  0
  2  3  1  0
  2  6  4  0
  2 16  4  0
  3 22  4  0
  4  9  4  0
  4 10  1  0
  4 20  4  0
  5 16  4  0
  5 23  4  0
  6 15  4  0
  7 12  4  0
  8 13  4  0
  8 14  4  0
  9 11  4  0
 11 14  4  0
 11 19  4  0
 12 18  4  0
 13 21  4  0
 15 23  4  0
 17 19  4  0
 17 20  4  0
 18 22  4  0
 19 21  4  0
M  END
$$$$

 Created by Python create_sdf_string function

 23 25  0  0  0  0  0  0  0  0999 V2000
    2.4610   -5.3070   29.1240 C   0  0  0  0  0  0  0  0  0  0  0  0
    4.7710   -4.6952   28.4803 C   0  0  0  0  0  0  0  0  0  0  0  0
    3.4047   -5.1087   28.1314 C   0  0  0  0  0  0  0  0  0  0  0  0
   -0.2234  -11.8615   16.8874 C   0  0  0  0  0  0  0  0  0  0  0  0
    6.4491   -4.1532   30.1213 C   0  0  0  0  0  0  0  0  0  0  0  0
    5.7060   -4.4340   27.4975 C   0  0  0  0  0  0  0  0  0  0  0  0
    1.1818   -5.6612   28.8399 C   0  0  0  0  0  0  0  0  0  0  0  0
   -1.2067   -7.3287   17.7772 C   0  0  0  0  0  0  0  0  0  0  0  0
   -0.0206  -10.5585   16.6210 C   0  0  0  0  0  0  0  0  0  0  0  0
    0.3696  -12.7626   16.2169 O   0  0  0  0  0  0  0  0  0  0  0  0
   -0.6895   -9.5676   17.3297 C   0  0  0  0  0  0  0  0  0  0  0  0
    0.8388   -5.8417   27.5264 C   0  0  0  0  0  0  0  0  0  0  0  0
   -2.0709   -7.6637   18.7817 C   0  0  0  0  0  0  0  0  0  0  0  0
   -0.5279   -8.2168   17.0717 C   0  0  0  0  0  0  0  0  0  0  0  0
    6.9694   -4.0191   27.8190 C   0  0  0  0  0  0  0  0  0  0  0  0
    5.1733   -4.5469   29.8123 C   0  0  0  0  0  0  0  0  0  0  0  0
   -1.7508  -11.3016   18.6072 C   0  0  0  0  0  0  0  0  0  0  0  0
    1.7497   -5.6771   26.4971 C   0  0  0  0  0  0  0  0  0  0  0  0
   -1.5799   -9.9322   18.3468 C   0  0  0  0  0  0  0  0  0  0  0  0
   -1.0871  -12.2214   17.8851 C   0  0  0  0  0  0  0  0  0  0  0  0
   -2.2706   -8.9669   19.0691 C   0  0  0  0  0  0  0  0  0  0  0  0
    3.0279   -5.3073   26.8197 C   0  0  0  0  0  0  0  0  0  0  0  0
    7.3282   -3.8948   29.1186 C   0  0  0  0  0  0  0  0  0  0  0  0
  1  3  4  0
  1  7  4  0
  2  3  1  0
  2  6  4  0
  2 16  4  0
  3 22  4  0
  4  9  4  0
  4 10  1  0
  4 20  4  0
  5 16  4  0
  5 23  4  0
  6 15  4  0
  7 12  4  0
  8 13  4  0
  8 14  4  0
  9 11  4  0
 11 14  4  0
 11 19  4  0
 12 18  4  0
 13 21  4  0
 15 23  4  0
 17 19  4  0
 17 20  4  0
 18 22  4  0
 19 21  4  0
M  END
$$$$

 Created by Python create_sdf_string function

 23 25  0  0  0  0  0  0  0  0999 V2000
    2.4610   -5.3070   29.1240 C   0  0  0  0  0  0  0  0  0  0  0  0
    4.7710   -4.6952   28.4803 C   0  0  0  0  0  0  0  0  0  0  0  0
    3.4047   -5.1087   28.1314 C   0  0  0  0  0  0  0  0  0  0  0  0
   -0.2234  -11.8615   16.8874 C   0  0  0  0  0  0  0  0  0  0  0  0
    6.4491   -4.1532   30.1213 C   0  0  0  0  0  0  0  0  0  0  0  0
    5.7060   -4.4340   27.4975 C   0  0  0  0  0  0  0  0  0  0  0  0
    1.1818   -5.6612   28.8399 C   0  0  0  0  0  0  0  0  0  0  0  0
   -1.2067   -7.3287   17.7772 C   0  0  0  0  0  0  0  0  0  0  0  0
   -0.0206  -10.5585   16.6210 C   0  0  0  0  0  0  0  0  0  0  0  0
    0.3696  -12.7626   16.2169 O   0  0  0  0  0  0  0  0  0  0  0  0
   -0.6895   -9.5676   17.3297 C   0  0  0  0  0  0  0  0  0  0  0  0
    0.8388   -5.8417   27.5264 C   0  0  0  0  0  0  0  0  0  0  0  0
   -2.0709   -7.6637   18.7817 C   0  0  0  0  0  0  0  0  0  0  0  0
   -0.5279   -8.2168   17.0717 C   0  0  0  0  0  0  0  0  0  0  0  0
    6.9694   -4.0191   27.8190 C   0  0  0  0  0  0  0  0  0  0  0  0
    5.1733   -4.5469   29.8123 C   0  0  0  0  0  0  0  0  0  0  0  0
   -1.7508  -11.3016   18.6072 C   0  0  0  0  0  0  0  0  0  0  0  0
    1.7497   -5.6771   26.4971 C   0  0  0  0  0  0  0  0  0  0  0  0
   -1.5799   -9.9322   18.3468 C   0  0  0  0  0  0  0  0  0  0  0  0
   -1.0871  -12.2214   17.8851 C   0  0  0  0  0  0  0  0  0  0  0  0
   -2.2706   -8.9669   19.0691 C   0  0  0  0  0  0  0  0  0  0  0  0
    3.0279   -5.3073   26.8197 C   0  0  0  0  0  0  0  0  0  0  0  0
    7.3282   -3.8948   29.1186 C   0  0  0  0  0  0  0  0  0  0  0  0
  1  3  4  0
  1  7  4  0
  2  3  1  0
  2  6  4  0
  2 16  4  0
  3 22  4  0
  4  9  4  0
  4 10  1  0
  4 20  4  0
  5 16  4  0
  5 23  4  0
  6 15  4  0
  7 12  4  0
  8 13  4  0
  8 14  4  0
  9 11  4  0
 11 14  4  0
 11 19  4  0
 12 18  4  0
 13 21  4  0
 15 23  4  0
 17 19  4  0
 17 20  4  0
 18 22  4  0
 19 21  4  0
M  END
$$$$

 Created by Python create_sdf_string function

 23 25  0  0  0  0  0  0  0  0999 V2000
    2.4610   -5.3070   29.1240 C   0  0  0  0  0  0  0  0  0  0  0  0
    4.7710   -4.6952   28.4803 C   0  0  0  0  0  0  0  0  0  0  0  0
    3.4047   -5.1087   28.1314 C   0  0  0  0  0  0  0  0  0  0  0  0
   -0.2234  -11.8615   16.8874 C   0  0  0  0  0  0  0  0  0  0  0  0
    6.4491   -4.1532   30.1213 C   0  0  0  0  0  0  0  0  0  0  0  0
    5.7060   -4.4340   27.4975 C   0  0  0  0  0  0  0  0  0  0  0  0
    1.1818   -5.6612   28.8399 C   0  0  0  0  0  0  0  0  0  0  0  0
   -1.2067   -7.3287   17.7772 C   0  0  0  0  0  0  0  0  0  0  0  0
   -0.0206  -10.5585   16.6210 C   0  0  0  0  0  0  0  0  0  0  0  0
    0.3696  -12.7626   16.2169 O   0  0  0  0  0  0  0  0  0  0  0  0
   -0.6895   -9.5676   17.3297 C   0  0  0  0  0  0  0  0  0  0  0  0
    0.8388   -5.8417   27.5264 C   0  0  0  0  0  0  0  0  0  0  0  0
   -2.0709   -7.6637   18.7817 C   0  0  0  0  0  0  0  0  0  0  0  0
   -0.5279   -8.2168   17.0717 C   0  0  0  0  0  0  0  0  0  0  0  0
    6.9694   -4.0191   27.8190 C   0  0  0  0  0  0  0  0  0  0  0  0
    5.1733   -4.5469   29.8123 C   0  0  0  0  0  0  0  0  0  0  0  0
   -1.7508  -11.3016   18.6072 C   0  0  0  0  0  0  0  0  0  0  0  0
    1.7497   -5.6771   26.4971 C   0  0  0  0  0  0  0  0  0  0  0  0
   -1.5799   -9.9322   18.3468 C   0  0  0  0  0  0  0  0  0  0  0  0
   -1.0871  -12.2214   17.8851 C   0  0  0  0  0  0  0  0  0  0  0  0
   -2.2706   -8.9669   19.0691 C   0  0  0  0  0  0  0  0  0  0  0  0
    3.0279   -5.3073   26.8197 C   0  0  0  0  0  0  0  0  0  0  0  0
    7.3282   -3.8948   29.1186 C   0  0  0  0  0  0  0  0  0  0  0  0
  1  3  4  0
  1  7  4  0
  2  3  1  0
  2  6  4  0
  2 16  4  0
  3 22  4  0
  4  9  4  0
  4 10  1  0
  4 20  4  0
  5 16  4  0
  5 23  4  0
  6 15  4  0
  7 12  4  0
  8 13  4  0
  8 14  4  0
  9 11  4  0
 11 14  4  0
 11 19  4  0
 12 18  4  0
 13 21  4  0
 15 23  4  0
 17 19  4  0
 17 20  4  0
 18 22  4  0
 19 21  4  0
M  END
$$$$

 Created by Python create_sdf_string function

 23 25  0  0  0  0  0  0  0  0999 V2000
    2.4610   -5.3070   29.1240 C   0  0  0  0  0  0  0  0  0  0  0  0
    4.7710   -4.6952   28.4803 C   0  0  0  0  0  0  0  0  0  0  0  0
    3.4047   -5.1087   28.1314 C   0  0  0  0  0  0  0  0  0  0  0  0
   -0.2234  -11.8615   16.8874 C   0  0  0  0  0  0  0  0  0  0  0  0
    6.4491   -4.1532   30.1213 C   0  0  0  0  0  0  0  0  0  0  0  0
    5.7060   -4.4340   27.4975 C   0  0  0  0  0  0  0  0  0  0  0  0
    1.1818   -5.6612   28.8399 C   0  0  0  0  0  0  0  0  0  0  0  0
   -1.2067   -7.3287   17.7772 C   0  0  0  0  0  0  0  0  0  0  0  0
   -0.0206  -10.5585   16.6210 C   0  0  0  0  0  0  0  0  0  0  0  0
    0.3696  -12.7626   16.2169 O   0  0  0  0  0  0  0  0  0  0  0  0
   -0.6895   -9.5676   17.3297 C   0  0  0  0  0  0  0  0  0  0  0  0
    0.8388   -5.8417   27.5264 C   0  0  0  0  0  0  0  0  0  0  0  0
   -2.0709   -7.6637   18.7817 C   0  0  0  0  0  0  0  0  0  0  0  0
   -0.5279   -8.2168   17.0717 C   0  0  0  0  0  0  0  0  0  0  0  0
    6.9694   -4.0191   27.8190 C   0  0  0  0  0  0  0  0  0  0  0  0
    5.1733   -4.5469   29.8123 C   0  0  0  0  0  0  0  0  0  0  0  0
   -1.7508  -11.3016   18.6072 C   0  0  0  0  0  0  0  0  0  0  0  0
    1.7497   -5.6771   26.4971 C   0  0  0  0  0  0  0  0  0  0  0  0
   -1.5799   -9.9322   18.3468 C   0  0  0  0  0  0  0  0  0  0  0  0
   -1.0871  -12.2214   17.8851 C   0  0  0  0  0  0  0  0  0  0  0  0
   -2.2706   -8.9669   19.0691 C   0  0  0  0  0  0  0  0  0  0  0  0
    3.0279   -5.3073   26.8197 C   0  0  0  0  0  0  0  0  0  0  0  0
    7.3282   -3.8948   29.1186 C   0  0  0  0  0  0  0  0  0  0  0  0
  1  3  4  0
  1  7  4  0
  2  3  1  0
  2  6  4  0
  2 16  4  0
  3 22  4  0
  4  9  4  0
  4 10  1  0
  4 20  4  0
  5 16  4  0
  5 23  4  0
  6 15  4  0
  7 12  4  0
  8 13  4  0
  8 14  4  0
  9 11  4  0
 11 14  4  0
 11 19  4  0
 12 18  4  0
 13 21  4  0
 15 23  4  0
 17 19  4  0
 17 20  4  0
 18 22  4  0
 19 21  4  0
M  END
$$$$

 Created by Python create_sdf_string function

 23 25  0  0  0  0  0  0  0  0999 V2000
    2.4610   -5.3070   29.1240 C   0  0  0  0  0  0  0  0  0  0  0  0
    4.7710   -4.6952   28.4803 C   0  0  0  0  0  0  0  0  0  0  0  0
    3.4047   -5.1087   28.1314 C   0  0  0  0  0  0  0  0  0  0  0  0
   -0.2234  -11.8615   16.8874 C   0  0  0  0  0  0  0  0  0  0  0  0
    6.4491   -4.1532   30.1213 C   0  0  0  0  0  0  0  0  0  0  0  0
    5.7060   -4.4340   27.4975 C   0  0  0  0  0  0  0  0  0  0  0  0
    1.1818   -5.6612   28.8399 C   0  0  0  0  0  0  0  0  0  0  0  0
   -1.2067   -7.3287   17.7772 C   0  0  0  0  0  0  0  0  0  0  0  0
   -0.0206  -10.5585   16.6210 C   0  0  0  0  0  0  0  0  0  0  0  0
    0.3696  -12.7626   16.2169 O   0  0  0  0  0  0  0  0  0  0  0  0
   -0.6895   -9.5676   17.3297 C   0  0  0  0  0  0  0  0  0  0  0  0
    0.8388   -5.8417   27.5264 C   0  0  0  0  0  0  0  0  0  0  0  0
   -2.0709   -7.6637   18.7817 C   0  0  0  0  0  0  0  0  0  0  0  0
   -0.5279   -8.2168   17.0717 C   0  0  0  0  0  0  0  0  0  0  0  0
    6.9694   -4.0191   27.8190 C   0  0  0  0  0  0  0  0  0  0  0  0
    5.1733   -4.5469   29.8123 C   0  0  0  0  0  0  0  0  0  0  0  0
   -1.7508  -11.3016   18.6072 C   0  0  0  0  0  0  0  0  0  0  0  0
    1.7497   -5.6771   26.4971 C   0  0  0  0  0  0  0  0  0  0  0  0
   -1.5799   -9.9322   18.3468 C   0  0  0  0  0  0  0  0  0  0  0  0
   -1.0871  -12.2214   17.8851 C   0  0  0  0  0  0  0  0  0  0  0  0
   -2.2706   -8.9669   19.0691 C   0  0  0  0  0  0  0  0  0  0  0  0
    3.0279   -5.3073   26.8197 C   0  0  0  0  0  0  0  0  0  0  0  0
    7.3282   -3.8948   29.1186 C   0  0  0  0  0  0  0  0  0  0  0  0
  1  3  4  0
  1  7  4  0
  2  3  1  0
  2  6  4  0
  2 16  4  0
  3 22  4  0
  4  9  4  0
  4 10  1  0
  4 20  4  0
  5 16  4  0
  5 23  4  0
  6 15  4  0
  7 12  4  0
  8 13  4  0
  8 14  4  0
  9 11  4  0
 11 14  4  0
 11 19  4  0
 12 18  4  0
 13 21  4  0
 15 23  4  0
 17 19  4  0
 17 20  4  0
 18 22  4  0
 19 21  4  0
M  END
$$$$

 Created by Python create_sdf_string function

 23 25  0  0  0  0  0  0  0  0999 V2000
    2.4610   -5.3070   29.1240 C   0  0  0  0  0  0  0  0  0  0  0  0
    4.7710   -4.6952   28.4803 C   0  0  0  0  0  0  0  0  0  0  0  0
    3.4047   -5.1087   28.1314 C   0  0  0  0  0  0  0  0  0  0  0  0
   -0.2234  -11.8615   16.8874 C   0  0  0  0  0  0  0  0  0  0  0  0
    6.4491   -4.1532   30.1213 C   0  0  0  0  0  0  0  0  0  0  0  0
    5.7060   -4.4340   27.4975 C   0  0  0  0  0  0  0  0  0  0  0  0
    1.1818   -5.6612   28.8399 C   0  0  0  0  0  0  0  0  0  0  0  0
   -1.2067   -7.3287   17.7772 C   0  0  0  0  0  0  0  0  0  0  0  0
   -0.0206  -10.5585   16.6210 C   0  0  0  0  0  0  0  0  0  0  0  0
    0.3696  -12.7626   16.2169 O   0  0  0  0  0  0  0  0  0  0  0  0
   -0.6895   -9.5676   17.3297 C   0  0  0  0  0  0  0  0  0  0  0  0
    0.8388   -5.8417   27.5264 C   0  0  0  0  0  0  0  0  0  0  0  0
   -2.0709   -7.6637   18.7817 C   0  0  0  0  0  0  0  0  0  0  0  0
   -0.5279   -8.2168   17.0717 C   0  0  0  0  0  0  0  0  0  0  0  0
    6.9694   -4.0191   27.8190 C   0  0  0  0  0  0  0  0  0  0  0  0
    5.1733   -4.5469   29.8123 C   0  0  0  0  0  0  0  0  0  0  0  0
   -1.7508  -11.3016   18.6072 C   0  0  0  0  0  0  0  0  0  0  0  0
    1.7497   -5.6771   26.4971 C   0  0  0  0  0  0  0  0  0  0  0  0
   -1.5799   -9.9322   18.3468 C   0  0  0  0  0  0  0  0  0  0  0  0
   -1.0871  -12.2214   17.8851 C   0  0  0  0  0  0  0  0  0  0  0  0
   -2.2706   -8.9669   19.0691 C   0  0  0  0  0  0  0  0  0  0  0  0
    3.0279   -5.3073   26.8197 C   0  0  0  0  0  0  0  0  0  0  0  0
    7.3282   -3.8948   29.1186 C   0  0  0  0  0  0  0  0  0  0  0  0
  1  3  4  0
  1  7  4  0
  2  3  1  0
  2  6  4  0
  2 16  4  0
  3 22  4  0
  4  9  4  0
  4 10  1  0
  4 20  4  0
  5 16  4  0
  5 23  4  0
  6 15  4  0
  7 12  4  0
  8 13  4  0
  8 14  4  0
  9 11  4  0
 11 14  4  0
 11 19  4  0
 12 18  4  0
 13 21  4  0
 15 23  4  0
 17 19  4  0
 17 20  4  0
 18 22  4  0
 19 21  4  0
M  END
$$$$

 Created by Python create_sdf_string function

 23 25  0  0  0  0  0  0  0  0999 V2000
    2.4610   -5.3070   29.1240 C   0  0  0  0  0  0  0  0  0  0  0  0
    4.7710   -4.6952   28.4803 C   0  0  0  0  0  0  0  0  0  0  0  0
    3.4047   -5.1087   28.1314 C   0  0  0  0  0  0  0  0  0  0  0  0
   -0.2234  -11.8615   16.8874 C   0  0  0  0  0  0  0  0  0  0  0  0
    6.4491   -4.1532   30.1213 C   0  0  0  0  0  0  0  0  0  0  0  0
    5.7060   -4.4340   27.4975 C   0  0  0  0  0  0  0  0  0  0  0  0
    1.1818   -5.6612   28.8399 C   0  0  0  0  0  0  0  0  0  0  0  0
   -1.2067   -7.3287   17.7772 C   0  0  0  0  0  0  0  0  0  0  0  0
   -0.0206  -10.5585   16.6210 C   0  0  0  0  0  0  0  0  0  0  0  0
    0.3696  -12.7626   16.2169 O   0  0  0  0  0  0  0  0  0  0  0  0
   -0.6895   -9.5676   17.3297 C   0  0  0  0  0  0  0  0  0  0  0  0
    0.8388   -5.8417   27.5264 C   0  0  0  0  0  0  0  0  0  0  0  0
   -2.0709   -7.6637   18.7817 C   0  0  0  0  0  0  0  0  0  0  0  0
   -0.5279   -8.2168   17.0717 C   0  0  0  0  0  0  0  0  0  0  0  0
    6.9694   -4.0191   27.8190 C   0  0  0  0  0  0  0  0  0  0  0  0
    5.1733   -4.5469   29.8123 C   0  0  0  0  0  0  0  0  0  0  0  0
   -1.7508  -11.3016   18.6072 C   0  0  0  0  0  0  0  0  0  0  0  0
    1.7497   -5.6771   26.4971 C   0  0  0  0  0  0  0  0  0  0  0  0
   -1.5799   -9.9322   18.3468 C   0  0  0  0  0  0  0  0  0  0  0  0
   -1.0871  -12.2214   17.8851 C   0  0  0  0  0  0  0  0  0  0  0  0
   -2.2706   -8.9669   19.0691 C   0  0  0  0  0  0  0  0  0  0  0  0
    3.0279   -5.3073   26.8197 C   0  0  0  0  0  0  0  0  0  0  0  0
    7.3282   -3.8948   29.1186 C   0  0  0  0  0  0  0  0  0  0  0  0
  1  3  4  0
  1  7  4  0
  2  3  1  0
  2  6  4  0
  2 16  4  0
  3 22  4  0
  4  9  4  0
  4 10  1  0
  4 20  4  0
  5 16  4  0
  5 23  4  0
  6 15  4  0
  7 12  4  0
  8 13  4  0
  8 14  4  0
  9 11  4  0
 11 14  4  0
 11 19  4  0
 12 18  4  0
 13 21  4  0
 15 23  4  0
 17 19  4  0
 17 20  4  0
 18 22  4  0
 19 21  4  0
M  END
$$$$

 Created by Python create_sdf_string function

 23 25  0  0  0  0  0  0  0  0999 V2000
    2.4610   -5.3070   29.1240 C   0  0  0  0  0  0  0  0  0  0  0  0
    4.7710   -4.6952   28.4803 C   0  0  0  0  0  0  0  0  0  0  0  0
    3.4047   -5.1087   28.1314 C   0  0  0  0  0  0  0  0  0  0  0  0
   -0.2234  -11.8615   16.8874 C   0  0  0  0  0  0  0  0  0  0  0  0
    6.4491   -4.1532   30.1213 C   0  0  0  0  0  0  0  0  0  0  0  0
    5.7060   -4.4340   27.4975 C   0  0  0  0  0  0  0  0  0  0  0  0
    1.1818   -5.6612   28.8399 C   0  0  0  0  0  0  0  0  0  0  0  0
   -1.2067   -7.3287   17.7772 C   0  0  0  0  0  0  0  0  0  0  0  0
   -0.0206  -10.5585   16.6210 C   0  0  0  0  0  0  0  0  0  0  0  0
    0.3696  -12.7626   16.2169 O   0  0  0  0  0  0  0  0  0  0  0  0
   -0.6895   -9.5676   17.3297 C   0  0  0  0  0  0  0  0  0  0  0  0
    0.8388   -5.8417   27.5264 C   0  0  0  0  0  0  0  0  0  0  0  0
   -2.0709   -7.6637   18.7817 C   0  0  0  0  0  0  0  0  0  0  0  0
   -0.5279   -8.2168   17.0717 C   0  0  0  0  0  0  0  0  0  0  0  0
    6.9694   -4.0191   27.8190 C   0  0  0  0  0  0  0  0  0  0  0  0
    5.1733   -4.5469   29.8123 C   0  0  0  0  0  0  0  0  0  0  0  0
   -1.7508  -11.3016   18.6072 C   0  0  0  0  0  0  0  0  0  0  0  0
    1.7497   -5.6771   26.4971 C   0  0  0  0  0  0  0  0  0  0  0  0
   -1.5799   -9.9322   18.3468 C   0  0  0  0  0  0  0  0  0  0  0  0
   -1.0871  -12.2214   17.8851 C   0  0  0  0  0  0  0  0  0  0  0  0
   -2.2706   -8.9669   19.0691 C   0  0  0  0  0  0  0  0  0  0  0  0
    3.0279   -5.3073   26.8197 C   0  0  0  0  0  0  0  0  0  0  0  0
    7.3282   -3.8948   29.1186 C   0  0  0  0  0  0  0  0  0  0  0  0
  1  3  4  0
  1  7  4  0
  2  3  1  0
  2  6  4  0
  2 16  4  0
  3 22  4  0
  4  9  4  0
  4 10  1  0
  4 20  4  0
  5 16  4  0
  5 23  4  0
  6 15  4  0
  7 12  4  0
  8 13  4  0
  8 14  4  0
  9 11  4  0
 11 14  4  0
 11 19  4  0
 12 18  4  0
 13 21  4  0
 15 23  4  0
 17 19  4  0
 17 20  4  0
 18 22  4  0
 19 21  4  0
M  END
$$$$

 Created by Python create_sdf_string function

 23 25  0  0  0  0  0  0  0  0999 V2000
    2.4610   -5.3070   29.1240 C   0  0  0  0  0  0  0  0  0  0  0  0
    4.7710   -4.6952   28.4803 C   0  0  0  0  0  0  0  0  0  0  0  0
    3.4047   -5.1087   28.1314 C   0  0  0  0  0  0  0  0  0  0  0  0
   -0.2234  -11.8615   16.8874 C   0  0  0  0  0  0  0  0  0  0  0  0
    6.4491   -4.1532   30.1213 C   0  0  0  0  0  0  0  0  0  0  0  0
    5.7060   -4.4340   27.4975 C   0  0  0  0  0  0  0  0  0  0  0  0
    1.1818   -5.6612   28.8399 C   0  0  0  0  0  0  0  0  0  0  0  0
   -1.2067   -7.3287   17.7772 C   0  0  0  0  0  0  0  0  0  0  0  0
   -0.0206  -10.5585   16.6210 C   0  0  0  0  0  0  0  0  0  0  0  0
    0.3696  -12.7626   16.2169 O   0  0  0  0  0  0  0  0  0  0  0  0
   -0.6895   -9.5676   17.3297 C   0  0  0  0  0  0  0  0  0  0  0  0
    0.8388   -5.8417   27.5264 C   0  0  0  0  0  0  0  0  0  0  0  0
   -2.0709   -7.6637   18.7817 C   0  0  0  0  0  0  0  0  0  0  0  0
   -0.5279   -8.2168   17.0717 C   0  0  0  0  0  0  0  0  0  0  0  0
    6.9694   -4.0191   27.8190 C   0  0  0  0  0  0  0  0  0  0  0  0
    5.1733   -4.5469   29.8123 C   0  0  0  0  0  0  0  0  0  0  0  0
   -1.7508  -11.3016   18.6072 C   0  0  0  0  0  0  0  0  0  0  0  0
    1.7497   -5.6771   26.4971 C   0  0  0  0  0  0  0  0  0  0  0  0
   -1.5799   -9.9322   18.3468 C   0  0  0  0  0  0  0  0  0  0  0  0
   -1.0871  -12.2214   17.8851 C   0  0  0  0  0  0  0  0  0  0  0  0
   -2.2706   -8.9669   19.0691 C   0  0  0  0  0  0  0  0  0  0  0  0
    3.0279   -5.3073   26.8197 C   0  0  0  0  0  0  0  0  0  0  0  0
    7.3282   -3.8948   29.1186 C   0  0  0  0  0  0  0  0  0  0  0  0
  1  3  4  0
  1  7  4  0
  2  3  1  0
  2  6  4  0
  2 16  4  0
  3 22  4  0
  4  9  4  0
  4 10  1  0
  4 20  4  0
  5 16  4  0
  5 23  4  0
  6 15  4  0
  7 12  4  0
  8 13  4  0
  8 14  4  0
  9 11  4  0
 11 14  4  0
 11 19  4  0
 12 18  4  0
 13 21  4  0
 15 23  4  0
 17 19  4  0
 17 20  4  0
 18 22  4  0
 19 21  4  0
M  END
$$$$

 Created by Python create_sdf_string function

 23 25  0  0  0  0  0  0  0  0999 V2000
    2.4610   -5.3070   29.1240 C   0  0  0  0  0  0  0  0  0  0  0  0
    4.7710   -4.6952   28.4803 C   0  0  0  0  0  0  0  0  0  0  0  0
    3.4047   -5.1087   28.1314 C   0  0  0  0  0  0  0  0  0  0  0  0
   -0.2234  -11.8615   16.8874 C   0  0  0  0  0  0  0  0  0  0  0  0
    6.4491   -4.1532   30.1213 C   0  0  0  0  0  0  0  0  0  0  0  0
    5.7060   -4.4340   27.4975 C   0  0  0  0  0  0  0  0  0  0  0  0
    1.1818   -5.6612   28.8399 C   0  0  0  0  0  0  0  0  0  0  0  0
   -1.2067   -7.3287   17.7772 C   0  0  0  0  0  0  0  0  0  0  0  0
   -0.0206  -10.5585   16.6210 C   0  0  0  0  0  0  0  0  0  0  0  0
    0.3696  -12.7626   16.2169 O   0  0  0  0  0  0  0  0  0  0  0  0
   -0.6895   -9.5676   17.3297 C   0  0  0  0  0  0  0  0  0  0  0  0
    0.8388   -5.8417   27.5264 C   0  0  0  0  0  0  0  0  0  0  0  0
   -2.0709   -7.6637   18.7817 C   0  0  0  0  0  0  0  0  0  0  0  0
   -0.5279   -8.2168   17.0717 C   0  0  0  0  0  0  0  0  0  0  0  0
    6.9694   -4.0191   27.8190 C   0  0  0  0  0  0  0  0  0  0  0  0
    5.1733   -4.5469   29.8123 C   0  0  0  0  0  0  0  0  0  0  0  0
   -1.7508  -11.3016   18.6072 C   0  0  0  0  0  0  0  0  0  0  0  0
    1.7497   -5.6771   26.4971 C   0  0  0  0  0  0  0  0  0  0  0  0
   -1.5799   -9.9322   18.3468 C   0  0  0  0  0  0  0  0  0  0  0  0
   -1.0871  -12.2214   17.8851 C   0  0  0  0  0  0  0  0  0  0  0  0
   -2.2706   -8.9669   19.0691 C   0  0  0  0  0  0  0  0  0  0  0  0
    3.0279   -5.3073   26.8197 C   0  0  0  0  0  0  0  0  0  0  0  0
    7.3282   -3.8948   29.1186 C   0  0  0  0  0  0  0  0  0  0  0  0
  1  3  4  0
  1  7  4  0
  2  3  1  0
  2  6  4  0
  2 16  4  0
  3 22  4  0
  4  9  4  0
  4 10  1  0
  4 20  4  0
  5 16  4  0
  5 23  4  0
  6 15  4  0
  7 12  4  0
  8 13  4  0
  8 14  4  0
  9 11  4  0
 11 14  4  0
 11 19  4  0
 12 18  4  0
 13 21  4  0
 15 23  4  0
 17 19  4  0
 17 20  4  0
 18 22  4  0
 19 21  4  0
M  END
$$$$

 Created by Python create_sdf_string function

 23 25  0  0  0  0  0  0  0  0999 V2000
    2.4610   -5.3070   29.1240 C   0  0  0  0  0  0  0  0  0  0  0  0
    4.7710   -4.6952   28.4803 C   0  0  0  0  0  0  0  0  0  0  0  0
    3.4047   -5.1087   28.1314 C   0  0  0  0  0  0  0  0  0  0  0  0
   -0.2234  -11.8615   16.8874 C   0  0  0  0  0  0  0  0  0  0  0  0
    6.4491   -4.1532   30.1213 C   0  0  0  0  0  0  0  0  0  0  0  0
    5.7060   -4.4340   27.4975 C   0  0  0  0  0  0  0  0  0  0  0  0
    1.1818   -5.6612   28.8399 C   0  0  0  0  0  0  0  0  0  0  0  0
   -1.2067   -7.3287   17.7772 C   0  0  0  0  0  0  0  0  0  0  0  0
   -0.0206  -10.5585   16.6210 C   0  0  0  0  0  0  0  0  0  0  0  0
    0.3696  -12.7626   16.2169 O   0  0  0  0  0  0  0  0  0  0  0  0
   -0.6895   -9.5676   17.3297 C   0  0  0  0  0  0  0  0  0  0  0  0
    0.8388   -5.8417   27.5264 C   0  0  0  0  0  0  0  0  0  0  0  0
   -2.0709   -7.6637   18.7817 C   0  0  0  0  0  0  0  0  0  0  0  0
   -0.5279   -8.2168   17.0717 C   0  0  0  0  0  0  0  0  0  0  0  0
    6.9694   -4.0191   27.8190 C   0  0  0  0  0  0  0  0  0  0  0  0
    5.1733   -4.5469   29.8123 C   0  0  0  0  0  0  0  0  0  0  0  0
   -1.7508  -11.3016   18.6072 C   0  0  0  0  0  0  0  0  0  0  0  0
    1.7497   -5.6771   26.4971 C   0  0  0  0  0  0  0  0  0  0  0  0
   -1.5799   -9.9322   18.3468 C   0  0  0  0  0  0  0  0  0  0  0  0
   -1.0871  -12.2214   17.8851 C   0  0  0  0  0  0  0  0  0  0  0  0
   -2.2706   -8.9669   19.0691 C   0  0  0  0  0  0  0  0  0  0  0  0
    3.0279   -5.3073   26.8197 C   0  0  0  0  0  0  0  0  0  0  0  0
    7.3282   -3.8948   29.1186 C   0  0  0  0  0  0  0  0  0  0  0  0
  1  3  4  0
  1  7  4  0
  2  3  1  0
  2  6  4  0
  2 16  4  0
  3 22  4  0
  4  9  4  0
  4 10  1  0
  4 20  4  0
  5 16  4  0
  5 23  4  0
  6 15  4  0
  7 12  4  0
  8 13  4  0
  8 14  4  0
  9 11  4  0
 11 14  4  0
 11 19  4  0
 12 18  4  0
 13 21  4  0
 15 23  4  0
 17 19  4  0
 17 20  4  0
 18 22  4  0
 19 21  4  0
M  END
$$$$

 Created by Python create_sdf_string function

 23 25  0  0  0  0  0  0  0  0999 V2000
    2.4610   -5.3070   29.1240 C   0  0  0  0  0  0  0  0  0  0  0  0
    4.7710   -4.6952   28.4803 C   0  0  0  0  0  0  0  0  0  0  0  0
    3.4047   -5.1087   28.1314 C   0  0  0  0  0  0  0  0  0  0  0  0
   -0.2234  -11.8615   16.8874 C   0  0  0  0  0  0  0  0  0  0  0  0
    6.4491   -4.1532   30.1213 C   0  0  0  0  0  0  0  0  0  0  0  0
    5.7060   -4.4340   27.4975 C   0  0  0  0  0  0  0  0  0  0  0  0
    1.1818   -5.6612   28.8399 C   0  0  0  0  0  0  0  0  0  0  0  0
   -1.2067   -7.3287   17.7772 C   0  0  0  0  0  0  0  0  0  0  0  0
   -0.0206  -10.5585   16.6210 C   0  0  0  0  0  0  0  0  0  0  0  0
    0.3696  -12.7626   16.2169 O   0  0  0  0  0  0  0  0  0  0  0  0
   -0.6895   -9.5676   17.3297 C   0  0  0  0  0  0  0  0  0  0  0  0
    0.8388   -5.8417   27.5264 C   0  0  0  0  0  0  0  0  0  0  0  0
   -2.0709   -7.6637   18.7817 C   0  0  0  0  0  0  0  0  0  0  0  0
   -0.5279   -8.2168   17.0717 C   0  0  0  0  0  0  0  0  0  0  0  0
    6.9694   -4.0191   27.8190 C   0  0  0  0  0  0  0  0  0  0  0  0
    5.1733   -4.5469   29.8123 C   0  0  0  0  0  0  0  0  0  0  0  0
   -1.7508  -11.3016   18.6072 C   0  0  0  0  0  0  0  0  0  0  0  0
    1.7497   -5.6771   26.4971 C   0  0  0  0  0  0  0  0  0  0  0  0
   -1.5799   -9.9322   18.3468 C   0  0  0  0  0  0  0  0  0  0  0  0
   -1.0871  -12.2214   17.8851 C   0  0  0  0  0  0  0  0  0  0  0  0
   -2.2706   -8.9669   19.0691 C   0  0  0  0  0  0  0  0  0  0  0  0
    3.0279   -5.3073   26.8197 C   0  0  0  0  0  0  0  0  0  0  0  0
    7.3282   -3.8948   29.1186 C   0  0  0  0  0  0  0  0  0  0  0  0
  1  3  4  0
  1  7  4  0
  2  3  1  0
  2  6  4  0
  2 16  4  0
  3 22  4  0
  4  9  4  0
  4 10  1  0
  4 20  4  0
  5 16  4  0
  5 23  4  0
  6 15  4  0
  7 12  4  0
  8 13  4  0
  8 14  4  0
  9 11  4  0
 11 14  4  0
 11 19  4  0
 12 18  4  0
 13 21  4  0
 15 23  4  0
 17 19  4  0
 17 20  4  0
 18 22  4  0
 19 21  4  0
M  END
$$$$

 Created by Python create_sdf_string function

 23 25  0  0  0  0  0  0  0  0999 V2000
    2.4610   -5.3070   29.1240 C   0  0  0  0  0  0  0  0  0  0  0  0
    4.7710   -4.6952   28.4803 C   0  0  0  0  0  0  0  0  0  0  0  0
    3.4047   -5.1087   28.1314 C   0  0  0  0  0  0  0  0  0  0  0  0
   -0.2234  -11.8615   16.8874 C   0  0  0  0  0  0  0  0  0  0  0  0
    6.4491   -4.1532   30.1213 C   0  0  0  0  0  0  0  0  0  0  0  0
    5.7060   -4.4340   27.4975 C   0  0  0  0  0  0  0  0  0  0  0  0
    1.1818   -5.6612   28.8399 C   0  0  0  0  0  0  0  0  0  0  0  0
   -1.2067   -7.3287   17.7772 C   0  0  0  0  0  0  0  0  0  0  0  0
   -0.0206  -10.5585   16.6210 C   0  0  0  0  0  0  0  0  0  0  0  0
    0.3696  -12.7626   16.2169 O   0  0  0  0  0  0  0  0  0  0  0  0
   -0.6895   -9.5676   17.3297 C   0  0  0  0  0  0  0  0  0  0  0  0
    0.8388   -5.8417   27.5264 C   0  0  0  0  0  0  0  0  0  0  0  0
   -2.0709   -7.6637   18.7817 C   0  0  0  0  0  0  0  0  0  0  0  0
   -0.5279   -8.2168   17.0717 C   0  0  0  0  0  0  0  0  0  0  0  0
    6.9694   -4.0191   27.8190 C   0  0  0  0  0  0  0  0  0  0  0  0
    5.1733   -4.5469   29.8123 C   0  0  0  0  0  0  0  0  0  0  0  0
   -1.7508  -11.3016   18.6072 C   0  0  0  0  0  0  0  0  0  0  0  0
    1.7497   -5.6771   26.4971 C   0  0  0  0  0  0  0  0  0  0  0  0
   -1.5799   -9.9322   18.3468 C   0  0  0  0  0  0  0  0  0  0  0  0
   -1.0871  -12.2214   17.8851 C   0  0  0  0  0  0  0  0  0  0  0  0
   -2.2706   -8.9669   19.0691 C   0  0  0  0  0  0  0  0  0  0  0  0
    3.0279   -5.3073   26.8197 C   0  0  0  0  0  0  0  0  0  0  0  0
    7.3282   -3.8948   29.1186 C   0  0  0  0  0  0  0  0  0  0  0  0
  1  3  4  0
  1  7  4  0
  2  3  1  0
  2  6  4  0
  2 16  4  0
  3 22  4  0
  4  9  4  0
  4 10  1  0
  4 20  4  0
  5 16  4  0
  5 23  4  0
  6 15  4  0
  7 12  4  0
  8 13  4  0
  8 14  4  0
  9 11  4  0
 11 14  4  0
 11 19  4  0
 12 18  4  0
 13 21  4  0
 15 23  4  0
 17 19  4  0
 17 20  4  0
 18 22  4  0
 19 21  4  0
M  END
$$$$

 Created by Python create_sdf_string function

 23 25  0  0  0  0  0  0  0  0999 V2000
    2.4610   -5.3070   29.1240 C   0  0  0  0  0  0  0  0  0  0  0  0
    4.7710   -4.6952   28.4803 C   0  0  0  0  0  0  0  0  0  0  0  0
    3.4047   -5.1087   28.1314 C   0  0  0  0  0  0  0  0  0  0  0  0
   -0.2234  -11.8615   16.8874 C   0  0  0  0  0  0  0  0  0  0  0  0
    6.4491   -4.1532   30.1213 C   0  0  0  0  0  0  0  0  0  0  0  0
    5.7060   -4.4340   27.4975 C   0  0  0  0  0  0  0  0  0  0  0  0
    1.1818   -5.6612   28.8399 C   0  0  0  0  0  0  0  0  0  0  0  0
   -1.2067   -7.3287   17.7772 C   0  0  0  0  0  0  0  0  0  0  0  0
   -0.0206  -10.5585   16.6210 C   0  0  0  0  0  0  0  0  0  0  0  0
    0.3696  -12.7626   16.2169 O   0  0  0  0  0  0  0  0  0  0  0  0
   -0.6895   -9.5676   17.3297 C   0  0  0  0  0  0  0  0  0  0  0  0
    0.8388   -5.8417   27.5264 C   0  0  0  0  0  0  0  0  0  0  0  0
   -2.0709   -7.6637   18.7817 C   0  0  0  0  0  0  0  0  0  0  0  0
   -0.5279   -8.2168   17.0717 C   0  0  0  0  0  0  0  0  0  0  0  0
    6.9694   -4.0191   27.8190 C   0  0  0  0  0  0  0  0  0  0  0  0
    5.1733   -4.5469   29.8123 C   0  0  0  0  0  0  0  0  0  0  0  0
   -1.7508  -11.3016   18.6072 C   0  0  0  0  0  0  0  0  0  0  0  0
    1.7497   -5.6771   26.4971 C   0  0  0  0  0  0  0  0  0  0  0  0
   -1.5799   -9.9322   18.3468 C   0  0  0  0  0  0  0  0  0  0  0  0
   -1.0871  -12.2214   17.8851 C   0  0  0  0  0  0  0  0  0  0  0  0
   -2.2706   -8.9669   19.0691 C   0  0  0  0  0  0  0  0  0  0  0  0
    3.0279   -5.3073   26.8197 C   0  0  0  0  0  0  0  0  0  0  0  0
    7.3282   -3.8948   29.1186 C   0  0  0  0  0  0  0  0  0  0  0  0
  1  3  4  0
  1  7  4  0
  2  3  1  0
  2  6  4  0
  2 16  4  0
  3 22  4  0
  4  9  4  0
  4 10  1  0
  4 20  4  0
  5 16  4  0
  5 23  4  0
  6 15  4  0
  7 12  4  0
  8 13  4  0
  8 14  4  0
  9 11  4  0
 11 14  4  0
 11 19  4  0
 12 18  4  0
 13 21  4  0
 15 23  4  0
 17 19  4  0
 17 20  4  0
 18 22  4  0
 19 21  4  0
M  END
$$$$

 Created by Python create_sdf_string function

 23 25  0  0  0  0  0  0  0  0999 V2000
    2.4610   -5.3070   29.1240 C   0  0  0  0  0  0  0  0  0  0  0  0
    4.7710   -4.6952   28.4803 C   0  0  0  0  0  0  0  0  0  0  0  0
    3.4047   -5.1087   28.1314 C   0  0  0  0  0  0  0  0  0  0  0  0
   -0.2234  -11.8615   16.8874 C   0  0  0  0  0  0  0  0  0  0  0  0
    6.4491   -4.1532   30.1213 C   0  0  0  0  0  0  0  0  0  0  0  0
    5.7060   -4.4340   27.4975 C   0  0  0  0  0  0  0  0  0  0  0  0
    1.1818   -5.6612   28.8399 C   0  0  0  0  0  0  0  0  0  0  0  0
   -1.2067   -7.3287   17.7772 C   0  0  0  0  0  0  0  0  0  0  0  0
   -0.0206  -10.5585   16.6210 C   0  0  0  0  0  0  0  0  0  0  0  0
    0.3696  -12.7626   16.2169 O   0  0  0  0  0  0  0  0  0  0  0  0
   -0.6895   -9.5676   17.3297 C   0  0  0  0  0  0  0  0  0  0  0  0
    0.8388   -5.8417   27.5264 C   0  0  0  0  0  0  0  0  0  0  0  0
   -2.0709   -7.6637   18.7817 C   0  0  0  0  0  0  0  0  0  0  0  0
   -0.5279   -8.2168   17.0717 C   0  0  0  0  0  0  0  0  0  0  0  0
    6.9694   -4.0191   27.8190 C   0  0  0  0  0  0  0  0  0  0  0  0
    5.1733   -4.5469   29.8123 C   0  0  0  0  0  0  0  0  0  0  0  0
   -1.7508  -11.3016   18.6072 C   0  0  0  0  0  0  0  0  0  0  0  0
    1.7497   -5.6771   26.4971 C   0  0  0  0  0  0  0  0  0  0  0  0
   -1.5799   -9.9322   18.3468 C   0  0  0  0  0  0  0  0  0  0  0  0
   -1.0871  -12.2214   17.8851 C   0  0  0  0  0  0  0  0  0  0  0  0
   -2.2706   -8.9669   19.0691 C   0  0  0  0  0  0  0  0  0  0  0  0
    3.0279   -5.3073   26.8197 C   0  0  0  0  0  0  0  0  0  0  0  0
    7.3282   -3.8948   29.1186 C   0  0  0  0  0  0  0  0  0  0  0  0
  1  3  4  0
  1  7  4  0
  2  3  1  0
  2  6  4  0
  2 16  4  0
  3 22  4  0
  4  9  4  0
  4 10  1  0
  4 20  4  0
  5 16  4  0
  5 23  4  0
  6 15  4  0
  7 12  4  0
  8 13  4  0
  8 14  4  0
  9 11  4  0
 11 14  4  0
 11 19  4  0
 12 18  4  0
 13 21  4  0
 15 23  4  0
 17 19  4  0
 17 20  4  0
 18 22  4  0
 19 21  4  0
M  END
$$$$

 Created by Python create_sdf_string function

 23 25  0  0  0  0  0  0  0  0999 V2000
    2.4610   -5.3070   29.1240 C   0  0  0  0  0  0  0  0  0  0  0  0
    4.7710   -4.6952   28.4803 C   0  0  0  0  0  0  0  0  0  0  0  0
    3.4047   -5.1087   28.1314 C   0  0  0  0  0  0  0  0  0  0  0  0
   -0.2234  -11.8615   16.8874 C   0  0  0  0  0  0  0  0  0  0  0  0
    6.4491   -4.1532   30.1213 C   0  0  0  0  0  0  0  0  0  0  0  0
    5.7060   -4.4340   27.4975 C   0  0  0  0  0  0  0  0  0  0  0  0
    1.1818   -5.6612   28.8399 C   0  0  0  0  0  0  0  0  0  0  0  0
   -1.2067   -7.3287   17.7772 C   0  0  0  0  0  0  0  0  0  0  0  0
   -0.0206  -10.5585   16.6210 C   0  0  0  0  0  0  0  0  0  0  0  0
    0.3696  -12.7626   16.2169 O   0  0  0  0  0  0  0  0  0  0  0  0
   -0.6895   -9.5676   17.3297 C   0  0  0  0  0  0  0  0  0  0  0  0
    0.8388   -5.8417   27.5264 C   0  0  0  0  0  0  0  0  0  0  0  0
   -2.0709   -7.6637   18.7817 C   0  0  0  0  0  0  0  0  0  0  0  0
   -0.5279   -8.2168   17.0717 C   0  0  0  0  0  0  0  0  0  0  0  0
    6.9694   -4.0191   27.8190 C   0  0  0  0  0  0  0  0  0  0  0  0
    5.1733   -4.5469   29.8123 C   0  0  0  0  0  0  0  0  0  0  0  0
   -1.7508  -11.3016   18.6072 C   0  0  0  0  0  0  0  0  0  0  0  0
    1.7497   -5.6771   26.4971 C   0  0  0  0  0  0  0  0  0  0  0  0
   -1.5799   -9.9322   18.3468 C   0  0  0  0  0  0  0  0  0  0  0  0
   -1.0871  -12.2214   17.8851 C   0  0  0  0  0  0  0  0  0  0  0  0
   -2.2706   -8.9669   19.0691 C   0  0  0  0  0  0  0  0  0  0  0  0
    3.0279   -5.3073   26.8197 C   0  0  0  0  0  0  0  0  0  0  0  0
    7.3282   -3.8948   29.1186 C   0  0  0  0  0  0  0  0  0  0  0  0
  1  3  4  0
  1  7  4  0
  2  3  1  0
  2  6  4  0
  2 16  4  0
  3 22  4  0
  4  9  4  0
  4 10  1  0
  4 20  4  0
  5 16  4  0
  5 23  4  0
  6 15  4  0
  7 12  4  0
  8 13  4  0
  8 14  4  0
  9 11  4  0
 11 14  4  0
 11 19  4  0
 12 18  4  0
 13 21  4  0
 15 23  4  0
 17 19  4  0
 17 20  4  0
 18 22  4  0
 19 21  4  0
M  END
$$$$

 Created by Python create_sdf_string function

 23 25  0  0  0  0  0  0  0  0999 V2000
    2.4610   -5.3070   29.1240 C   0  0  0  0  0  0  0  0  0  0  0  0
    4.7710   -4.6952   28.4803 C   0  0  0  0  0  0  0  0  0  0  0  0
    3.4047   -5.1087   28.1314 C   0  0  0  0  0  0  0  0  0  0  0  0
   -0.2234  -11.8615   16.8874 C   0  0  0  0  0  0  0  0  0  0  0  0
    6.4491   -4.1532   30.1213 C   0  0  0  0  0  0  0  0  0  0  0  0
    5.7060   -4.4340   27.4975 C   0  0  0  0  0  0  0  0  0  0  0  0
    1.1818   -5.6612   28.8399 C   0  0  0  0  0  0  0  0  0  0  0  0
   -1.2067   -7.3287   17.7772 C   0  0  0  0  0  0  0  0  0  0  0  0
   -0.0206  -10.5585   16.6210 C   0  0  0  0  0  0  0  0  0  0  0  0
    0.3696  -12.7626   16.2169 O   0  0  0  0  0  0  0  0  0  0  0  0
   -0.6895   -9.5676   17.3297 C   0  0  0  0  0  0  0  0  0  0  0  0
    0.8388   -5.8417   27.5264 C   0  0  0  0  0  0  0  0  0  0  0  0
   -2.0709   -7.6637   18.7817 C   0  0  0  0  0  0  0  0  0  0  0  0
   -0.5279   -8.2168   17.0717 C   0  0  0  0  0  0  0  0  0  0  0  0
    6.9694   -4.0191   27.8190 C   0  0  0  0  0  0  0  0  0  0  0  0
    5.1733   -4.5469   29.8123 C   0  0  0  0  0  0  0  0  0  0  0  0
   -1.7508  -11.3016   18.6072 C   0  0  0  0  0  0  0  0  0  0  0  0
    1.7497   -5.6771   26.4971 C   0  0  0  0  0  0  0  0  0  0  0  0
   -1.5799   -9.9322   18.3468 C   0  0  0  0  0  0  0  0  0  0  0  0
   -1.0871  -12.2214   17.8851 C   0  0  0  0  0  0  0  0  0  0  0  0
   -2.2706   -8.9669   19.0691 C   0  0  0  0  0  0  0  0  0  0  0  0
    3.0279   -5.3073   26.8197 C   0  0  0  0  0  0  0  0  0  0  0  0
    7.3282   -3.8948   29.1186 C   0  0  0  0  0  0  0  0  0  0  0  0
  1  3  4  0
  1  7  4  0
  2  3  1  0
  2  6  4  0
  2 16  4  0
  3 22  4  0
  4  9  4  0
  4 10  1  0
  4 20  4  0
  5 16  4  0
  5 23  4  0
  6 15  4  0
  7 12  4  0
  8 13  4  0
  8 14  4  0
  9 11  4  0
 11 14  4  0
 11 19  4  0
 12 18  4  0
 13 21  4  0
 15 23  4  0
 17 19  4  0
 17 20  4  0
 18 22  4  0
 19 21  4  0
M  END
$$$$

 Created by Python create_sdf_string function

 23 25  0  0  0  0  0  0  0  0999 V2000
    2.4610   -5.3070   29.1240 C   0  0  0  0  0  0  0  0  0  0  0  0
    4.7710   -4.6952   28.4803 C   0  0  0  0  0  0  0  0  0  0  0  0
    3.4047   -5.1087   28.1314 C   0  0  0  0  0  0  0  0  0  0  0  0
   -0.2234  -11.8615   16.8874 C   0  0  0  0  0  0  0  0  0  0  0  0
    6.4491   -4.1532   30.1213 C   0  0  0  0  0  0  0  0  0  0  0  0
    5.7060   -4.4340   27.4975 C   0  0  0  0  0  0  0  0  0  0  0  0
    1.1818   -5.6612   28.8399 C   0  0  0  0  0  0  0  0  0  0  0  0
   -1.2067   -7.3287   17.7772 C   0  0  0  0  0  0  0  0  0  0  0  0
   -0.0206  -10.5585   16.6210 C   0  0  0  0  0  0  0  0  0  0  0  0
    0.3696  -12.7626   16.2169 O   0  0  0  0  0  0  0  0  0  0  0  0
   -0.6895   -9.5676   17.3297 C   0  0  0  0  0  0  0  0  0  0  0  0
    0.8388   -5.8417   27.5264 C   0  0  0  0  0  0  0  0  0  0  0  0
   -2.0709   -7.6637   18.7817 C   0  0  0  0  0  0  0  0  0  0  0  0
   -0.5279   -8.2168   17.0717 C   0  0  0  0  0  0  0  0  0  0  0  0
    6.9694   -4.0191   27.8190 C   0  0  0  0  0  0  0  0  0  0  0  0
    5.1733   -4.5469   29.8123 C   0  0  0  0  0  0  0  0  0  0  0  0
   -1.7508  -11.3016   18.6072 C   0  0  0  0  0  0  0  0  0  0  0  0
    1.7497   -5.6771   26.4971 C   0  0  0  0  0  0  0  0  0  0  0  0
   -1.5799   -9.9322   18.3468 C   0  0  0  0  0  0  0  0  0  0  0  0
   -1.0871  -12.2214   17.8851 C   0  0  0  0  0  0  0  0  0  0  0  0
   -2.2706   -8.9669   19.0691 C   0  0  0  0  0  0  0  0  0  0  0  0
    3.0279   -5.3073   26.8197 C   0  0  0  0  0  0  0  0  0  0  0  0
    7.3282   -3.8948   29.1186 C   0  0  0  0  0  0  0  0  0  0  0  0
  1  3  4  0
  1  7  4  0
  2  3  1  0
  2  6  4  0
  2 16  4  0
  3 22  4  0
  4  9  4  0
  4 10  1  0
  4 20  4  0
  5 16  4  0
  5 23  4  0
  6 15  4  0
  7 12  4  0
  8 13  4  0
  8 14  4  0
  9 11  4  0
 11 14  4  0
 11 19  4  0
 12 18  4  0
 13 21  4  0
 15 23  4  0
 17 19  4  0
 17 20  4  0
 18 22  4  0
 19 21  4  0
M  END
$$$$

 Created by Python create_sdf_string function

 23 25  0  0  0  0  0  0  0  0999 V2000
    2.4610   -5.3070   29.1240 C   0  0  0  0  0  0  0  0  0  0  0  0
    4.7710   -4.6952   28.4803 C   0  0  0  0  0  0  0  0  0  0  0  0
    3.4047   -5.1087   28.1314 C   0  0  0  0  0  0  0  0  0  0  0  0
   -0.2234  -11.8615   16.8874 C   0  0  0  0  0  0  0  0  0  0  0  0
    6.4491   -4.1532   30.1213 C   0  0  0  0  0  0  0  0  0  0  0  0
    5.7060   -4.4340   27.4975 C   0  0  0  0  0  0  0  0  0  0  0  0
    1.1818   -5.6612   28.8399 C   0  0  0  0  0  0  0  0  0  0  0  0
   -1.2067   -7.3287   17.7772 C   0  0  0  0  0  0  0  0  0  0  0  0
   -0.0206  -10.5585   16.6210 C   0  0  0  0  0  0  0  0  0  0  0  0
    0.3696  -12.7626   16.2169 O   0  0  0  0  0  0  0  0  0  0  0  0
   -0.6895   -9.5676   17.3297 C   0  0  0  0  0  0  0  0  0  0  0  0
    0.8388   -5.8417   27.5264 C   0  0  0  0  0  0  0  0  0  0  0  0
   -2.0709   -7.6637   18.7817 C   0  0  0  0  0  0  0  0  0  0  0  0
   -0.5279   -8.2168   17.0717 C   0  0  0  0  0  0  0  0  0  0  0  0
    6.9694   -4.0191   27.8190 C   0  0  0  0  0  0  0  0  0  0  0  0
    5.1733   -4.5469   29.8123 C   0  0  0  0  0  0  0  0  0  0  0  0
   -1.7508  -11.3016   18.6072 C   0  0  0  0  0  0  0  0  0  0  0  0
    1.7497   -5.6771   26.4971 C   0  0  0  0  0  0  0  0  0  0  0  0
   -1.5799   -9.9322   18.3468 C   0  0  0  0  0  0  0  0  0  0  0  0
   -1.0871  -12.2214   17.8851 C   0  0  0  0  0  0  0  0  0  0  0  0
   -2.2706   -8.9669   19.0691 C   0  0  0  0  0  0  0  0  0  0  0  0
    3.0279   -5.3073   26.8197 C   0  0  0  0  0  0  0  0  0  0  0  0
    7.3282   -3.8948   29.1186 C   0  0  0  0  0  0  0  0  0  0  0  0
  1  3  4  0
  1  7  4  0
  2  3  1  0
  2  6  4  0
  2 16  4  0
  3 22  4  0
  4  9  4  0
  4 10  1  0
  4 20  4  0
  5 16  4  0
  5 23  4  0
  6 15  4  0
  7 12  4  0
  8 13  4  0
  8 14  4  0
  9 11  4  0
 11 14  4  0
 11 19  4  0
 12 18  4  0
 13 21  4  0
 15 23  4  0
 17 19  4  0
 17 20  4  0
 18 22  4  0
 19 21  4  0
M  END
$$$$

 Created by Python create_sdf_string function

 23 25  0  0  0  0  0  0  0  0999 V2000
    2.4610   -5.3070   29.1240 C   0  0  0  0  0  0  0  0  0  0  0  0
    4.7710   -4.6952   28.4803 C   0  0  0  0  0  0  0  0  0  0  0  0
    3.4047   -5.1087   28.1314 C   0  0  0  0  0  0  0  0  0  0  0  0
   -0.2234  -11.8615   16.8874 C   0  0  0  0  0  0  0  0  0  0  0  0
    6.4491   -4.1532   30.1213 C   0  0  0  0  0  0  0  0  0  0  0  0
    5.7060   -4.4340   27.4975 C   0  0  0  0  0  0  0  0  0  0  0  0
    1.1818   -5.6612   28.8399 C   0  0  0  0  0  0  0  0  0  0  0  0
   -1.2067   -7.3287   17.7772 C   0  0  0  0  0  0  0  0  0  0  0  0
   -0.0206  -10.5585   16.6210 C   0  0  0  0  0  0  0  0  0  0  0  0
    0.3696  -12.7626   16.2169 O   0  0  0  0  0  0  0  0  0  0  0  0
   -0.6895   -9.5676   17.3297 C   0  0  0  0  0  0  0  0  0  0  0  0
    0.8388   -5.8417   27.5264 C   0  0  0  0  0  0  0  0  0  0  0  0
   -2.0709   -7.6637   18.7817 C   0  0  0  0  0  0  0  0  0  0  0  0
   -0.5279   -8.2168   17.0717 C   0  0  0  0  0  0  0  0  0  0  0  0
    6.9694   -4.0191   27.8190 C   0  0  0  0  0  0  0  0  0  0  0  0
    5.1733   -4.5469   29.8123 C   0  0  0  0  0  0  0  0  0  0  0  0
   -1.7508  -11.3016   18.6072 C   0  0  0  0  0  0  0  0  0  0  0  0
    1.7497   -5.6771   26.4971 C   0  0  0  0  0  0  0  0  0  0  0  0
   -1.5799   -9.9322   18.3468 C   0  0  0  0  0  0  0  0  0  0  0  0
   -1.0871  -12.2214   17.8851 C   0  0  0  0  0  0  0  0  0  0  0  0
   -2.2706   -8.9669   19.0691 C   0  0  0  0  0  0  0  0  0  0  0  0
    3.0279   -5.3073   26.8197 C   0  0  0  0  0  0  0  0  0  0  0  0
    7.3282   -3.8948   29.1186 C   0  0  0  0  0  0  0  0  0  0  0  0
  1  3  4  0
  1  7  4  0
  2  3  1  0
  2  6  4  0
  2 16  4  0
  3 22  4  0
  4  9  4  0
  4 10  1  0
  4 20  4  0
  5 16  4  0
  5 23  4  0
  6 15  4  0
  7 12  4  0
  8 13  4  0
  8 14  4  0
  9 11  4  0
 11 14  4  0
 11 19  4  0
 12 18  4  0
 13 21  4  0
 15 23  4  0
 17 19  4  0
 17 20  4  0
 18 22  4  0
 19 21  4  0
M  END
$$$$

 Created by Python create_sdf_string function

 23 25  0  0  0  0  0  0  0  0999 V2000
    2.4610   -5.3070   29.1240 C   0  0  0  0  0  0  0  0  0  0  0  0
    4.7710   -4.6952   28.4803 C   0  0  0  0  0  0  0  0  0  0  0  0
    3.4047   -5.1087   28.1314 C   0  0  0  0  0  0  0  0  0  0  0  0
   -0.2234  -11.8615   16.8874 C   0  0  0  0  0  0  0  0  0  0  0  0
    6.4491   -4.1532   30.1213 C   0  0  0  0  0  0  0  0  0  0  0  0
    5.7060   -4.4340   27.4975 C   0  0  0  0  0  0  0  0  0  0  0  0
    1.1818   -5.6612   28.8399 C   0  0  0  0  0  0  0  0  0  0  0  0
   -1.2067   -7.3287   17.7772 C   0  0  0  0  0  0  0  0  0  0  0  0
   -0.0206  -10.5585   16.6210 C   0  0  0  0  0  0  0  0  0  0  0  0
    0.3696  -12.7626   16.2169 O   0  0  0  0  0  0  0  0  0  0  0  0
   -0.6895   -9.5676   17.3297 C   0  0  0  0  0  0  0  0  0  0  0  0
    0.8388   -5.8417   27.5264 C   0  0  0  0  0  0  0  0  0  0  0  0
   -2.0709   -7.6637   18.7817 C   0  0  0  0  0  0  0  0  0  0  0  0
   -0.5279   -8.2168   17.0717 C   0  0  0  0  0  0  0  0  0  0  0  0
    6.9694   -4.0191   27.8190 C   0  0  0  0  0  0  0  0  0  0  0  0
    5.1733   -4.5469   29.8123 C   0  0  0  0  0  0  0  0  0  0  0  0
   -1.7508  -11.3016   18.6072 C   0  0  0  0  0  0  0  0  0  0  0  0
    1.7497   -5.6771   26.4971 C   0  0  0  0  0  0  0  0  0  0  0  0
   -1.5799   -9.9322   18.3468 C   0  0  0  0  0  0  0  0  0  0  0  0
   -1.0871  -12.2214   17.8851 C   0  0  0  0  0  0  0  0  0  0  0  0
   -2.2706   -8.9669   19.0691 C   0  0  0  0  0  0  0  0  0  0  0  0
    3.0279   -5.3073   26.8197 C   0  0  0  0  0  0  0  0  0  0  0  0
    7.3282   -3.8948   29.1186 C   0  0  0  0  0  0  0  0  0  0  0  0
  1  3  4  0
  1  7  4  0
  2  3  1  0
  2  6  4  0
  2 16  4  0
  3 22  4  0
  4  9  4  0
  4 10  1  0
  4 20  4  0
  5 16  4  0
  5 23  4  0
  6 15  4  0
  7 12  4  0
  8 13  4  0
  8 14  4  0
  9 11  4  0
 11 14  4  0
 11 19  4  0
 12 18  4  0
 13 21  4  0
 15 23  4  0
 17 19  4  0
 17 20  4  0
 18 22  4  0
 19 21  4  0
M  END
$$$$

 Created by Python create_sdf_string function

 23 25  0  0  0  0  0  0  0  0999 V2000
    2.4610   -5.3070   29.1240 C   0  0  0  0  0  0  0  0  0  0  0  0
    4.7710   -4.6952   28.4803 C   0  0  0  0  0  0  0  0  0  0  0  0
    3.4047   -5.1087   28.1314 C   0  0  0  0  0  0  0  0  0  0  0  0
   -0.2234  -11.8615   16.8874 C   0  0  0  0  0  0  0  0  0  0  0  0
    6.4491   -4.1532   30.1213 C   0  0  0  0  0  0  0  0  0  0  0  0
    5.7060   -4.4340   27.4975 C   0  0  0  0  0  0  0  0  0  0  0  0
    1.1818   -5.6612   28.8399 C   0  0  0  0  0  0  0  0  0  0  0  0
   -1.2067   -7.3287   17.7772 C   0  0  0  0  0  0  0  0  0  0  0  0
   -0.0206  -10.5585   16.6210 C   0  0  0  0  0  0  0  0  0  0  0  0
    0.3696  -12.7626   16.2169 O   0  0  0  0  0  0  0  0  0  0  0  0
   -0.6895   -9.5676   17.3297 C   0  0  0  0  0  0  0  0  0  0  0  0
    0.8388   -5.8417   27.5264 C   0  0  0  0  0  0  0  0  0  0  0  0
   -2.0709   -7.6637   18.7817 C   0  0  0  0  0  0  0  0  0  0  0  0
   -0.5279   -8.2168   17.0717 C   0  0  0  0  0  0  0  0  0  0  0  0
    6.9694   -4.0191   27.8190 C   0  0  0  0  0  0  0  0  0  0  0  0
    5.1733   -4.5469   29.8123 C   0  0  0  0  0  0  0  0  0  0  0  0
   -1.7508  -11.3016   18.6072 C   0  0  0  0  0  0  0  0  0  0  0  0
    1.7497   -5.6771   26.4971 C   0  0  0  0  0  0  0  0  0  0  0  0
   -1.5799   -9.9322   18.3468 C   0  0  0  0  0  0  0  0  0  0  0  0
   -1.0871  -12.2214   17.8851 C   0  0  0  0  0  0  0  0  0  0  0  0
   -2.2706   -8.9669   19.0691 C   0  0  0  0  0  0  0  0  0  0  0  0
    3.0279   -5.3073   26.8197 C   0  0  0  0  0  0  0  0  0  0  0  0
    7.3282   -3.8948   29.1186 C   0  0  0  0  0  0  0  0  0  0  0  0
  1  3  4  0
  1  7  4  0
  2  3  1  0
  2  6  4  0
  2 16  4  0
  3 22  4  0
  4  9  4  0
  4 10  1  0
  4 20  4  0
  5 16  4  0
  5 23  4  0
  6 15  4  0
  7 12  4  0
  8 13  4  0
  8 14  4  0
  9 11  4  0
 11 14  4  0
 11 19  4  0
 12 18  4  0
 13 21  4  0
 15 23  4  0
 17 19  4  0
 17 20  4  0
 18 22  4  0
 19 21  4  0
M  END
$$$$

 Created by Python create_sdf_string function

 23 25  0  0  0  0  0  0  0  0999 V2000
    2.4610   -5.3070   29.1240 C   0  0  0  0  0  0  0  0  0  0  0  0
    4.7710   -4.6952   28.4803 C   0  0  0  0  0  0  0  0  0  0  0  0
    3.4047   -5.1087   28.1314 C   0  0  0  0  0  0  0  0  0  0  0  0
   -0.2234  -11.8615   16.8874 C   0  0  0  0  0  0  0  0  0  0  0  0
    6.4491   -4.1532   30.1213 C   0  0  0  0  0  0  0  0  0  0  0  0
    5.7060   -4.4340   27.4975 C   0  0  0  0  0  0  0  0  0  0  0  0
    1.1818   -5.6612   28.8399 C   0  0  0  0  0  0  0  0  0  0  0  0
   -1.2067   -7.3287   17.7772 C   0  0  0  0  0  0  0  0  0  0  0  0
   -0.0206  -10.5585   16.6210 C   0  0  0  0  0  0  0  0  0  0  0  0
    0.3696  -12.7626   16.2169 O   0  0  0  0  0  0  0  0  0  0  0  0
   -0.6895   -9.5676   17.3297 C   0  0  0  0  0  0  0  0  0  0  0  0
    0.8388   -5.8417   27.5264 C   0  0  0  0  0  0  0  0  0  0  0  0
   -2.0709   -7.6637   18.7817 C   0  0  0  0  0  0  0  0  0  0  0  0
   -0.5279   -8.2168   17.0717 C   0  0  0  0  0  0  0  0  0  0  0  0
    6.9694   -4.0191   27.8190 C   0  0  0  0  0  0  0  0  0  0  0  0
    5.1733   -4.5469   29.8123 C   0  0  0  0  0  0  0  0  0  0  0  0
   -1.7508  -11.3016   18.6072 C   0  0  0  0  0  0  0  0  0  0  0  0
    1.7497   -5.6771   26.4971 C   0  0  0  0  0  0  0  0  0  0  0  0
   -1.5799   -9.9322   18.3468 C   0  0  0  0  0  0  0  0  0  0  0  0
   -1.0871  -12.2214   17.8851 C   0  0  0  0  0  0  0  0  0  0  0  0
   -2.2706   -8.9669   19.0691 C   0  0  0  0  0  0  0  0  0  0  0  0
    3.0279   -5.3073   26.8197 C   0  0  0  0  0  0  0  0  0  0  0  0
    7.3282   -3.8948   29.1186 C   0  0  0  0  0  0  0  0  0  0  0  0
  1  3  4  0
  1  7  4  0
  2  3  1  0
  2  6  4  0
  2 16  4  0
  3 22  4  0
  4  9  4  0
  4 10  1  0
  4 20  4  0
  5 16  4  0
  5 23  4  0
  6 15  4  0
  7 12  4  0
  8 13  4  0
  8 14  4  0
  9 11  4  0
 11 14  4  0
 11 19  4  0
 12 18  4  0
 13 21  4  0
 15 23  4  0
 17 19  4  0
 17 20  4  0
 18 22  4  0
 19 21  4  0
M  END
$$$$

 Created by Python create_sdf_string function

 23 25  0  0  0  0  0  0  0  0999 V2000
    2.4610   -5.3070   29.1240 C   0  0  0  0  0  0  0  0  0  0  0  0
    4.7710   -4.6952   28.4803 C   0  0  0  0  0  0  0  0  0  0  0  0
    3.4047   -5.1087   28.1314 C   0  0  0  0  0  0  0  0  0  0  0  0
   -0.2234  -11.8615   16.8874 C   0  0  0  0  0  0  0  0  0  0  0  0
    6.4491   -4.1532   30.1213 C   0  0  0  0  0  0  0  0  0  0  0  0
    5.7060   -4.4340   27.4975 C   0  0  0  0  0  0  0  0  0  0  0  0
    1.1818   -5.6612   28.8399 C   0  0  0  0  0  0  0  0  0  0  0  0
   -1.2067   -7.3287   17.7772 C   0  0  0  0  0  0  0  0  0  0  0  0
   -0.0206  -10.5585   16.6210 C   0  0  0  0  0  0  0  0  0  0  0  0
    0.3696  -12.7626   16.2169 O   0  0  0  0  0  0  0  0  0  0  0  0
   -0.6895   -9.5676   17.3297 C   0  0  0  0  0  0  0  0  0  0  0  0
    0.8388   -5.8417   27.5264 C   0  0  0  0  0  0  0  0  0  0  0  0
   -2.0709   -7.6637   18.7817 C   0  0  0  0  0  0  0  0  0  0  0  0
   -0.5279   -8.2168   17.0717 C   0  0  0  0  0  0  0  0  0  0  0  0
    6.9694   -4.0191   27.8190 C   0  0  0  0  0  0  0  0  0  0  0  0
    5.1733   -4.5469   29.8123 C   0  0  0  0  0  0  0  0  0  0  0  0
   -1.7508  -11.3016   18.6072 C   0  0  0  0  0  0  0  0  0  0  0  0
    1.7497   -5.6771   26.4971 C   0  0  0  0  0  0  0  0  0  0  0  0
   -1.5799   -9.9322   18.3468 C   0  0  0  0  0  0  0  0  0  0  0  0
   -1.0871  -12.2214   17.8851 C   0  0  0  0  0  0  0  0  0  0  0  0
   -2.2706   -8.9669   19.0691 C   0  0  0  0  0  0  0  0  0  0  0  0
    3.0279   -5.3073   26.8197 C   0  0  0  0  0  0  0  0  0  0  0  0
    7.3282   -3.8948   29.1186 C   0  0  0  0  0  0  0  0  0  0  0  0
  1  3  4  0
  1  7  4  0
  2  3  1  0
  2  6  4  0
  2 16  4  0
  3 22  4  0
  4  9  4  0
  4 10  1  0
  4 20  4  0
  5 16  4  0
  5 23  4  0
  6 15  4  0
  7 12  4  0
  8 13  4  0
  8 14  4  0
  9 11  4  0
 11 14  4  0
 11 19  4  0
 12 18  4  0
 13 21  4  0
 15 23  4  0
 17 19  4  0
 17 20  4  0
 18 22  4  0
 19 21  4  0
M  END
$$$$

 Created by Python create_sdf_string function

 23 25  0  0  0  0  0  0  0  0999 V2000
    2.4610   -5.3070   29.1240 C   0  0  0  0  0  0  0  0  0  0  0  0
    4.7710   -4.6952   28.4803 C   0  0  0  0  0  0  0  0  0  0  0  0
    3.4047   -5.1087   28.1314 C   0  0  0  0  0  0  0  0  0  0  0  0
   -0.2234  -11.8615   16.8874 C   0  0  0  0  0  0  0  0  0  0  0  0
    6.4491   -4.1532   30.1213 C   0  0  0  0  0  0  0  0  0  0  0  0
    5.7060   -4.4340   27.4975 C   0  0  0  0  0  0  0  0  0  0  0  0
    1.1818   -5.6612   28.8399 C   0  0  0  0  0  0  0  0  0  0  0  0
   -1.2067   -7.3287   17.7772 C   0  0  0  0  0  0  0  0  0  0  0  0
   -0.0206  -10.5585   16.6210 C   0  0  0  0  0  0  0  0  0  0  0  0
    0.3696  -12.7626   16.2169 O   0  0  0  0  0  0  0  0  0  0  0  0
   -0.6895   -9.5676   17.3297 C   0  0  0  0  0  0  0  0  0  0  0  0
    0.8388   -5.8417   27.5264 C   0  0  0  0  0  0  0  0  0  0  0  0
   -2.0709   -7.6637   18.7817 C   0  0  0  0  0  0  0  0  0  0  0  0
   -0.5279   -8.2168   17.0717 C   0  0  0  0  0  0  0  0  0  0  0  0
    6.9694   -4.0191   27.8190 C   0  0  0  0  0  0  0  0  0  0  0  0
    5.1733   -4.5469   29.8123 C   0  0  0  0  0  0  0  0  0  0  0  0
   -1.7508  -11.3016   18.6072 C   0  0  0  0  0  0  0  0  0  0  0  0
    1.7497   -5.6771   26.4971 C   0  0  0  0  0  0  0  0  0  0  0  0
   -1.5799   -9.9322   18.3468 C   0  0  0  0  0  0  0  0  0  0  0  0
   -1.0871  -12.2214   17.8851 C   0  0  0  0  0  0  0  0  0  0  0  0
   -2.2706   -8.9669   19.0691 C   0  0  0  0  0  0  0  0  0  0  0  0
    3.0279   -5.3073   26.8197 C   0  0  0  0  0  0  0  0  0  0  0  0
    7.3282   -3.8948   29.1186 C   0  0  0  0  0  0  0  0  0  0  0  0
  1  3  4  0
  1  7  4  0
  2  3  1  0
  2  6  4  0
  2 16  4  0
  3 22  4  0
  4  9  4  0
  4 10  1  0
  4 20  4  0
  5 16  4  0
  5 23  4  0
  6 15  4  0
  7 12  4  0
  8 13  4  0
  8 14  4  0
  9 11  4  0
 11 14  4  0
 11 19  4  0
 12 18  4  0
 13 21  4  0
 15 23  4  0
 17 19  4  0
 17 20  4  0
 18 22  4  0
 19 21  4  0
M  END
$$$$

 Created by Python create_sdf_string function

 23 25  0  0  0  0  0  0  0  0999 V2000
    2.4610   -5.3070   29.1240 C   0  0  0  0  0  0  0  0  0  0  0  0
    4.7710   -4.6952   28.4803 C   0  0  0  0  0  0  0  0  0  0  0  0
    3.4047   -5.1087   28.1314 C   0  0  0  0  0  0  0  0  0  0  0  0
   -0.2234  -11.8615   16.8874 C   0  0  0  0  0  0  0  0  0  0  0  0
    6.4491   -4.1532   30.1213 C   0  0  0  0  0  0  0  0  0  0  0  0
    5.7060   -4.4340   27.4975 C   0  0  0  0  0  0  0  0  0  0  0  0
    1.1818   -5.6612   28.8399 C   0  0  0  0  0  0  0  0  0  0  0  0
   -1.2067   -7.3287   17.7772 C   0  0  0  0  0  0  0  0  0  0  0  0
   -0.0206  -10.5585   16.6210 C   0  0  0  0  0  0  0  0  0  0  0  0
    0.3696  -12.7626   16.2169 O   0  0  0  0  0  0  0  0  0  0  0  0
   -0.6895   -9.5676   17.3297 C   0  0  0  0  0  0  0  0  0  0  0  0
    0.8388   -5.8417   27.5264 C   0  0  0  0  0  0  0  0  0  0  0  0
   -2.0709   -7.6637   18.7817 C   0  0  0  0  0  0  0  0  0  0  0  0
   -0.5279   -8.2168   17.0717 C   0  0  0  0  0  0  0  0  0  0  0  0
    6.9694   -4.0191   27.8190 C   0  0  0  0  0  0  0  0  0  0  0  0
    5.1733   -4.5469   29.8123 C   0  0  0  0  0  0  0  0  0  0  0  0
   -1.7508  -11.3016   18.6072 C   0  0  0  0  0  0  0  0  0  0  0  0
    1.7497   -5.6771   26.4971 C   0  0  0  0  0  0  0  0  0  0  0  0
   -1.5799   -9.9322   18.3468 C   0  0  0  0  0  0  0  0  0  0  0  0
   -1.0871  -12.2214   17.8851 C   0  0  0  0  0  0  0  0  0  0  0  0
   -2.2706   -8.9669   19.0691 C   0  0  0  0  0  0  0  0  0  0  0  0
    3.0279   -5.3073   26.8197 C   0  0  0  0  0  0  0  0  0  0  0  0
    7.3282   -3.8948   29.1186 C   0  0  0  0  0  0  0  0  0  0  0  0
  1  3  4  0
  1  7  4  0
  2  3  1  0
  2  6  4  0
  2 16  4  0
  3 22  4  0
  4  9  4  0
  4 10  1  0
  4 20  4  0
  5 16  4  0
  5 23  4  0
  6 15  4  0
  7 12  4  0
  8 13  4  0
  8 14  4  0
  9 11  4  0
 11 14  4  0
 11 19  4  0
 12 18  4  0
 13 21  4  0
 15 23  4  0
 17 19  4  0
 17 20  4  0
 18 22  4  0
 19 21  4  0
M  END
$$$$

 Created by Python create_sdf_string function

 23 25  0  0  0  0  0  0  0  0999 V2000
    2.4610   -5.3070   29.1240 C   0  0  0  0  0  0  0  0  0  0  0  0
    4.7710   -4.6952   28.4803 C   0  0  0  0  0  0  0  0  0  0  0  0
    3.4047   -5.1087   28.1314 C   0  0  0  0  0  0  0  0  0  0  0  0
   -0.2234  -11.8615   16.8874 C   0  0  0  0  0  0  0  0  0  0  0  0
    6.4491   -4.1532   30.1213 C   0  0  0  0  0  0  0  0  0  0  0  0
    5.7060   -4.4340   27.4975 C   0  0  0  0  0  0  0  0  0  0  0  0
    1.1818   -5.6612   28.8399 C   0  0  0  0  0  0  0  0  0  0  0  0
   -1.2067   -7.3287   17.7772 C   0  0  0  0  0  0  0  0  0  0  0  0
   -0.0206  -10.5585   16.6210 C   0  0  0  0  0  0  0  0  0  0  0  0
    0.3696  -12.7626   16.2169 O   0  0  0  0  0  0  0  0  0  0  0  0
   -0.6895   -9.5676   17.3297 C   0  0  0  0  0  0  0  0  0  0  0  0
    0.8388   -5.8417   27.5264 C   0  0  0  0  0  0  0  0  0  0  0  0
   -2.0709   -7.6637   18.7817 C   0  0  0  0  0  0  0  0  0  0  0  0
   -0.5279   -8.2168   17.0717 C   0  0  0  0  0  0  0  0  0  0  0  0
    6.9694   -4.0191   27.8190 C   0  0  0  0  0  0  0  0  0  0  0  0
    5.1733   -4.5469   29.8123 C   0  0  0  0  0  0  0  0  0  0  0  0
   -1.7508  -11.3016   18.6072 C   0  0  0  0  0  0  0  0  0  0  0  0
    1.7497   -5.6771   26.4971 C   0  0  0  0  0  0  0  0  0  0  0  0
   -1.5799   -9.9322   18.3468 C   0  0  0  0  0  0  0  0  0  0  0  0
   -1.0871  -12.2214   17.8851 C   0  0  0  0  0  0  0  0  0  0  0  0
   -2.2706   -8.9669   19.0691 C   0  0  0  0  0  0  0  0  0  0  0  0
    3.0279   -5.3073   26.8197 C   0  0  0  0  0  0  0  0  0  0  0  0
    7.3282   -3.8948   29.1186 C   0  0  0  0  0  0  0  0  0  0  0  0
  1  3  4  0
  1  7  4  0
  2  3  1  0
  2  6  4  0
  2 16  4  0
  3 22  4  0
  4  9  4  0
  4 10  1  0
  4 20  4  0
  5 16  4  0
  5 23  4  0
  6 15  4  0
  7 12  4  0
  8 13  4  0
  8 14  4  0
  9 11  4  0
 11 14  4  0
 11 19  4  0
 12 18  4  0
 13 21  4  0
 15 23  4  0
 17 19  4  0
 17 20  4  0
 18 22  4  0
 19 21  4  0
M  END
$$$$

 Created by Python create_sdf_string function

 23 25  0  0  0  0  0  0  0  0999 V2000
    2.4610   -5.3070   29.1240 C   0  0  0  0  0  0  0  0  0  0  0  0
    4.7710   -4.6952   28.4803 C   0  0  0  0  0  0  0  0  0  0  0  0
    3.4047   -5.1087   28.1314 C   0  0  0  0  0  0  0  0  0  0  0  0
   -0.2234  -11.8615   16.8874 C   0  0  0  0  0  0  0  0  0  0  0  0
    6.4491   -4.1532   30.1213 C   0  0  0  0  0  0  0  0  0  0  0  0
    5.7060   -4.4340   27.4975 C   0  0  0  0  0  0  0  0  0  0  0  0
    1.1818   -5.6612   28.8399 C   0  0  0  0  0  0  0  0  0  0  0  0
   -1.2067   -7.3287   17.7772 C   0  0  0  0  0  0  0  0  0  0  0  0
   -0.0206  -10.5585   16.6210 C   0  0  0  0  0  0  0  0  0  0  0  0
    0.3696  -12.7626   16.2169 O   0  0  0  0  0  0  0  0  0  0  0  0
   -0.6895   -9.5676   17.3297 C   0  0  0  0  0  0  0  0  0  0  0  0
    0.8388   -5.8417   27.5264 C   0  0  0  0  0  0  0  0  0  0  0  0
   -2.0709   -7.6637   18.7817 C   0  0  0  0  0  0  0  0  0  0  0  0
   -0.5279   -8.2168   17.0717 C   0  0  0  0  0  0  0  0  0  0  0  0
    6.9694   -4.0191   27.8190 C   0  0  0  0  0  0  0  0  0  0  0  0
    5.1733   -4.5469   29.8123 C   0  0  0  0  0  0  0  0  0  0  0  0
   -1.7508  -11.3016   18.6072 C   0  0  0  0  0  0  0  0  0  0  0  0
    1.7497   -5.6771   26.4971 C   0  0  0  0  0  0  0  0  0  0  0  0
   -1.5799   -9.9322   18.3468 C   0  0  0  0  0  0  0  0  0  0  0  0
   -1.0871  -12.2214   17.8851 C   0  0  0  0  0  0  0  0  0  0  0  0
   -2.2706   -8.9669   19.0691 C   0  0  0  0  0  0  0  0  0  0  0  0
    3.0279   -5.3073   26.8197 C   0  0  0  0  0  0  0  0  0  0  0  0
    7.3282   -3.8948   29.1186 C   0  0  0  0  0  0  0  0  0  0  0  0
  1  3  4  0
  1  7  4  0
  2  3  1  0
  2  6  4  0
  2 16  4  0
  3 22  4  0
  4  9  4  0
  4 10  1  0
  4 20  4  0
  5 16  4  0
  5 23  4  0
  6 15  4  0
  7 12  4  0
  8 13  4  0
  8 14  4  0
  9 11  4  0
 11 14  4  0
 11 19  4  0
 12 18  4  0
 13 21  4  0
 15 23  4  0
 17 19  4  0
 17 20  4  0
 18 22  4  0
 19 21  4  0
M  END
$$$$

 Created by Python create_sdf_string function

 23 25  0  0  0  0  0  0  0  0999 V2000
    2.4610   -5.3070   29.1240 C   0  0  0  0  0  0  0  0  0  0  0  0
    4.7710   -4.6952   28.4803 C   0  0  0  0  0  0  0  0  0  0  0  0
    3.4047   -5.1087   28.1314 C   0  0  0  0  0  0  0  0  0  0  0  0
   -0.2234  -11.8615   16.8874 C   0  0  0  0  0  0  0  0  0  0  0  0
    6.4491   -4.1532   30.1213 C   0  0  0  0  0  0  0  0  0  0  0  0
    5.7060   -4.4340   27.4975 C   0  0  0  0  0  0  0  0  0  0  0  0
    1.1818   -5.6612   28.8399 C   0  0  0  0  0  0  0  0  0  0  0  0
   -1.2067   -7.3287   17.7772 C   0  0  0  0  0  0  0  0  0  0  0  0
   -0.0206  -10.5585   16.6210 C   0  0  0  0  0  0  0  0  0  0  0  0
    0.3696  -12.7626   16.2169 O   0  0  0  0  0  0  0  0  0  0  0  0
   -0.6895   -9.5676   17.3297 C   0  0  0  0  0  0  0  0  0  0  0  0
    0.8388   -5.8417   27.5264 C   0  0  0  0  0  0  0  0  0  0  0  0
   -2.0709   -7.6637   18.7817 C   0  0  0  0  0  0  0  0  0  0  0  0
   -0.5279   -8.2168   17.0717 C   0  0  0  0  0  0  0  0  0  0  0  0
    6.9694   -4.0191   27.8190 C   0  0  0  0  0  0  0  0  0  0  0  0
    5.1733   -4.5469   29.8123 C   0  0  0  0  0  0  0  0  0  0  0  0
   -1.7508  -11.3016   18.6072 C   0  0  0  0  0  0  0  0  0  0  0  0
    1.7497   -5.6771   26.4971 C   0  0  0  0  0  0  0  0  0  0  0  0
   -1.5799   -9.9322   18.3468 C   0  0  0  0  0  0  0  0  0  0  0  0
   -1.0871  -12.2214   17.8851 C   0  0  0  0  0  0  0  0  0  0  0  0
   -2.2706   -8.9669   19.0691 C   0  0  0  0  0  0  0  0  0  0  0  0
    3.0279   -5.3073   26.8197 C   0  0  0  0  0  0  0  0  0  0  0  0
    7.3282   -3.8948   29.1186 C   0  0  0  0  0  0  0  0  0  0  0  0
  1  3  4  0
  1  7  4  0
  2  3  1  0
  2  6  4  0
  2 16  4  0
  3 22  4  0
  4  9  4  0
  4 10  1  0
  4 20  4  0
  5 16  4  0
  5 23  4  0
  6 15  4  0
  7 12  4  0
  8 13  4  0
  8 14  4  0
  9 11  4  0
 11 14  4  0
 11 19  4  0
 12 18  4  0
 13 21  4  0
 15 23  4  0
 17 19  4  0
 17 20  4  0
 18 22  4  0
 19 21  4  0
M  END
$$$$

 Created by Python create_sdf_string function

 23 25  0  0  0  0  0  0  0  0999 V2000
    2.4610   -5.3070   29.1240 C   0  0  0  0  0  0  0  0  0  0  0  0
    4.7710   -4.6952   28.4803 C   0  0  0  0  0  0  0  0  0  0  0  0
    3.4047   -5.1087   28.1314 C   0  0  0  0  0  0  0  0  0  0  0  0
   -0.2234  -11.8615   16.8874 C   0  0  0  0  0  0  0  0  0  0  0  0
    6.4491   -4.1532   30.1213 C   0  0  0  0  0  0  0  0  0  0  0  0
    5.7060   -4.4340   27.4975 C   0  0  0  0  0  0  0  0  0  0  0  0
    1.1818   -5.6612   28.8399 C   0  0  0  0  0  0  0  0  0  0  0  0
   -1.2067   -7.3287   17.7772 C   0  0  0  0  0  0  0  0  0  0  0  0
   -0.0206  -10.5585   16.6210 C   0  0  0  0  0  0  0  0  0  0  0  0
    0.3696  -12.7626   16.2169 O   0  0  0  0  0  0  0  0  0  0  0  0
   -0.6895   -9.5676   17.3297 C   0  0  0  0  0  0  0  0  0  0  0  0
    0.8388   -5.8417   27.5264 C   0  0  0  0  0  0  0  0  0  0  0  0
   -2.0709   -7.6637   18.7817 C   0  0  0  0  0  0  0  0  0  0  0  0
   -0.5279   -8.2168   17.0717 C   0  0  0  0  0  0  0  0  0  0  0  0
    6.9694   -4.0191   27.8190 C   0  0  0  0  0  0  0  0  0  0  0  0
    5.1733   -4.5469   29.8123 C   0  0  0  0  0  0  0  0  0  0  0  0
   -1.7508  -11.3016   18.6072 C   0  0  0  0  0  0  0  0  0  0  0  0
    1.7497   -5.6771   26.4971 C   0  0  0  0  0  0  0  0  0  0  0  0
   -1.5799   -9.9322   18.3468 C   0  0  0  0  0  0  0  0  0  0  0  0
   -1.0871  -12.2214   17.8851 C   0  0  0  0  0  0  0  0  0  0  0  0
   -2.2706   -8.9669   19.0691 C   0  0  0  0  0  0  0  0  0  0  0  0
    3.0279   -5.3073   26.8197 C   0  0  0  0  0  0  0  0  0  0  0  0
    7.3282   -3.8948   29.1186 C   0  0  0  0  0  0  0  0  0  0  0  0
  1  3  4  0
  1  7  4  0
  2  3  1  0
  2  6  4  0
  2 16  4  0
  3 22  4  0
  4  9  4  0
  4 10  1  0
  4 20  4  0
  5 16  4  0
  5 23  4  0
  6 15  4  0
  7 12  4  0
  8 13  4  0
  8 14  4  0
  9 11  4  0
 11 14  4  0
 11 19  4  0
 12 18  4  0
 13 21  4  0
 15 23  4  0
 17 19  4  0
 17 20  4  0
 18 22  4  0
 19 21  4  0
M  END
$$$$

 Created by Python create_sdf_string function

 23 25  0  0  0  0  0  0  0  0999 V2000
    2.4610   -5.3070   29.1240 C   0  0  0  0  0  0  0  0  0  0  0  0
    4.7710   -4.6952   28.4803 C   0  0  0  0  0  0  0  0  0  0  0  0
    3.4047   -5.1087   28.1314 C   0  0  0  0  0  0  0  0  0  0  0  0
   -0.2234  -11.8615   16.8874 C   0  0  0  0  0  0  0  0  0  0  0  0
    6.4491   -4.1532   30.1213 C   0  0  0  0  0  0  0  0  0  0  0  0
    5.7060   -4.4340   27.4975 C   0  0  0  0  0  0  0  0  0  0  0  0
    1.1818   -5.6612   28.8399 C   0  0  0  0  0  0  0  0  0  0  0  0
   -1.2067   -7.3287   17.7772 C   0  0  0  0  0  0  0  0  0  0  0  0
   -0.0206  -10.5585   16.6210 C   0  0  0  0  0  0  0  0  0  0  0  0
    0.3696  -12.7626   16.2169 O   0  0  0  0  0  0  0  0  0  0  0  0
   -0.6895   -9.5676   17.3297 C   0  0  0  0  0  0  0  0  0  0  0  0
    0.8388   -5.8417   27.5264 C   0  0  0  0  0  0  0  0  0  0  0  0
   -2.0709   -7.6637   18.7817 C   0  0  0  0  0  0  0  0  0  0  0  0
   -0.5279   -8.2168   17.0717 C   0  0  0  0  0  0  0  0  0  0  0  0
    6.9694   -4.0191   27.8190 C   0  0  0  0  0  0  0  0  0  0  0  0
    5.1733   -4.5469   29.8123 C   0  0  0  0  0  0  0  0  0  0  0  0
   -1.7508  -11.3016   18.6072 C   0  0  0  0  0  0  0  0  0  0  0  0
    1.7497   -5.6771   26.4971 C   0  0  0  0  0  0  0  0  0  0  0  0
   -1.5799   -9.9322   18.3468 C   0  0  0  0  0  0  0  0  0  0  0  0
   -1.0871  -12.2214   17.8851 C   0  0  0  0  0  0  0  0  0  0  0  0
   -2.2706   -8.9669   19.0691 C   0  0  0  0  0  0  0  0  0  0  0  0
    3.0279   -5.3073   26.8197 C   0  0  0  0  0  0  0  0  0  0  0  0
    7.3282   -3.8948   29.1186 C   0  0  0  0  0  0  0  0  0  0  0  0
  1  3  4  0
  1  7  4  0
  2  3  1  0
  2  6  4  0
  2 16  4  0
  3 22  4  0
  4  9  4  0
  4 10  1  0
  4 20  4  0
  5 16  4  0
  5 23  4  0
  6 15  4  0
  7 12  4  0
  8 13  4  0
  8 14  4  0
  9 11  4  0
 11 14  4  0
 11 19  4  0
 12 18  4  0
 13 21  4  0
 15 23  4  0
 17 19  4  0
 17 20  4  0
 18 22  4  0
 19 21  4  0
M  END
$$$$

 Created by Python create_sdf_string function

 23 25  0  0  0  0  0  0  0  0999 V2000
    2.4610   -5.3070   29.1240 C   0  0  0  0  0  0  0  0  0  0  0  0
    4.7710   -4.6952   28.4803 C   0  0  0  0  0  0  0  0  0  0  0  0
    3.4047   -5.1087   28.1314 C   0  0  0  0  0  0  0  0  0  0  0  0
   -0.2234  -11.8615   16.8874 C   0  0  0  0  0  0  0  0  0  0  0  0
    6.4491   -4.1532   30.1213 C   0  0  0  0  0  0  0  0  0  0  0  0
    5.7060   -4.4340   27.4975 C   0  0  0  0  0  0  0  0  0  0  0  0
    1.1818   -5.6612   28.8399 C   0  0  0  0  0  0  0  0  0  0  0  0
   -1.2067   -7.3287   17.7772 C   0  0  0  0  0  0  0  0  0  0  0  0
   -0.0206  -10.5585   16.6210 C   0  0  0  0  0  0  0  0  0  0  0  0
    0.3696  -12.7626   16.2169 O   0  0  0  0  0  0  0  0  0  0  0  0
   -0.6895   -9.5676   17.3297 C   0  0  0  0  0  0  0  0  0  0  0  0
    0.8388   -5.8417   27.5264 C   0  0  0  0  0  0  0  0  0  0  0  0
   -2.0709   -7.6637   18.7817 C   0  0  0  0  0  0  0  0  0  0  0  0
   -0.5279   -8.2168   17.0717 C   0  0  0  0  0  0  0  0  0  0  0  0
    6.9694   -4.0191   27.8190 C   0  0  0  0  0  0  0  0  0  0  0  0
    5.1733   -4.5469   29.8123 C   0  0  0  0  0  0  0  0  0  0  0  0
   -1.7508  -11.3016   18.6072 C   0  0  0  0  0  0  0  0  0  0  0  0
    1.7497   -5.6771   26.4971 C   0  0  0  0  0  0  0  0  0  0  0  0
   -1.5799   -9.9322   18.3468 C   0  0  0  0  0  0  0  0  0  0  0  0
   -1.0871  -12.2214   17.8851 C   0  0  0  0  0  0  0  0  0  0  0  0
   -2.2706   -8.9669   19.0691 C   0  0  0  0  0  0  0  0  0  0  0  0
    3.0279   -5.3073   26.8197 C   0  0  0  0  0  0  0  0  0  0  0  0
    7.3282   -3.8948   29.1186 C   0  0  0  0  0  0  0  0  0  0  0  0
  1  3  4  0
  1  7  4  0
  2  3  1  0
  2  6  4  0
  2 16  4  0
  3 22  4  0
  4  9  4  0
  4 10  1  0
  4 20  4  0
  5 16  4  0
  5 23  4  0
  6 15  4  0
  7 12  4  0
  8 13  4  0
  8 14  4  0
  9 11  4  0
 11 14  4  0
 11 19  4  0
 12 18  4  0
 13 21  4  0
 15 23  4  0
 17 19  4  0
 17 20  4  0
 18 22  4  0
 19 21  4  0
M  END
$$$$

 Created by Python create_sdf_string function

 23 25  0  0  0  0  0  0  0  0999 V2000
    2.4610   -5.3070   29.1240 C   0  0  0  0  0  0  0  0  0  0  0  0
    4.7710   -4.6952   28.4803 C   0  0  0  0  0  0  0  0  0  0  0  0
    3.4047   -5.1087   28.1314 C   0  0  0  0  0  0  0  0  0  0  0  0
   -0.2234  -11.8615   16.8874 C   0  0  0  0  0  0  0  0  0  0  0  0
    6.4491   -4.1532   30.1213 C   0  0  0  0  0  0  0  0  0  0  0  0
    5.7060   -4.4340   27.4975 C   0  0  0  0  0  0  0  0  0  0  0  0
    1.1818   -5.6612   28.8399 C   0  0  0  0  0  0  0  0  0  0  0  0
   -1.2067   -7.3287   17.7772 C   0  0  0  0  0  0  0  0  0  0  0  0
   -0.0206  -10.5585   16.6210 C   0  0  0  0  0  0  0  0  0  0  0  0
    0.3696  -12.7626   16.2169 O   0  0  0  0  0  0  0  0  0  0  0  0
   -0.6895   -9.5676   17.3297 C   0  0  0  0  0  0  0  0  0  0  0  0
    0.8388   -5.8417   27.5264 C   0  0  0  0  0  0  0  0  0  0  0  0
   -2.0709   -7.6637   18.7817 C   0  0  0  0  0  0  0  0  0  0  0  0
   -0.5279   -8.2168   17.0717 C   0  0  0  0  0  0  0  0  0  0  0  0
    6.9694   -4.0191   27.8190 C   0  0  0  0  0  0  0  0  0  0  0  0
    5.1733   -4.5469   29.8123 C   0  0  0  0  0  0  0  0  0  0  0  0
   -1.7508  -11.3016   18.6072 C   0  0  0  0  0  0  0  0  0  0  0  0
    1.7497   -5.6771   26.4971 C   0  0  0  0  0  0  0  0  0  0  0  0
   -1.5799   -9.9322   18.3468 C   0  0  0  0  0  0  0  0  0  0  0  0
   -1.0871  -12.2214   17.8851 C   0  0  0  0  0  0  0  0  0  0  0  0
   -2.2706   -8.9669   19.0691 C   0  0  0  0  0  0  0  0  0  0  0  0
    3.0279   -5.3073   26.8197 C   0  0  0  0  0  0  0  0  0  0  0  0
    7.3282   -3.8948   29.1186 C   0  0  0  0  0  0  0  0  0  0  0  0
  1  3  4  0
  1  7  4  0
  2  3  1  0
  2  6  4  0
  2 16  4  0
  3 22  4  0
  4  9  4  0
  4 10  1  0
  4 20  4  0
  5 16  4  0
  5 23  4  0
  6 15  4  0
  7 12  4  0
  8 13  4  0
  8 14  4  0
  9 11  4  0
 11 14  4  0
 11 19  4  0
 12 18  4  0
 13 21  4  0
 15 23  4  0
 17 19  4  0
 17 20  4  0
 18 22  4  0
 19 21  4  0
M  END
$$$$

 Created by Python create_sdf_string function

 23 25  0  0  0  0  0  0  0  0999 V2000
    2.4610   -5.3070   29.1240 C   0  0  0  0  0  0  0  0  0  0  0  0
    4.7710   -4.6952   28.4803 C   0  0  0  0  0  0  0  0  0  0  0  0
    3.4047   -5.1087   28.1314 C   0  0  0  0  0  0  0  0  0  0  0  0
   -0.2234  -11.8615   16.8874 C   0  0  0  0  0  0  0  0  0  0  0  0
    6.4491   -4.1532   30.1213 C   0  0  0  0  0  0  0  0  0  0  0  0
    5.7060   -4.4340   27.4975 C   0  0  0  0  0  0  0  0  0  0  0  0
    1.1818   -5.6612   28.8399 C   0  0  0  0  0  0  0  0  0  0  0  0
   -1.2067   -7.3287   17.7772 C   0  0  0  0  0  0  0  0  0  0  0  0
   -0.0206  -10.5585   16.6210 C   0  0  0  0  0  0  0  0  0  0  0  0
    0.3696  -12.7626   16.2169 O   0  0  0  0  0  0  0  0  0  0  0  0
   -0.6895   -9.5676   17.3297 C   0  0  0  0  0  0  0  0  0  0  0  0
    0.8388   -5.8417   27.5264 C   0  0  0  0  0  0  0  0  0  0  0  0
   -2.0709   -7.6637   18.7817 C   0  0  0  0  0  0  0  0  0  0  0  0
   -0.5279   -8.2168   17.0717 C   0  0  0  0  0  0  0  0  0  0  0  0
    6.9694   -4.0191   27.8190 C   0  0  0  0  0  0  0  0  0  0  0  0
    5.1733   -4.5469   29.8123 C   0  0  0  0  0  0  0  0  0  0  0  0
   -1.7508  -11.3016   18.6072 C   0  0  0  0  0  0  0  0  0  0  0  0
    1.7497   -5.6771   26.4971 C   0  0  0  0  0  0  0  0  0  0  0  0
   -1.5799   -9.9322   18.3468 C   0  0  0  0  0  0  0  0  0  0  0  0
   -1.0871  -12.2214   17.8851 C   0  0  0  0  0  0  0  0  0  0  0  0
   -2.2706   -8.9669   19.0691 C   0  0  0  0  0  0  0  0  0  0  0  0
    3.0279   -5.3073   26.8197 C   0  0  0  0  0  0  0  0  0  0  0  0
    7.3282   -3.8948   29.1186 C   0  0  0  0  0  0  0  0  0  0  0  0
  1  3  4  0
  1  7  4  0
  2  3  1  0
  2  6  4  0
  2 16  4  0
  3 22  4  0
  4  9  4  0
  4 10  1  0
  4 20  4  0
  5 16  4  0
  5 23  4  0
  6 15  4  0
  7 12  4  0
  8 13  4  0
  8 14  4  0
  9 11  4  0
 11 14  4  0
 11 19  4  0
 12 18  4  0
 13 21  4  0
 15 23  4  0
 17 19  4  0
 17 20  4  0
 18 22  4  0
 19 21  4  0
M  END
$$$$

 Created by Python create_sdf_string function

 23 25  0  0  0  0  0  0  0  0999 V2000
    2.4610   -5.3070   29.1240 C   0  0  0  0  0  0  0  0  0  0  0  0
    4.7710   -4.6952   28.4803 C   0  0  0  0  0  0  0  0  0  0  0  0
    3.4047   -5.1087   28.1314 C   0  0  0  0  0  0  0  0  0  0  0  0
   -0.2234  -11.8615   16.8874 C   0  0  0  0  0  0  0  0  0  0  0  0
    6.4491   -4.1532   30.1213 C   0  0  0  0  0  0  0  0  0  0  0  0
    5.7060   -4.4340   27.4975 C   0  0  0  0  0  0  0  0  0  0  0  0
    1.1818   -5.6612   28.8399 C   0  0  0  0  0  0  0  0  0  0  0  0
   -1.2067   -7.3287   17.7772 C   0  0  0  0  0  0  0  0  0  0  0  0
   -0.0206  -10.5585   16.6210 C   0  0  0  0  0  0  0  0  0  0  0  0
    0.3696  -12.7626   16.2169 O   0  0  0  0  0  0  0  0  0  0  0  0
   -0.6895   -9.5676   17.3297 C   0  0  0  0  0  0  0  0  0  0  0  0
    0.8388   -5.8417   27.5264 C   0  0  0  0  0  0  0  0  0  0  0  0
   -2.0709   -7.6637   18.7817 C   0  0  0  0  0  0  0  0  0  0  0  0
   -0.5279   -8.2168   17.0717 C   0  0  0  0  0  0  0  0  0  0  0  0
    6.9694   -4.0191   27.8190 C   0  0  0  0  0  0  0  0  0  0  0  0
    5.1733   -4.5469   29.8123 C   0  0  0  0  0  0  0  0  0  0  0  0
   -1.7508  -11.3016   18.6072 C   0  0  0  0  0  0  0  0  0  0  0  0
    1.7497   -5.6771   26.4971 C   0  0  0  0  0  0  0  0  0  0  0  0
   -1.5799   -9.9322   18.3468 C   0  0  0  0  0  0  0  0  0  0  0  0
   -1.0871  -12.2214   17.8851 C   0  0  0  0  0  0  0  0  0  0  0  0
   -2.2706   -8.9669   19.0691 C   0  0  0  0  0  0  0  0  0  0  0  0
    3.0279   -5.3073   26.8197 C   0  0  0  0  0  0  0  0  0  0  0  0
    7.3282   -3.8948   29.1186 C   0  0  0  0  0  0  0  0  0  0  0  0
  1  3  4  0
  1  7  4  0
  2  3  1  0
  2  6  4  0
  2 16  4  0
  3 22  4  0
  4  9  4  0
  4 10  1  0
  4 20  4  0
  5 16  4  0
  5 23  4  0
  6 15  4  0
  7 12  4  0
  8 13  4  0
  8 14  4  0
  9 11  4  0
 11 14  4  0
 11 19  4  0
 12 18  4  0
 13 21  4  0
 15 23  4  0
 17 19  4  0
 17 20  4  0
 18 22  4  0
 19 21  4  0
M  END
$$$$

 Created by Python create_sdf_string function

 23 25  0  0  0  0  0  0  0  0999 V2000
    2.4610   -5.3070   29.1240 C   0  0  0  0  0  0  0  0  0  0  0  0
    4.7710   -4.6952   28.4803 C   0  0  0  0  0  0  0  0  0  0  0  0
    3.4047   -5.1087   28.1314 C   0  0  0  0  0  0  0  0  0  0  0  0
   -0.2234  -11.8615   16.8874 C   0  0  0  0  0  0  0  0  0  0  0  0
    6.4491   -4.1532   30.1213 C   0  0  0  0  0  0  0  0  0  0  0  0
    5.7060   -4.4340   27.4975 C   0  0  0  0  0  0  0  0  0  0  0  0
    1.1818   -5.6612   28.8399 C   0  0  0  0  0  0  0  0  0  0  0  0
   -1.2067   -7.3287   17.7772 C   0  0  0  0  0  0  0  0  0  0  0  0
   -0.0206  -10.5585   16.6210 C   0  0  0  0  0  0  0  0  0  0  0  0
    0.3696  -12.7626   16.2169 O   0  0  0  0  0  0  0  0  0  0  0  0
   -0.6895   -9.5676   17.3297 C   0  0  0  0  0  0  0  0  0  0  0  0
    0.8388   -5.8417   27.5264 C   0  0  0  0  0  0  0  0  0  0  0  0
   -2.0709   -7.6637   18.7817 C   0  0  0  0  0  0  0  0  0  0  0  0
   -0.5279   -8.2168   17.0717 C   0  0  0  0  0  0  0  0  0  0  0  0
    6.9694   -4.0191   27.8190 C   0  0  0  0  0  0  0  0  0  0  0  0
    5.1733   -4.5469   29.8123 C   0  0  0  0  0  0  0  0  0  0  0  0
   -1.7508  -11.3016   18.6072 C   0  0  0  0  0  0  0  0  0  0  0  0
    1.7497   -5.6771   26.4971 C   0  0  0  0  0  0  0  0  0  0  0  0
   -1.5799   -9.9322   18.3468 C   0  0  0  0  0  0  0  0  0  0  0  0
   -1.0871  -12.2214   17.8851 C   0  0  0  0  0  0  0  0  0  0  0  0
   -2.2706   -8.9669   19.0691 C   0  0  0  0  0  0  0  0  0  0  0  0
    3.0279   -5.3073   26.8197 C   0  0  0  0  0  0  0  0  0  0  0  0
    7.3282   -3.8948   29.1186 C   0  0  0  0  0  0  0  0  0  0  0  0
  1  3  4  0
  1  7  4  0
  2  3  1  0
  2  6  4  0
  2 16  4  0
  3 22  4  0
  4  9  4  0
  4 10  1  0
  4 20  4  0
  5 16  4  0
  5 23  4  0
  6 15  4  0
  7 12  4  0
  8 13  4  0
  8 14  4  0
  9 11  4  0
 11 14  4  0
 11 19  4  0
 12 18  4  0
 13 21  4  0
 15 23  4  0
 17 19  4  0
 17 20  4  0
 18 22  4  0
 19 21  4  0
M  END
$$$$

 Created by Python create_sdf_string function

 23 25  0  0  0  0  0  0  0  0999 V2000
    2.4610   -5.3070   29.1240 C   0  0  0  0  0  0  0  0  0  0  0  0
    4.7710   -4.6952   28.4803 C   0  0  0  0  0  0  0  0  0  0  0  0
    3.4047   -5.1087   28.1314 C   0  0  0  0  0  0  0  0  0  0  0  0
   -0.2234  -11.8615   16.8874 C   0  0  0  0  0  0  0  0  0  0  0  0
    6.4491   -4.1532   30.1213 C   0  0  0  0  0  0  0  0  0  0  0  0
    5.7060   -4.4340   27.4975 C   0  0  0  0  0  0  0  0  0  0  0  0
    1.1818   -5.6612   28.8399 C   0  0  0  0  0  0  0  0  0  0  0  0
   -1.2067   -7.3287   17.7772 C   0  0  0  0  0  0  0  0  0  0  0  0
   -0.0206  -10.5585   16.6210 C   0  0  0  0  0  0  0  0  0  0  0  0
    0.3696  -12.7626   16.2169 O   0  0  0  0  0  0  0  0  0  0  0  0
   -0.6895   -9.5676   17.3297 C   0  0  0  0  0  0  0  0  0  0  0  0
    0.8388   -5.8417   27.5264 C   0  0  0  0  0  0  0  0  0  0  0  0
   -2.0709   -7.6637   18.7817 C   0  0  0  0  0  0  0  0  0  0  0  0
   -0.5279   -8.2168   17.0717 C   0  0  0  0  0  0  0  0  0  0  0  0
    6.9694   -4.0191   27.8190 C   0  0  0  0  0  0  0  0  0  0  0  0
    5.1733   -4.5469   29.8123 C   0  0  0  0  0  0  0  0  0  0  0  0
   -1.7508  -11.3016   18.6072 C   0  0  0  0  0  0  0  0  0  0  0  0
    1.7497   -5.6771   26.4971 C   0  0  0  0  0  0  0  0  0  0  0  0
   -1.5799   -9.9322   18.3468 C   0  0  0  0  0  0  0  0  0  0  0  0
   -1.0871  -12.2214   17.8851 C   0  0  0  0  0  0  0  0  0  0  0  0
   -2.2706   -8.9669   19.0691 C   0  0  0  0  0  0  0  0  0  0  0  0
    3.0279   -5.3073   26.8197 C   0  0  0  0  0  0  0  0  0  0  0  0
    7.3282   -3.8948   29.1186 C   0  0  0  0  0  0  0  0  0  0  0  0
  1  3  4  0
  1  7  4  0
  2  3  1  0
  2  6  4  0
  2 16  4  0
  3 22  4  0
  4  9  4  0
  4 10  1  0
  4 20  4  0
  5 16  4  0
  5 23  4  0
  6 15  4  0
  7 12  4  0
  8 13  4  0
  8 14  4  0
  9 11  4  0
 11 14  4  0
 11 19  4  0
 12 18  4  0
 13 21  4  0
 15 23  4  0
 17 19  4  0
 17 20  4  0
 18 22  4  0
 19 21  4  0
M  END
$$$$

 Created by Python create_sdf_string function

 23 25  0  0  0  0  0  0  0  0999 V2000
    2.4610   -5.3070   29.1240 C   0  0  0  0  0  0  0  0  0  0  0  0
    4.7710   -4.6952   28.4803 C   0  0  0  0  0  0  0  0  0  0  0  0
    3.4047   -5.1087   28.1314 C   0  0  0  0  0  0  0  0  0  0  0  0
   -0.2234  -11.8615   16.8874 C   0  0  0  0  0  0  0  0  0  0  0  0
    6.4491   -4.1532   30.1213 C   0  0  0  0  0  0  0  0  0  0  0  0
    5.7060   -4.4340   27.4975 C   0  0  0  0  0  0  0  0  0  0  0  0
    1.1818   -5.6612   28.8399 C   0  0  0  0  0  0  0  0  0  0  0  0
   -1.2067   -7.3287   17.7772 C   0  0  0  0  0  0  0  0  0  0  0  0
   -0.0206  -10.5585   16.6210 C   0  0  0  0  0  0  0  0  0  0  0  0
    0.3696  -12.7626   16.2169 O   0  0  0  0  0  0  0  0  0  0  0  0
   -0.6895   -9.5676   17.3297 C   0  0  0  0  0  0  0  0  0  0  0  0
    0.8388   -5.8417   27.5264 C   0  0  0  0  0  0  0  0  0  0  0  0
   -2.0709   -7.6637   18.7817 C   0  0  0  0  0  0  0  0  0  0  0  0
   -0.5279   -8.2168   17.0717 C   0  0  0  0  0  0  0  0  0  0  0  0
    6.9694   -4.0191   27.8190 C   0  0  0  0  0  0  0  0  0  0  0  0
    5.1733   -4.5469   29.8123 C   0  0  0  0  0  0  0  0  0  0  0  0
   -1.7508  -11.3016   18.6072 C   0  0  0  0  0  0  0  0  0  0  0  0
    1.7497   -5.6771   26.4971 C   0  0  0  0  0  0  0  0  0  0  0  0
   -1.5799   -9.9322   18.3468 C   0  0  0  0  0  0  0  0  0  0  0  0
   -1.0871  -12.2214   17.8851 C   0  0  0  0  0  0  0  0  0  0  0  0
   -2.2706   -8.9669   19.0691 C   0  0  0  0  0  0  0  0  0  0  0  0
    3.0279   -5.3073   26.8197 C   0  0  0  0  0  0  0  0  0  0  0  0
    7.3282   -3.8948   29.1186 C   0  0  0  0  0  0  0  0  0  0  0  0
  1  3  4  0
  1  7  4  0
  2  3  1  0
  2  6  4  0
  2 16  4  0
  3 22  4  0
  4  9  4  0
  4 10  1  0
  4 20  4  0
  5 16  4  0
  5 23  4  0
  6 15  4  0
  7 12  4  0
  8 13  4  0
  8 14  4  0
  9 11  4  0
 11 14  4  0
 11 19  4  0
 12 18  4  0
 13 21  4  0
 15 23  4  0
 17 19  4  0
 17 20  4  0
 18 22  4  0
 19 21  4  0
M  END
$$$$

 Created by Python create_sdf_string function

 23 25  0  0  0  0  0  0  0  0999 V2000
    2.4610   -5.3070   29.1240 C   0  0  0  0  0  0  0  0  0  0  0  0
    4.7710   -4.6952   28.4803 C   0  0  0  0  0  0  0  0  0  0  0  0
    3.4047   -5.1087   28.1314 C   0  0  0  0  0  0  0  0  0  0  0  0
   -0.2234  -11.8615   16.8874 C   0  0  0  0  0  0  0  0  0  0  0  0
    6.4491   -4.1532   30.1213 C   0  0  0  0  0  0  0  0  0  0  0  0
    5.7060   -4.4340   27.4975 C   0  0  0  0  0  0  0  0  0  0  0  0
    1.1818   -5.6612   28.8399 C   0  0  0  0  0  0  0  0  0  0  0  0
   -1.2067   -7.3287   17.7772 C   0  0  0  0  0  0  0  0  0  0  0  0
   -0.0206  -10.5585   16.6210 C   0  0  0  0  0  0  0  0  0  0  0  0
    0.3696  -12.7626   16.2169 O   0  0  0  0  0  0  0  0  0  0  0  0
   -0.6895   -9.5676   17.3297 C   0  0  0  0  0  0  0  0  0  0  0  0
    0.8388   -5.8417   27.5264 C   0  0  0  0  0  0  0  0  0  0  0  0
   -2.0709   -7.6637   18.7817 C   0  0  0  0  0  0  0  0  0  0  0  0
   -0.5279   -8.2168   17.0717 C   0  0  0  0  0  0  0  0  0  0  0  0
    6.9694   -4.0191   27.8190 C   0  0  0  0  0  0  0  0  0  0  0  0
    5.1733   -4.5469   29.8123 C   0  0  0  0  0  0  0  0  0  0  0  0
   -1.7508  -11.3016   18.6072 C   0  0  0  0  0  0  0  0  0  0  0  0
    1.7497   -5.6771   26.4971 C   0  0  0  0  0  0  0  0  0  0  0  0
   -1.5799   -9.9322   18.3468 C   0  0  0  0  0  0  0  0  0  0  0  0
   -1.0871  -12.2214   17.8851 C   0  0  0  0  0  0  0  0  0  0  0  0
   -2.2706   -8.9669   19.0691 C   0  0  0  0  0  0  0  0  0  0  0  0
    3.0279   -5.3073   26.8197 C   0  0  0  0  0  0  0  0  0  0  0  0
    7.3282   -3.8948   29.1186 C   0  0  0  0  0  0  0  0  0  0  0  0
  1  3  4  0
  1  7  4  0
  2  3  1  0
  2  6  4  0
  2 16  4  0
  3 22  4  0
  4  9  4  0
  4 10  1  0
  4 20  4  0
  5 16  4  0
  5 23  4  0
  6 15  4  0
  7 12  4  0
  8 13  4  0
  8 14  4  0
  9 11  4  0
 11 14  4  0
 11 19  4  0
 12 18  4  0
 13 21  4  0
 15 23  4  0
 17 19  4  0
 17 20  4  0
 18 22  4  0
 19 21  4  0
M  END
$$$$

 Created by Python create_sdf_string function

 23 25  0  0  0  0  0  0  0  0999 V2000
    2.4610   -5.3070   29.1240 C   0  0  0  0  0  0  0  0  0  0  0  0
    4.7710   -4.6952   28.4803 C   0  0  0  0  0  0  0  0  0  0  0  0
    3.4047   -5.1087   28.1314 C   0  0  0  0  0  0  0  0  0  0  0  0
   -0.2234  -11.8615   16.8874 C   0  0  0  0  0  0  0  0  0  0  0  0
    6.4491   -4.1532   30.1213 C   0  0  0  0  0  0  0  0  0  0  0  0
    5.7060   -4.4340   27.4975 C   0  0  0  0  0  0  0  0  0  0  0  0
    1.1818   -5.6612   28.8399 C   0  0  0  0  0  0  0  0  0  0  0  0
   -1.2067   -7.3287   17.7772 C   0  0  0  0  0  0  0  0  0  0  0  0
   -0.0206  -10.5585   16.6210 C   0  0  0  0  0  0  0  0  0  0  0  0
    0.3696  -12.7626   16.2169 O   0  0  0  0  0  0  0  0  0  0  0  0
   -0.6895   -9.5676   17.3297 C   0  0  0  0  0  0  0  0  0  0  0  0
    0.8388   -5.8417   27.5264 C   0  0  0  0  0  0  0  0  0  0  0  0
   -2.0709   -7.6637   18.7817 C   0  0  0  0  0  0  0  0  0  0  0  0
   -0.5279   -8.2168   17.0717 C   0  0  0  0  0  0  0  0  0  0  0  0
    6.9694   -4.0191   27.8190 C   0  0  0  0  0  0  0  0  0  0  0  0
    5.1733   -4.5469   29.8123 C   0  0  0  0  0  0  0  0  0  0  0  0
   -1.7508  -11.3016   18.6072 C   0  0  0  0  0  0  0  0  0  0  0  0
    1.7497   -5.6771   26.4971 C   0  0  0  0  0  0  0  0  0  0  0  0
   -1.5799   -9.9322   18.3468 C   0  0  0  0  0  0  0  0  0  0  0  0
   -1.0871  -12.2214   17.8851 C   0  0  0  0  0  0  0  0  0  0  0  0
   -2.2706   -8.9669   19.0691 C   0  0  0  0  0  0  0  0  0  0  0  0
    3.0279   -5.3073   26.8197 C   0  0  0  0  0  0  0  0  0  0  0  0
    7.3282   -3.8948   29.1186 C   0  0  0  0  0  0  0  0  0  0  0  0
  1  3  4  0
  1  7  4  0
  2  3  1  0
  2  6  4  0
  2 16  4  0
  3 22  4  0
  4  9  4  0
  4 10  1  0
  4 20  4  0
  5 16  4  0
  5 23  4  0
  6 15  4  0
  7 12  4  0
  8 13  4  0
  8 14  4  0
  9 11  4  0
 11 14  4  0
 11 19  4  0
 12 18  4  0
 13 21  4  0
 15 23  4  0
 17 19  4  0
 17 20  4  0
 18 22  4  0
 19 21  4  0
M  END
$$$$

 Created by Python create_sdf_string function

 23 25  0  0  0  0  0  0  0  0999 V2000
    2.4610   -5.3070   29.1240 C   0  0  0  0  0  0  0  0  0  0  0  0
    4.7710   -4.6952   28.4803 C   0  0  0  0  0  0  0  0  0  0  0  0
    3.4047   -5.1087   28.1314 C   0  0  0  0  0  0  0  0  0  0  0  0
   -0.2234  -11.8615   16.8874 C   0  0  0  0  0  0  0  0  0  0  0  0
    6.4491   -4.1532   30.1213 C   0  0  0  0  0  0  0  0  0  0  0  0
    5.7060   -4.4340   27.4975 C   0  0  0  0  0  0  0  0  0  0  0  0
    1.1818   -5.6612   28.8399 C   0  0  0  0  0  0  0  0  0  0  0  0
   -1.2067   -7.3287   17.7772 C   0  0  0  0  0  0  0  0  0  0  0  0
   -0.0206  -10.5585   16.6210 C   0  0  0  0  0  0  0  0  0  0  0  0
    0.3696  -12.7626   16.2169 O   0  0  0  0  0  0  0  0  0  0  0  0
   -0.6895   -9.5676   17.3297 C   0  0  0  0  0  0  0  0  0  0  0  0
    0.8388   -5.8417   27.5264 C   0  0  0  0  0  0  0  0  0  0  0  0
   -2.0709   -7.6637   18.7817 C   0  0  0  0  0  0  0  0  0  0  0  0
   -0.5279   -8.2168   17.0717 C   0  0  0  0  0  0  0  0  0  0  0  0
    6.9694   -4.0191   27.8190 C   0  0  0  0  0  0  0  0  0  0  0  0
    5.1733   -4.5469   29.8123 C   0  0  0  0  0  0  0  0  0  0  0  0
   -1.7508  -11.3016   18.6072 C   0  0  0  0  0  0  0  0  0  0  0  0
    1.7497   -5.6771   26.4971 C   0  0  0  0  0  0  0  0  0  0  0  0
   -1.5799   -9.9322   18.3468 C   0  0  0  0  0  0  0  0  0  0  0  0
   -1.0871  -12.2214   17.8851 C   0  0  0  0  0  0  0  0  0  0  0  0
   -2.2706   -8.9669   19.0691 C   0  0  0  0  0  0  0  0  0  0  0  0
    3.0279   -5.3073   26.8197 C   0  0  0  0  0  0  0  0  0  0  0  0
    7.3282   -3.8948   29.1186 C   0  0  0  0  0  0  0  0  0  0  0  0
  1  3  4  0
  1  7  4  0
  2  3  1  0
  2  6  4  0
  2 16  4  0
  3 22  4  0
  4  9  4  0
  4 10  1  0
  4 20  4  0
  5 16  4  0
  5 23  4  0
  6 15  4  0
  7 12  4  0
  8 13  4  0
  8 14  4  0
  9 11  4  0
 11 14  4  0
 11 19  4  0
 12 18  4  0
 13 21  4  0
 15 23  4  0
 17 19  4  0
 17 20  4  0
 18 22  4  0
 19 21  4  0
M  END
$$$$

 Created by Python create_sdf_string function

 23 25  0  0  0  0  0  0  0  0999 V2000
    2.4610   -5.3070   29.1240 C   0  0  0  0  0  0  0  0  0  0  0  0
    4.7710   -4.6952   28.4803 C   0  0  0  0  0  0  0  0  0  0  0  0
    3.4047   -5.1087   28.1314 C   0  0  0  0  0  0  0  0  0  0  0  0
   -0.2234  -11.8615   16.8874 C   0  0  0  0  0  0  0  0  0  0  0  0
    6.4491   -4.1532   30.1213 C   0  0  0  0  0  0  0  0  0  0  0  0
    5.7060   -4.4340   27.4975 C   0  0  0  0  0  0  0  0  0  0  0  0
    1.1818   -5.6612   28.8399 C   0  0  0  0  0  0  0  0  0  0  0  0
   -1.2067   -7.3287   17.7772 C   0  0  0  0  0  0  0  0  0  0  0  0
   -0.0206  -10.5585   16.6210 C   0  0  0  0  0  0  0  0  0  0  0  0
    0.3696  -12.7626   16.2169 O   0  0  0  0  0  0  0  0  0  0  0  0
   -0.6895   -9.5676   17.3297 C   0  0  0  0  0  0  0  0  0  0  0  0
    0.8388   -5.8417   27.5264 C   0  0  0  0  0  0  0  0  0  0  0  0
   -2.0709   -7.6637   18.7817 C   0  0  0  0  0  0  0  0  0  0  0  0
   -0.5279   -8.2168   17.0717 C   0  0  0  0  0  0  0  0  0  0  0  0
    6.9694   -4.0191   27.8190 C   0  0  0  0  0  0  0  0  0  0  0  0
    5.1733   -4.5469   29.8123 C   0  0  0  0  0  0  0  0  0  0  0  0
   -1.7508  -11.3016   18.6072 C   0  0  0  0  0  0  0  0  0  0  0  0
    1.7497   -5.6771   26.4971 C   0  0  0  0  0  0  0  0  0  0  0  0
   -1.5799   -9.9322   18.3468 C   0  0  0  0  0  0  0  0  0  0  0  0
   -1.0871  -12.2214   17.8851 C   0  0  0  0  0  0  0  0  0  0  0  0
   -2.2706   -8.9669   19.0691 C   0  0  0  0  0  0  0  0  0  0  0  0
    3.0279   -5.3073   26.8197 C   0  0  0  0  0  0  0  0  0  0  0  0
    7.3282   -3.8948   29.1186 C   0  0  0  0  0  0  0  0  0  0  0  0
  1  3  4  0
  1  7  4  0
  2  3  1  0
  2  6  4  0
  2 16  4  0
  3 22  4  0
  4  9  4  0
  4 10  1  0
  4 20  4  0
  5 16  4  0
  5 23  4  0
  6 15  4  0
  7 12  4  0
  8 13  4  0
  8 14  4  0
  9 11  4  0
 11 14  4  0
 11 19  4  0
 12 18  4  0
 13 21  4  0
 15 23  4  0
 17 19  4  0
 17 20  4  0
 18 22  4  0
 19 21  4  0
M  END
$$$$

 Created by Python create_sdf_string function

 23 25  0  0  0  0  0  0  0  0999 V2000
    2.4610   -5.3070   29.1240 C   0  0  0  0  0  0  0  0  0  0  0  0
    4.7710   -4.6952   28.4803 C   0  0  0  0  0  0  0  0  0  0  0  0
    3.4047   -5.1087   28.1314 C   0  0  0  0  0  0  0  0  0  0  0  0
   -0.2234  -11.8615   16.8874 C   0  0  0  0  0  0  0  0  0  0  0  0
    6.4491   -4.1532   30.1213 C   0  0  0  0  0  0  0  0  0  0  0  0
    5.7060   -4.4340   27.4975 C   0  0  0  0  0  0  0  0  0  0  0  0
    1.1818   -5.6612   28.8399 C   0  0  0  0  0  0  0  0  0  0  0  0
   -1.2067   -7.3287   17.7772 C   0  0  0  0  0  0  0  0  0  0  0  0
   -0.0206  -10.5585   16.6210 C   0  0  0  0  0  0  0  0  0  0  0  0
    0.3696  -12.7626   16.2169 O   0  0  0  0  0  0  0  0  0  0  0  0
   -0.6895   -9.5676   17.3297 C   0  0  0  0  0  0  0  0  0  0  0  0
    0.8388   -5.8417   27.5264 C   0  0  0  0  0  0  0  0  0  0  0  0
   -2.0709   -7.6637   18.7817 C   0  0  0  0  0  0  0  0  0  0  0  0
   -0.5279   -8.2168   17.0717 C   0  0  0  0  0  0  0  0  0  0  0  0
    6.9694   -4.0191   27.8190 C   0  0  0  0  0  0  0  0  0  0  0  0
    5.1733   -4.5469   29.8123 C   0  0  0  0  0  0  0  0  0  0  0  0
   -1.7508  -11.3016   18.6072 C   0  0  0  0  0  0  0  0  0  0  0  0
    1.7497   -5.6771   26.4971 C   0  0  0  0  0  0  0  0  0  0  0  0
   -1.5799   -9.9322   18.3468 C   0  0  0  0  0  0  0  0  0  0  0  0
   -1.0871  -12.2214   17.8851 C   0  0  0  0  0  0  0  0  0  0  0  0
   -2.2706   -8.9669   19.0691 C   0  0  0  0  0  0  0  0  0  0  0  0
    3.0279   -5.3073   26.8197 C   0  0  0  0  0  0  0  0  0  0  0  0
    7.3282   -3.8948   29.1186 C   0  0  0  0  0  0  0  0  0  0  0  0
  1  3  4  0
  1  7  4  0
  2  3  1  0
  2  6  4  0
  2 16  4  0
  3 22  4  0
  4  9  4  0
  4 10  1  0
  4 20  4  0
  5 16  4  0
  5 23  4  0
  6 15  4  0
  7 12  4  0
  8 13  4  0
  8 14  4  0
  9 11  4  0
 11 14  4  0
 11 19  4  0
 12 18  4  0
 13 21  4  0
 15 23  4  0
 17 19  4  0
 17 20  4  0
 18 22  4  0
 19 21  4  0
M  END
$$$$

 Created by Python create_sdf_string function

 23 25  0  0  0  0  0  0  0  0999 V2000
    2.4610   -5.3070   29.1240 C   0  0  0  0  0  0  0  0  0  0  0  0
    4.7710   -4.6952   28.4803 C   0  0  0  0  0  0  0  0  0  0  0  0
    3.4047   -5.1087   28.1314 C   0  0  0  0  0  0  0  0  0  0  0  0
   -0.2234  -11.8615   16.8874 C   0  0  0  0  0  0  0  0  0  0  0  0
    6.4491   -4.1532   30.1213 C   0  0  0  0  0  0  0  0  0  0  0  0
    5.7060   -4.4340   27.4975 C   0  0  0  0  0  0  0  0  0  0  0  0
    1.1818   -5.6612   28.8399 C   0  0  0  0  0  0  0  0  0  0  0  0
   -1.2067   -7.3287   17.7772 C   0  0  0  0  0  0  0  0  0  0  0  0
   -0.0206  -10.5585   16.6210 C   0  0  0  0  0  0  0  0  0  0  0  0
    0.3696  -12.7626   16.2169 O   0  0  0  0  0  0  0  0  0  0  0  0
   -0.6895   -9.5676   17.3297 C   0  0  0  0  0  0  0  0  0  0  0  0
    0.8388   -5.8417   27.5264 C   0  0  0  0  0  0  0  0  0  0  0  0
   -2.0709   -7.6637   18.7817 C   0  0  0  0  0  0  0  0  0  0  0  0
   -0.5279   -8.2168   17.0717 C   0  0  0  0  0  0  0  0  0  0  0  0
    6.9694   -4.0191   27.8190 C   0  0  0  0  0  0  0  0  0  0  0  0
    5.1733   -4.5469   29.8123 C   0  0  0  0  0  0  0  0  0  0  0  0
   -1.7508  -11.3016   18.6072 C   0  0  0  0  0  0  0  0  0  0  0  0
    1.7497   -5.6771   26.4971 C   0  0  0  0  0  0  0  0  0  0  0  0
   -1.5799   -9.9322   18.3468 C   0  0  0  0  0  0  0  0  0  0  0  0
   -1.0871  -12.2214   17.8851 C   0  0  0  0  0  0  0  0  0  0  0  0
   -2.2706   -8.9669   19.0691 C   0  0  0  0  0  0  0  0  0  0  0  0
    3.0279   -5.3073   26.8197 C   0  0  0  0  0  0  0  0  0  0  0  0
    7.3282   -3.8948   29.1186 C   0  0  0  0  0  0  0  0  0  0  0  0
  1  3  4  0
  1  7  4  0
  2  3  1  0
  2  6  4  0
  2 16  4  0
  3 22  4  0
  4  9  4  0
  4 10  1  0
  4 20  4  0
  5 16  4  0
  5 23  4  0
  6 15  4  0
  7 12  4  0
  8 13  4  0
  8 14  4  0
  9 11  4  0
 11 14  4  0
 11 19  4  0
 12 18  4  0
 13 21  4  0
 15 23  4  0
 17 19  4  0
 17 20  4  0
 18 22  4  0
 19 21  4  0
M  END
$$$$

 Created by Python create_sdf_string function

 23 25  0  0  0  0  0  0  0  0999 V2000
    2.4610   -5.3070   29.1240 C   0  0  0  0  0  0  0  0  0  0  0  0
    4.7710   -4.6952   28.4803 C   0  0  0  0  0  0  0  0  0  0  0  0
    3.4047   -5.1087   28.1314 C   0  0  0  0  0  0  0  0  0  0  0  0
   -0.2234  -11.8615   16.8874 C   0  0  0  0  0  0  0  0  0  0  0  0
    6.4491   -4.1532   30.1213 C   0  0  0  0  0  0  0  0  0  0  0  0
    5.7060   -4.4340   27.4975 C   0  0  0  0  0  0  0  0  0  0  0  0
    1.1818   -5.6612   28.8399 C   0  0  0  0  0  0  0  0  0  0  0  0
   -1.2067   -7.3287   17.7772 C   0  0  0  0  0  0  0  0  0  0  0  0
   -0.0206  -10.5585   16.6210 C   0  0  0  0  0  0  0  0  0  0  0  0
    0.3696  -12.7626   16.2169 O   0  0  0  0  0  0  0  0  0  0  0  0
   -0.6895   -9.5676   17.3297 C   0  0  0  0  0  0  0  0  0  0  0  0
    0.8388   -5.8417   27.5264 C   0  0  0  0  0  0  0  0  0  0  0  0
   -2.0709   -7.6637   18.7817 C   0  0  0  0  0  0  0  0  0  0  0  0
   -0.5279   -8.2168   17.0717 C   0  0  0  0  0  0  0  0  0  0  0  0
    6.9694   -4.0191   27.8190 C   0  0  0  0  0  0  0  0  0  0  0  0
    5.1733   -4.5469   29.8123 C   0  0  0  0  0  0  0  0  0  0  0  0
   -1.7508  -11.3016   18.6072 C   0  0  0  0  0  0  0  0  0  0  0  0
    1.7497   -5.6771   26.4971 C   0  0  0  0  0  0  0  0  0  0  0  0
   -1.5799   -9.9322   18.3468 C   0  0  0  0  0  0  0  0  0  0  0  0
   -1.0871  -12.2214   17.8851 C   0  0  0  0  0  0  0  0  0  0  0  0
   -2.2706   -8.9669   19.0691 C   0  0  0  0  0  0  0  0  0  0  0  0
    3.0279   -5.3073   26.8197 C   0  0  0  0  0  0  0  0  0  0  0  0
    7.3282   -3.8948   29.1186 C   0  0  0  0  0  0  0  0  0  0  0  0
  1  3  4  0
  1  7  4  0
  2  3  1  0
  2  6  4  0
  2 16  4  0
  3 22  4  0
  4  9  4  0
  4 10  1  0
  4 20  4  0
  5 16  4  0
  5 23  4  0
  6 15  4  0
  7 12  4  0
  8 13  4  0
  8 14  4  0
  9 11  4  0
 11 14  4  0
 11 19  4  0
 12 18  4  0
 13 21  4  0
 15 23  4  0
 17 19  4  0
 17 20  4  0
 18 22  4  0
 19 21  4  0
M  END
$$$$

 Created by Python create_sdf_string function

 23 25  0  0  0  0  0  0  0  0999 V2000
    2.4610   -5.3070   29.1240 C   0  0  0  0  0  0  0  0  0  0  0  0
    4.7710   -4.6952   28.4803 C   0  0  0  0  0  0  0  0  0  0  0  0
    3.4047   -5.1087   28.1314 C   0  0  0  0  0  0  0  0  0  0  0  0
   -0.2234  -11.8615   16.8874 C   0  0  0  0  0  0  0  0  0  0  0  0
    6.4491   -4.1532   30.1213 C   0  0  0  0  0  0  0  0  0  0  0  0
    5.7060   -4.4340   27.4975 C   0  0  0  0  0  0  0  0  0  0  0  0
    1.1818   -5.6612   28.8399 C   0  0  0  0  0  0  0  0  0  0  0  0
   -1.2067   -7.3287   17.7772 C   0  0  0  0  0  0  0  0  0  0  0  0
   -0.0206  -10.5585   16.6210 C   0  0  0  0  0  0  0  0  0  0  0  0
    0.3696  -12.7626   16.2169 O   0  0  0  0  0  0  0  0  0  0  0  0
   -0.6895   -9.5676   17.3297 C   0  0  0  0  0  0  0  0  0  0  0  0
    0.8388   -5.8417   27.5264 C   0  0  0  0  0  0  0  0  0  0  0  0
   -2.0709   -7.6637   18.7817 C   0  0  0  0  0  0  0  0  0  0  0  0
   -0.5279   -8.2168   17.0717 C   0  0  0  0  0  0  0  0  0  0  0  0
    6.9694   -4.0191   27.8190 C   0  0  0  0  0  0  0  0  0  0  0  0
    5.1733   -4.5469   29.8123 C   0  0  0  0  0  0  0  0  0  0  0  0
   -1.7508  -11.3016   18.6072 C   0  0  0  0  0  0  0  0  0  0  0  0
    1.7497   -5.6771   26.4971 C   0  0  0  0  0  0  0  0  0  0  0  0
   -1.5799   -9.9322   18.3468 C   0  0  0  0  0  0  0  0  0  0  0  0
   -1.0871  -12.2214   17.8851 C   0  0  0  0  0  0  0  0  0  0  0  0
   -2.2706   -8.9669   19.0691 C   0  0  0  0  0  0  0  0  0  0  0  0
    3.0279   -5.3073   26.8197 C   0  0  0  0  0  0  0  0  0  0  0  0
    7.3282   -3.8948   29.1186 C   0  0  0  0  0  0  0  0  0  0  0  0
  1  3  4  0
  1  7  4  0
  2  3  1  0
  2  6  4  0
  2 16  4  0
  3 22  4  0
  4  9  4  0
  4 10  1  0
  4 20  4  0
  5 16  4  0
  5 23  4  0
  6 15  4  0
  7 12  4  0
  8 13  4  0
  8 14  4  0
  9 11  4  0
 11 14  4  0
 11 19  4  0
 12 18  4  0
 13 21  4  0
 15 23  4  0
 17 19  4  0
 17 20  4  0
 18 22  4  0
 19 21  4  0
M  END
$$$$

 Created by Python create_sdf_string function

 23 25  0  0  0  0  0  0  0  0999 V2000
    2.4610   -5.3070   29.1240 C   0  0  0  0  0  0  0  0  0  0  0  0
    4.7710   -4.6952   28.4803 C   0  0  0  0  0  0  0  0  0  0  0  0
    3.4047   -5.1087   28.1314 C   0  0  0  0  0  0  0  0  0  0  0  0
   -0.2234  -11.8615   16.8874 C   0  0  0  0  0  0  0  0  0  0  0  0
    6.4491   -4.1532   30.1213 C   0  0  0  0  0  0  0  0  0  0  0  0
    5.7060   -4.4340   27.4975 C   0  0  0  0  0  0  0  0  0  0  0  0
    1.1818   -5.6612   28.8399 C   0  0  0  0  0  0  0  0  0  0  0  0
   -1.2067   -7.3287   17.7772 C   0  0  0  0  0  0  0  0  0  0  0  0
   -0.0206  -10.5585   16.6210 C   0  0  0  0  0  0  0  0  0  0  0  0
    0.3696  -12.7626   16.2169 O   0  0  0  0  0  0  0  0  0  0  0  0
   -0.6895   -9.5676   17.3297 C   0  0  0  0  0  0  0  0  0  0  0  0
    0.8388   -5.8417   27.5264 C   0  0  0  0  0  0  0  0  0  0  0  0
   -2.0709   -7.6637   18.7817 C   0  0  0  0  0  0  0  0  0  0  0  0
   -0.5279   -8.2168   17.0717 C   0  0  0  0  0  0  0  0  0  0  0  0
    6.9694   -4.0191   27.8190 C   0  0  0  0  0  0  0  0  0  0  0  0
    5.1733   -4.5469   29.8123 C   0  0  0  0  0  0  0  0  0  0  0  0
   -1.7508  -11.3016   18.6072 C   0  0  0  0  0  0  0  0  0  0  0  0
    1.7497   -5.6771   26.4971 C   0  0  0  0  0  0  0  0  0  0  0  0
   -1.5799   -9.9322   18.3468 C   0  0  0  0  0  0  0  0  0  0  0  0
   -1.0871  -12.2214   17.8851 C   0  0  0  0  0  0  0  0  0  0  0  0
   -2.2706   -8.9669   19.0691 C   0  0  0  0  0  0  0  0  0  0  0  0
    3.0279   -5.3073   26.8197 C   0  0  0  0  0  0  0  0  0  0  0  0
    7.3282   -3.8948   29.1186 C   0  0  0  0  0  0  0  0  0  0  0  0
  1  3  4  0
  1  7  4  0
  2  3  1  0
  2  6  4  0
  2 16  4  0
  3 22  4  0
  4  9  4  0
  4 10  1  0
  4 20  4  0
  5 16  4  0
  5 23  4  0
  6 15  4  0
  7 12  4  0
  8 13  4  0
  8 14  4  0
  9 11  4  0
 11 14  4  0
 11 19  4  0
 12 18  4  0
 13 21  4  0
 15 23  4  0
 17 19  4  0
 17 20  4  0
 18 22  4  0
 19 21  4  0
M  END
$$$$

 Created by Python create_sdf_string function

 23 25  0  0  0  0  0  0  0  0999 V2000
    2.4610   -5.3070   29.1240 C   0  0  0  0  0  0  0  0  0  0  0  0
    4.7710   -4.6952   28.4803 C   0  0  0  0  0  0  0  0  0  0  0  0
    3.4047   -5.1087   28.1314 C   0  0  0  0  0  0  0  0  0  0  0  0
   -0.2234  -11.8615   16.8874 C   0  0  0  0  0  0  0  0  0  0  0  0
    6.4491   -4.1532   30.1213 C   0  0  0  0  0  0  0  0  0  0  0  0
    5.7060   -4.4340   27.4975 C   0  0  0  0  0  0  0  0  0  0  0  0
    1.1818   -5.6612   28.8399 C   0  0  0  0  0  0  0  0  0  0  0  0
   -1.2067   -7.3287   17.7772 C   0  0  0  0  0  0  0  0  0  0  0  0
   -0.0206  -10.5585   16.6210 C   0  0  0  0  0  0  0  0  0  0  0  0
    0.3696  -12.7626   16.2169 O   0  0  0  0  0  0  0  0  0  0  0  0
   -0.6895   -9.5676   17.3297 C   0  0  0  0  0  0  0  0  0  0  0  0
    0.8388   -5.8417   27.5264 C   0  0  0  0  0  0  0  0  0  0  0  0
   -2.0709   -7.6637   18.7817 C   0  0  0  0  0  0  0  0  0  0  0  0
   -0.5279   -8.2168   17.0717 C   0  0  0  0  0  0  0  0  0  0  0  0
    6.9694   -4.0191   27.8190 C   0  0  0  0  0  0  0  0  0  0  0  0
    5.1733   -4.5469   29.8123 C   0  0  0  0  0  0  0  0  0  0  0  0
   -1.7508  -11.3016   18.6072 C   0  0  0  0  0  0  0  0  0  0  0  0
    1.7497   -5.6771   26.4971 C   0  0  0  0  0  0  0  0  0  0  0  0
   -1.5799   -9.9322   18.3468 C   0  0  0  0  0  0  0  0  0  0  0  0
   -1.0871  -12.2214   17.8851 C   0  0  0  0  0  0  0  0  0  0  0  0
   -2.2706   -8.9669   19.0691 C   0  0  0  0  0  0  0  0  0  0  0  0
    3.0279   -5.3073   26.8197 C   0  0  0  0  0  0  0  0  0  0  0  0
    7.3282   -3.8948   29.1186 C   0  0  0  0  0  0  0  0  0  0  0  0
  1  3  4  0
  1  7  4  0
  2  3  1  0
  2  6  4  0
  2 16  4  0
  3 22  4  0
  4  9  4  0
  4 10  1  0
  4 20  4  0
  5 16  4  0
  5 23  4  0
  6 15  4  0
  7 12  4  0
  8 13  4  0
  8 14  4  0
  9 11  4  0
 11 14  4  0
 11 19  4  0
 12 18  4  0
 13 21  4  0
 15 23  4  0
 17 19  4  0
 17 20  4  0
 18 22  4  0
 19 21  4  0
M  END
$$$$

 Created by Python create_sdf_string function

 23 25  0  0  0  0  0  0  0  0999 V2000
    2.4610   -5.3070   29.1240 C   0  0  0  0  0  0  0  0  0  0  0  0
    4.7710   -4.6952   28.4803 C   0  0  0  0  0  0  0  0  0  0  0  0
    3.4047   -5.1087   28.1314 C   0  0  0  0  0  0  0  0  0  0  0  0
   -0.2234  -11.8615   16.8874 C   0  0  0  0  0  0  0  0  0  0  0  0
    6.4491   -4.1532   30.1213 C   0  0  0  0  0  0  0  0  0  0  0  0
    5.7060   -4.4340   27.4975 C   0  0  0  0  0  0  0  0  0  0  0  0
    1.1818   -5.6612   28.8399 C   0  0  0  0  0  0  0  0  0  0  0  0
   -1.2067   -7.3287   17.7772 C   0  0  0  0  0  0  0  0  0  0  0  0
   -0.0206  -10.5585   16.6210 C   0  0  0  0  0  0  0  0  0  0  0  0
    0.3696  -12.7626   16.2169 O   0  0  0  0  0  0  0  0  0  0  0  0
   -0.6895   -9.5676   17.3297 C   0  0  0  0  0  0  0  0  0  0  0  0
    0.8388   -5.8417   27.5264 C   0  0  0  0  0  0  0  0  0  0  0  0
   -2.0709   -7.6637   18.7817 C   0  0  0  0  0  0  0  0  0  0  0  0
   -0.5279   -8.2168   17.0717 C   0  0  0  0  0  0  0  0  0  0  0  0
    6.9694   -4.0191   27.8190 C   0  0  0  0  0  0  0  0  0  0  0  0
    5.1733   -4.5469   29.8123 C   0  0  0  0  0  0  0  0  0  0  0  0
   -1.7508  -11.3016   18.6072 C   0  0  0  0  0  0  0  0  0  0  0  0
    1.7497   -5.6771   26.4971 C   0  0  0  0  0  0  0  0  0  0  0  0
   -1.5799   -9.9322   18.3468 C   0  0  0  0  0  0  0  0  0  0  0  0
   -1.0871  -12.2214   17.8851 C   0  0  0  0  0  0  0  0  0  0  0  0
   -2.2706   -8.9669   19.0691 C   0  0  0  0  0  0  0  0  0  0  0  0
    3.0279   -5.3073   26.8197 C   0  0  0  0  0  0  0  0  0  0  0  0
    7.3282   -3.8948   29.1186 C   0  0  0  0  0  0  0  0  0  0  0  0
  1  3  4  0
  1  7  4  0
  2  3  1  0
  2  6  4  0
  2 16  4  0
  3 22  4  0
  4  9  4  0
  4 10  1  0
  4 20  4  0
  5 16  4  0
  5 23  4  0
  6 15  4  0
  7 12  4  0
  8 13  4  0
  8 14  4  0
  9 11  4  0
 11 14  4  0
 11 19  4  0
 12 18  4  0
 13 21  4  0
 15 23  4  0
 17 19  4  0
 17 20  4  0
 18 22  4  0
 19 21  4  0
M  END
$$$$

 Created by Python create_sdf_string function

 23 25  0  0  0  0  0  0  0  0999 V2000
    2.4610   -5.3070   29.1240 C   0  0  0  0  0  0  0  0  0  0  0  0
    4.7710   -4.6952   28.4803 C   0  0  0  0  0  0  0  0  0  0  0  0
    3.4047   -5.1087   28.1314 C   0  0  0  0  0  0  0  0  0  0  0  0
   -0.2234  -11.8615   16.8874 C   0  0  0  0  0  0  0  0  0  0  0  0
    6.4491   -4.1532   30.1213 C   0  0  0  0  0  0  0  0  0  0  0  0
    5.7060   -4.4340   27.4975 C   0  0  0  0  0  0  0  0  0  0  0  0
    1.1818   -5.6612   28.8399 C   0  0  0  0  0  0  0  0  0  0  0  0
   -1.2067   -7.3287   17.7772 C   0  0  0  0  0  0  0  0  0  0  0  0
   -0.0206  -10.5585   16.6210 C   0  0  0  0  0  0  0  0  0  0  0  0
    0.3696  -12.7626   16.2169 O   0  0  0  0  0  0  0  0  0  0  0  0
   -0.6895   -9.5676   17.3297 C   0  0  0  0  0  0  0  0  0  0  0  0
    0.8388   -5.8417   27.5264 C   0  0  0  0  0  0  0  0  0  0  0  0
   -2.0709   -7.6637   18.7817 C   0  0  0  0  0  0  0  0  0  0  0  0
   -0.5279   -8.2168   17.0717 C   0  0  0  0  0  0  0  0  0  0  0  0
    6.9694   -4.0191   27.8190 C   0  0  0  0  0  0  0  0  0  0  0  0
    5.1733   -4.5469   29.8123 C   0  0  0  0  0  0  0  0  0  0  0  0
   -1.7508  -11.3016   18.6072 C   0  0  0  0  0  0  0  0  0  0  0  0
    1.7497   -5.6771   26.4971 C   0  0  0  0  0  0  0  0  0  0  0  0
   -1.5799   -9.9322   18.3468 C   0  0  0  0  0  0  0  0  0  0  0  0
   -1.0871  -12.2214   17.8851 C   0  0  0  0  0  0  0  0  0  0  0  0
   -2.2706   -8.9669   19.0691 C   0  0  0  0  0  0  0  0  0  0  0  0
    3.0279   -5.3073   26.8197 C   0  0  0  0  0  0  0  0  0  0  0  0
    7.3282   -3.8948   29.1186 C   0  0  0  0  0  0  0  0  0  0  0  0
  1  3  4  0
  1  7  4  0
  2  3  1  0
  2  6  4  0
  2 16  4  0
  3 22  4  0
  4  9  4  0
  4 10  1  0
  4 20  4  0
  5 16  4  0
  5 23  4  0
  6 15  4  0
  7 12  4  0
  8 13  4  0
  8 14  4  0
  9 11  4  0
 11 14  4  0
 11 19  4  0
 12 18  4  0
 13 21  4  0
 15 23  4  0
 17 19  4  0
 17 20  4  0
 18 22  4  0
 19 21  4  0
M  END
$$$$

 Created by Python create_sdf_string function

 23 25  0  0  0  0  0  0  0  0999 V2000
    2.4610   -5.3070   29.1240 C   0  0  0  0  0  0  0  0  0  0  0  0
    4.7710   -4.6952   28.4803 C   0  0  0  0  0  0  0  0  0  0  0  0
    3.4047   -5.1087   28.1314 C   0  0  0  0  0  0  0  0  0  0  0  0
   -0.2234  -11.8615   16.8874 C   0  0  0  0  0  0  0  0  0  0  0  0
    6.4491   -4.1532   30.1213 C   0  0  0  0  0  0  0  0  0  0  0  0
    5.7060   -4.4340   27.4975 C   0  0  0  0  0  0  0  0  0  0  0  0
    1.1818   -5.6612   28.8399 C   0  0  0  0  0  0  0  0  0  0  0  0
   -1.2067   -7.3287   17.7772 C   0  0  0  0  0  0  0  0  0  0  0  0
   -0.0206  -10.5585   16.6210 C   0  0  0  0  0  0  0  0  0  0  0  0
    0.3696  -12.7626   16.2169 O   0  0  0  0  0  0  0  0  0  0  0  0
   -0.6895   -9.5676   17.3297 C   0  0  0  0  0  0  0  0  0  0  0  0
    0.8388   -5.8417   27.5264 C   0  0  0  0  0  0  0  0  0  0  0  0
   -2.0709   -7.6637   18.7817 C   0  0  0  0  0  0  0  0  0  0  0  0
   -0.5279   -8.2168   17.0717 C   0  0  0  0  0  0  0  0  0  0  0  0
    6.9694   -4.0191   27.8190 C   0  0  0  0  0  0  0  0  0  0  0  0
    5.1733   -4.5469   29.8123 C   0  0  0  0  0  0  0  0  0  0  0  0
   -1.7508  -11.3016   18.6072 C   0  0  0  0  0  0  0  0  0  0  0  0
    1.7497   -5.6771   26.4971 C   0  0  0  0  0  0  0  0  0  0  0  0
   -1.5799   -9.9322   18.3468 C   0  0  0  0  0  0  0  0  0  0  0  0
   -1.0871  -12.2214   17.8851 C   0  0  0  0  0  0  0  0  0  0  0  0
   -2.2706   -8.9669   19.0691 C   0  0  0  0  0  0  0  0  0  0  0  0
    3.0279   -5.3073   26.8197 C   0  0  0  0  0  0  0  0  0  0  0  0
    7.3282   -3.8948   29.1186 C   0  0  0  0  0  0  0  0  0  0  0  0
  1  3  4  0
  1  7  4  0
  2  3  1  0
  2  6  4  0
  2 16  4  0
  3 22  4  0
  4  9  4  0
  4 10  1  0
  4 20  4  0
  5 16  4  0
  5 23  4  0
  6 15  4  0
  7 12  4  0
  8 13  4  0
  8 14  4  0
  9 11  4  0
 11 14  4  0
 11 19  4  0
 12 18  4  0
 13 21  4  0
 15 23  4  0
 17 19  4  0
 17 20  4  0
 18 22  4  0
 19 21  4  0
M  END
$$$$

 Created by Python create_sdf_string function

 23 25  0  0  0  0  0  0  0  0999 V2000
    2.4610   -5.3070   29.1240 C   0  0  0  0  0  0  0  0  0  0  0  0
    4.7710   -4.6952   28.4803 C   0  0  0  0  0  0  0  0  0  0  0  0
    3.4047   -5.1087   28.1314 C   0  0  0  0  0  0  0  0  0  0  0  0
   -0.2234  -11.8615   16.8874 C   0  0  0  0  0  0  0  0  0  0  0  0
    6.4491   -4.1532   30.1213 C   0  0  0  0  0  0  0  0  0  0  0  0
    5.7060   -4.4340   27.4975 C   0  0  0  0  0  0  0  0  0  0  0  0
    1.1818   -5.6612   28.8399 C   0  0  0  0  0  0  0  0  0  0  0  0
   -1.2067   -7.3287   17.7772 C   0  0  0  0  0  0  0  0  0  0  0  0
   -0.0206  -10.5585   16.6210 C   0  0  0  0  0  0  0  0  0  0  0  0
    0.3696  -12.7626   16.2169 O   0  0  0  0  0  0  0  0  0  0  0  0
   -0.6895   -9.5676   17.3297 C   0  0  0  0  0  0  0  0  0  0  0  0
    0.8388   -5.8417   27.5264 C   0  0  0  0  0  0  0  0  0  0  0  0
   -2.0709   -7.6637   18.7817 C   0  0  0  0  0  0  0  0  0  0  0  0
   -0.5279   -8.2168   17.0717 C   0  0  0  0  0  0  0  0  0  0  0  0
    6.9694   -4.0191   27.8190 C   0  0  0  0  0  0  0  0  0  0  0  0
    5.1733   -4.5469   29.8123 C   0  0  0  0  0  0  0  0  0  0  0  0
   -1.7508  -11.3016   18.6072 C   0  0  0  0  0  0  0  0  0  0  0  0
    1.7497   -5.6771   26.4971 C   0  0  0  0  0  0  0  0  0  0  0  0
   -1.5799   -9.9322   18.3468 C   0  0  0  0  0  0  0  0  0  0  0  0
   -1.0871  -12.2214   17.8851 C   0  0  0  0  0  0  0  0  0  0  0  0
   -2.2706   -8.9669   19.0691 C   0  0  0  0  0  0  0  0  0  0  0  0
    3.0279   -5.3073   26.8197 C   0  0  0  0  0  0  0  0  0  0  0  0
    7.3282   -3.8948   29.1186 C   0  0  0  0  0  0  0  0  0  0  0  0
  1  3  4  0
  1  7  4  0
  2  3  1  0
  2  6  4  0
  2 16  4  0
  3 22  4  0
  4  9  4  0
  4 10  1  0
  4 20  4  0
  5 16  4  0
  5 23  4  0
  6 15  4  0
  7 12  4  0
  8 13  4  0
  8 14  4  0
  9 11  4  0
 11 14  4  0
 11 19  4  0
 12 18  4  0
 13 21  4  0
 15 23  4  0
 17 19  4  0
 17 20  4  0
 18 22  4  0
 19 21  4  0
M  END
$$$$

 Created by Python create_sdf_string function

 23 25  0  0  0  0  0  0  0  0999 V2000
    2.4610   -5.3070   29.1240 C   0  0  0  0  0  0  0  0  0  0  0  0
    4.7710   -4.6952   28.4803 C   0  0  0  0  0  0  0  0  0  0  0  0
    3.4047   -5.1087   28.1314 C   0  0  0  0  0  0  0  0  0  0  0  0
   -0.2234  -11.8615   16.8874 C   0  0  0  0  0  0  0  0  0  0  0  0
    6.4491   -4.1532   30.1213 C   0  0  0  0  0  0  0  0  0  0  0  0
    5.7060   -4.4340   27.4975 C   0  0  0  0  0  0  0  0  0  0  0  0
    1.1818   -5.6612   28.8399 C   0  0  0  0  0  0  0  0  0  0  0  0
   -1.2067   -7.3287   17.7772 C   0  0  0  0  0  0  0  0  0  0  0  0
   -0.0206  -10.5585   16.6210 C   0  0  0  0  0  0  0  0  0  0  0  0
    0.3696  -12.7626   16.2169 O   0  0  0  0  0  0  0  0  0  0  0  0
   -0.6895   -9.5676   17.3297 C   0  0  0  0  0  0  0  0  0  0  0  0
    0.8388   -5.8417   27.5264 C   0  0  0  0  0  0  0  0  0  0  0  0
   -2.0709   -7.6637   18.7817 C   0  0  0  0  0  0  0  0  0  0  0  0
   -0.5279   -8.2168   17.0717 C   0  0  0  0  0  0  0  0  0  0  0  0
    6.9694   -4.0191   27.8190 C   0  0  0  0  0  0  0  0  0  0  0  0
    5.1733   -4.5469   29.8123 C   0  0  0  0  0  0  0  0  0  0  0  0
   -1.7508  -11.3016   18.6072 C   0  0  0  0  0  0  0  0  0  0  0  0
    1.7497   -5.6771   26.4971 C   0  0  0  0  0  0  0  0  0  0  0  0
   -1.5799   -9.9322   18.3468 C   0  0  0  0  0  0  0  0  0  0  0  0
   -1.0871  -12.2214   17.8851 C   0  0  0  0  0  0  0  0  0  0  0  0
   -2.2706   -8.9669   19.0691 C   0  0  0  0  0  0  0  0  0  0  0  0
    3.0279   -5.3073   26.8197 C   0  0  0  0  0  0  0  0  0  0  0  0
    7.3282   -3.8948   29.1186 C   0  0  0  0  0  0  0  0  0  0  0  0
  1  3  4  0
  1  7  4  0
  2  3  1  0
  2  6  4  0
  2 16  4  0
  3 22  4  0
  4  9  4  0
  4 10  1  0
  4 20  4  0
  5 16  4  0
  5 23  4  0
  6 15  4  0
  7 12  4  0
  8 13  4  0
  8 14  4  0
  9 11  4  0
 11 14  4  0
 11 19  4  0
 12 18  4  0
 13 21  4  0
 15 23  4  0
 17 19  4  0
 17 20  4  0
 18 22  4  0
 19 21  4  0
M  END
$$$$

 Created by Python create_sdf_string function

 23 25  0  0  0  0  0  0  0  0999 V2000
    2.4610   -5.3070   29.1240 C   0  0  0  0  0  0  0  0  0  0  0  0
    4.7710   -4.6952   28.4803 C   0  0  0  0  0  0  0  0  0  0  0  0
    3.4047   -5.1087   28.1314 C   0  0  0  0  0  0  0  0  0  0  0  0
   -0.2234  -11.8615   16.8874 C   0  0  0  0  0  0  0  0  0  0  0  0
    6.4491   -4.1532   30.1213 C   0  0  0  0  0  0  0  0  0  0  0  0
    5.7060   -4.4340   27.4975 C   0  0  0  0  0  0  0  0  0  0  0  0
    1.1818   -5.6612   28.8399 C   0  0  0  0  0  0  0  0  0  0  0  0
   -1.2067   -7.3287   17.7772 C   0  0  0  0  0  0  0  0  0  0  0  0
   -0.0206  -10.5585   16.6210 C   0  0  0  0  0  0  0  0  0  0  0  0
    0.3696  -12.7626   16.2169 O   0  0  0  0  0  0  0  0  0  0  0  0
   -0.6895   -9.5676   17.3297 C   0  0  0  0  0  0  0  0  0  0  0  0
    0.8388   -5.8417   27.5264 C   0  0  0  0  0  0  0  0  0  0  0  0
   -2.0709   -7.6637   18.7817 C   0  0  0  0  0  0  0  0  0  0  0  0
   -0.5279   -8.2168   17.0717 C   0  0  0  0  0  0  0  0  0  0  0  0
    6.9694   -4.0191   27.8190 C   0  0  0  0  0  0  0  0  0  0  0  0
    5.1733   -4.5469   29.8123 C   0  0  0  0  0  0  0  0  0  0  0  0
   -1.7508  -11.3016   18.6072 C   0  0  0  0  0  0  0  0  0  0  0  0
    1.7497   -5.6771   26.4971 C   0  0  0  0  0  0  0  0  0  0  0  0
   -1.5799   -9.9322   18.3468 C   0  0  0  0  0  0  0  0  0  0  0  0
   -1.0871  -12.2214   17.8851 C   0  0  0  0  0  0  0  0  0  0  0  0
   -2.2706   -8.9669   19.0691 C   0  0  0  0  0  0  0  0  0  0  0  0
    3.0279   -5.3073   26.8197 C   0  0  0  0  0  0  0  0  0  0  0  0
    7.3282   -3.8948   29.1186 C   0  0  0  0  0  0  0  0  0  0  0  0
  1  3  4  0
  1  7  4  0
  2  3  1  0
  2  6  4  0
  2 16  4  0
  3 22  4  0
  4  9  4  0
  4 10  1  0
  4 20  4  0
  5 16  4  0
  5 23  4  0
  6 15  4  0
  7 12  4  0
  8 13  4  0
  8 14  4  0
  9 11  4  0
 11 14  4  0
 11 19  4  0
 12 18  4  0
 13 21  4  0
 15 23  4  0
 17 19  4  0
 17 20  4  0
 18 22  4  0
 19 21  4  0
M  END
$$$$

 Created by Python create_sdf_string function

 23 25  0  0  0  0  0  0  0  0999 V2000
    2.4610   -5.3070   29.1240 C   0  0  0  0  0  0  0  0  0  0  0  0
    4.7710   -4.6952   28.4803 C   0  0  0  0  0  0  0  0  0  0  0  0
    3.4047   -5.1087   28.1314 C   0  0  0  0  0  0  0  0  0  0  0  0
   -0.2234  -11.8615   16.8874 C   0  0  0  0  0  0  0  0  0  0  0  0
    6.4491   -4.1532   30.1213 C   0  0  0  0  0  0  0  0  0  0  0  0
    5.7060   -4.4340   27.4975 C   0  0  0  0  0  0  0  0  0  0  0  0
    1.1818   -5.6612   28.8399 C   0  0  0  0  0  0  0  0  0  0  0  0
   -1.2067   -7.3287   17.7772 C   0  0  0  0  0  0  0  0  0  0  0  0
   -0.0206  -10.5585   16.6210 C   0  0  0  0  0  0  0  0  0  0  0  0
    0.3696  -12.7626   16.2169 O   0  0  0  0  0  0  0  0  0  0  0  0
   -0.6895   -9.5676   17.3297 C   0  0  0  0  0  0  0  0  0  0  0  0
    0.8388   -5.8417   27.5264 C   0  0  0  0  0  0  0  0  0  0  0  0
   -2.0709   -7.6637   18.7817 C   0  0  0  0  0  0  0  0  0  0  0  0
   -0.5279   -8.2168   17.0717 C   0  0  0  0  0  0  0  0  0  0  0  0
    6.9694   -4.0191   27.8190 C   0  0  0  0  0  0  0  0  0  0  0  0
    5.1733   -4.5469   29.8123 C   0  0  0  0  0  0  0  0  0  0  0  0
   -1.7508  -11.3016   18.6072 C   0  0  0  0  0  0  0  0  0  0  0  0
    1.7497   -5.6771   26.4971 C   0  0  0  0  0  0  0  0  0  0  0  0
   -1.5799   -9.9322   18.3468 C   0  0  0  0  0  0  0  0  0  0  0  0
   -1.0871  -12.2214   17.8851 C   0  0  0  0  0  0  0  0  0  0  0  0
   -2.2706   -8.9669   19.0691 C   0  0  0  0  0  0  0  0  0  0  0  0
    3.0279   -5.3073   26.8197 C   0  0  0  0  0  0  0  0  0  0  0  0
    7.3282   -3.8948   29.1186 C   0  0  0  0  0  0  0  0  0  0  0  0
  1  3  4  0
  1  7  4  0
  2  3  1  0
  2  6  4  0
  2 16  4  0
  3 22  4  0
  4  9  4  0
  4 10  1  0
  4 20  4  0
  5 16  4  0
  5 23  4  0
  6 15  4  0
  7 12  4  0
  8 13  4  0
  8 14  4  0
  9 11  4  0
 11 14  4  0
 11 19  4  0
 12 18  4  0
 13 21  4  0
 15 23  4  0
 17 19  4  0
 17 20  4  0
 18 22  4  0
 19 21  4  0
M  END
$$$$

 Created by Python create_sdf_string function

 23 25  0  0  0  0  0  0  0  0999 V2000
    2.4610   -5.3070   29.1240 C   0  0  0  0  0  0  0  0  0  0  0  0
    4.7710   -4.6952   28.4803 C   0  0  0  0  0  0  0  0  0  0  0  0
    3.4047   -5.1087   28.1314 C   0  0  0  0  0  0  0  0  0  0  0  0
   -0.2234  -11.8615   16.8874 C   0  0  0  0  0  0  0  0  0  0  0  0
    6.4491   -4.1532   30.1213 C   0  0  0  0  0  0  0  0  0  0  0  0
    5.7060   -4.4340   27.4975 C   0  0  0  0  0  0  0  0  0  0  0  0
    1.1818   -5.6612   28.8399 C   0  0  0  0  0  0  0  0  0  0  0  0
   -1.2067   -7.3287   17.7772 C   0  0  0  0  0  0  0  0  0  0  0  0
   -0.0206  -10.5585   16.6210 C   0  0  0  0  0  0  0  0  0  0  0  0
    0.3696  -12.7626   16.2169 O   0  0  0  0  0  0  0  0  0  0  0  0
   -0.6895   -9.5676   17.3297 C   0  0  0  0  0  0  0  0  0  0  0  0
    0.8388   -5.8417   27.5264 C   0  0  0  0  0  0  0  0  0  0  0  0
   -2.0709   -7.6637   18.7817 C   0  0  0  0  0  0  0  0  0  0  0  0
   -0.5279   -8.2168   17.0717 C   0  0  0  0  0  0  0  0  0  0  0  0
    6.9694   -4.0191   27.8190 C   0  0  0  0  0  0  0  0  0  0  0  0
    5.1733   -4.5469   29.8123 C   0  0  0  0  0  0  0  0  0  0  0  0
   -1.7508  -11.3016   18.6072 C   0  0  0  0  0  0  0  0  0  0  0  0
    1.7497   -5.6771   26.4971 C   0  0  0  0  0  0  0  0  0  0  0  0
   -1.5799   -9.9322   18.3468 C   0  0  0  0  0  0  0  0  0  0  0  0
   -1.0871  -12.2214   17.8851 C   0  0  0  0  0  0  0  0  0  0  0  0
   -2.2706   -8.9669   19.0691 C   0  0  0  0  0  0  0  0  0  0  0  0
    3.0279   -5.3073   26.8197 C   0  0  0  0  0  0  0  0  0  0  0  0
    7.3282   -3.8948   29.1186 C   0  0  0  0  0  0  0  0  0  0  0  0
  1  3  4  0
  1  7  4  0
  2  3  1  0
  2  6  4  0
  2 16  4  0
  3 22  4  0
  4  9  4  0
  4 10  1  0
  4 20  4  0
  5 16  4  0
  5 23  4  0
  6 15  4  0
  7 12  4  0
  8 13  4  0
  8 14  4  0
  9 11  4  0
 11 14  4  0
 11 19  4  0
 12 18  4  0
 13 21  4  0
 15 23  4  0
 17 19  4  0
 17 20  4  0
 18 22  4  0
 19 21  4  0
M  END
$$$$

 Created by Python create_sdf_string function

 23 25  0  0  0  0  0  0  0  0999 V2000
    2.4610   -5.3070   29.1240 C   0  0  0  0  0  0  0  0  0  0  0  0
    4.7710   -4.6952   28.4803 C   0  0  0  0  0  0  0  0  0  0  0  0
    3.4047   -5.1087   28.1314 C   0  0  0  0  0  0  0  0  0  0  0  0
   -0.2234  -11.8615   16.8874 C   0  0  0  0  0  0  0  0  0  0  0  0
    6.4491   -4.1532   30.1213 C   0  0  0  0  0  0  0  0  0  0  0  0
    5.7060   -4.4340   27.4975 C   0  0  0  0  0  0  0  0  0  0  0  0
    1.1818   -5.6612   28.8399 C   0  0  0  0  0  0  0  0  0  0  0  0
   -1.2067   -7.3287   17.7772 C   0  0  0  0  0  0  0  0  0  0  0  0
   -0.0206  -10.5585   16.6210 C   0  0  0  0  0  0  0  0  0  0  0  0
    0.3696  -12.7626   16.2169 O   0  0  0  0  0  0  0  0  0  0  0  0
   -0.6895   -9.5676   17.3297 C   0  0  0  0  0  0  0  0  0  0  0  0
    0.8388   -5.8417   27.5264 C   0  0  0  0  0  0  0  0  0  0  0  0
   -2.0709   -7.6637   18.7817 C   0  0  0  0  0  0  0  0  0  0  0  0
   -0.5279   -8.2168   17.0717 C   0  0  0  0  0  0  0  0  0  0  0  0
    6.9694   -4.0191   27.8190 C   0  0  0  0  0  0  0  0  0  0  0  0
    5.1733   -4.5469   29.8123 C   0  0  0  0  0  0  0  0  0  0  0  0
   -1.7508  -11.3016   18.6072 C   0  0  0  0  0  0  0  0  0  0  0  0
    1.7497   -5.6771   26.4971 C   0  0  0  0  0  0  0  0  0  0  0  0
   -1.5799   -9.9322   18.3468 C   0  0  0  0  0  0  0  0  0  0  0  0
   -1.0871  -12.2214   17.8851 C   0  0  0  0  0  0  0  0  0  0  0  0
   -2.2706   -8.9669   19.0691 C   0  0  0  0  0  0  0  0  0  0  0  0
    3.0279   -5.3073   26.8197 C   0  0  0  0  0  0  0  0  0  0  0  0
    7.3282   -3.8948   29.1186 C   0  0  0  0  0  0  0  0  0  0  0  0
  1  3  4  0
  1  7  4  0
  2  3  1  0
  2  6  4  0
  2 16  4  0
  3 22  4  0
  4  9  4  0
  4 10  1  0
  4 20  4  0
  5 16  4  0
  5 23  4  0
  6 15  4  0
  7 12  4  0
  8 13  4  0
  8 14  4  0
  9 11  4  0
 11 14  4  0
 11 19  4  0
 12 18  4  0
 13 21  4  0
 15 23  4  0
 17 19  4  0
 17 20  4  0
 18 22  4  0
 19 21  4  0
M  END
$$$$

 Created by Python create_sdf_string function

 23 25  0  0  0  0  0  0  0  0999 V2000
    2.4610   -5.3070   29.1240 C   0  0  0  0  0  0  0  0  0  0  0  0
    4.7710   -4.6952   28.4803 C   0  0  0  0  0  0  0  0  0  0  0  0
    3.4047   -5.1087   28.1314 C   0  0  0  0  0  0  0  0  0  0  0  0
   -0.2234  -11.8615   16.8874 C   0  0  0  0  0  0  0  0  0  0  0  0
    6.4491   -4.1532   30.1213 C   0  0  0  0  0  0  0  0  0  0  0  0
    5.7060   -4.4340   27.4975 C   0  0  0  0  0  0  0  0  0  0  0  0
    1.1818   -5.6612   28.8399 C   0  0  0  0  0  0  0  0  0  0  0  0
   -1.2067   -7.3287   17.7772 C   0  0  0  0  0  0  0  0  0  0  0  0
   -0.0206  -10.5585   16.6210 C   0  0  0  0  0  0  0  0  0  0  0  0
    0.3696  -12.7626   16.2169 O   0  0  0  0  0  0  0  0  0  0  0  0
   -0.6895   -9.5676   17.3297 C   0  0  0  0  0  0  0  0  0  0  0  0
    0.8388   -5.8417   27.5264 C   0  0  0  0  0  0  0  0  0  0  0  0
   -2.0709   -7.6637   18.7817 C   0  0  0  0  0  0  0  0  0  0  0  0
   -0.5279   -8.2168   17.0717 C   0  0  0  0  0  0  0  0  0  0  0  0
    6.9694   -4.0191   27.8190 C   0  0  0  0  0  0  0  0  0  0  0  0
    5.1733   -4.5469   29.8123 C   0  0  0  0  0  0  0  0  0  0  0  0
   -1.7508  -11.3016   18.6072 C   0  0  0  0  0  0  0  0  0  0  0  0
    1.7497   -5.6771   26.4971 C   0  0  0  0  0  0  0  0  0  0  0  0
   -1.5799   -9.9322   18.3468 C   0  0  0  0  0  0  0  0  0  0  0  0
   -1.0871  -12.2214   17.8851 C   0  0  0  0  0  0  0  0  0  0  0  0
   -2.2706   -8.9669   19.0691 C   0  0  0  0  0  0  0  0  0  0  0  0
    3.0279   -5.3073   26.8197 C   0  0  0  0  0  0  0  0  0  0  0  0
    7.3282   -3.8948   29.1186 C   0  0  0  0  0  0  0  0  0  0  0  0
  1  3  4  0
  1  7  4  0
  2  3  1  0
  2  6  4  0
  2 16  4  0
  3 22  4  0
  4  9  4  0
  4 10  1  0
  4 20  4  0
  5 16  4  0
  5 23  4  0
  6 15  4  0
  7 12  4  0
  8 13  4  0
  8 14  4  0
  9 11  4  0
 11 14  4  0
 11 19  4  0
 12 18  4  0
 13 21  4  0
 15 23  4  0
 17 19  4  0
 17 20  4  0
 18 22  4  0
 19 21  4  0
M  END
$$$$

 Created by Python create_sdf_string function

 23 25  0  0  0  0  0  0  0  0999 V2000
    2.4610   -5.3070   29.1240 C   0  0  0  0  0  0  0  0  0  0  0  0
    4.7710   -4.6952   28.4803 C   0  0  0  0  0  0  0  0  0  0  0  0
    3.4047   -5.1087   28.1314 C   0  0  0  0  0  0  0  0  0  0  0  0
   -0.2234  -11.8615   16.8874 C   0  0  0  0  0  0  0  0  0  0  0  0
    6.4491   -4.1532   30.1213 C   0  0  0  0  0  0  0  0  0  0  0  0
    5.7060   -4.4340   27.4975 C   0  0  0  0  0  0  0  0  0  0  0  0
    1.1818   -5.6612   28.8399 C   0  0  0  0  0  0  0  0  0  0  0  0
   -1.2067   -7.3287   17.7772 C   0  0  0  0  0  0  0  0  0  0  0  0
   -0.0206  -10.5585   16.6210 C   0  0  0  0  0  0  0  0  0  0  0  0
    0.3696  -12.7626   16.2169 O   0  0  0  0  0  0  0  0  0  0  0  0
   -0.6895   -9.5676   17.3297 C   0  0  0  0  0  0  0  0  0  0  0  0
    0.8388   -5.8417   27.5264 C   0  0  0  0  0  0  0  0  0  0  0  0
   -2.0709   -7.6637   18.7817 C   0  0  0  0  0  0  0  0  0  0  0  0
   -0.5279   -8.2168   17.0717 C   0  0  0  0  0  0  0  0  0  0  0  0
    6.9694   -4.0191   27.8190 C   0  0  0  0  0  0  0  0  0  0  0  0
    5.1733   -4.5469   29.8123 C   0  0  0  0  0  0  0  0  0  0  0  0
   -1.7508  -11.3016   18.6072 C   0  0  0  0  0  0  0  0  0  0  0  0
    1.7497   -5.6771   26.4971 C   0  0  0  0  0  0  0  0  0  0  0  0
   -1.5799   -9.9322   18.3468 C   0  0  0  0  0  0  0  0  0  0  0  0
   -1.0871  -12.2214   17.8851 C   0  0  0  0  0  0  0  0  0  0  0  0
   -2.2706   -8.9669   19.0691 C   0  0  0  0  0  0  0  0  0  0  0  0
    3.0279   -5.3073   26.8197 C   0  0  0  0  0  0  0  0  0  0  0  0
    7.3282   -3.8948   29.1186 C   0  0  0  0  0  0  0  0  0  0  0  0
  1  3  4  0
  1  7  4  0
  2  3  1  0
  2  6  4  0
  2 16  4  0
  3 22  4  0
  4  9  4  0
  4 10  1  0
  4 20  4  0
  5 16  4  0
  5 23  4  0
  6 15  4  0
  7 12  4  0
  8 13  4  0
  8 14  4  0
  9 11  4  0
 11 14  4  0
 11 19  4  0
 12 18  4  0
 13 21  4  0
 15 23  4  0
 17 19  4  0
 17 20  4  0
 18 22  4  0
 19 21  4  0
M  END
$$$$

 Created by Python create_sdf_string function

 23 25  0  0  0  0  0  0  0  0999 V2000
    2.4610   -5.3070   29.1240 C   0  0  0  0  0  0  0  0  0  0  0  0
    4.7710   -4.6952   28.4803 C   0  0  0  0  0  0  0  0  0  0  0  0
    3.4047   -5.1087   28.1314 C   0  0  0  0  0  0  0  0  0  0  0  0
   -0.2234  -11.8615   16.8874 C   0  0  0  0  0  0  0  0  0  0  0  0
    6.4491   -4.1532   30.1213 C   0  0  0  0  0  0  0  0  0  0  0  0
    5.7060   -4.4340   27.4975 C   0  0  0  0  0  0  0  0  0  0  0  0
    1.1818   -5.6612   28.8399 C   0  0  0  0  0  0  0  0  0  0  0  0
   -1.2067   -7.3287   17.7772 C   0  0  0  0  0  0  0  0  0  0  0  0
   -0.0206  -10.5585   16.6210 C   0  0  0  0  0  0  0  0  0  0  0  0
    0.3696  -12.7626   16.2169 O   0  0  0  0  0  0  0  0  0  0  0  0
   -0.6895   -9.5676   17.3297 C   0  0  0  0  0  0  0  0  0  0  0  0
    0.8388   -5.8417   27.5264 C   0  0  0  0  0  0  0  0  0  0  0  0
   -2.0709   -7.6637   18.7817 C   0  0  0  0  0  0  0  0  0  0  0  0
   -0.5279   -8.2168   17.0717 C   0  0  0  0  0  0  0  0  0  0  0  0
    6.9694   -4.0191   27.8190 C   0  0  0  0  0  0  0  0  0  0  0  0
    5.1733   -4.5469   29.8123 C   0  0  0  0  0  0  0  0  0  0  0  0
   -1.7508  -11.3016   18.6072 C   0  0  0  0  0  0  0  0  0  0  0  0
    1.7497   -5.6771   26.4971 C   0  0  0  0  0  0  0  0  0  0  0  0
   -1.5799   -9.9322   18.3468 C   0  0  0  0  0  0  0  0  0  0  0  0
   -1.0871  -12.2214   17.8851 C   0  0  0  0  0  0  0  0  0  0  0  0
   -2.2706   -8.9669   19.0691 C   0  0  0  0  0  0  0  0  0  0  0  0
    3.0279   -5.3073   26.8197 C   0  0  0  0  0  0  0  0  0  0  0  0
    7.3282   -3.8948   29.1186 C   0  0  0  0  0  0  0  0  0  0  0  0
  1  3  4  0
  1  7  4  0
  2  3  1  0
  2  6  4  0
  2 16  4  0
  3 22  4  0
  4  9  4  0
  4 10  1  0
  4 20  4  0
  5 16  4  0
  5 23  4  0
  6 15  4  0
  7 12  4  0
  8 13  4  0
  8 14  4  0
  9 11  4  0
 11 14  4  0
 11 19  4  0
 12 18  4  0
 13 21  4  0
 15 23  4  0
 17 19  4  0
 17 20  4  0
 18 22  4  0
 19 21  4  0
M  END
$$$$

 Created by Python create_sdf_string function

 23 25  0  0  0  0  0  0  0  0999 V2000
    2.4610   -5.3070   29.1240 C   0  0  0  0  0  0  0  0  0  0  0  0
    4.7710   -4.6952   28.4803 C   0  0  0  0  0  0  0  0  0  0  0  0
    3.4047   -5.1087   28.1314 C   0  0  0  0  0  0  0  0  0  0  0  0
   -0.2234  -11.8615   16.8874 C   0  0  0  0  0  0  0  0  0  0  0  0
    6.4491   -4.1532   30.1213 C   0  0  0  0  0  0  0  0  0  0  0  0
    5.7060   -4.4340   27.4975 C   0  0  0  0  0  0  0  0  0  0  0  0
    1.1818   -5.6612   28.8399 C   0  0  0  0  0  0  0  0  0  0  0  0
   -1.2067   -7.3287   17.7772 C   0  0  0  0  0  0  0  0  0  0  0  0
   -0.0206  -10.5585   16.6210 C   0  0  0  0  0  0  0  0  0  0  0  0
    0.3696  -12.7626   16.2169 O   0  0  0  0  0  0  0  0  0  0  0  0
   -0.6895   -9.5676   17.3297 C   0  0  0  0  0  0  0  0  0  0  0  0
    0.8388   -5.8417   27.5264 C   0  0  0  0  0  0  0  0  0  0  0  0
   -2.0709   -7.6637   18.7817 C   0  0  0  0  0  0  0  0  0  0  0  0
   -0.5279   -8.2168   17.0717 C   0  0  0  0  0  0  0  0  0  0  0  0
    6.9694   -4.0191   27.8190 C   0  0  0  0  0  0  0  0  0  0  0  0
    5.1733   -4.5469   29.8123 C   0  0  0  0  0  0  0  0  0  0  0  0
   -1.7508  -11.3016   18.6072 C   0  0  0  0  0  0  0  0  0  0  0  0
    1.7497   -5.6771   26.4971 C   0  0  0  0  0  0  0  0  0  0  0  0
   -1.5799   -9.9322   18.3468 C   0  0  0  0  0  0  0  0  0  0  0  0
   -1.0871  -12.2214   17.8851 C   0  0  0  0  0  0  0  0  0  0  0  0
   -2.2706   -8.9669   19.0691 C   0  0  0  0  0  0  0  0  0  0  0  0
    3.0279   -5.3073   26.8197 C   0  0  0  0  0  0  0  0  0  0  0  0
    7.3282   -3.8948   29.1186 C   0  0  0  0  0  0  0  0  0  0  0  0
  1  3  4  0
  1  7  4  0
  2  3  1  0
  2  6  4  0
  2 16  4  0
  3 22  4  0
  4  9  4  0
  4 10  1  0
  4 20  4  0
  5 16  4  0
  5 23  4  0
  6 15  4  0
  7 12  4  0
  8 13  4  0
  8 14  4  0
  9 11  4  0
 11 14  4  0
 11 19  4  0
 12 18  4  0
 13 21  4  0
 15 23  4  0
 17 19  4  0
 17 20  4  0
 18 22  4  0
 19 21  4  0
M  END
$$$$

 Created by Python create_sdf_string function

 23 25  0  0  0  0  0  0  0  0999 V2000
    2.4610   -5.3070   29.1240 C   0  0  0  0  0  0  0  0  0  0  0  0
    4.7710   -4.6952   28.4803 C   0  0  0  0  0  0  0  0  0  0  0  0
    3.4047   -5.1087   28.1314 C   0  0  0  0  0  0  0  0  0  0  0  0
   -0.2234  -11.8615   16.8874 C   0  0  0  0  0  0  0  0  0  0  0  0
    6.4491   -4.1532   30.1213 C   0  0  0  0  0  0  0  0  0  0  0  0
    5.7060   -4.4340   27.4975 C   0  0  0  0  0  0  0  0  0  0  0  0
    1.1818   -5.6612   28.8399 C   0  0  0  0  0  0  0  0  0  0  0  0
   -1.2067   -7.3287   17.7772 C   0  0  0  0  0  0  0  0  0  0  0  0
   -0.0206  -10.5585   16.6210 C   0  0  0  0  0  0  0  0  0  0  0  0
    0.3696  -12.7626   16.2169 O   0  0  0  0  0  0  0  0  0  0  0  0
   -0.6895   -9.5676   17.3297 C   0  0  0  0  0  0  0  0  0  0  0  0
    0.8388   -5.8417   27.5264 C   0  0  0  0  0  0  0  0  0  0  0  0
   -2.0709   -7.6637   18.7817 C   0  0  0  0  0  0  0  0  0  0  0  0
   -0.5279   -8.2168   17.0717 C   0  0  0  0  0  0  0  0  0  0  0  0
    6.9694   -4.0191   27.8190 C   0  0  0  0  0  0  0  0  0  0  0  0
    5.1733   -4.5469   29.8123 C   0  0  0  0  0  0  0  0  0  0  0  0
   -1.7508  -11.3016   18.6072 C   0  0  0  0  0  0  0  0  0  0  0  0
    1.7497   -5.6771   26.4971 C   0  0  0  0  0  0  0  0  0  0  0  0
   -1.5799   -9.9322   18.3468 C   0  0  0  0  0  0  0  0  0  0  0  0
   -1.0871  -12.2214   17.8851 C   0  0  0  0  0  0  0  0  0  0  0  0
   -2.2706   -8.9669   19.0691 C   0  0  0  0  0  0  0  0  0  0  0  0
    3.0279   -5.3073   26.8197 C   0  0  0  0  0  0  0  0  0  0  0  0
    7.3282   -3.8948   29.1186 C   0  0  0  0  0  0  0  0  0  0  0  0
  1  3  4  0
  1  7  4  0
  2  3  1  0
  2  6  4  0
  2 16  4  0
  3 22  4  0
  4  9  4  0
  4 10  1  0
  4 20  4  0
  5 16  4  0
  5 23  4  0
  6 15  4  0
  7 12  4  0
  8 13  4  0
  8 14  4  0
  9 11  4  0
 11 14  4  0
 11 19  4  0
 12 18  4  0
 13 21  4  0
 15 23  4  0
 17 19  4  0
 17 20  4  0
 18 22  4  0
 19 21  4  0
M  END
$$$$

 Created by Python create_sdf_string function

 23 25  0  0  0  0  0  0  0  0999 V2000
    2.4610   -5.3070   29.1240 C   0  0  0  0  0  0  0  0  0  0  0  0
    4.7710   -4.6952   28.4803 C   0  0  0  0  0  0  0  0  0  0  0  0
    3.4047   -5.1087   28.1314 C   0  0  0  0  0  0  0  0  0  0  0  0
   -0.2234  -11.8615   16.8874 C   0  0  0  0  0  0  0  0  0  0  0  0
    6.4491   -4.1532   30.1213 C   0  0  0  0  0  0  0  0  0  0  0  0
    5.7060   -4.4340   27.4975 C   0  0  0  0  0  0  0  0  0  0  0  0
    1.1818   -5.6612   28.8399 C   0  0  0  0  0  0  0  0  0  0  0  0
   -1.2067   -7.3287   17.7772 C   0  0  0  0  0  0  0  0  0  0  0  0
   -0.0206  -10.5585   16.6210 C   0  0  0  0  0  0  0  0  0  0  0  0
    0.3696  -12.7626   16.2169 O   0  0  0  0  0  0  0  0  0  0  0  0
   -0.6895   -9.5676   17.3297 C   0  0  0  0  0  0  0  0  0  0  0  0
    0.8388   -5.8417   27.5264 C   0  0  0  0  0  0  0  0  0  0  0  0
   -2.0709   -7.6637   18.7817 C   0  0  0  0  0  0  0  0  0  0  0  0
   -0.5279   -8.2168   17.0717 C   0  0  0  0  0  0  0  0  0  0  0  0
    6.9694   -4.0191   27.8190 C   0  0  0  0  0  0  0  0  0  0  0  0
    5.1733   -4.5469   29.8123 C   0  0  0  0  0  0  0  0  0  0  0  0
   -1.7508  -11.3016   18.6072 C   0  0  0  0  0  0  0  0  0  0  0  0
    1.7497   -5.6771   26.4971 C   0  0  0  0  0  0  0  0  0  0  0  0
   -1.5799   -9.9322   18.3468 C   0  0  0  0  0  0  0  0  0  0  0  0
   -1.0871  -12.2214   17.8851 C   0  0  0  0  0  0  0  0  0  0  0  0
   -2.2706   -8.9669   19.0691 C   0  0  0  0  0  0  0  0  0  0  0  0
    3.0279   -5.3073   26.8197 C   0  0  0  0  0  0  0  0  0  0  0  0
    7.3282   -3.8948   29.1186 C   0  0  0  0  0  0  0  0  0  0  0  0
  1  3  4  0
  1  7  4  0
  2  3  1  0
  2  6  4  0
  2 16  4  0
  3 22  4  0
  4  9  4  0
  4 10  1  0
  4 20  4  0
  5 16  4  0
  5 23  4  0
  6 15  4  0
  7 12  4  0
  8 13  4  0
  8 14  4  0
  9 11  4  0
 11 14  4  0
 11 19  4  0
 12 18  4  0
 13 21  4  0
 15 23  4  0
 17 19  4  0
 17 20  4  0
 18 22  4  0
 19 21  4  0
M  END
$$$$

 Created by Python create_sdf_string function

 23 25  0  0  0  0  0  0  0  0999 V2000
    2.4610   -5.3070   29.1240 C   0  0  0  0  0  0  0  0  0  0  0  0
    4.7710   -4.6952   28.4803 C   0  0  0  0  0  0  0  0  0  0  0  0
    3.4047   -5.1087   28.1314 C   0  0  0  0  0  0  0  0  0  0  0  0
   -0.2234  -11.8615   16.8874 C   0  0  0  0  0  0  0  0  0  0  0  0
    6.4491   -4.1532   30.1213 C   0  0  0  0  0  0  0  0  0  0  0  0
    5.7060   -4.4340   27.4975 C   0  0  0  0  0  0  0  0  0  0  0  0
    1.1818   -5.6612   28.8399 C   0  0  0  0  0  0  0  0  0  0  0  0
   -1.2067   -7.3287   17.7772 C   0  0  0  0  0  0  0  0  0  0  0  0
   -0.0206  -10.5585   16.6210 C   0  0  0  0  0  0  0  0  0  0  0  0
    0.3696  -12.7626   16.2169 O   0  0  0  0  0  0  0  0  0  0  0  0
   -0.6895   -9.5676   17.3297 C   0  0  0  0  0  0  0  0  0  0  0  0
    0.8388   -5.8417   27.5264 C   0  0  0  0  0  0  0  0  0  0  0  0
   -2.0709   -7.6637   18.7817 C   0  0  0  0  0  0  0  0  0  0  0  0
   -0.5279   -8.2168   17.0717 C   0  0  0  0  0  0  0  0  0  0  0  0
    6.9694   -4.0191   27.8190 C   0  0  0  0  0  0  0  0  0  0  0  0
    5.1733   -4.5469   29.8123 C   0  0  0  0  0  0  0  0  0  0  0  0
   -1.7508  -11.3016   18.6072 C   0  0  0  0  0  0  0  0  0  0  0  0
    1.7497   -5.6771   26.4971 C   0  0  0  0  0  0  0  0  0  0  0  0
   -1.5799   -9.9322   18.3468 C   0  0  0  0  0  0  0  0  0  0  0  0
   -1.0871  -12.2214   17.8851 C   0  0  0  0  0  0  0  0  0  0  0  0
   -2.2706   -8.9669   19.0691 C   0  0  0  0  0  0  0  0  0  0  0  0
    3.0279   -5.3073   26.8197 C   0  0  0  0  0  0  0  0  0  0  0  0
    7.3282   -3.8948   29.1186 C   0  0  0  0  0  0  0  0  0  0  0  0
  1  3  4  0
  1  7  4  0
  2  3  1  0
  2  6  4  0
  2 16  4  0
  3 22  4  0
  4  9  4  0
  4 10  1  0
  4 20  4  0
  5 16  4  0
  5 23  4  0
  6 15  4  0
  7 12  4  0
  8 13  4  0
  8 14  4  0
  9 11  4  0
 11 14  4  0
 11 19  4  0
 12 18  4  0
 13 21  4  0
 15 23  4  0
 17 19  4  0
 17 20  4  0
 18 22  4  0
 19 21  4  0
M  END
$$$$

 Created by Python create_sdf_string function

 23 25  0  0  0  0  0  0  0  0999 V2000
    2.4610   -5.3070   29.1240 C   0  0  0  0  0  0  0  0  0  0  0  0
    4.7710   -4.6952   28.4803 C   0  0  0  0  0  0  0  0  0  0  0  0
    3.4047   -5.1087   28.1314 C   0  0  0  0  0  0  0  0  0  0  0  0
   -0.2234  -11.8615   16.8874 C   0  0  0  0  0  0  0  0  0  0  0  0
    6.4491   -4.1532   30.1213 C   0  0  0  0  0  0  0  0  0  0  0  0
    5.7060   -4.4340   27.4975 C   0  0  0  0  0  0  0  0  0  0  0  0
    1.1818   -5.6612   28.8399 C   0  0  0  0  0  0  0  0  0  0  0  0
   -1.2067   -7.3287   17.7772 C   0  0  0  0  0  0  0  0  0  0  0  0
   -0.0206  -10.5585   16.6210 C   0  0  0  0  0  0  0  0  0  0  0  0
    0.3696  -12.7626   16.2169 O   0  0  0  0  0  0  0  0  0  0  0  0
   -0.6895   -9.5676   17.3297 C   0  0  0  0  0  0  0  0  0  0  0  0
    0.8388   -5.8417   27.5264 C   0  0  0  0  0  0  0  0  0  0  0  0
   -2.0709   -7.6637   18.7817 C   0  0  0  0  0  0  0  0  0  0  0  0
   -0.5279   -8.2168   17.0717 C   0  0  0  0  0  0  0  0  0  0  0  0
    6.9694   -4.0191   27.8190 C   0  0  0  0  0  0  0  0  0  0  0  0
    5.1733   -4.5469   29.8123 C   0  0  0  0  0  0  0  0  0  0  0  0
   -1.7508  -11.3016   18.6072 C   0  0  0  0  0  0  0  0  0  0  0  0
    1.7497   -5.6771   26.4971 C   0  0  0  0  0  0  0  0  0  0  0  0
   -1.5799   -9.9322   18.3468 C   0  0  0  0  0  0  0  0  0  0  0  0
   -1.0871  -12.2214   17.8851 C   0  0  0  0  0  0  0  0  0  0  0  0
   -2.2706   -8.9669   19.0691 C   0  0  0  0  0  0  0  0  0  0  0  0
    3.0279   -5.3073   26.8197 C   0  0  0  0  0  0  0  0  0  0  0  0
    7.3282   -3.8948   29.1186 C   0  0  0  0  0  0  0  0  0  0  0  0
  1  3  4  0
  1  7  4  0
  2  3  1  0
  2  6  4  0
  2 16  4  0
  3 22  4  0
  4  9  4  0
  4 10  1  0
  4 20  4  0
  5 16  4  0
  5 23  4  0
  6 15  4  0
  7 12  4  0
  8 13  4  0
  8 14  4  0
  9 11  4  0
 11 14  4  0
 11 19  4  0
 12 18  4  0
 13 21  4  0
 15 23  4  0
 17 19  4  0
 17 20  4  0
 18 22  4  0
 19 21  4  0
M  END
$$$$

 Created by Python create_sdf_string function

 23 25  0  0  0  0  0  0  0  0999 V2000
    2.4610   -5.3070   29.1240 C   0  0  0  0  0  0  0  0  0  0  0  0
    4.7710   -4.6952   28.4803 C   0  0  0  0  0  0  0  0  0  0  0  0
    3.4047   -5.1087   28.1314 C   0  0  0  0  0  0  0  0  0  0  0  0
   -0.2234  -11.8615   16.8874 C   0  0  0  0  0  0  0  0  0  0  0  0
    6.4491   -4.1532   30.1213 C   0  0  0  0  0  0  0  0  0  0  0  0
    5.7060   -4.4340   27.4975 C   0  0  0  0  0  0  0  0  0  0  0  0
    1.1818   -5.6612   28.8399 C   0  0  0  0  0  0  0  0  0  0  0  0
   -1.2067   -7.3287   17.7772 C   0  0  0  0  0  0  0  0  0  0  0  0
   -0.0206  -10.5585   16.6210 C   0  0  0  0  0  0  0  0  0  0  0  0
    0.3696  -12.7626   16.2169 O   0  0  0  0  0  0  0  0  0  0  0  0
   -0.6895   -9.5676   17.3297 C   0  0  0  0  0  0  0  0  0  0  0  0
    0.8388   -5.8417   27.5264 C   0  0  0  0  0  0  0  0  0  0  0  0
   -2.0709   -7.6637   18.7817 C   0  0  0  0  0  0  0  0  0  0  0  0
   -0.5279   -8.2168   17.0717 C   0  0  0  0  0  0  0  0  0  0  0  0
    6.9694   -4.0191   27.8190 C   0  0  0  0  0  0  0  0  0  0  0  0
    5.1733   -4.5469   29.8123 C   0  0  0  0  0  0  0  0  0  0  0  0
   -1.7508  -11.3016   18.6072 C   0  0  0  0  0  0  0  0  0  0  0  0
    1.7497   -5.6771   26.4971 C   0  0  0  0  0  0  0  0  0  0  0  0
   -1.5799   -9.9322   18.3468 C   0  0  0  0  0  0  0  0  0  0  0  0
   -1.0871  -12.2214   17.8851 C   0  0  0  0  0  0  0  0  0  0  0  0
   -2.2706   -8.9669   19.0691 C   0  0  0  0  0  0  0  0  0  0  0  0
    3.0279   -5.3073   26.8197 C   0  0  0  0  0  0  0  0  0  0  0  0
    7.3282   -3.8948   29.1186 C   0  0  0  0  0  0  0  0  0  0  0  0
  1  3  4  0
  1  7  4  0
  2  3  1  0
  2  6  4  0
  2 16  4  0
  3 22  4  0
  4  9  4  0
  4 10  1  0
  4 20  4  0
  5 16  4  0
  5 23  4  0
  6 15  4  0
  7 12  4  0
  8 13  4  0
  8 14  4  0
  9 11  4  0
 11 14  4  0
 11 19  4  0
 12 18  4  0
 13 21  4  0
 15 23  4  0
 17 19  4  0
 17 20  4  0
 18 22  4  0
 19 21  4  0
M  END
$$$$

 Created by Python create_sdf_string function

 23 25  0  0  0  0  0  0  0  0999 V2000
    2.4610   -5.3070   29.1240 C   0  0  0  0  0  0  0  0  0  0  0  0
    4.7710   -4.6952   28.4803 C   0  0  0  0  0  0  0  0  0  0  0  0
    3.4047   -5.1087   28.1314 C   0  0  0  0  0  0  0  0  0  0  0  0
   -0.2234  -11.8615   16.8874 C   0  0  0  0  0  0  0  0  0  0  0  0
    6.4491   -4.1532   30.1213 C   0  0  0  0  0  0  0  0  0  0  0  0
    5.7060   -4.4340   27.4975 C   0  0  0  0  0  0  0  0  0  0  0  0
    1.1818   -5.6612   28.8399 C   0  0  0  0  0  0  0  0  0  0  0  0
   -1.2067   -7.3287   17.7772 C   0  0  0  0  0  0  0  0  0  0  0  0
   -0.0206  -10.5585   16.6210 C   0  0  0  0  0  0  0  0  0  0  0  0
    0.3696  -12.7626   16.2169 O   0  0  0  0  0  0  0  0  0  0  0  0
   -0.6895   -9.5676   17.3297 C   0  0  0  0  0  0  0  0  0  0  0  0
    0.8388   -5.8417   27.5264 C   0  0  0  0  0  0  0  0  0  0  0  0
   -2.0709   -7.6637   18.7817 C   0  0  0  0  0  0  0  0  0  0  0  0
   -0.5279   -8.2168   17.0717 C   0  0  0  0  0  0  0  0  0  0  0  0
    6.9694   -4.0191   27.8190 C   0  0  0  0  0  0  0  0  0  0  0  0
    5.1733   -4.5469   29.8123 C   0  0  0  0  0  0  0  0  0  0  0  0
   -1.7508  -11.3016   18.6072 C   0  0  0  0  0  0  0  0  0  0  0  0
    1.7497   -5.6771   26.4971 C   0  0  0  0  0  0  0  0  0  0  0  0
   -1.5799   -9.9322   18.3468 C   0  0  0  0  0  0  0  0  0  0  0  0
   -1.0871  -12.2214   17.8851 C   0  0  0  0  0  0  0  0  0  0  0  0
   -2.2706   -8.9669   19.0691 C   0  0  0  0  0  0  0  0  0  0  0  0
    3.0279   -5.3073   26.8197 C   0  0  0  0  0  0  0  0  0  0  0  0
    7.3282   -3.8948   29.1186 C   0  0  0  0  0  0  0  0  0  0  0  0
  1  3  4  0
  1  7  4  0
  2  3  1  0
  2  6  4  0
  2 16  4  0
  3 22  4  0
  4  9  4  0
  4 10  1  0
  4 20  4  0
  5 16  4  0
  5 23  4  0
  6 15  4  0
  7 12  4  0
  8 13  4  0
  8 14  4  0
  9 11  4  0
 11 14  4  0
 11 19  4  0
 12 18  4  0
 13 21  4  0
 15 23  4  0
 17 19  4  0
 17 20  4  0
 18 22  4  0
 19 21  4  0
M  END
$$$$

 Created by Python create_sdf_string function

 23 25  0  0  0  0  0  0  0  0999 V2000
    2.4610   -5.3070   29.1240 C   0  0  0  0  0  0  0  0  0  0  0  0
    4.7710   -4.6952   28.4803 C   0  0  0  0  0  0  0  0  0  0  0  0
    3.4047   -5.1087   28.1314 C   0  0  0  0  0  0  0  0  0  0  0  0
   -0.2234  -11.8615   16.8874 C   0  0  0  0  0  0  0  0  0  0  0  0
    6.4491   -4.1532   30.1213 C   0  0  0  0  0  0  0  0  0  0  0  0
    5.7060   -4.4340   27.4975 C   0  0  0  0  0  0  0  0  0  0  0  0
    1.1818   -5.6612   28.8399 C   0  0  0  0  0  0  0  0  0  0  0  0
   -1.2067   -7.3287   17.7772 C   0  0  0  0  0  0  0  0  0  0  0  0
   -0.0206  -10.5585   16.6210 C   0  0  0  0  0  0  0  0  0  0  0  0
    0.3696  -12.7626   16.2169 O   0  0  0  0  0  0  0  0  0  0  0  0
   -0.6895   -9.5676   17.3297 C   0  0  0  0  0  0  0  0  0  0  0  0
    0.8388   -5.8417   27.5264 C   0  0  0  0  0  0  0  0  0  0  0  0
   -2.0709   -7.6637   18.7817 C   0  0  0  0  0  0  0  0  0  0  0  0
   -0.5279   -8.2168   17.0717 C   0  0  0  0  0  0  0  0  0  0  0  0
    6.9694   -4.0191   27.8190 C   0  0  0  0  0  0  0  0  0  0  0  0
    5.1733   -4.5469   29.8123 C   0  0  0  0  0  0  0  0  0  0  0  0
   -1.7508  -11.3016   18.6072 C   0  0  0  0  0  0  0  0  0  0  0  0
    1.7497   -5.6771   26.4971 C   0  0  0  0  0  0  0  0  0  0  0  0
   -1.5799   -9.9322   18.3468 C   0  0  0  0  0  0  0  0  0  0  0  0
   -1.0871  -12.2214   17.8851 C   0  0  0  0  0  0  0  0  0  0  0  0
   -2.2706   -8.9669   19.0691 C   0  0  0  0  0  0  0  0  0  0  0  0
    3.0279   -5.3073   26.8197 C   0  0  0  0  0  0  0  0  0  0  0  0
    7.3282   -3.8948   29.1186 C   0  0  0  0  0  0  0  0  0  0  0  0
  1  3  4  0
  1  7  4  0
  2  3  1  0
  2  6  4  0
  2 16  4  0
  3 22  4  0
  4  9  4  0
  4 10  1  0
  4 20  4  0
  5 16  4  0
  5 23  4  0
  6 15  4  0
  7 12  4  0
  8 13  4  0
  8 14  4  0
  9 11  4  0
 11 14  4  0
 11 19  4  0
 12 18  4  0
 13 21  4  0
 15 23  4  0
 17 19  4  0
 17 20  4  0
 18 22  4  0
 19 21  4  0
M  END
$$$$

 Created by Python create_sdf_string function

 23 25  0  0  0  0  0  0  0  0999 V2000
    2.4610   -5.3070   29.1240 C   0  0  0  0  0  0  0  0  0  0  0  0
    4.7710   -4.6952   28.4803 C   0  0  0  0  0  0  0  0  0  0  0  0
    3.4047   -5.1087   28.1314 C   0  0  0  0  0  0  0  0  0  0  0  0
   -0.2234  -11.8615   16.8874 C   0  0  0  0  0  0  0  0  0  0  0  0
    6.4491   -4.1532   30.1213 C   0  0  0  0  0  0  0  0  0  0  0  0
    5.7060   -4.4340   27.4975 C   0  0  0  0  0  0  0  0  0  0  0  0
    1.1818   -5.6612   28.8399 C   0  0  0  0  0  0  0  0  0  0  0  0
   -1.2067   -7.3287   17.7772 C   0  0  0  0  0  0  0  0  0  0  0  0
   -0.0206  -10.5585   16.6210 C   0  0  0  0  0  0  0  0  0  0  0  0
    0.3696  -12.7626   16.2169 O   0  0  0  0  0  0  0  0  0  0  0  0
   -0.6895   -9.5676   17.3297 C   0  0  0  0  0  0  0  0  0  0  0  0
    0.8388   -5.8417   27.5264 C   0  0  0  0  0  0  0  0  0  0  0  0
   -2.0709   -7.6637   18.7817 C   0  0  0  0  0  0  0  0  0  0  0  0
   -0.5279   -8.2168   17.0717 C   0  0  0  0  0  0  0  0  0  0  0  0
    6.9694   -4.0191   27.8190 C   0  0  0  0  0  0  0  0  0  0  0  0
    5.1733   -4.5469   29.8123 C   0  0  0  0  0  0  0  0  0  0  0  0
   -1.7508  -11.3016   18.6072 C   0  0  0  0  0  0  0  0  0  0  0  0
    1.7497   -5.6771   26.4971 C   0  0  0  0  0  0  0  0  0  0  0  0
   -1.5799   -9.9322   18.3468 C   0  0  0  0  0  0  0  0  0  0  0  0
   -1.0871  -12.2214   17.8851 C   0  0  0  0  0  0  0  0  0  0  0  0
   -2.2706   -8.9669   19.0691 C   0  0  0  0  0  0  0  0  0  0  0  0
    3.0279   -5.3073   26.8197 C   0  0  0  0  0  0  0  0  0  0  0  0
    7.3282   -3.8948   29.1186 C   0  0  0  0  0  0  0  0  0  0  0  0
  1  3  4  0
  1  7  4  0
  2  3  1  0
  2  6  4  0
  2 16  4  0
  3 22  4  0
  4  9  4  0
  4 10  1  0
  4 20  4  0
  5 16  4  0
  5 23  4  0
  6 15  4  0
  7 12  4  0
  8 13  4  0
  8 14  4  0
  9 11  4  0
 11 14  4  0
 11 19  4  0
 12 18  4  0
 13 21  4  0
 15 23  4  0
 17 19  4  0
 17 20  4  0
 18 22  4  0
 19 21  4  0
M  END
$$$$

 Created by Python create_sdf_string function

 23 25  0  0  0  0  0  0  0  0999 V2000
    2.4610   -5.3070   29.1240 C   0  0  0  0  0  0  0  0  0  0  0  0
    4.7710   -4.6952   28.4803 C   0  0  0  0  0  0  0  0  0  0  0  0
    3.4047   -5.1087   28.1314 C   0  0  0  0  0  0  0  0  0  0  0  0
   -0.2234  -11.8615   16.8874 C   0  0  0  0  0  0  0  0  0  0  0  0
    6.4491   -4.1532   30.1213 C   0  0  0  0  0  0  0  0  0  0  0  0
    5.7060   -4.4340   27.4975 C   0  0  0  0  0  0  0  0  0  0  0  0
    1.1818   -5.6612   28.8399 C   0  0  0  0  0  0  0  0  0  0  0  0
   -1.2067   -7.3287   17.7772 C   0  0  0  0  0  0  0  0  0  0  0  0
   -0.0206  -10.5585   16.6210 C   0  0  0  0  0  0  0  0  0  0  0  0
    0.3696  -12.7626   16.2169 O   0  0  0  0  0  0  0  0  0  0  0  0
   -0.6895   -9.5676   17.3297 C   0  0  0  0  0  0  0  0  0  0  0  0
    0.8388   -5.8417   27.5264 C   0  0  0  0  0  0  0  0  0  0  0  0
   -2.0709   -7.6637   18.7817 C   0  0  0  0  0  0  0  0  0  0  0  0
   -0.5279   -8.2168   17.0717 C   0  0  0  0  0  0  0  0  0  0  0  0
    6.9694   -4.0191   27.8190 C   0  0  0  0  0  0  0  0  0  0  0  0
    5.1733   -4.5469   29.8123 C   0  0  0  0  0  0  0  0  0  0  0  0
   -1.7508  -11.3016   18.6072 C   0  0  0  0  0  0  0  0  0  0  0  0
    1.7497   -5.6771   26.4971 C   0  0  0  0  0  0  0  0  0  0  0  0
   -1.5799   -9.9322   18.3468 C   0  0  0  0  0  0  0  0  0  0  0  0
   -1.0871  -12.2214   17.8851 C   0  0  0  0  0  0  0  0  0  0  0  0
   -2.2706   -8.9669   19.0691 C   0  0  0  0  0  0  0  0  0  0  0  0
    3.0279   -5.3073   26.8197 C   0  0  0  0  0  0  0  0  0  0  0  0
    7.3282   -3.8948   29.1186 C   0  0  0  0  0  0  0  0  0  0  0  0
  1  3  4  0
  1  7  4  0
  2  3  1  0
  2  6  4  0
  2 16  4  0
  3 22  4  0
  4  9  4  0
  4 10  1  0
  4 20  4  0
  5 16  4  0
  5 23  4  0
  6 15  4  0
  7 12  4  0
  8 13  4  0
  8 14  4  0
  9 11  4  0
 11 14  4  0
 11 19  4  0
 12 18  4  0
 13 21  4  0
 15 23  4  0
 17 19  4  0
 17 20  4  0
 18 22  4  0
 19 21  4  0
M  END
$$$$

 Created by Python create_sdf_string function

 23 25  0  0  0  0  0  0  0  0999 V2000
    2.4610   -5.3070   29.1240 C   0  0  0  0  0  0  0  0  0  0  0  0
    4.7710   -4.6952   28.4803 C   0  0  0  0  0  0  0  0  0  0  0  0
    3.4047   -5.1087   28.1314 C   0  0  0  0  0  0  0  0  0  0  0  0
   -0.2234  -11.8615   16.8874 C   0  0  0  0  0  0  0  0  0  0  0  0
    6.4491   -4.1532   30.1213 C   0  0  0  0  0  0  0  0  0  0  0  0
    5.7060   -4.4340   27.4975 C   0  0  0  0  0  0  0  0  0  0  0  0
    1.1818   -5.6612   28.8399 C   0  0  0  0  0  0  0  0  0  0  0  0
   -1.2067   -7.3287   17.7772 C   0  0  0  0  0  0  0  0  0  0  0  0
   -0.0206  -10.5585   16.6210 C   0  0  0  0  0  0  0  0  0  0  0  0
    0.3696  -12.7626   16.2169 O   0  0  0  0  0  0  0  0  0  0  0  0
   -0.6895   -9.5676   17.3297 C   0  0  0  0  0  0  0  0  0  0  0  0
    0.8388   -5.8417   27.5264 C   0  0  0  0  0  0  0  0  0  0  0  0
   -2.0709   -7.6637   18.7817 C   0  0  0  0  0  0  0  0  0  0  0  0
   -0.5279   -8.2168   17.0717 C   0  0  0  0  0  0  0  0  0  0  0  0
    6.9694   -4.0191   27.8190 C   0  0  0  0  0  0  0  0  0  0  0  0
    5.1733   -4.5469   29.8123 C   0  0  0  0  0  0  0  0  0  0  0  0
   -1.7508  -11.3016   18.6072 C   0  0  0  0  0  0  0  0  0  0  0  0
    1.7497   -5.6771   26.4971 C   0  0  0  0  0  0  0  0  0  0  0  0
   -1.5799   -9.9322   18.3468 C   0  0  0  0  0  0  0  0  0  0  0  0
   -1.0871  -12.2214   17.8851 C   0  0  0  0  0  0  0  0  0  0  0  0
   -2.2706   -8.9669   19.0691 C   0  0  0  0  0  0  0  0  0  0  0  0
    3.0279   -5.3073   26.8197 C   0  0  0  0  0  0  0  0  0  0  0  0
    7.3282   -3.8948   29.1186 C   0  0  0  0  0  0  0  0  0  0  0  0
  1  3  4  0
  1  7  4  0
  2  3  1  0
  2  6  4  0
  2 16  4  0
  3 22  4  0
  4  9  4  0
  4 10  1  0
  4 20  4  0
  5 16  4  0
  5 23  4  0
  6 15  4  0
  7 12  4  0
  8 13  4  0
  8 14  4  0
  9 11  4  0
 11 14  4  0
 11 19  4  0
 12 18  4  0
 13 21  4  0
 15 23  4  0
 17 19  4  0
 17 20  4  0
 18 22  4  0
 19 21  4  0
M  END
$$$$

 Created by Python create_sdf_string function

 23 25  0  0  0  0  0  0  0  0999 V2000
    2.4610   -5.3070   29.1240 C   0  0  0  0  0  0  0  0  0  0  0  0
    4.7710   -4.6952   28.4803 C   0  0  0  0  0  0  0  0  0  0  0  0
    3.4047   -5.1087   28.1314 C   0  0  0  0  0  0  0  0  0  0  0  0
   -0.2234  -11.8615   16.8874 C   0  0  0  0  0  0  0  0  0  0  0  0
    6.4491   -4.1532   30.1213 C   0  0  0  0  0  0  0  0  0  0  0  0
    5.7060   -4.4340   27.4975 C   0  0  0  0  0  0  0  0  0  0  0  0
    1.1818   -5.6612   28.8399 C   0  0  0  0  0  0  0  0  0  0  0  0
   -1.2067   -7.3287   17.7772 C   0  0  0  0  0  0  0  0  0  0  0  0
   -0.0206  -10.5585   16.6210 C   0  0  0  0  0  0  0  0  0  0  0  0
    0.3696  -12.7626   16.2169 O   0  0  0  0  0  0  0  0  0  0  0  0
   -0.6895   -9.5676   17.3297 C   0  0  0  0  0  0  0  0  0  0  0  0
    0.8388   -5.8417   27.5264 C   0  0  0  0  0  0  0  0  0  0  0  0
   -2.0709   -7.6637   18.7817 C   0  0  0  0  0  0  0  0  0  0  0  0
   -0.5279   -8.2168   17.0717 C   0  0  0  0  0  0  0  0  0  0  0  0
    6.9694   -4.0191   27.8190 C   0  0  0  0  0  0  0  0  0  0  0  0
    5.1733   -4.5469   29.8123 C   0  0  0  0  0  0  0  0  0  0  0  0
   -1.7508  -11.3016   18.6072 C   0  0  0  0  0  0  0  0  0  0  0  0
    1.7497   -5.6771   26.4971 C   0  0  0  0  0  0  0  0  0  0  0  0
   -1.5799   -9.9322   18.3468 C   0  0  0  0  0  0  0  0  0  0  0  0
   -1.0871  -12.2214   17.8851 C   0  0  0  0  0  0  0  0  0  0  0  0
   -2.2706   -8.9669   19.0691 C   0  0  0  0  0  0  0  0  0  0  0  0
    3.0279   -5.3073   26.8197 C   0  0  0  0  0  0  0  0  0  0  0  0
    7.3282   -3.8948   29.1186 C   0  0  0  0  0  0  0  0  0  0  0  0
  1  3  4  0
  1  7  4  0
  2  3  1  0
  2  6  4  0
  2 16  4  0
  3 22  4  0
  4  9  4  0
  4 10  1  0
  4 20  4  0
  5 16  4  0
  5 23  4  0
  6 15  4  0
  7 12  4  0
  8 13  4  0
  8 14  4  0
  9 11  4  0
 11 14  4  0
 11 19  4  0
 12 18  4  0
 13 21  4  0
 15 23  4  0
 17 19  4  0
 17 20  4  0
 18 22  4  0
 19 21  4  0
M  END
$$$$

 Created by Python create_sdf_string function

 23 25  0  0  0  0  0  0  0  0999 V2000
    2.4610   -5.3070   29.1240 C   0  0  0  0  0  0  0  0  0  0  0  0
    4.7710   -4.6952   28.4803 C   0  0  0  0  0  0  0  0  0  0  0  0
    3.4047   -5.1087   28.1314 C   0  0  0  0  0  0  0  0  0  0  0  0
   -0.2234  -11.8615   16.8874 C   0  0  0  0  0  0  0  0  0  0  0  0
    6.4491   -4.1532   30.1213 C   0  0  0  0  0  0  0  0  0  0  0  0
    5.7060   -4.4340   27.4975 C   0  0  0  0  0  0  0  0  0  0  0  0
    1.1818   -5.6612   28.8399 C   0  0  0  0  0  0  0  0  0  0  0  0
   -1.2067   -7.3287   17.7772 C   0  0  0  0  0  0  0  0  0  0  0  0
   -0.0206  -10.5585   16.6210 C   0  0  0  0  0  0  0  0  0  0  0  0
    0.3696  -12.7626   16.2169 O   0  0  0  0  0  0  0  0  0  0  0  0
   -0.6895   -9.5676   17.3297 C   0  0  0  0  0  0  0  0  0  0  0  0
    0.8388   -5.8417   27.5264 C   0  0  0  0  0  0  0  0  0  0  0  0
   -2.0709   -7.6637   18.7817 C   0  0  0  0  0  0  0  0  0  0  0  0
   -0.5279   -8.2168   17.0717 C   0  0  0  0  0  0  0  0  0  0  0  0
    6.9694   -4.0191   27.8190 C   0  0  0  0  0  0  0  0  0  0  0  0
    5.1733   -4.5469   29.8123 C   0  0  0  0  0  0  0  0  0  0  0  0
   -1.7508  -11.3016   18.6072 C   0  0  0  0  0  0  0  0  0  0  0  0
    1.7497   -5.6771   26.4971 C   0  0  0  0  0  0  0  0  0  0  0  0
   -1.5799   -9.9322   18.3468 C   0  0  0  0  0  0  0  0  0  0  0  0
   -1.0871  -12.2214   17.8851 C   0  0  0  0  0  0  0  0  0  0  0  0
   -2.2706   -8.9669   19.0691 C   0  0  0  0  0  0  0  0  0  0  0  0
    3.0279   -5.3073   26.8197 C   0  0  0  0  0  0  0  0  0  0  0  0
    7.3282   -3.8948   29.1186 C   0  0  0  0  0  0  0  0  0  0  0  0
  1  3  4  0
  1  7  4  0
  2  3  1  0
  2  6  4  0
  2 16  4  0
  3 22  4  0
  4  9  4  0
  4 10  1  0
  4 20  4  0
  5 16  4  0
  5 23  4  0
  6 15  4  0
  7 12  4  0
  8 13  4  0
  8 14  4  0
  9 11  4  0
 11 14  4  0
 11 19  4  0
 12 18  4  0
 13 21  4  0
 15 23  4  0
 17 19  4  0
 17 20  4  0
 18 22  4  0
 19 21  4  0
M  END
$$$$

 Created by Python create_sdf_string function

 23 25  0  0  0  0  0  0  0  0999 V2000
    2.4610   -5.3070   29.1240 C   0  0  0  0  0  0  0  0  0  0  0  0
    4.7710   -4.6952   28.4803 C   0  0  0  0  0  0  0  0  0  0  0  0
    3.4047   -5.1087   28.1314 C   0  0  0  0  0  0  0  0  0  0  0  0
   -0.2234  -11.8615   16.8874 C   0  0  0  0  0  0  0  0  0  0  0  0
    6.4491   -4.1532   30.1213 C   0  0  0  0  0  0  0  0  0  0  0  0
    5.7060   -4.4340   27.4975 C   0  0  0  0  0  0  0  0  0  0  0  0
    1.1818   -5.6612   28.8399 C   0  0  0  0  0  0  0  0  0  0  0  0
   -1.2067   -7.3287   17.7772 C   0  0  0  0  0  0  0  0  0  0  0  0
   -0.0206  -10.5585   16.6210 C   0  0  0  0  0  0  0  0  0  0  0  0
    0.3696  -12.7626   16.2169 O   0  0  0  0  0  0  0  0  0  0  0  0
   -0.6895   -9.5676   17.3297 C   0  0  0  0  0  0  0  0  0  0  0  0
    0.8388   -5.8417   27.5264 C   0  0  0  0  0  0  0  0  0  0  0  0
   -2.0709   -7.6637   18.7817 C   0  0  0  0  0  0  0  0  0  0  0  0
   -0.5279   -8.2168   17.0717 C   0  0  0  0  0  0  0  0  0  0  0  0
    6.9694   -4.0191   27.8190 C   0  0  0  0  0  0  0  0  0  0  0  0
    5.1733   -4.5469   29.8123 C   0  0  0  0  0  0  0  0  0  0  0  0
   -1.7508  -11.3016   18.6072 C   0  0  0  0  0  0  0  0  0  0  0  0
    1.7497   -5.6771   26.4971 C   0  0  0  0  0  0  0  0  0  0  0  0
   -1.5799   -9.9322   18.3468 C   0  0  0  0  0  0  0  0  0  0  0  0
   -1.0871  -12.2214   17.8851 C   0  0  0  0  0  0  0  0  0  0  0  0
   -2.2706   -8.9669   19.0691 C   0  0  0  0  0  0  0  0  0  0  0  0
    3.0279   -5.3073   26.8197 C   0  0  0  0  0  0  0  0  0  0  0  0
    7.3282   -3.8948   29.1186 C   0  0  0  0  0  0  0  0  0  0  0  0
  1  3  4  0
  1  7  4  0
  2  3  1  0
  2  6  4  0
  2 16  4  0
  3 22  4  0
  4  9  4  0
  4 10  1  0
  4 20  4  0
  5 16  4  0
  5 23  4  0
  6 15  4  0
  7 12  4  0
  8 13  4  0
  8 14  4  0
  9 11  4  0
 11 14  4  0
 11 19  4  0
 12 18  4  0
 13 21  4  0
 15 23  4  0
 17 19  4  0
 17 20  4  0
 18 22  4  0
 19 21  4  0
M  END
$$$$

 Created by Python create_sdf_string function

 23 25  0  0  0  0  0  0  0  0999 V2000
    2.4610   -5.3070   29.1240 C   0  0  0  0  0  0  0  0  0  0  0  0
    4.7710   -4.6952   28.4803 C   0  0  0  0  0  0  0  0  0  0  0  0
    3.4047   -5.1087   28.1314 C   0  0  0  0  0  0  0  0  0  0  0  0
   -0.2234  -11.8615   16.8874 C   0  0  0  0  0  0  0  0  0  0  0  0
    6.4491   -4.1532   30.1213 C   0  0  0  0  0  0  0  0  0  0  0  0
    5.7060   -4.4340   27.4975 C   0  0  0  0  0  0  0  0  0  0  0  0
    1.1818   -5.6612   28.8399 C   0  0  0  0  0  0  0  0  0  0  0  0
   -1.2067   -7.3287   17.7772 C   0  0  0  0  0  0  0  0  0  0  0  0
   -0.0206  -10.5585   16.6210 C   0  0  0  0  0  0  0  0  0  0  0  0
    0.3696  -12.7626   16.2169 O   0  0  0  0  0  0  0  0  0  0  0  0
   -0.6895   -9.5676   17.3297 C   0  0  0  0  0  0  0  0  0  0  0  0
    0.8388   -5.8417   27.5264 C   0  0  0  0  0  0  0  0  0  0  0  0
   -2.0709   -7.6637   18.7817 C   0  0  0  0  0  0  0  0  0  0  0  0
   -0.5279   -8.2168   17.0717 C   0  0  0  0  0  0  0  0  0  0  0  0
    6.9694   -4.0191   27.8190 C   0  0  0  0  0  0  0  0  0  0  0  0
    5.1733   -4.5469   29.8123 C   0  0  0  0  0  0  0  0  0  0  0  0
   -1.7508  -11.3016   18.6072 C   0  0  0  0  0  0  0  0  0  0  0  0
    1.7497   -5.6771   26.4971 C   0  0  0  0  0  0  0  0  0  0  0  0
   -1.5799   -9.9322   18.3468 C   0  0  0  0  0  0  0  0  0  0  0  0
   -1.0871  -12.2214   17.8851 C   0  0  0  0  0  0  0  0  0  0  0  0
   -2.2706   -8.9669   19.0691 C   0  0  0  0  0  0  0  0  0  0  0  0
    3.0279   -5.3073   26.8197 C   0  0  0  0  0  0  0  0  0  0  0  0
    7.3282   -3.8948   29.1186 C   0  0  0  0  0  0  0  0  0  0  0  0
  1  3  4  0
  1  7  4  0
  2  3  1  0
  2  6  4  0
  2 16  4  0
  3 22  4  0
  4  9  4  0
  4 10  1  0
  4 20  4  0
  5 16  4  0
  5 23  4  0
  6 15  4  0
  7 12  4  0
  8 13  4  0
  8 14  4  0
  9 11  4  0
 11 14  4  0
 11 19  4  0
 12 18  4  0
 13 21  4  0
 15 23  4  0
 17 19  4  0
 17 20  4  0
 18 22  4  0
 19 21  4  0
M  END
$$$$

 Created by Python create_sdf_string function

 23 25  0  0  0  0  0  0  0  0999 V2000
    2.4610   -5.3070   29.1240 C   0  0  0  0  0  0  0  0  0  0  0  0
    4.7710   -4.6952   28.4803 C   0  0  0  0  0  0  0  0  0  0  0  0
    3.4047   -5.1087   28.1314 C   0  0  0  0  0  0  0  0  0  0  0  0
   -0.2234  -11.8615   16.8874 C   0  0  0  0  0  0  0  0  0  0  0  0
    6.4491   -4.1532   30.1213 C   0  0  0  0  0  0  0  0  0  0  0  0
    5.7060   -4.4340   27.4975 C   0  0  0  0  0  0  0  0  0  0  0  0
    1.1818   -5.6612   28.8399 C   0  0  0  0  0  0  0  0  0  0  0  0
   -1.2067   -7.3287   17.7772 C   0  0  0  0  0  0  0  0  0  0  0  0
   -0.0206  -10.5585   16.6210 C   0  0  0  0  0  0  0  0  0  0  0  0
    0.3696  -12.7626   16.2169 O   0  0  0  0  0  0  0  0  0  0  0  0
   -0.6895   -9.5676   17.3297 C   0  0  0  0  0  0  0  0  0  0  0  0
    0.8388   -5.8417   27.5264 C   0  0  0  0  0  0  0  0  0  0  0  0
   -2.0709   -7.6637   18.7817 C   0  0  0  0  0  0  0  0  0  0  0  0
   -0.5279   -8.2168   17.0717 C   0  0  0  0  0  0  0  0  0  0  0  0
    6.9694   -4.0191   27.8190 C   0  0  0  0  0  0  0  0  0  0  0  0
    5.1733   -4.5469   29.8123 C   0  0  0  0  0  0  0  0  0  0  0  0
   -1.7508  -11.3016   18.6072 C   0  0  0  0  0  0  0  0  0  0  0  0
    1.7497   -5.6771   26.4971 C   0  0  0  0  0  0  0  0  0  0  0  0
   -1.5799   -9.9322   18.3468 C   0  0  0  0  0  0  0  0  0  0  0  0
   -1.0871  -12.2214   17.8851 C   0  0  0  0  0  0  0  0  0  0  0  0
   -2.2706   -8.9669   19.0691 C   0  0  0  0  0  0  0  0  0  0  0  0
    3.0279   -5.3073   26.8197 C   0  0  0  0  0  0  0  0  0  0  0  0
    7.3282   -3.8948   29.1186 C   0  0  0  0  0  0  0  0  0  0  0  0
  1  3  4  0
  1  7  4  0
  2  3  1  0
  2  6  4  0
  2 16  4  0
  3 22  4  0
  4  9  4  0
  4 10  1  0
  4 20  4  0
  5 16  4  0
  5 23  4  0
  6 15  4  0
  7 12  4  0
  8 13  4  0
  8 14  4  0
  9 11  4  0
 11 14  4  0
 11 19  4  0
 12 18  4  0
 13 21  4  0
 15 23  4  0
 17 19  4  0
 17 20  4  0
 18 22  4  0
 19 21  4  0
M  END
$$$$

 Created by Python create_sdf_string function

 23 25  0  0  0  0  0  0  0  0999 V2000
    2.4610   -5.3070   29.1240 C   0  0  0  0  0  0  0  0  0  0  0  0
    4.7710   -4.6952   28.4803 C   0  0  0  0  0  0  0  0  0  0  0  0
    3.4047   -5.1087   28.1314 C   0  0  0  0  0  0  0  0  0  0  0  0
   -0.2234  -11.8615   16.8874 C   0  0  0  0  0  0  0  0  0  0  0  0
    6.4491   -4.1532   30.1213 C   0  0  0  0  0  0  0  0  0  0  0  0
    5.7060   -4.4340   27.4975 C   0  0  0  0  0  0  0  0  0  0  0  0
    1.1818   -5.6612   28.8399 C   0  0  0  0  0  0  0  0  0  0  0  0
   -1.2067   -7.3287   17.7772 C   0  0  0  0  0  0  0  0  0  0  0  0
   -0.0206  -10.5585   16.6210 C   0  0  0  0  0  0  0  0  0  0  0  0
    0.3696  -12.7626   16.2169 O   0  0  0  0  0  0  0  0  0  0  0  0
   -0.6895   -9.5676   17.3297 C   0  0  0  0  0  0  0  0  0  0  0  0
    0.8388   -5.8417   27.5264 C   0  0  0  0  0  0  0  0  0  0  0  0
   -2.0709   -7.6637   18.7817 C   0  0  0  0  0  0  0  0  0  0  0  0
   -0.5279   -8.2168   17.0717 C   0  0  0  0  0  0  0  0  0  0  0  0
    6.9694   -4.0191   27.8190 C   0  0  0  0  0  0  0  0  0  0  0  0
    5.1733   -4.5469   29.8123 C   0  0  0  0  0  0  0  0  0  0  0  0
   -1.7508  -11.3016   18.6072 C   0  0  0  0  0  0  0  0  0  0  0  0
    1.7497   -5.6771   26.4971 C   0  0  0  0  0  0  0  0  0  0  0  0
   -1.5799   -9.9322   18.3468 C   0  0  0  0  0  0  0  0  0  0  0  0
   -1.0871  -12.2214   17.8851 C   0  0  0  0  0  0  0  0  0  0  0  0
   -2.2706   -8.9669   19.0691 C   0  0  0  0  0  0  0  0  0  0  0  0
    3.0279   -5.3073   26.8197 C   0  0  0  0  0  0  0  0  0  0  0  0
    7.3282   -3.8948   29.1186 C   0  0  0  0  0  0  0  0  0  0  0  0
  1  3  4  0
  1  7  4  0
  2  3  1  0
  2  6  4  0
  2 16  4  0
  3 22  4  0
  4  9  4  0
  4 10  1  0
  4 20  4  0
  5 16  4  0
  5 23  4  0
  6 15  4  0
  7 12  4  0
  8 13  4  0
  8 14  4  0
  9 11  4  0
 11 14  4  0
 11 19  4  0
 12 18  4  0
 13 21  4  0
 15 23  4  0
 17 19  4  0
 17 20  4  0
 18 22  4  0
 19 21  4  0
M  END
$$$$

 Created by Python create_sdf_string function

 23 25  0  0  0  0  0  0  0  0999 V2000
    2.4610   -5.3070   29.1240 C   0  0  0  0  0  0  0  0  0  0  0  0
    4.7710   -4.6952   28.4803 C   0  0  0  0  0  0  0  0  0  0  0  0
    3.4047   -5.1087   28.1314 C   0  0  0  0  0  0  0  0  0  0  0  0
   -0.2234  -11.8615   16.8874 C   0  0  0  0  0  0  0  0  0  0  0  0
    6.4491   -4.1532   30.1213 C   0  0  0  0  0  0  0  0  0  0  0  0
    5.7060   -4.4340   27.4975 C   0  0  0  0  0  0  0  0  0  0  0  0
    1.1818   -5.6612   28.8399 C   0  0  0  0  0  0  0  0  0  0  0  0
   -1.2067   -7.3287   17.7772 C   0  0  0  0  0  0  0  0  0  0  0  0
   -0.0206  -10.5585   16.6210 C   0  0  0  0  0  0  0  0  0  0  0  0
    0.3696  -12.7626   16.2169 O   0  0  0  0  0  0  0  0  0  0  0  0
   -0.6895   -9.5676   17.3297 C   0  0  0  0  0  0  0  0  0  0  0  0
    0.8388   -5.8417   27.5264 C   0  0  0  0  0  0  0  0  0  0  0  0
   -2.0709   -7.6637   18.7817 C   0  0  0  0  0  0  0  0  0  0  0  0
   -0.5279   -8.2168   17.0717 C   0  0  0  0  0  0  0  0  0  0  0  0
    6.9694   -4.0191   27.8190 C   0  0  0  0  0  0  0  0  0  0  0  0
    5.1733   -4.5469   29.8123 C   0  0  0  0  0  0  0  0  0  0  0  0
   -1.7508  -11.3016   18.6072 C   0  0  0  0  0  0  0  0  0  0  0  0
    1.7497   -5.6771   26.4971 C   0  0  0  0  0  0  0  0  0  0  0  0
   -1.5799   -9.9322   18.3468 C   0  0  0  0  0  0  0  0  0  0  0  0
   -1.0871  -12.2214   17.8851 C   0  0  0  0  0  0  0  0  0  0  0  0
   -2.2706   -8.9669   19.0691 C   0  0  0  0  0  0  0  0  0  0  0  0
    3.0279   -5.3073   26.8197 C   0  0  0  0  0  0  0  0  0  0  0  0
    7.3282   -3.8948   29.1186 C   0  0  0  0  0  0  0  0  0  0  0  0
  1  3  4  0
  1  7  4  0
  2  3  1  0
  2  6  4  0
  2 16  4  0
  3 22  4  0
  4  9  4  0
  4 10  1  0
  4 20  4  0
  5 16  4  0
  5 23  4  0
  6 15  4  0
  7 12  4  0
  8 13  4  0
  8 14  4  0
  9 11  4  0
 11 14  4  0
 11 19  4  0
 12 18  4  0
 13 21  4  0
 15 23  4  0
 17 19  4  0
 17 20  4  0
 18 22  4  0
 19 21  4  0
M  END
$$$$

 Created by Python create_sdf_string function

 23 25  0  0  0  0  0  0  0  0999 V2000
    2.4610   -5.3070   29.1240 C   0  0  0  0  0  0  0  0  0  0  0  0
    4.7710   -4.6952   28.4803 C   0  0  0  0  0  0  0  0  0  0  0  0
    3.4047   -5.1087   28.1314 C   0  0  0  0  0  0  0  0  0  0  0  0
   -0.2234  -11.8615   16.8874 C   0  0  0  0  0  0  0  0  0  0  0  0
    6.4491   -4.1532   30.1213 C   0  0  0  0  0  0  0  0  0  0  0  0
    5.7060   -4.4340   27.4975 C   0  0  0  0  0  0  0  0  0  0  0  0
    1.1818   -5.6612   28.8399 C   0  0  0  0  0  0  0  0  0  0  0  0
   -1.2067   -7.3287   17.7772 C   0  0  0  0  0  0  0  0  0  0  0  0
   -0.0206  -10.5585   16.6210 C   0  0  0  0  0  0  0  0  0  0  0  0
    0.3696  -12.7626   16.2169 O   0  0  0  0  0  0  0  0  0  0  0  0
   -0.6895   -9.5676   17.3297 C   0  0  0  0  0  0  0  0  0  0  0  0
    0.8388   -5.8417   27.5264 C   0  0  0  0  0  0  0  0  0  0  0  0
   -2.0709   -7.6637   18.7817 C   0  0  0  0  0  0  0  0  0  0  0  0
   -0.5279   -8.2168   17.0717 C   0  0  0  0  0  0  0  0  0  0  0  0
    6.9694   -4.0191   27.8190 C   0  0  0  0  0  0  0  0  0  0  0  0
    5.1733   -4.5469   29.8123 C   0  0  0  0  0  0  0  0  0  0  0  0
   -1.7508  -11.3016   18.6072 C   0  0  0  0  0  0  0  0  0  0  0  0
    1.7497   -5.6771   26.4971 C   0  0  0  0  0  0  0  0  0  0  0  0
   -1.5799   -9.9322   18.3468 C   0  0  0  0  0  0  0  0  0  0  0  0
   -1.0871  -12.2214   17.8851 C   0  0  0  0  0  0  0  0  0  0  0  0
   -2.2706   -8.9669   19.0691 C   0  0  0  0  0  0  0  0  0  0  0  0
    3.0279   -5.3073   26.8197 C   0  0  0  0  0  0  0  0  0  0  0  0
    7.3282   -3.8948   29.1186 C   0  0  0  0  0  0  0  0  0  0  0  0
  1  3  4  0
  1  7  4  0
  2  3  1  0
  2  6  4  0
  2 16  4  0
  3 22  4  0
  4  9  4  0
  4 10  1  0
  4 20  4  0
  5 16  4  0
  5 23  4  0
  6 15  4  0
  7 12  4  0
  8 13  4  0
  8 14  4  0
  9 11  4  0
 11 14  4  0
 11 19  4  0
 12 18  4  0
 13 21  4  0
 15 23  4  0
 17 19  4  0
 17 20  4  0
 18 22  4  0
 19 21  4  0
M  END
$$$$

 Created by Python create_sdf_string function

 23 25  0  0  0  0  0  0  0  0999 V2000
    2.4610   -5.3070   29.1240 C   0  0  0  0  0  0  0  0  0  0  0  0
    4.7710   -4.6952   28.4803 C   0  0  0  0  0  0  0  0  0  0  0  0
    3.4047   -5.1087   28.1314 C   0  0  0  0  0  0  0  0  0  0  0  0
   -0.2234  -11.8615   16.8874 C   0  0  0  0  0  0  0  0  0  0  0  0
    6.4491   -4.1532   30.1213 C   0  0  0  0  0  0  0  0  0  0  0  0
    5.7060   -4.4340   27.4975 C   0  0  0  0  0  0  0  0  0  0  0  0
    1.1818   -5.6612   28.8399 C   0  0  0  0  0  0  0  0  0  0  0  0
   -1.2067   -7.3287   17.7772 C   0  0  0  0  0  0  0  0  0  0  0  0
   -0.0206  -10.5585   16.6210 C   0  0  0  0  0  0  0  0  0  0  0  0
    0.3696  -12.7626   16.2169 O   0  0  0  0  0  0  0  0  0  0  0  0
   -0.6895   -9.5676   17.3297 C   0  0  0  0  0  0  0  0  0  0  0  0
    0.8388   -5.8417   27.5264 C   0  0  0  0  0  0  0  0  0  0  0  0
   -2.0709   -7.6637   18.7817 C   0  0  0  0  0  0  0  0  0  0  0  0
   -0.5279   -8.2168   17.0717 C   0  0  0  0  0  0  0  0  0  0  0  0
    6.9694   -4.0191   27.8190 C   0  0  0  0  0  0  0  0  0  0  0  0
    5.1733   -4.5469   29.8123 C   0  0  0  0  0  0  0  0  0  0  0  0
   -1.7508  -11.3016   18.6072 C   0  0  0  0  0  0  0  0  0  0  0  0
    1.7497   -5.6771   26.4971 C   0  0  0  0  0  0  0  0  0  0  0  0
   -1.5799   -9.9322   18.3468 C   0  0  0  0  0  0  0  0  0  0  0  0
   -1.0871  -12.2214   17.8851 C   0  0  0  0  0  0  0  0  0  0  0  0
   -2.2706   -8.9669   19.0691 C   0  0  0  0  0  0  0  0  0  0  0  0
    3.0279   -5.3073   26.8197 C   0  0  0  0  0  0  0  0  0  0  0  0
    7.3282   -3.8948   29.1186 C   0  0  0  0  0  0  0  0  0  0  0  0
  1  3  4  0
  1  7  4  0
  2  3  1  0
  2  6  4  0
  2 16  4  0
  3 22  4  0
  4  9  4  0
  4 10  1  0
  4 20  4  0
  5 16  4  0
  5 23  4  0
  6 15  4  0
  7 12  4  0
  8 13  4  0
  8 14  4  0
  9 11  4  0
 11 14  4  0
 11 19  4  0
 12 18  4  0
 13 21  4  0
 15 23  4  0
 17 19  4  0
 17 20  4  0
 18 22  4  0
 19 21  4  0
M  END
$$$$

 Created by Python create_sdf_string function

 23 25  0  0  0  0  0  0  0  0999 V2000
    2.4610   -5.3070   29.1240 C   0  0  0  0  0  0  0  0  0  0  0  0
    4.7710   -4.6952   28.4803 C   0  0  0  0  0  0  0  0  0  0  0  0
    3.4047   -5.1087   28.1314 C   0  0  0  0  0  0  0  0  0  0  0  0
   -0.2234  -11.8615   16.8874 C   0  0  0  0  0  0  0  0  0  0  0  0
    6.4491   -4.1532   30.1213 C   0  0  0  0  0  0  0  0  0  0  0  0
    5.7060   -4.4340   27.4975 C   0  0  0  0  0  0  0  0  0  0  0  0
    1.1818   -5.6612   28.8399 C   0  0  0  0  0  0  0  0  0  0  0  0
   -1.2067   -7.3287   17.7772 C   0  0  0  0  0  0  0  0  0  0  0  0
   -0.0206  -10.5585   16.6210 C   0  0  0  0  0  0  0  0  0  0  0  0
    0.3696  -12.7626   16.2169 O   0  0  0  0  0  0  0  0  0  0  0  0
   -0.6895   -9.5676   17.3297 C   0  0  0  0  0  0  0  0  0  0  0  0
    0.8388   -5.8417   27.5264 C   0  0  0  0  0  0  0  0  0  0  0  0
   -2.0709   -7.6637   18.7817 C   0  0  0  0  0  0  0  0  0  0  0  0
   -0.5279   -8.2168   17.0717 C   0  0  0  0  0  0  0  0  0  0  0  0
    6.9694   -4.0191   27.8190 C   0  0  0  0  0  0  0  0  0  0  0  0
    5.1733   -4.5469   29.8123 C   0  0  0  0  0  0  0  0  0  0  0  0
   -1.7508  -11.3016   18.6072 C   0  0  0  0  0  0  0  0  0  0  0  0
    1.7497   -5.6771   26.4971 C   0  0  0  0  0  0  0  0  0  0  0  0
   -1.5799   -9.9322   18.3468 C   0  0  0  0  0  0  0  0  0  0  0  0
   -1.0871  -12.2214   17.8851 C   0  0  0  0  0  0  0  0  0  0  0  0
   -2.2706   -8.9669   19.0691 C   0  0  0  0  0  0  0  0  0  0  0  0
    3.0279   -5.3073   26.8197 C   0  0  0  0  0  0  0  0  0  0  0  0
    7.3282   -3.8948   29.1186 C   0  0  0  0  0  0  0  0  0  0  0  0
  1  3  4  0
  1  7  4  0
  2  3  1  0
  2  6  4  0
  2 16  4  0
  3 22  4  0
  4  9  4  0
  4 10  1  0
  4 20  4  0
  5 16  4  0
  5 23  4  0
  6 15  4  0
  7 12  4  0
  8 13  4  0
  8 14  4  0
  9 11  4  0
 11 14  4  0
 11 19  4  0
 12 18  4  0
 13 21  4  0
 15 23  4  0
 17 19  4  0
 17 20  4  0
 18 22  4  0
 19 21  4  0
M  END
$$$$

 Created by Python create_sdf_string function

 23 25  0  0  0  0  0  0  0  0999 V2000
    2.4610   -5.3070   29.1240 C   0  0  0  0  0  0  0  0  0  0  0  0
    4.7710   -4.6952   28.4803 C   0  0  0  0  0  0  0  0  0  0  0  0
    3.4047   -5.1087   28.1314 C   0  0  0  0  0  0  0  0  0  0  0  0
   -0.2234  -11.8615   16.8874 C   0  0  0  0  0  0  0  0  0  0  0  0
    6.4491   -4.1532   30.1213 C   0  0  0  0  0  0  0  0  0  0  0  0
    5.7060   -4.4340   27.4975 C   0  0  0  0  0  0  0  0  0  0  0  0
    1.1818   -5.6612   28.8399 C   0  0  0  0  0  0  0  0  0  0  0  0
   -1.2067   -7.3287   17.7772 C   0  0  0  0  0  0  0  0  0  0  0  0
   -0.0206  -10.5585   16.6210 C   0  0  0  0  0  0  0  0  0  0  0  0
    0.3696  -12.7626   16.2169 O   0  0  0  0  0  0  0  0  0  0  0  0
   -0.6895   -9.5676   17.3297 C   0  0  0  0  0  0  0  0  0  0  0  0
    0.8388   -5.8417   27.5264 C   0  0  0  0  0  0  0  0  0  0  0  0
   -2.0709   -7.6637   18.7817 C   0  0  0  0  0  0  0  0  0  0  0  0
   -0.5279   -8.2168   17.0717 C   0  0  0  0  0  0  0  0  0  0  0  0
    6.9694   -4.0191   27.8190 C   0  0  0  0  0  0  0  0  0  0  0  0
    5.1733   -4.5469   29.8123 C   0  0  0  0  0  0  0  0  0  0  0  0
   -1.7508  -11.3016   18.6072 C   0  0  0  0  0  0  0  0  0  0  0  0
    1.7497   -5.6771   26.4971 C   0  0  0  0  0  0  0  0  0  0  0  0
   -1.5799   -9.9322   18.3468 C   0  0  0  0  0  0  0  0  0  0  0  0
   -1.0871  -12.2214   17.8851 C   0  0  0  0  0  0  0  0  0  0  0  0
   -2.2706   -8.9669   19.0691 C   0  0  0  0  0  0  0  0  0  0  0  0
    3.0279   -5.3073   26.8197 C   0  0  0  0  0  0  0  0  0  0  0  0
    7.3282   -3.8948   29.1186 C   0  0  0  0  0  0  0  0  0  0  0  0
  1  3  4  0
  1  7  4  0
  2  3  1  0
  2  6  4  0
  2 16  4  0
  3 22  4  0
  4  9  4  0
  4 10  1  0
  4 20  4  0
  5 16  4  0
  5 23  4  0
  6 15  4  0
  7 12  4  0
  8 13  4  0
  8 14  4  0
  9 11  4  0
 11 14  4  0
 11 19  4  0
 12 18  4  0
 13 21  4  0
 15 23  4  0
 17 19  4  0
 17 20  4  0
 18 22  4  0
 19 21  4  0
M  END
$$$$

 Created by Python create_sdf_string function

 23 25  0  0  0  0  0  0  0  0999 V2000
    2.4610   -5.3070   29.1240 C   0  0  0  0  0  0  0  0  0  0  0  0
    4.7710   -4.6952   28.4803 C   0  0  0  0  0  0  0  0  0  0  0  0
    3.4047   -5.1087   28.1314 C   0  0  0  0  0  0  0  0  0  0  0  0
   -0.2234  -11.8615   16.8874 C   0  0  0  0  0  0  0  0  0  0  0  0
    6.4491   -4.1532   30.1213 C   0  0  0  0  0  0  0  0  0  0  0  0
    5.7060   -4.4340   27.4975 C   0  0  0  0  0  0  0  0  0  0  0  0
    1.1818   -5.6612   28.8399 C   0  0  0  0  0  0  0  0  0  0  0  0
   -1.2067   -7.3287   17.7772 C   0  0  0  0  0  0  0  0  0  0  0  0
   -0.0206  -10.5585   16.6210 C   0  0  0  0  0  0  0  0  0  0  0  0
    0.3696  -12.7626   16.2169 O   0  0  0  0  0  0  0  0  0  0  0  0
   -0.6895   -9.5676   17.3297 C   0  0  0  0  0  0  0  0  0  0  0  0
    0.8388   -5.8417   27.5264 C   0  0  0  0  0  0  0  0  0  0  0  0
   -2.0709   -7.6637   18.7817 C   0  0  0  0  0  0  0  0  0  0  0  0
   -0.5279   -8.2168   17.0717 C   0  0  0  0  0  0  0  0  0  0  0  0
    6.9694   -4.0191   27.8190 C   0  0  0  0  0  0  0  0  0  0  0  0
    5.1733   -4.5469   29.8123 C   0  0  0  0  0  0  0  0  0  0  0  0
   -1.7508  -11.3016   18.6072 C   0  0  0  0  0  0  0  0  0  0  0  0
    1.7497   -5.6771   26.4971 C   0  0  0  0  0  0  0  0  0  0  0  0
   -1.5799   -9.9322   18.3468 C   0  0  0  0  0  0  0  0  0  0  0  0
   -1.0871  -12.2214   17.8851 C   0  0  0  0  0  0  0  0  0  0  0  0
   -2.2706   -8.9669   19.0691 C   0  0  0  0  0  0  0  0  0  0  0  0
    3.0279   -5.3073   26.8197 C   0  0  0  0  0  0  0  0  0  0  0  0
    7.3282   -3.8948   29.1186 C   0  0  0  0  0  0  0  0  0  0  0  0
  1  3  4  0
  1  7  4  0
  2  3  1  0
  2  6  4  0
  2 16  4  0
  3 22  4  0
  4  9  4  0
  4 10  1  0
  4 20  4  0
  5 16  4  0
  5 23  4  0
  6 15  4  0
  7 12  4  0
  8 13  4  0
  8 14  4  0
  9 11  4  0
 11 14  4  0
 11 19  4  0
 12 18  4  0
 13 21  4  0
 15 23  4  0
 17 19  4  0
 17 20  4  0
 18 22  4  0
 19 21  4  0
M  END
$$$$

 Created by Python create_sdf_string function

 23 25  0  0  0  0  0  0  0  0999 V2000
    2.4610   -5.3070   29.1240 C   0  0  0  0  0  0  0  0  0  0  0  0
    4.7710   -4.6952   28.4803 C   0  0  0  0  0  0  0  0  0  0  0  0
    3.4047   -5.1087   28.1314 C   0  0  0  0  0  0  0  0  0  0  0  0
   -0.2234  -11.8615   16.8874 C   0  0  0  0  0  0  0  0  0  0  0  0
    6.4491   -4.1532   30.1213 C   0  0  0  0  0  0  0  0  0  0  0  0
    5.7060   -4.4340   27.4975 C   0  0  0  0  0  0  0  0  0  0  0  0
    1.1818   -5.6612   28.8399 C   0  0  0  0  0  0  0  0  0  0  0  0
   -1.2067   -7.3287   17.7772 C   0  0  0  0  0  0  0  0  0  0  0  0
   -0.0206  -10.5585   16.6210 C   0  0  0  0  0  0  0  0  0  0  0  0
    0.3696  -12.7626   16.2169 O   0  0  0  0  0  0  0  0  0  0  0  0
   -0.6895   -9.5676   17.3297 C   0  0  0  0  0  0  0  0  0  0  0  0
    0.8388   -5.8417   27.5264 C   0  0  0  0  0  0  0  0  0  0  0  0
   -2.0709   -7.6637   18.7817 C   0  0  0  0  0  0  0  0  0  0  0  0
   -0.5279   -8.2168   17.0717 C   0  0  0  0  0  0  0  0  0  0  0  0
    6.9694   -4.0191   27.8190 C   0  0  0  0  0  0  0  0  0  0  0  0
    5.1733   -4.5469   29.8123 C   0  0  0  0  0  0  0  0  0  0  0  0
   -1.7508  -11.3016   18.6072 C   0  0  0  0  0  0  0  0  0  0  0  0
    1.7497   -5.6771   26.4971 C   0  0  0  0  0  0  0  0  0  0  0  0
   -1.5799   -9.9322   18.3468 C   0  0  0  0  0  0  0  0  0  0  0  0
   -1.0871  -12.2214   17.8851 C   0  0  0  0  0  0  0  0  0  0  0  0
   -2.2706   -8.9669   19.0691 C   0  0  0  0  0  0  0  0  0  0  0  0
    3.0279   -5.3073   26.8197 C   0  0  0  0  0  0  0  0  0  0  0  0
    7.3282   -3.8948   29.1186 C   0  0  0  0  0  0  0  0  0  0  0  0
  1  3  4  0
  1  7  4  0
  2  3  1  0
  2  6  4  0
  2 16  4  0
  3 22  4  0
  4  9  4  0
  4 10  1  0
  4 20  4  0
  5 16  4  0
  5 23  4  0
  6 15  4  0
  7 12  4  0
  8 13  4  0
  8 14  4  0
  9 11  4  0
 11 14  4  0
 11 19  4  0
 12 18  4  0
 13 21  4  0
 15 23  4  0
 17 19  4  0
 17 20  4  0
 18 22  4  0
 19 21  4  0
M  END
$$$$

 Created by Python create_sdf_string function

 23 25  0  0  0  0  0  0  0  0999 V2000
    2.4610   -5.3070   29.1240 C   0  0  0  0  0  0  0  0  0  0  0  0
    4.7710   -4.6952   28.4803 C   0  0  0  0  0  0  0  0  0  0  0  0
    3.4047   -5.1087   28.1314 C   0  0  0  0  0  0  0  0  0  0  0  0
   -0.2234  -11.8615   16.8874 C   0  0  0  0  0  0  0  0  0  0  0  0
    6.4491   -4.1532   30.1213 C   0  0  0  0  0  0  0  0  0  0  0  0
    5.7060   -4.4340   27.4975 C   0  0  0  0  0  0  0  0  0  0  0  0
    1.1818   -5.6612   28.8399 C   0  0  0  0  0  0  0  0  0  0  0  0
   -1.2067   -7.3287   17.7772 C   0  0  0  0  0  0  0  0  0  0  0  0
   -0.0206  -10.5585   16.6210 C   0  0  0  0  0  0  0  0  0  0  0  0
    0.3696  -12.7626   16.2169 O   0  0  0  0  0  0  0  0  0  0  0  0
   -0.6895   -9.5676   17.3297 C   0  0  0  0  0  0  0  0  0  0  0  0
    0.8388   -5.8417   27.5264 C   0  0  0  0  0  0  0  0  0  0  0  0
   -2.0709   -7.6637   18.7817 C   0  0  0  0  0  0  0  0  0  0  0  0
   -0.5279   -8.2168   17.0717 C   0  0  0  0  0  0  0  0  0  0  0  0
    6.9694   -4.0191   27.8190 C   0  0  0  0  0  0  0  0  0  0  0  0
    5.1733   -4.5469   29.8123 C   0  0  0  0  0  0  0  0  0  0  0  0
   -1.7508  -11.3016   18.6072 C   0  0  0  0  0  0  0  0  0  0  0  0
    1.7497   -5.6771   26.4971 C   0  0  0  0  0  0  0  0  0  0  0  0
   -1.5799   -9.9322   18.3468 C   0  0  0  0  0  0  0  0  0  0  0  0
   -1.0871  -12.2214   17.8851 C   0  0  0  0  0  0  0  0  0  0  0  0
   -2.2706   -8.9669   19.0691 C   0  0  0  0  0  0  0  0  0  0  0  0
    3.0279   -5.3073   26.8197 C   0  0  0  0  0  0  0  0  0  0  0  0
    7.3282   -3.8948   29.1186 C   0  0  0  0  0  0  0  0  0  0  0  0
  1  3  4  0
  1  7  4  0
  2  3  1  0
  2  6  4  0
  2 16  4  0
  3 22  4  0
  4  9  4  0
  4 10  1  0
  4 20  4  0
  5 16  4  0
  5 23  4  0
  6 15  4  0
  7 12  4  0
  8 13  4  0
  8 14  4  0
  9 11  4  0
 11 14  4  0
 11 19  4  0
 12 18  4  0
 13 21  4  0
 15 23  4  0
 17 19  4  0
 17 20  4  0
 18 22  4  0
 19 21  4  0
M  END
$$$$

 Created by Python create_sdf_string function

 23 25  0  0  0  0  0  0  0  0999 V2000
    2.4610   -5.3070   29.1240 C   0  0  0  0  0  0  0  0  0  0  0  0
    4.7710   -4.6952   28.4803 C   0  0  0  0  0  0  0  0  0  0  0  0
    3.4047   -5.1087   28.1314 C   0  0  0  0  0  0  0  0  0  0  0  0
   -0.2234  -11.8615   16.8874 C   0  0  0  0  0  0  0  0  0  0  0  0
    6.4491   -4.1532   30.1213 C   0  0  0  0  0  0  0  0  0  0  0  0
    5.7060   -4.4340   27.4975 C   0  0  0  0  0  0  0  0  0  0  0  0
    1.1818   -5.6612   28.8399 C   0  0  0  0  0  0  0  0  0  0  0  0
   -1.2067   -7.3287   17.7772 C   0  0  0  0  0  0  0  0  0  0  0  0
   -0.0206  -10.5585   16.6210 C   0  0  0  0  0  0  0  0  0  0  0  0
    0.3696  -12.7626   16.2169 O   0  0  0  0  0  0  0  0  0  0  0  0
   -0.6895   -9.5676   17.3297 C   0  0  0  0  0  0  0  0  0  0  0  0
    0.8388   -5.8417   27.5264 C   0  0  0  0  0  0  0  0  0  0  0  0
   -2.0709   -7.6637   18.7817 C   0  0  0  0  0  0  0  0  0  0  0  0
   -0.5279   -8.2168   17.0717 C   0  0  0  0  0  0  0  0  0  0  0  0
    6.9694   -4.0191   27.8190 C   0  0  0  0  0  0  0  0  0  0  0  0
    5.1733   -4.5469   29.8123 C   0  0  0  0  0  0  0  0  0  0  0  0
   -1.7508  -11.3016   18.6072 C   0  0  0  0  0  0  0  0  0  0  0  0
    1.7497   -5.6771   26.4971 C   0  0  0  0  0  0  0  0  0  0  0  0
   -1.5799   -9.9322   18.3468 C   0  0  0  0  0  0  0  0  0  0  0  0
   -1.0871  -12.2214   17.8851 C   0  0  0  0  0  0  0  0  0  0  0  0
   -2.2706   -8.9669   19.0691 C   0  0  0  0  0  0  0  0  0  0  0  0
    3.0279   -5.3073   26.8197 C   0  0  0  0  0  0  0  0  0  0  0  0
    7.3282   -3.8948   29.1186 C   0  0  0  0  0  0  0  0  0  0  0  0
  1  3  4  0
  1  7  4  0
  2  3  1  0
  2  6  4  0
  2 16  4  0
  3 22  4  0
  4  9  4  0
  4 10  1  0
  4 20  4  0
  5 16  4  0
  5 23  4  0
  6 15  4  0
  7 12  4  0
  8 13  4  0
  8 14  4  0
  9 11  4  0
 11 14  4  0
 11 19  4  0
 12 18  4  0
 13 21  4  0
 15 23  4  0
 17 19  4  0
 17 20  4  0
 18 22  4  0
 19 21  4  0
M  END
$$$$

 Created by Python create_sdf_string function

 23 25  0  0  0  0  0  0  0  0999 V2000
    2.4610   -5.3070   29.1240 C   0  0  0  0  0  0  0  0  0  0  0  0
    4.7710   -4.6952   28.4803 C   0  0  0  0  0  0  0  0  0  0  0  0
    3.4047   -5.1087   28.1314 C   0  0  0  0  0  0  0  0  0  0  0  0
   -0.2234  -11.8615   16.8874 C   0  0  0  0  0  0  0  0  0  0  0  0
    6.4491   -4.1532   30.1213 C   0  0  0  0  0  0  0  0  0  0  0  0
    5.7060   -4.4340   27.4975 C   0  0  0  0  0  0  0  0  0  0  0  0
    1.1818   -5.6612   28.8399 C   0  0  0  0  0  0  0  0  0  0  0  0
   -1.2067   -7.3287   17.7772 C   0  0  0  0  0  0  0  0  0  0  0  0
   -0.0206  -10.5585   16.6210 C   0  0  0  0  0  0  0  0  0  0  0  0
    0.3696  -12.7626   16.2169 O   0  0  0  0  0  0  0  0  0  0  0  0
   -0.6895   -9.5676   17.3297 C   0  0  0  0  0  0  0  0  0  0  0  0
    0.8388   -5.8417   27.5264 C   0  0  0  0  0  0  0  0  0  0  0  0
   -2.0709   -7.6637   18.7817 C   0  0  0  0  0  0  0  0  0  0  0  0
   -0.5279   -8.2168   17.0717 C   0  0  0  0  0  0  0  0  0  0  0  0
    6.9694   -4.0191   27.8190 C   0  0  0  0  0  0  0  0  0  0  0  0
    5.1733   -4.5469   29.8123 C   0  0  0  0  0  0  0  0  0  0  0  0
   -1.7508  -11.3016   18.6072 C   0  0  0  0  0  0  0  0  0  0  0  0
    1.7497   -5.6771   26.4971 C   0  0  0  0  0  0  0  0  0  0  0  0
   -1.5799   -9.9322   18.3468 C   0  0  0  0  0  0  0  0  0  0  0  0
   -1.0871  -12.2214   17.8851 C   0  0  0  0  0  0  0  0  0  0  0  0
   -2.2706   -8.9669   19.0691 C   0  0  0  0  0  0  0  0  0  0  0  0
    3.0279   -5.3073   26.8197 C   0  0  0  0  0  0  0  0  0  0  0  0
    7.3282   -3.8948   29.1186 C   0  0  0  0  0  0  0  0  0  0  0  0
  1  3  4  0
  1  7  4  0
  2  3  1  0
  2  6  4  0
  2 16  4  0
  3 22  4  0
  4  9  4  0
  4 10  1  0
  4 20  4  0
  5 16  4  0
  5 23  4  0
  6 15  4  0
  7 12  4  0
  8 13  4  0
  8 14  4  0
  9 11  4  0
 11 14  4  0
 11 19  4  0
 12 18  4  0
 13 21  4  0
 15 23  4  0
 17 19  4  0
 17 20  4  0
 18 22  4  0
 19 21  4  0
M  END
$$$$

 Created by Python create_sdf_string function

 23 25  0  0  0  0  0  0  0  0999 V2000
    2.4610   -5.3070   29.1240 C   0  0  0  0  0  0  0  0  0  0  0  0
    4.7710   -4.6952   28.4803 C   0  0  0  0  0  0  0  0  0  0  0  0
    3.4047   -5.1087   28.1314 C   0  0  0  0  0  0  0  0  0  0  0  0
   -0.2234  -11.8615   16.8874 C   0  0  0  0  0  0  0  0  0  0  0  0
    6.4491   -4.1532   30.1213 C   0  0  0  0  0  0  0  0  0  0  0  0
    5.7060   -4.4340   27.4975 C   0  0  0  0  0  0  0  0  0  0  0  0
    1.1818   -5.6612   28.8399 C   0  0  0  0  0  0  0  0  0  0  0  0
   -1.2067   -7.3287   17.7772 C   0  0  0  0  0  0  0  0  0  0  0  0
   -0.0206  -10.5585   16.6210 C   0  0  0  0  0  0  0  0  0  0  0  0
    0.3696  -12.7626   16.2169 O   0  0  0  0  0  0  0  0  0  0  0  0
   -0.6895   -9.5676   17.3297 C   0  0  0  0  0  0  0  0  0  0  0  0
    0.8388   -5.8417   27.5264 C   0  0  0  0  0  0  0  0  0  0  0  0
   -2.0709   -7.6637   18.7817 C   0  0  0  0  0  0  0  0  0  0  0  0
   -0.5279   -8.2168   17.0717 C   0  0  0  0  0  0  0  0  0  0  0  0
    6.9694   -4.0191   27.8190 C   0  0  0  0  0  0  0  0  0  0  0  0
    5.1733   -4.5469   29.8123 C   0  0  0  0  0  0  0  0  0  0  0  0
   -1.7508  -11.3016   18.6072 C   0  0  0  0  0  0  0  0  0  0  0  0
    1.7497   -5.6771   26.4971 C   0  0  0  0  0  0  0  0  0  0  0  0
   -1.5799   -9.9322   18.3468 C   0  0  0  0  0  0  0  0  0  0  0  0
   -1.0871  -12.2214   17.8851 C   0  0  0  0  0  0  0  0  0  0  0  0
   -2.2706   -8.9669   19.0691 C   0  0  0  0  0  0  0  0  0  0  0  0
    3.0279   -5.3073   26.8197 C   0  0  0  0  0  0  0  0  0  0  0  0
    7.3282   -3.8948   29.1186 C   0  0  0  0  0  0  0  0  0  0  0  0
  1  3  4  0
  1  7  4  0
  2  3  1  0
  2  6  4  0
  2 16  4  0
  3 22  4  0
  4  9  4  0
  4 10  1  0
  4 20  4  0
  5 16  4  0
  5 23  4  0
  6 15  4  0
  7 12  4  0
  8 13  4  0
  8 14  4  0
  9 11  4  0
 11 14  4  0
 11 19  4  0
 12 18  4  0
 13 21  4  0
 15 23  4  0
 17 19  4  0
 17 20  4  0
 18 22  4  0
 19 21  4  0
M  END
$$$$

 Created by Python create_sdf_string function

 23 25  0  0  0  0  0  0  0  0999 V2000
    2.4610   -5.3070   29.1240 C   0  0  0  0  0  0  0  0  0  0  0  0
    4.7710   -4.6952   28.4803 C   0  0  0  0  0  0  0  0  0  0  0  0
    3.4047   -5.1087   28.1314 C   0  0  0  0  0  0  0  0  0  0  0  0
   -0.2234  -11.8615   16.8874 C   0  0  0  0  0  0  0  0  0  0  0  0
    6.4491   -4.1532   30.1213 C   0  0  0  0  0  0  0  0  0  0  0  0
    5.7060   -4.4340   27.4975 C   0  0  0  0  0  0  0  0  0  0  0  0
    1.1818   -5.6612   28.8399 C   0  0  0  0  0  0  0  0  0  0  0  0
   -1.2067   -7.3287   17.7772 C   0  0  0  0  0  0  0  0  0  0  0  0
   -0.0206  -10.5585   16.6210 C   0  0  0  0  0  0  0  0  0  0  0  0
    0.3696  -12.7626   16.2169 O   0  0  0  0  0  0  0  0  0  0  0  0
   -0.6895   -9.5676   17.3297 C   0  0  0  0  0  0  0  0  0  0  0  0
    0.8388   -5.8417   27.5264 C   0  0  0  0  0  0  0  0  0  0  0  0
   -2.0709   -7.6637   18.7817 C   0  0  0  0  0  0  0  0  0  0  0  0
   -0.5279   -8.2168   17.0717 C   0  0  0  0  0  0  0  0  0  0  0  0
    6.9694   -4.0191   27.8190 C   0  0  0  0  0  0  0  0  0  0  0  0
    5.1733   -4.5469   29.8123 C   0  0  0  0  0  0  0  0  0  0  0  0
   -1.7508  -11.3016   18.6072 C   0  0  0  0  0  0  0  0  0  0  0  0
    1.7497   -5.6771   26.4971 C   0  0  0  0  0  0  0  0  0  0  0  0
   -1.5799   -9.9322   18.3468 C   0  0  0  0  0  0  0  0  0  0  0  0
   -1.0871  -12.2214   17.8851 C   0  0  0  0  0  0  0  0  0  0  0  0
   -2.2706   -8.9669   19.0691 C   0  0  0  0  0  0  0  0  0  0  0  0
    3.0279   -5.3073   26.8197 C   0  0  0  0  0  0  0  0  0  0  0  0
    7.3282   -3.8948   29.1186 C   0  0  0  0  0  0  0  0  0  0  0  0
  1  3  4  0
  1  7  4  0
  2  3  1  0
  2  6  4  0
  2 16  4  0
  3 22  4  0
  4  9  4  0
  4 10  1  0
  4 20  4  0
  5 16  4  0
  5 23  4  0
  6 15  4  0
  7 12  4  0
  8 13  4  0
  8 14  4  0
  9 11  4  0
 11 14  4  0
 11 19  4  0
 12 18  4  0
 13 21  4  0
 15 23  4  0
 17 19  4  0
 17 20  4  0
 18 22  4  0
 19 21  4  0
M  END
$$$$

 Created by Python create_sdf_string function

 23 25  0  0  0  0  0  0  0  0999 V2000
    2.4610   -5.3070   29.1240 C   0  0  0  0  0  0  0  0  0  0  0  0
    4.7710   -4.6952   28.4803 C   0  0  0  0  0  0  0  0  0  0  0  0
    3.4047   -5.1087   28.1314 C   0  0  0  0  0  0  0  0  0  0  0  0
   -0.2234  -11.8615   16.8874 C   0  0  0  0  0  0  0  0  0  0  0  0
    6.4491   -4.1532   30.1213 C   0  0  0  0  0  0  0  0  0  0  0  0
    5.7060   -4.4340   27.4975 C   0  0  0  0  0  0  0  0  0  0  0  0
    1.1818   -5.6612   28.8399 C   0  0  0  0  0  0  0  0  0  0  0  0
   -1.2067   -7.3287   17.7772 C   0  0  0  0  0  0  0  0  0  0  0  0
   -0.0206  -10.5585   16.6210 C   0  0  0  0  0  0  0  0  0  0  0  0
    0.3696  -12.7626   16.2169 O   0  0  0  0  0  0  0  0  0  0  0  0
   -0.6895   -9.5676   17.3297 C   0  0  0  0  0  0  0  0  0  0  0  0
    0.8388   -5.8417   27.5264 C   0  0  0  0  0  0  0  0  0  0  0  0
   -2.0709   -7.6637   18.7817 C   0  0  0  0  0  0  0  0  0  0  0  0
   -0.5279   -8.2168   17.0717 C   0  0  0  0  0  0  0  0  0  0  0  0
    6.9694   -4.0191   27.8190 C   0  0  0  0  0  0  0  0  0  0  0  0
    5.1733   -4.5469   29.8123 C   0  0  0  0  0  0  0  0  0  0  0  0
   -1.7508  -11.3016   18.6072 C   0  0  0  0  0  0  0  0  0  0  0  0
    1.7497   -5.6771   26.4971 C   0  0  0  0  0  0  0  0  0  0  0  0
   -1.5799   -9.9322   18.3468 C   0  0  0  0  0  0  0  0  0  0  0  0
   -1.0871  -12.2214   17.8851 C   0  0  0  0  0  0  0  0  0  0  0  0
   -2.2706   -8.9669   19.0691 C   0  0  0  0  0  0  0  0  0  0  0  0
    3.0279   -5.3073   26.8197 C   0  0  0  0  0  0  0  0  0  0  0  0
    7.3282   -3.8948   29.1186 C   0  0  0  0  0  0  0  0  0  0  0  0
  1  3  4  0
  1  7  4  0
  2  3  1  0
  2  6  4  0
  2 16  4  0
  3 22  4  0
  4  9  4  0
  4 10  1  0
  4 20  4  0
  5 16  4  0
  5 23  4  0
  6 15  4  0
  7 12  4  0
  8 13  4  0
  8 14  4  0
  9 11  4  0
 11 14  4  0
 11 19  4  0
 12 18  4  0
 13 21  4  0
 15 23  4  0
 17 19  4  0
 17 20  4  0
 18 22  4  0
 19 21  4  0
M  END
$$$$

 Created by Python create_sdf_string function

 23 25  0  0  0  0  0  0  0  0999 V2000
    2.4610   -5.3070   29.1240 C   0  0  0  0  0  0  0  0  0  0  0  0
    4.7710   -4.6952   28.4803 C   0  0  0  0  0  0  0  0  0  0  0  0
    3.4047   -5.1087   28.1314 C   0  0  0  0  0  0  0  0  0  0  0  0
   -0.2234  -11.8615   16.8874 C   0  0  0  0  0  0  0  0  0  0  0  0
    6.4491   -4.1532   30.1213 C   0  0  0  0  0  0  0  0  0  0  0  0
    5.7060   -4.4340   27.4975 C   0  0  0  0  0  0  0  0  0  0  0  0
    1.1818   -5.6612   28.8399 C   0  0  0  0  0  0  0  0  0  0  0  0
   -1.2067   -7.3287   17.7772 C   0  0  0  0  0  0  0  0  0  0  0  0
   -0.0206  -10.5585   16.6210 C   0  0  0  0  0  0  0  0  0  0  0  0
    0.3696  -12.7626   16.2169 O   0  0  0  0  0  0  0  0  0  0  0  0
   -0.6895   -9.5676   17.3297 C   0  0  0  0  0  0  0  0  0  0  0  0
    0.8388   -5.8417   27.5264 C   0  0  0  0  0  0  0  0  0  0  0  0
   -2.0709   -7.6637   18.7817 C   0  0  0  0  0  0  0  0  0  0  0  0
   -0.5279   -8.2168   17.0717 C   0  0  0  0  0  0  0  0  0  0  0  0
    6.9694   -4.0191   27.8190 C   0  0  0  0  0  0  0  0  0  0  0  0
    5.1733   -4.5469   29.8123 C   0  0  0  0  0  0  0  0  0  0  0  0
   -1.7508  -11.3016   18.6072 C   0  0  0  0  0  0  0  0  0  0  0  0
    1.7497   -5.6771   26.4971 C   0  0  0  0  0  0  0  0  0  0  0  0
   -1.5799   -9.9322   18.3468 C   0  0  0  0  0  0  0  0  0  0  0  0
   -1.0871  -12.2214   17.8851 C   0  0  0  0  0  0  0  0  0  0  0  0
   -2.2706   -8.9669   19.0691 C   0  0  0  0  0  0  0  0  0  0  0  0
    3.0279   -5.3073   26.8197 C   0  0  0  0  0  0  0  0  0  0  0  0
    7.3282   -3.8948   29.1186 C   0  0  0  0  0  0  0  0  0  0  0  0
  1  3  4  0
  1  7  4  0
  2  3  1  0
  2  6  4  0
  2 16  4  0
  3 22  4  0
  4  9  4  0
  4 10  1  0
  4 20  4  0
  5 16  4  0
  5 23  4  0
  6 15  4  0
  7 12  4  0
  8 13  4  0
  8 14  4  0
  9 11  4  0
 11 14  4  0
 11 19  4  0
 12 18  4  0
 13 21  4  0
 15 23  4  0
 17 19  4  0
 17 20  4  0
 18 22  4  0
 19 21  4  0
M  END
$$$$

 Created by Python create_sdf_string function

 23 25  0  0  0  0  0  0  0  0999 V2000
    2.4610   -5.3070   29.1240 C   0  0  0  0  0  0  0  0  0  0  0  0
    4.7710   -4.6952   28.4803 C   0  0  0  0  0  0  0  0  0  0  0  0
    3.4047   -5.1087   28.1314 C   0  0  0  0  0  0  0  0  0  0  0  0
   -0.2234  -11.8615   16.8874 C   0  0  0  0  0  0  0  0  0  0  0  0
    6.4491   -4.1532   30.1213 C   0  0  0  0  0  0  0  0  0  0  0  0
    5.7060   -4.4340   27.4975 C   0  0  0  0  0  0  0  0  0  0  0  0
    1.1818   -5.6612   28.8399 C   0  0  0  0  0  0  0  0  0  0  0  0
   -1.2067   -7.3287   17.7772 C   0  0  0  0  0  0  0  0  0  0  0  0
   -0.0206  -10.5585   16.6210 C   0  0  0  0  0  0  0  0  0  0  0  0
    0.3696  -12.7626   16.2169 O   0  0  0  0  0  0  0  0  0  0  0  0
   -0.6895   -9.5676   17.3297 C   0  0  0  0  0  0  0  0  0  0  0  0
    0.8388   -5.8417   27.5264 C   0  0  0  0  0  0  0  0  0  0  0  0
   -2.0709   -7.6637   18.7817 C   0  0  0  0  0  0  0  0  0  0  0  0
   -0.5279   -8.2168   17.0717 C   0  0  0  0  0  0  0  0  0  0  0  0
    6.9694   -4.0191   27.8190 C   0  0  0  0  0  0  0  0  0  0  0  0
    5.1733   -4.5469   29.8123 C   0  0  0  0  0  0  0  0  0  0  0  0
   -1.7508  -11.3016   18.6072 C   0  0  0  0  0  0  0  0  0  0  0  0
    1.7497   -5.6771   26.4971 C   0  0  0  0  0  0  0  0  0  0  0  0
   -1.5799   -9.9322   18.3468 C   0  0  0  0  0  0  0  0  0  0  0  0
   -1.0871  -12.2214   17.8851 C   0  0  0  0  0  0  0  0  0  0  0  0
   -2.2706   -8.9669   19.0691 C   0  0  0  0  0  0  0  0  0  0  0  0
    3.0279   -5.3073   26.8197 C   0  0  0  0  0  0  0  0  0  0  0  0
    7.3282   -3.8948   29.1186 C   0  0  0  0  0  0  0  0  0  0  0  0
  1  3  4  0
  1  7  4  0
  2  3  1  0
  2  6  4  0
  2 16  4  0
  3 22  4  0
  4  9  4  0
  4 10  1  0
  4 20  4  0
  5 16  4  0
  5 23  4  0
  6 15  4  0
  7 12  4  0
  8 13  4  0
  8 14  4  0
  9 11  4  0
 11 14  4  0
 11 19  4  0
 12 18  4  0
 13 21  4  0
 15 23  4  0
 17 19  4  0
 17 20  4  0
 18 22  4  0
 19 21  4  0
M  END
$$$$

 Created by Python create_sdf_string function

 23 25  0  0  0  0  0  0  0  0999 V2000
    2.4610   -5.3070   29.1240 C   0  0  0  0  0  0  0  0  0  0  0  0
    4.7710   -4.6952   28.4803 C   0  0  0  0  0  0  0  0  0  0  0  0
    3.4047   -5.1087   28.1314 C   0  0  0  0  0  0  0  0  0  0  0  0
   -0.2234  -11.8615   16.8874 C   0  0  0  0  0  0  0  0  0  0  0  0
    6.4491   -4.1532   30.1213 C   0  0  0  0  0  0  0  0  0  0  0  0
    5.7060   -4.4340   27.4975 C   0  0  0  0  0  0  0  0  0  0  0  0
    1.1818   -5.6612   28.8399 C   0  0  0  0  0  0  0  0  0  0  0  0
   -1.2067   -7.3287   17.7772 C   0  0  0  0  0  0  0  0  0  0  0  0
   -0.0206  -10.5585   16.6210 C   0  0  0  0  0  0  0  0  0  0  0  0
    0.3696  -12.7626   16.2169 O   0  0  0  0  0  0  0  0  0  0  0  0
   -0.6895   -9.5676   17.3297 C   0  0  0  0  0  0  0  0  0  0  0  0
    0.8388   -5.8417   27.5264 C   0  0  0  0  0  0  0  0  0  0  0  0
   -2.0709   -7.6637   18.7817 C   0  0  0  0  0  0  0  0  0  0  0  0
   -0.5279   -8.2168   17.0717 C   0  0  0  0  0  0  0  0  0  0  0  0
    6.9694   -4.0191   27.8190 C   0  0  0  0  0  0  0  0  0  0  0  0
    5.1733   -4.5469   29.8123 C   0  0  0  0  0  0  0  0  0  0  0  0
   -1.7508  -11.3016   18.6072 C   0  0  0  0  0  0  0  0  0  0  0  0
    1.7497   -5.6771   26.4971 C   0  0  0  0  0  0  0  0  0  0  0  0
   -1.5799   -9.9322   18.3468 C   0  0  0  0  0  0  0  0  0  0  0  0
   -1.0871  -12.2214   17.8851 C   0  0  0  0  0  0  0  0  0  0  0  0
   -2.2706   -8.9669   19.0691 C   0  0  0  0  0  0  0  0  0  0  0  0
    3.0279   -5.3073   26.8197 C   0  0  0  0  0  0  0  0  0  0  0  0
    7.3282   -3.8948   29.1186 C   0  0  0  0  0  0  0  0  0  0  0  0
  1  3  4  0
  1  7  4  0
  2  3  1  0
  2  6  4  0
  2 16  4  0
  3 22  4  0
  4  9  4  0
  4 10  1  0
  4 20  4  0
  5 16  4  0
  5 23  4  0
  6 15  4  0
  7 12  4  0
  8 13  4  0
  8 14  4  0
  9 11  4  0
 11 14  4  0
 11 19  4  0
 12 18  4  0
 13 21  4  0
 15 23  4  0
 17 19  4  0
 17 20  4  0
 18 22  4  0
 19 21  4  0
M  END
$$$$

 Created by Python create_sdf_string function

 23 25  0  0  0  0  0  0  0  0999 V2000
    2.4610   -5.3070   29.1240 C   0  0  0  0  0  0  0  0  0  0  0  0
    4.7710   -4.6952   28.4803 C   0  0  0  0  0  0  0  0  0  0  0  0
    3.4047   -5.1087   28.1314 C   0  0  0  0  0  0  0  0  0  0  0  0
   -0.2234  -11.8615   16.8874 C   0  0  0  0  0  0  0  0  0  0  0  0
    6.4491   -4.1532   30.1213 C   0  0  0  0  0  0  0  0  0  0  0  0
    5.7060   -4.4340   27.4975 C   0  0  0  0  0  0  0  0  0  0  0  0
    1.1818   -5.6612   28.8399 C   0  0  0  0  0  0  0  0  0  0  0  0
   -1.2067   -7.3287   17.7772 C   0  0  0  0  0  0  0  0  0  0  0  0
   -0.0206  -10.5585   16.6210 C   0  0  0  0  0  0  0  0  0  0  0  0
    0.3696  -12.7626   16.2169 O   0  0  0  0  0  0  0  0  0  0  0  0
   -0.6895   -9.5676   17.3297 C   0  0  0  0  0  0  0  0  0  0  0  0
    0.8388   -5.8417   27.5264 C   0  0  0  0  0  0  0  0  0  0  0  0
   -2.0709   -7.6637   18.7817 C   0  0  0  0  0  0  0  0  0  0  0  0
   -0.5279   -8.2168   17.0717 C   0  0  0  0  0  0  0  0  0  0  0  0
    6.9694   -4.0191   27.8190 C   0  0  0  0  0  0  0  0  0  0  0  0
    5.1733   -4.5469   29.8123 C   0  0  0  0  0  0  0  0  0  0  0  0
   -1.7508  -11.3016   18.6072 C   0  0  0  0  0  0  0  0  0  0  0  0
    1.7497   -5.6771   26.4971 C   0  0  0  0  0  0  0  0  0  0  0  0
   -1.5799   -9.9322   18.3468 C   0  0  0  0  0  0  0  0  0  0  0  0
   -1.0871  -12.2214   17.8851 C   0  0  0  0  0  0  0  0  0  0  0  0
   -2.2706   -8.9669   19.0691 C   0  0  0  0  0  0  0  0  0  0  0  0
    3.0279   -5.3073   26.8197 C   0  0  0  0  0  0  0  0  0  0  0  0
    7.3282   -3.8948   29.1186 C   0  0  0  0  0  0  0  0  0  0  0  0
  1  3  4  0
  1  7  4  0
  2  3  1  0
  2  6  4  0
  2 16  4  0
  3 22  4  0
  4  9  4  0
  4 10  1  0
  4 20  4  0
  5 16  4  0
  5 23  4  0
  6 15  4  0
  7 12  4  0
  8 13  4  0
  8 14  4  0
  9 11  4  0
 11 14  4  0
 11 19  4  0
 12 18  4  0
 13 21  4  0
 15 23  4  0
 17 19  4  0
 17 20  4  0
 18 22  4  0
 19 21  4  0
M  END
$$$$

 Created by Python create_sdf_string function

 23 25  0  0  0  0  0  0  0  0999 V2000
    2.4610   -5.3070   29.1240 C   0  0  0  0  0  0  0  0  0  0  0  0
    4.7710   -4.6952   28.4803 C   0  0  0  0  0  0  0  0  0  0  0  0
    3.4047   -5.1087   28.1314 C   0  0  0  0  0  0  0  0  0  0  0  0
   -0.2234  -11.8615   16.8874 C   0  0  0  0  0  0  0  0  0  0  0  0
    6.4491   -4.1532   30.1213 C   0  0  0  0  0  0  0  0  0  0  0  0
    5.7060   -4.4340   27.4975 C   0  0  0  0  0  0  0  0  0  0  0  0
    1.1818   -5.6612   28.8399 C   0  0  0  0  0  0  0  0  0  0  0  0
   -1.2067   -7.3287   17.7772 C   0  0  0  0  0  0  0  0  0  0  0  0
   -0.0206  -10.5585   16.6210 C   0  0  0  0  0  0  0  0  0  0  0  0
    0.3696  -12.7626   16.2169 O   0  0  0  0  0  0  0  0  0  0  0  0
   -0.6895   -9.5676   17.3297 C   0  0  0  0  0  0  0  0  0  0  0  0
    0.8388   -5.8417   27.5264 C   0  0  0  0  0  0  0  0  0  0  0  0
   -2.0709   -7.6637   18.7817 C   0  0  0  0  0  0  0  0  0  0  0  0
   -0.5279   -8.2168   17.0717 C   0  0  0  0  0  0  0  0  0  0  0  0
    6.9694   -4.0191   27.8190 C   0  0  0  0  0  0  0  0  0  0  0  0
    5.1733   -4.5469   29.8123 C   0  0  0  0  0  0  0  0  0  0  0  0
   -1.7508  -11.3016   18.6072 C   0  0  0  0  0  0  0  0  0  0  0  0
    1.7497   -5.6771   26.4971 C   0  0  0  0  0  0  0  0  0  0  0  0
   -1.5799   -9.9322   18.3468 C   0  0  0  0  0  0  0  0  0  0  0  0
   -1.0871  -12.2214   17.8851 C   0  0  0  0  0  0  0  0  0  0  0  0
   -2.2706   -8.9669   19.0691 C   0  0  0  0  0  0  0  0  0  0  0  0
    3.0279   -5.3073   26.8197 C   0  0  0  0  0  0  0  0  0  0  0  0
    7.3282   -3.8948   29.1186 C   0  0  0  0  0  0  0  0  0  0  0  0
  1  3  4  0
  1  7  4  0
  2  3  1  0
  2  6  4  0
  2 16  4  0
  3 22  4  0
  4  9  4  0
  4 10  1  0
  4 20  4  0
  5 16  4  0
  5 23  4  0
  6 15  4  0
  7 12  4  0
  8 13  4  0
  8 14  4  0
  9 11  4  0
 11 14  4  0
 11 19  4  0
 12 18  4  0
 13 21  4  0
 15 23  4  0
 17 19  4  0
 17 20  4  0
 18 22  4  0
 19 21  4  0
M  END
$$$$

 Created by Python create_sdf_string function

 23 25  0  0  0  0  0  0  0  0999 V2000
    2.4610   -5.3070   29.1240 C   0  0  0  0  0  0  0  0  0  0  0  0
    4.7710   -4.6952   28.4803 C   0  0  0  0  0  0  0  0  0  0  0  0
    3.4047   -5.1087   28.1314 C   0  0  0  0  0  0  0  0  0  0  0  0
   -0.2234  -11.8615   16.8874 C   0  0  0  0  0  0  0  0  0  0  0  0
    6.4491   -4.1532   30.1213 C   0  0  0  0  0  0  0  0  0  0  0  0
    5.7060   -4.4340   27.4975 C   0  0  0  0  0  0  0  0  0  0  0  0
    1.1818   -5.6612   28.8399 C   0  0  0  0  0  0  0  0  0  0  0  0
   -1.2067   -7.3287   17.7772 C   0  0  0  0  0  0  0  0  0  0  0  0
   -0.0206  -10.5585   16.6210 C   0  0  0  0  0  0  0  0  0  0  0  0
    0.3696  -12.7626   16.2169 O   0  0  0  0  0  0  0  0  0  0  0  0
   -0.6895   -9.5676   17.3297 C   0  0  0  0  0  0  0  0  0  0  0  0
    0.8388   -5.8417   27.5264 C   0  0  0  0  0  0  0  0  0  0  0  0
   -2.0709   -7.6637   18.7817 C   0  0  0  0  0  0  0  0  0  0  0  0
   -0.5279   -8.2168   17.0717 C   0  0  0  0  0  0  0  0  0  0  0  0
    6.9694   -4.0191   27.8190 C   0  0  0  0  0  0  0  0  0  0  0  0
    5.1733   -4.5469   29.8123 C   0  0  0  0  0  0  0  0  0  0  0  0
   -1.7508  -11.3016   18.6072 C   0  0  0  0  0  0  0  0  0  0  0  0
    1.7497   -5.6771   26.4971 C   0  0  0  0  0  0  0  0  0  0  0  0
   -1.5799   -9.9322   18.3468 C   0  0  0  0  0  0  0  0  0  0  0  0
   -1.0871  -12.2214   17.8851 C   0  0  0  0  0  0  0  0  0  0  0  0
   -2.2706   -8.9669   19.0691 C   0  0  0  0  0  0  0  0  0  0  0  0
    3.0279   -5.3073   26.8197 C   0  0  0  0  0  0  0  0  0  0  0  0
    7.3282   -3.8948   29.1186 C   0  0  0  0  0  0  0  0  0  0  0  0
  1  3  4  0
  1  7  4  0
  2  3  1  0
  2  6  4  0
  2 16  4  0
  3 22  4  0
  4  9  4  0
  4 10  1  0
  4 20  4  0
  5 16  4  0
  5 23  4  0
  6 15  4  0
  7 12  4  0
  8 13  4  0
  8 14  4  0
  9 11  4  0
 11 14  4  0
 11 19  4  0
 12 18  4  0
 13 21  4  0
 15 23  4  0
 17 19  4  0
 17 20  4  0
 18 22  4  0
 19 21  4  0
M  END
$$$$

 Created by Python create_sdf_string function

 23 25  0  0  0  0  0  0  0  0999 V2000
    2.4610   -5.3070   29.1240 C   0  0  0  0  0  0  0  0  0  0  0  0
    4.7710   -4.6952   28.4803 C   0  0  0  0  0  0  0  0  0  0  0  0
    3.4047   -5.1087   28.1314 C   0  0  0  0  0  0  0  0  0  0  0  0
   -0.2234  -11.8615   16.8874 C   0  0  0  0  0  0  0  0  0  0  0  0
    6.4491   -4.1532   30.1213 C   0  0  0  0  0  0  0  0  0  0  0  0
    5.7060   -4.4340   27.4975 C   0  0  0  0  0  0  0  0  0  0  0  0
    1.1818   -5.6612   28.8399 C   0  0  0  0  0  0  0  0  0  0  0  0
   -1.2067   -7.3287   17.7772 C   0  0  0  0  0  0  0  0  0  0  0  0
   -0.0206  -10.5585   16.6210 C   0  0  0  0  0  0  0  0  0  0  0  0
    0.3696  -12.7626   16.2169 O   0  0  0  0  0  0  0  0  0  0  0  0
   -0.6895   -9.5676   17.3297 C   0  0  0  0  0  0  0  0  0  0  0  0
    0.8388   -5.8417   27.5264 C   0  0  0  0  0  0  0  0  0  0  0  0
   -2.0709   -7.6637   18.7817 C   0  0  0  0  0  0  0  0  0  0  0  0
   -0.5279   -8.2168   17.0717 C   0  0  0  0  0  0  0  0  0  0  0  0
    6.9694   -4.0191   27.8190 C   0  0  0  0  0  0  0  0  0  0  0  0
    5.1733   -4.5469   29.8123 C   0  0  0  0  0  0  0  0  0  0  0  0
   -1.7508  -11.3016   18.6072 C   0  0  0  0  0  0  0  0  0  0  0  0
    1.7497   -5.6771   26.4971 C   0  0  0  0  0  0  0  0  0  0  0  0
   -1.5799   -9.9322   18.3468 C   0  0  0  0  0  0  0  0  0  0  0  0
   -1.0871  -12.2214   17.8851 C   0  0  0  0  0  0  0  0  0  0  0  0
   -2.2706   -8.9669   19.0691 C   0  0  0  0  0  0  0  0  0  0  0  0
    3.0279   -5.3073   26.8197 C   0  0  0  0  0  0  0  0  0  0  0  0
    7.3282   -3.8948   29.1186 C   0  0  0  0  0  0  0  0  0  0  0  0
  1  3  4  0
  1  7  4  0
  2  3  1  0
  2  6  4  0
  2 16  4  0
  3 22  4  0
  4  9  4  0
  4 10  1  0
  4 20  4  0
  5 16  4  0
  5 23  4  0
  6 15  4  0
  7 12  4  0
  8 13  4  0
  8 14  4  0
  9 11  4  0
 11 14  4  0
 11 19  4  0
 12 18  4  0
 13 21  4  0
 15 23  4  0
 17 19  4  0
 17 20  4  0
 18 22  4  0
 19 21  4  0
M  END
$$$$

 Created by Python create_sdf_string function

 23 25  0  0  0  0  0  0  0  0999 V2000
    2.4610   -5.3070   29.1240 C   0  0  0  0  0  0  0  0  0  0  0  0
    4.7710   -4.6952   28.4803 C   0  0  0  0  0  0  0  0  0  0  0  0
    3.4047   -5.1087   28.1314 C   0  0  0  0  0  0  0  0  0  0  0  0
   -0.2234  -11.8615   16.8874 C   0  0  0  0  0  0  0  0  0  0  0  0
    6.4491   -4.1532   30.1213 C   0  0  0  0  0  0  0  0  0  0  0  0
    5.7060   -4.4340   27.4975 C   0  0  0  0  0  0  0  0  0  0  0  0
    1.1818   -5.6612   28.8399 C   0  0  0  0  0  0  0  0  0  0  0  0
   -1.2067   -7.3287   17.7772 C   0  0  0  0  0  0  0  0  0  0  0  0
   -0.0206  -10.5585   16.6210 C   0  0  0  0  0  0  0  0  0  0  0  0
    0.3696  -12.7626   16.2169 O   0  0  0  0  0  0  0  0  0  0  0  0
   -0.6895   -9.5676   17.3297 C   0  0  0  0  0  0  0  0  0  0  0  0
    0.8388   -5.8417   27.5264 C   0  0  0  0  0  0  0  0  0  0  0  0
   -2.0709   -7.6637   18.7817 C   0  0  0  0  0  0  0  0  0  0  0  0
   -0.5279   -8.2168   17.0717 C   0  0  0  0  0  0  0  0  0  0  0  0
    6.9694   -4.0191   27.8190 C   0  0  0  0  0  0  0  0  0  0  0  0
    5.1733   -4.5469   29.8123 C   0  0  0  0  0  0  0  0  0  0  0  0
   -1.7508  -11.3016   18.6072 C   0  0  0  0  0  0  0  0  0  0  0  0
    1.7497   -5.6771   26.4971 C   0  0  0  0  0  0  0  0  0  0  0  0
   -1.5799   -9.9322   18.3468 C   0  0  0  0  0  0  0  0  0  0  0  0
   -1.0871  -12.2214   17.8851 C   0  0  0  0  0  0  0  0  0  0  0  0
   -2.2706   -8.9669   19.0691 C   0  0  0  0  0  0  0  0  0  0  0  0
    3.0279   -5.3073   26.8197 C   0  0  0  0  0  0  0  0  0  0  0  0
    7.3282   -3.8948   29.1186 C   0  0  0  0  0  0  0  0  0  0  0  0
  1  3  4  0
  1  7  4  0
  2  3  1  0
  2  6  4  0
  2 16  4  0
  3 22  4  0
  4  9  4  0
  4 10  1  0
  4 20  4  0
  5 16  4  0
  5 23  4  0
  6 15  4  0
  7 12  4  0
  8 13  4  0
  8 14  4  0
  9 11  4  0
 11 14  4  0
 11 19  4  0
 12 18  4  0
 13 21  4  0
 15 23  4  0
 17 19  4  0
 17 20  4  0
 18 22  4  0
 19 21  4  0
M  END
$$$$

 Created by Python create_sdf_string function

 23 25  0  0  0  0  0  0  0  0999 V2000
    2.4610   -5.3070   29.1240 C   0  0  0  0  0  0  0  0  0  0  0  0
    4.7710   -4.6952   28.4803 C   0  0  0  0  0  0  0  0  0  0  0  0
    3.4047   -5.1087   28.1314 C   0  0  0  0  0  0  0  0  0  0  0  0
   -0.2234  -11.8615   16.8874 C   0  0  0  0  0  0  0  0  0  0  0  0
    6.4491   -4.1532   30.1213 C   0  0  0  0  0  0  0  0  0  0  0  0
    5.7060   -4.4340   27.4975 C   0  0  0  0  0  0  0  0  0  0  0  0
    1.1818   -5.6612   28.8399 C   0  0  0  0  0  0  0  0  0  0  0  0
   -1.2067   -7.3287   17.7772 C   0  0  0  0  0  0  0  0  0  0  0  0
   -0.0206  -10.5585   16.6210 C   0  0  0  0  0  0  0  0  0  0  0  0
    0.3696  -12.7626   16.2169 O   0  0  0  0  0  0  0  0  0  0  0  0
   -0.6895   -9.5676   17.3297 C   0  0  0  0  0  0  0  0  0  0  0  0
    0.8388   -5.8417   27.5264 C   0  0  0  0  0  0  0  0  0  0  0  0
   -2.0709   -7.6637   18.7817 C   0  0  0  0  0  0  0  0  0  0  0  0
   -0.5279   -8.2168   17.0717 C   0  0  0  0  0  0  0  0  0  0  0  0
    6.9694   -4.0191   27.8190 C   0  0  0  0  0  0  0  0  0  0  0  0
    5.1733   -4.5469   29.8123 C   0  0  0  0  0  0  0  0  0  0  0  0
   -1.7508  -11.3016   18.6072 C   0  0  0  0  0  0  0  0  0  0  0  0
    1.7497   -5.6771   26.4971 C   0  0  0  0  0  0  0  0  0  0  0  0
   -1.5799   -9.9322   18.3468 C   0  0  0  0  0  0  0  0  0  0  0  0
   -1.0871  -12.2214   17.8851 C   0  0  0  0  0  0  0  0  0  0  0  0
   -2.2706   -8.9669   19.0691 C   0  0  0  0  0  0  0  0  0  0  0  0
    3.0279   -5.3073   26.8197 C   0  0  0  0  0  0  0  0  0  0  0  0
    7.3282   -3.8948   29.1186 C   0  0  0  0  0  0  0  0  0  0  0  0
  1  3  4  0
  1  7  4  0
  2  3  1  0
  2  6  4  0
  2 16  4  0
  3 22  4  0
  4  9  4  0
  4 10  1  0
  4 20  4  0
  5 16  4  0
  5 23  4  0
  6 15  4  0
  7 12  4  0
  8 13  4  0
  8 14  4  0
  9 11  4  0
 11 14  4  0
 11 19  4  0
 12 18  4  0
 13 21  4  0
 15 23  4  0
 17 19  4  0
 17 20  4  0
 18 22  4  0
 19 21  4  0
M  END
$$$$

 Created by Python create_sdf_string function

 23 25  0  0  0  0  0  0  0  0999 V2000
    2.4610   -5.3070   29.1240 C   0  0  0  0  0  0  0  0  0  0  0  0
    4.7710   -4.6952   28.4803 C   0  0  0  0  0  0  0  0  0  0  0  0
    3.4047   -5.1087   28.1314 C   0  0  0  0  0  0  0  0  0  0  0  0
   -0.2234  -11.8615   16.8874 C   0  0  0  0  0  0  0  0  0  0  0  0
    6.4491   -4.1532   30.1213 C   0  0  0  0  0  0  0  0  0  0  0  0
    5.7060   -4.4340   27.4975 C   0  0  0  0  0  0  0  0  0  0  0  0
    1.1818   -5.6612   28.8399 C   0  0  0  0  0  0  0  0  0  0  0  0
   -1.2067   -7.3287   17.7772 C   0  0  0  0  0  0  0  0  0  0  0  0
   -0.0206  -10.5585   16.6210 C   0  0  0  0  0  0  0  0  0  0  0  0
    0.3696  -12.7626   16.2169 O   0  0  0  0  0  0  0  0  0  0  0  0
   -0.6895   -9.5676   17.3297 C   0  0  0  0  0  0  0  0  0  0  0  0
    0.8388   -5.8417   27.5264 C   0  0  0  0  0  0  0  0  0  0  0  0
   -2.0709   -7.6637   18.7817 C   0  0  0  0  0  0  0  0  0  0  0  0
   -0.5279   -8.2168   17.0717 C   0  0  0  0  0  0  0  0  0  0  0  0
    6.9694   -4.0191   27.8190 C   0  0  0  0  0  0  0  0  0  0  0  0
    5.1733   -4.5469   29.8123 C   0  0  0  0  0  0  0  0  0  0  0  0
   -1.7508  -11.3016   18.6072 C   0  0  0  0  0  0  0  0  0  0  0  0
    1.7497   -5.6771   26.4971 C   0  0  0  0  0  0  0  0  0  0  0  0
   -1.5799   -9.9322   18.3468 C   0  0  0  0  0  0  0  0  0  0  0  0
   -1.0871  -12.2214   17.8851 C   0  0  0  0  0  0  0  0  0  0  0  0
   -2.2706   -8.9669   19.0691 C   0  0  0  0  0  0  0  0  0  0  0  0
    3.0279   -5.3073   26.8197 C   0  0  0  0  0  0  0  0  0  0  0  0
    7.3282   -3.8948   29.1186 C   0  0  0  0  0  0  0  0  0  0  0  0
  1  3  4  0
  1  7  4  0
  2  3  1  0
  2  6  4  0
  2 16  4  0
  3 22  4  0
  4  9  4  0
  4 10  1  0
  4 20  4  0
  5 16  4  0
  5 23  4  0
  6 15  4  0
  7 12  4  0
  8 13  4  0
  8 14  4  0
  9 11  4  0
 11 14  4  0
 11 19  4  0
 12 18  4  0
 13 21  4  0
 15 23  4  0
 17 19  4  0
 17 20  4  0
 18 22  4  0
 19 21  4  0
M  END
$$$$

 Created by Python create_sdf_string function

 23 25  0  0  0  0  0  0  0  0999 V2000
    2.4610   -5.3070   29.1240 C   0  0  0  0  0  0  0  0  0  0  0  0
    4.7710   -4.6952   28.4803 C   0  0  0  0  0  0  0  0  0  0  0  0
    3.4047   -5.1087   28.1314 C   0  0  0  0  0  0  0  0  0  0  0  0
   -0.2234  -11.8615   16.8874 C   0  0  0  0  0  0  0  0  0  0  0  0
    6.4491   -4.1532   30.1213 C   0  0  0  0  0  0  0  0  0  0  0  0
    5.7060   -4.4340   27.4975 C   0  0  0  0  0  0  0  0  0  0  0  0
    1.1818   -5.6612   28.8399 C   0  0  0  0  0  0  0  0  0  0  0  0
   -1.2067   -7.3287   17.7772 C   0  0  0  0  0  0  0  0  0  0  0  0
   -0.0206  -10.5585   16.6210 C   0  0  0  0  0  0  0  0  0  0  0  0
    0.3696  -12.7626   16.2169 O   0  0  0  0  0  0  0  0  0  0  0  0
   -0.6895   -9.5676   17.3297 C   0  0  0  0  0  0  0  0  0  0  0  0
    0.8388   -5.8417   27.5264 C   0  0  0  0  0  0  0  0  0  0  0  0
   -2.0709   -7.6637   18.7817 C   0  0  0  0  0  0  0  0  0  0  0  0
   -0.5279   -8.2168   17.0717 C   0  0  0  0  0  0  0  0  0  0  0  0
    6.9694   -4.0191   27.8190 C   0  0  0  0  0  0  0  0  0  0  0  0
    5.1733   -4.5469   29.8123 C   0  0  0  0  0  0  0  0  0  0  0  0
   -1.7508  -11.3016   18.6072 C   0  0  0  0  0  0  0  0  0  0  0  0
    1.7497   -5.6771   26.4971 C   0  0  0  0  0  0  0  0  0  0  0  0
   -1.5799   -9.9322   18.3468 C   0  0  0  0  0  0  0  0  0  0  0  0
   -1.0871  -12.2214   17.8851 C   0  0  0  0  0  0  0  0  0  0  0  0
   -2.2706   -8.9669   19.0691 C   0  0  0  0  0  0  0  0  0  0  0  0
    3.0279   -5.3073   26.8197 C   0  0  0  0  0  0  0  0  0  0  0  0
    7.3282   -3.8948   29.1186 C   0  0  0  0  0  0  0  0  0  0  0  0
  1  3  4  0
  1  7  4  0
  2  3  1  0
  2  6  4  0
  2 16  4  0
  3 22  4  0
  4  9  4  0
  4 10  1  0
  4 20  4  0
  5 16  4  0
  5 23  4  0
  6 15  4  0
  7 12  4  0
  8 13  4  0
  8 14  4  0
  9 11  4  0
 11 14  4  0
 11 19  4  0
 12 18  4  0
 13 21  4  0
 15 23  4  0
 17 19  4  0
 17 20  4  0
 18 22  4  0
 19 21  4  0
M  END
$$$$

 Created by Python create_sdf_string function

 23 25  0  0  0  0  0  0  0  0999 V2000
    2.4610   -5.3070   29.1240 C   0  0  0  0  0  0  0  0  0  0  0  0
    4.7710   -4.6952   28.4803 C   0  0  0  0  0  0  0  0  0  0  0  0
    3.4047   -5.1087   28.1314 C   0  0  0  0  0  0  0  0  0  0  0  0
   -0.2234  -11.8615   16.8874 C   0  0  0  0  0  0  0  0  0  0  0  0
    6.4491   -4.1532   30.1213 C   0  0  0  0  0  0  0  0  0  0  0  0
    5.7060   -4.4340   27.4975 C   0  0  0  0  0  0  0  0  0  0  0  0
    1.1818   -5.6612   28.8399 C   0  0  0  0  0  0  0  0  0  0  0  0
   -1.2067   -7.3287   17.7772 C   0  0  0  0  0  0  0  0  0  0  0  0
   -0.0206  -10.5585   16.6210 C   0  0  0  0  0  0  0  0  0  0  0  0
    0.3696  -12.7626   16.2169 O   0  0  0  0  0  0  0  0  0  0  0  0
   -0.6895   -9.5676   17.3297 C   0  0  0  0  0  0  0  0  0  0  0  0
    0.8388   -5.8417   27.5264 C   0  0  0  0  0  0  0  0  0  0  0  0
   -2.0709   -7.6637   18.7817 C   0  0  0  0  0  0  0  0  0  0  0  0
   -0.5279   -8.2168   17.0717 C   0  0  0  0  0  0  0  0  0  0  0  0
    6.9694   -4.0191   27.8190 C   0  0  0  0  0  0  0  0  0  0  0  0
    5.1733   -4.5469   29.8123 C   0  0  0  0  0  0  0  0  0  0  0  0
   -1.7508  -11.3016   18.6072 C   0  0  0  0  0  0  0  0  0  0  0  0
    1.7497   -5.6771   26.4971 C   0  0  0  0  0  0  0  0  0  0  0  0
   -1.5799   -9.9322   18.3468 C   0  0  0  0  0  0  0  0  0  0  0  0
   -1.0871  -12.2214   17.8851 C   0  0  0  0  0  0  0  0  0  0  0  0
   -2.2706   -8.9669   19.0691 C   0  0  0  0  0  0  0  0  0  0  0  0
    3.0279   -5.3073   26.8197 C   0  0  0  0  0  0  0  0  0  0  0  0
    7.3282   -3.8948   29.1186 C   0  0  0  0  0  0  0  0  0  0  0  0
  1  3  4  0
  1  7  4  0
  2  3  1  0
  2  6  4  0
  2 16  4  0
  3 22  4  0
  4  9  4  0
  4 10  1  0
  4 20  4  0
  5 16  4  0
  5 23  4  0
  6 15  4  0
  7 12  4  0
  8 13  4  0
  8 14  4  0
  9 11  4  0
 11 14  4  0
 11 19  4  0
 12 18  4  0
 13 21  4  0
 15 23  4  0
 17 19  4  0
 17 20  4  0
 18 22  4  0
 19 21  4  0
M  END
$$$$

 Created by Python create_sdf_string function

 23 25  0  0  0  0  0  0  0  0999 V2000
    2.4610   -5.3070   29.1240 C   0  0  0  0  0  0  0  0  0  0  0  0
    4.7710   -4.6952   28.4803 C   0  0  0  0  0  0  0  0  0  0  0  0
    3.4047   -5.1087   28.1314 C   0  0  0  0  0  0  0  0  0  0  0  0
   -0.2234  -11.8615   16.8874 C   0  0  0  0  0  0  0  0  0  0  0  0
    6.4491   -4.1532   30.1213 C   0  0  0  0  0  0  0  0  0  0  0  0
    5.7060   -4.4340   27.4975 C   0  0  0  0  0  0  0  0  0  0  0  0
    1.1818   -5.6612   28.8399 C   0  0  0  0  0  0  0  0  0  0  0  0
   -1.2067   -7.3287   17.7772 C   0  0  0  0  0  0  0  0  0  0  0  0
   -0.0206  -10.5585   16.6210 C   0  0  0  0  0  0  0  0  0  0  0  0
    0.3696  -12.7626   16.2169 O   0  0  0  0  0  0  0  0  0  0  0  0
   -0.6895   -9.5676   17.3297 C   0  0  0  0  0  0  0  0  0  0  0  0
    0.8388   -5.8417   27.5264 C   0  0  0  0  0  0  0  0  0  0  0  0
   -2.0709   -7.6637   18.7817 C   0  0  0  0  0  0  0  0  0  0  0  0
   -0.5279   -8.2168   17.0717 C   0  0  0  0  0  0  0  0  0  0  0  0
    6.9694   -4.0191   27.8190 C   0  0  0  0  0  0  0  0  0  0  0  0
    5.1733   -4.5469   29.8123 C   0  0  0  0  0  0  0  0  0  0  0  0
   -1.7508  -11.3016   18.6072 C   0  0  0  0  0  0  0  0  0  0  0  0
    1.7497   -5.6771   26.4971 C   0  0  0  0  0  0  0  0  0  0  0  0
   -1.5799   -9.9322   18.3468 C   0  0  0  0  0  0  0  0  0  0  0  0
   -1.0871  -12.2214   17.8851 C   0  0  0  0  0  0  0  0  0  0  0  0
   -2.2706   -8.9669   19.0691 C   0  0  0  0  0  0  0  0  0  0  0  0
    3.0279   -5.3073   26.8197 C   0  0  0  0  0  0  0  0  0  0  0  0
    7.3282   -3.8948   29.1186 C   0  0  0  0  0  0  0  0  0  0  0  0
  1  3  4  0
  1  7  4  0
  2  3  1  0
  2  6  4  0
  2 16  4  0
  3 22  4  0
  4  9  4  0
  4 10  1  0
  4 20  4  0
  5 16  4  0
  5 23  4  0
  6 15  4  0
  7 12  4  0
  8 13  4  0
  8 14  4  0
  9 11  4  0
 11 14  4  0
 11 19  4  0
 12 18  4  0
 13 21  4  0
 15 23  4  0
 17 19  4  0
 17 20  4  0
 18 22  4  0
 19 21  4  0
M  END
$$$$

 Created by Python create_sdf_string function

 23 25  0  0  0  0  0  0  0  0999 V2000
    2.4610   -5.3070   29.1240 C   0  0  0  0  0  0  0  0  0  0  0  0
    4.7710   -4.6952   28.4803 C   0  0  0  0  0  0  0  0  0  0  0  0
    3.4047   -5.1087   28.1314 C   0  0  0  0  0  0  0  0  0  0  0  0
   -0.2234  -11.8615   16.8874 C   0  0  0  0  0  0  0  0  0  0  0  0
    6.4491   -4.1532   30.1213 C   0  0  0  0  0  0  0  0  0  0  0  0
    5.7060   -4.4340   27.4975 C   0  0  0  0  0  0  0  0  0  0  0  0
    1.1818   -5.6612   28.8399 C   0  0  0  0  0  0  0  0  0  0  0  0
   -1.2067   -7.3287   17.7772 C   0  0  0  0  0  0  0  0  0  0  0  0
   -0.0206  -10.5585   16.6210 C   0  0  0  0  0  0  0  0  0  0  0  0
    0.3696  -12.7626   16.2169 O   0  0  0  0  0  0  0  0  0  0  0  0
   -0.6895   -9.5676   17.3297 C   0  0  0  0  0  0  0  0  0  0  0  0
    0.8388   -5.8417   27.5264 C   0  0  0  0  0  0  0  0  0  0  0  0
   -2.0709   -7.6637   18.7817 C   0  0  0  0  0  0  0  0  0  0  0  0
   -0.5279   -8.2168   17.0717 C   0  0  0  0  0  0  0  0  0  0  0  0
    6.9694   -4.0191   27.8190 C   0  0  0  0  0  0  0  0  0  0  0  0
    5.1733   -4.5469   29.8123 C   0  0  0  0  0  0  0  0  0  0  0  0
   -1.7508  -11.3016   18.6072 C   0  0  0  0  0  0  0  0  0  0  0  0
    1.7497   -5.6771   26.4971 C   0  0  0  0  0  0  0  0  0  0  0  0
   -1.5799   -9.9322   18.3468 C   0  0  0  0  0  0  0  0  0  0  0  0
   -1.0871  -12.2214   17.8851 C   0  0  0  0  0  0  0  0  0  0  0  0
   -2.2706   -8.9669   19.0691 C   0  0  0  0  0  0  0  0  0  0  0  0
    3.0279   -5.3073   26.8197 C   0  0  0  0  0  0  0  0  0  0  0  0
    7.3282   -3.8948   29.1186 C   0  0  0  0  0  0  0  0  0  0  0  0
  1  3  4  0
  1  7  4  0
  2  3  1  0
  2  6  4  0
  2 16  4  0
  3 22  4  0
  4  9  4  0
  4 10  1  0
  4 20  4  0
  5 16  4  0
  5 23  4  0
  6 15  4  0
  7 12  4  0
  8 13  4  0
  8 14  4  0
  9 11  4  0
 11 14  4  0
 11 19  4  0
 12 18  4  0
 13 21  4  0
 15 23  4  0
 17 19  4  0
 17 20  4  0
 18 22  4  0
 19 21  4  0
M  END
$$$$

 Created by Python create_sdf_string function

 23 25  0  0  0  0  0  0  0  0999 V2000
    2.4610   -5.3070   29.1240 C   0  0  0  0  0  0  0  0  0  0  0  0
    4.7710   -4.6952   28.4803 C   0  0  0  0  0  0  0  0  0  0  0  0
    3.4047   -5.1087   28.1314 C   0  0  0  0  0  0  0  0  0  0  0  0
   -0.2234  -11.8615   16.8874 C   0  0  0  0  0  0  0  0  0  0  0  0
    6.4491   -4.1532   30.1213 C   0  0  0  0  0  0  0  0  0  0  0  0
    5.7060   -4.4340   27.4975 C   0  0  0  0  0  0  0  0  0  0  0  0
    1.1818   -5.6612   28.8399 C   0  0  0  0  0  0  0  0  0  0  0  0
   -1.2067   -7.3287   17.7772 C   0  0  0  0  0  0  0  0  0  0  0  0
   -0.0206  -10.5585   16.6210 C   0  0  0  0  0  0  0  0  0  0  0  0
    0.3696  -12.7626   16.2169 O   0  0  0  0  0  0  0  0  0  0  0  0
   -0.6895   -9.5676   17.3297 C   0  0  0  0  0  0  0  0  0  0  0  0
    0.8388   -5.8417   27.5264 C   0  0  0  0  0  0  0  0  0  0  0  0
   -2.0709   -7.6637   18.7817 C   0  0  0  0  0  0  0  0  0  0  0  0
   -0.5279   -8.2168   17.0717 C   0  0  0  0  0  0  0  0  0  0  0  0
    6.9694   -4.0191   27.8190 C   0  0  0  0  0  0  0  0  0  0  0  0
    5.1733   -4.5469   29.8123 C   0  0  0  0  0  0  0  0  0  0  0  0
   -1.7508  -11.3016   18.6072 C   0  0  0  0  0  0  0  0  0  0  0  0
    1.7497   -5.6771   26.4971 C   0  0  0  0  0  0  0  0  0  0  0  0
   -1.5799   -9.9322   18.3468 C   0  0  0  0  0  0  0  0  0  0  0  0
   -1.0871  -12.2214   17.8851 C   0  0  0  0  0  0  0  0  0  0  0  0
   -2.2706   -8.9669   19.0691 C   0  0  0  0  0  0  0  0  0  0  0  0
    3.0279   -5.3073   26.8197 C   0  0  0  0  0  0  0  0  0  0  0  0
    7.3282   -3.8948   29.1186 C   0  0  0  0  0  0  0  0  0  0  0  0
  1  3  4  0
  1  7  4  0
  2  3  1  0
  2  6  4  0
  2 16  4  0
  3 22  4  0
  4  9  4  0
  4 10  1  0
  4 20  4  0
  5 16  4  0
  5 23  4  0
  6 15  4  0
  7 12  4  0
  8 13  4  0
  8 14  4  0
  9 11  4  0
 11 14  4  0
 11 19  4  0
 12 18  4  0
 13 21  4  0
 15 23  4  0
 17 19  4  0
 17 20  4  0
 18 22  4  0
 19 21  4  0
M  END
$$$$

 Created by Python create_sdf_string function

 23 25  0  0  0  0  0  0  0  0999 V2000
    2.4610   -5.3070   29.1240 C   0  0  0  0  0  0  0  0  0  0  0  0
    4.7710   -4.6952   28.4803 C   0  0  0  0  0  0  0  0  0  0  0  0
    3.4047   -5.1087   28.1314 C   0  0  0  0  0  0  0  0  0  0  0  0
   -0.2234  -11.8615   16.8874 C   0  0  0  0  0  0  0  0  0  0  0  0
    6.4491   -4.1532   30.1213 C   0  0  0  0  0  0  0  0  0  0  0  0
    5.7060   -4.4340   27.4975 C   0  0  0  0  0  0  0  0  0  0  0  0
    1.1818   -5.6612   28.8399 C   0  0  0  0  0  0  0  0  0  0  0  0
   -1.2067   -7.3287   17.7772 C   0  0  0  0  0  0  0  0  0  0  0  0
   -0.0206  -10.5585   16.6210 C   0  0  0  0  0  0  0  0  0  0  0  0
    0.3696  -12.7626   16.2169 O   0  0  0  0  0  0  0  0  0  0  0  0
   -0.6895   -9.5676   17.3297 C   0  0  0  0  0  0  0  0  0  0  0  0
    0.8388   -5.8417   27.5264 C   0  0  0  0  0  0  0  0  0  0  0  0
   -2.0709   -7.6637   18.7817 C   0  0  0  0  0  0  0  0  0  0  0  0
   -0.5279   -8.2168   17.0717 C   0  0  0  0  0  0  0  0  0  0  0  0
    6.9694   -4.0191   27.8190 C   0  0  0  0  0  0  0  0  0  0  0  0
    5.1733   -4.5469   29.8123 C   0  0  0  0  0  0  0  0  0  0  0  0
   -1.7508  -11.3016   18.6072 C   0  0  0  0  0  0  0  0  0  0  0  0
    1.7497   -5.6771   26.4971 C   0  0  0  0  0  0  0  0  0  0  0  0
   -1.5799   -9.9322   18.3468 C   0  0  0  0  0  0  0  0  0  0  0  0
   -1.0871  -12.2214   17.8851 C   0  0  0  0  0  0  0  0  0  0  0  0
   -2.2706   -8.9669   19.0691 C   0  0  0  0  0  0  0  0  0  0  0  0
    3.0279   -5.3073   26.8197 C   0  0  0  0  0  0  0  0  0  0  0  0
    7.3282   -3.8948   29.1186 C   0  0  0  0  0  0  0  0  0  0  0  0
  1  3  4  0
  1  7  4  0
  2  3  1  0
  2  6  4  0
  2 16  4  0
  3 22  4  0
  4  9  4  0
  4 10  1  0
  4 20  4  0
  5 16  4  0
  5 23  4  0
  6 15  4  0
  7 12  4  0
  8 13  4  0
  8 14  4  0
  9 11  4  0
 11 14  4  0
 11 19  4  0
 12 18  4  0
 13 21  4  0
 15 23  4  0
 17 19  4  0
 17 20  4  0
 18 22  4  0
 19 21  4  0
M  END
$$$$

 Created by Python create_sdf_string function

 23 25  0  0  0  0  0  0  0  0999 V2000
    2.4610   -5.3070   29.1240 C   0  0  0  0  0  0  0  0  0  0  0  0
    4.7710   -4.6952   28.4803 C   0  0  0  0  0  0  0  0  0  0  0  0
    3.4047   -5.1087   28.1314 C   0  0  0  0  0  0  0  0  0  0  0  0
   -0.2234  -11.8615   16.8874 C   0  0  0  0  0  0  0  0  0  0  0  0
    6.4491   -4.1532   30.1213 C   0  0  0  0  0  0  0  0  0  0  0  0
    5.7060   -4.4340   27.4975 C   0  0  0  0  0  0  0  0  0  0  0  0
    1.1818   -5.6612   28.8399 C   0  0  0  0  0  0  0  0  0  0  0  0
   -1.2067   -7.3287   17.7772 C   0  0  0  0  0  0  0  0  0  0  0  0
   -0.0206  -10.5585   16.6210 C   0  0  0  0  0  0  0  0  0  0  0  0
    0.3696  -12.7626   16.2169 O   0  0  0  0  0  0  0  0  0  0  0  0
   -0.6895   -9.5676   17.3297 C   0  0  0  0  0  0  0  0  0  0  0  0
    0.8388   -5.8417   27.5264 C   0  0  0  0  0  0  0  0  0  0  0  0
   -2.0709   -7.6637   18.7817 C   0  0  0  0  0  0  0  0  0  0  0  0
   -0.5279   -8.2168   17.0717 C   0  0  0  0  0  0  0  0  0  0  0  0
    6.9694   -4.0191   27.8190 C   0  0  0  0  0  0  0  0  0  0  0  0
    5.1733   -4.5469   29.8123 C   0  0  0  0  0  0  0  0  0  0  0  0
   -1.7508  -11.3016   18.6072 C   0  0  0  0  0  0  0  0  0  0  0  0
    1.7497   -5.6771   26.4971 C   0  0  0  0  0  0  0  0  0  0  0  0
   -1.5799   -9.9322   18.3468 C   0  0  0  0  0  0  0  0  0  0  0  0
   -1.0871  -12.2214   17.8851 C   0  0  0  0  0  0  0  0  0  0  0  0
   -2.2706   -8.9669   19.0691 C   0  0  0  0  0  0  0  0  0  0  0  0
    3.0279   -5.3073   26.8197 C   0  0  0  0  0  0  0  0  0  0  0  0
    7.3282   -3.8948   29.1186 C   0  0  0  0  0  0  0  0  0  0  0  0
  1  3  4  0
  1  7  4  0
  2  3  1  0
  2  6  4  0
  2 16  4  0
  3 22  4  0
  4  9  4  0
  4 10  1  0
  4 20  4  0
  5 16  4  0
  5 23  4  0
  6 15  4  0
  7 12  4  0
  8 13  4  0
  8 14  4  0
  9 11  4  0
 11 14  4  0
 11 19  4  0
 12 18  4  0
 13 21  4  0
 15 23  4  0
 17 19  4  0
 17 20  4  0
 18 22  4  0
 19 21  4  0
M  END
$$$$

 Created by Python create_sdf_string function

 23 25  0  0  0  0  0  0  0  0999 V2000
    2.4610   -5.3070   29.1240 C   0  0  0  0  0  0  0  0  0  0  0  0
    4.7710   -4.6952   28.4803 C   0  0  0  0  0  0  0  0  0  0  0  0
    3.4047   -5.1087   28.1314 C   0  0  0  0  0  0  0  0  0  0  0  0
   -0.2234  -11.8615   16.8874 C   0  0  0  0  0  0  0  0  0  0  0  0
    6.4491   -4.1532   30.1213 C   0  0  0  0  0  0  0  0  0  0  0  0
    5.7060   -4.4340   27.4975 C   0  0  0  0  0  0  0  0  0  0  0  0
    1.1818   -5.6612   28.8399 C   0  0  0  0  0  0  0  0  0  0  0  0
   -1.2067   -7.3287   17.7772 C   0  0  0  0  0  0  0  0  0  0  0  0
   -0.0206  -10.5585   16.6210 C   0  0  0  0  0  0  0  0  0  0  0  0
    0.3696  -12.7626   16.2169 O   0  0  0  0  0  0  0  0  0  0  0  0
   -0.6895   -9.5676   17.3297 C   0  0  0  0  0  0  0  0  0  0  0  0
    0.8388   -5.8417   27.5264 C   0  0  0  0  0  0  0  0  0  0  0  0
   -2.0709   -7.6637   18.7817 C   0  0  0  0  0  0  0  0  0  0  0  0
   -0.5279   -8.2168   17.0717 C   0  0  0  0  0  0  0  0  0  0  0  0
    6.9694   -4.0191   27.8190 C   0  0  0  0  0  0  0  0  0  0  0  0
    5.1733   -4.5469   29.8123 C   0  0  0  0  0  0  0  0  0  0  0  0
   -1.7508  -11.3016   18.6072 C   0  0  0  0  0  0  0  0  0  0  0  0
    1.7497   -5.6771   26.4971 C   0  0  0  0  0  0  0  0  0  0  0  0
   -1.5799   -9.9322   18.3468 C   0  0  0  0  0  0  0  0  0  0  0  0
   -1.0871  -12.2214   17.8851 C   0  0  0  0  0  0  0  0  0  0  0  0
   -2.2706   -8.9669   19.0691 C   0  0  0  0  0  0  0  0  0  0  0  0
    3.0279   -5.3073   26.8197 C   0  0  0  0  0  0  0  0  0  0  0  0
    7.3282   -3.8948   29.1186 C   0  0  0  0  0  0  0  0  0  0  0  0
  1  3  4  0
  1  7  4  0
  2  3  1  0
  2  6  4  0
  2 16  4  0
  3 22  4  0
  4  9  4  0
  4 10  1  0
  4 20  4  0
  5 16  4  0
  5 23  4  0
  6 15  4  0
  7 12  4  0
  8 13  4  0
  8 14  4  0
  9 11  4  0
 11 14  4  0
 11 19  4  0
 12 18  4  0
 13 21  4  0
 15 23  4  0
 17 19  4  0
 17 20  4  0
 18 22  4  0
 19 21  4  0
M  END
$$$$

 Created by Python create_sdf_string function

 23 25  0  0  0  0  0  0  0  0999 V2000
    2.4610   -5.3070   29.1240 C   0  0  0  0  0  0  0  0  0  0  0  0
    4.7710   -4.6952   28.4803 C   0  0  0  0  0  0  0  0  0  0  0  0
    3.4047   -5.1087   28.1314 C   0  0  0  0  0  0  0  0  0  0  0  0
   -0.2234  -11.8615   16.8874 C   0  0  0  0  0  0  0  0  0  0  0  0
    6.4491   -4.1532   30.1213 C   0  0  0  0  0  0  0  0  0  0  0  0
    5.7060   -4.4340   27.4975 C   0  0  0  0  0  0  0  0  0  0  0  0
    1.1818   -5.6612   28.8399 C   0  0  0  0  0  0  0  0  0  0  0  0
   -1.2067   -7.3287   17.7772 C   0  0  0  0  0  0  0  0  0  0  0  0
   -0.0206  -10.5585   16.6210 C   0  0  0  0  0  0  0  0  0  0  0  0
    0.3696  -12.7626   16.2169 O   0  0  0  0  0  0  0  0  0  0  0  0
   -0.6895   -9.5676   17.3297 C   0  0  0  0  0  0  0  0  0  0  0  0
    0.8388   -5.8417   27.5264 C   0  0  0  0  0  0  0  0  0  0  0  0
   -2.0709   -7.6637   18.7817 C   0  0  0  0  0  0  0  0  0  0  0  0
   -0.5279   -8.2168   17.0717 C   0  0  0  0  0  0  0  0  0  0  0  0
    6.9694   -4.0191   27.8190 C   0  0  0  0  0  0  0  0  0  0  0  0
    5.1733   -4.5469   29.8123 C   0  0  0  0  0  0  0  0  0  0  0  0
   -1.7508  -11.3016   18.6072 C   0  0  0  0  0  0  0  0  0  0  0  0
    1.7497   -5.6771   26.4971 C   0  0  0  0  0  0  0  0  0  0  0  0
   -1.5799   -9.9322   18.3468 C   0  0  0  0  0  0  0  0  0  0  0  0
   -1.0871  -12.2214   17.8851 C   0  0  0  0  0  0  0  0  0  0  0  0
   -2.2706   -8.9669   19.0691 C   0  0  0  0  0  0  0  0  0  0  0  0
    3.0279   -5.3073   26.8197 C   0  0  0  0  0  0  0  0  0  0  0  0
    7.3282   -3.8948   29.1186 C   0  0  0  0  0  0  0  0  0  0  0  0
  1  3  4  0
  1  7  4  0
  2  3  1  0
  2  6  4  0
  2 16  4  0
  3 22  4  0
  4  9  4  0
  4 10  1  0
  4 20  4  0
  5 16  4  0
  5 23  4  0
  6 15  4  0
  7 12  4  0
  8 13  4  0
  8 14  4  0
  9 11  4  0
 11 14  4  0
 11 19  4  0
 12 18  4  0
 13 21  4  0
 15 23  4  0
 17 19  4  0
 17 20  4  0
 18 22  4  0
 19 21  4  0
M  END
$$$$

 Created by Python create_sdf_string function

 23 25  0  0  0  0  0  0  0  0999 V2000
    2.4610   -5.3070   29.1240 C   0  0  0  0  0  0  0  0  0  0  0  0
    4.7710   -4.6952   28.4803 C   0  0  0  0  0  0  0  0  0  0  0  0
    3.4047   -5.1087   28.1314 C   0  0  0  0  0  0  0  0  0  0  0  0
   -0.2234  -11.8615   16.8874 C   0  0  0  0  0  0  0  0  0  0  0  0
    6.4491   -4.1532   30.1213 C   0  0  0  0  0  0  0  0  0  0  0  0
    5.7060   -4.4340   27.4975 C   0  0  0  0  0  0  0  0  0  0  0  0
    1.1818   -5.6612   28.8399 C   0  0  0  0  0  0  0  0  0  0  0  0
   -1.2067   -7.3287   17.7772 C   0  0  0  0  0  0  0  0  0  0  0  0
   -0.0206  -10.5585   16.6210 C   0  0  0  0  0  0  0  0  0  0  0  0
    0.3696  -12.7626   16.2169 O   0  0  0  0  0  0  0  0  0  0  0  0
   -0.6895   -9.5676   17.3297 C   0  0  0  0  0  0  0  0  0  0  0  0
    0.8388   -5.8417   27.5264 C   0  0  0  0  0  0  0  0  0  0  0  0
   -2.0709   -7.6637   18.7817 C   0  0  0  0  0  0  0  0  0  0  0  0
   -0.5279   -8.2168   17.0717 C   0  0  0  0  0  0  0  0  0  0  0  0
    6.9694   -4.0191   27.8190 C   0  0  0  0  0  0  0  0  0  0  0  0
    5.1733   -4.5469   29.8123 C   0  0  0  0  0  0  0  0  0  0  0  0
   -1.7508  -11.3016   18.6072 C   0  0  0  0  0  0  0  0  0  0  0  0
    1.7497   -5.6771   26.4971 C   0  0  0  0  0  0  0  0  0  0  0  0
   -1.5799   -9.9322   18.3468 C   0  0  0  0  0  0  0  0  0  0  0  0
   -1.0871  -12.2214   17.8851 C   0  0  0  0  0  0  0  0  0  0  0  0
   -2.2706   -8.9669   19.0691 C   0  0  0  0  0  0  0  0  0  0  0  0
    3.0279   -5.3073   26.8197 C   0  0  0  0  0  0  0  0  0  0  0  0
    7.3282   -3.8948   29.1186 C   0  0  0  0  0  0  0  0  0  0  0  0
  1  3  4  0
  1  7  4  0
  2  3  1  0
  2  6  4  0
  2 16  4  0
  3 22  4  0
  4  9  4  0
  4 10  1  0
  4 20  4  0
  5 16  4  0
  5 23  4  0
  6 15  4  0
  7 12  4  0
  8 13  4  0
  8 14  4  0
  9 11  4  0
 11 14  4  0
 11 19  4  0
 12 18  4  0
 13 21  4  0
 15 23  4  0
 17 19  4  0
 17 20  4  0
 18 22  4  0
 19 21  4  0
M  END
$$$$

 Created by Python create_sdf_string function

 23 25  0  0  0  0  0  0  0  0999 V2000
    2.4610   -5.3070   29.1240 C   0  0  0  0  0  0  0  0  0  0  0  0
    4.7710   -4.6952   28.4803 C   0  0  0  0  0  0  0  0  0  0  0  0
    3.4047   -5.1087   28.1314 C   0  0  0  0  0  0  0  0  0  0  0  0
   -0.2234  -11.8615   16.8874 C   0  0  0  0  0  0  0  0  0  0  0  0
    6.4491   -4.1532   30.1213 C   0  0  0  0  0  0  0  0  0  0  0  0
    5.7060   -4.4340   27.4975 C   0  0  0  0  0  0  0  0  0  0  0  0
    1.1818   -5.6612   28.8399 C   0  0  0  0  0  0  0  0  0  0  0  0
   -1.2067   -7.3287   17.7772 C   0  0  0  0  0  0  0  0  0  0  0  0
   -0.0206  -10.5585   16.6210 C   0  0  0  0  0  0  0  0  0  0  0  0
    0.3696  -12.7626   16.2169 O   0  0  0  0  0  0  0  0  0  0  0  0
   -0.6895   -9.5676   17.3297 C   0  0  0  0  0  0  0  0  0  0  0  0
    0.8388   -5.8417   27.5264 C   0  0  0  0  0  0  0  0  0  0  0  0
   -2.0709   -7.6637   18.7817 C   0  0  0  0  0  0  0  0  0  0  0  0
   -0.5279   -8.2168   17.0717 C   0  0  0  0  0  0  0  0  0  0  0  0
    6.9694   -4.0191   27.8190 C   0  0  0  0  0  0  0  0  0  0  0  0
    5.1733   -4.5469   29.8123 C   0  0  0  0  0  0  0  0  0  0  0  0
   -1.7508  -11.3016   18.6072 C   0  0  0  0  0  0  0  0  0  0  0  0
    1.7497   -5.6771   26.4971 C   0  0  0  0  0  0  0  0  0  0  0  0
   -1.5799   -9.9322   18.3468 C   0  0  0  0  0  0  0  0  0  0  0  0
   -1.0871  -12.2214   17.8851 C   0  0  0  0  0  0  0  0  0  0  0  0
   -2.2706   -8.9669   19.0691 C   0  0  0  0  0  0  0  0  0  0  0  0
    3.0279   -5.3073   26.8197 C   0  0  0  0  0  0  0  0  0  0  0  0
    7.3282   -3.8948   29.1186 C   0  0  0  0  0  0  0  0  0  0  0  0
  1  3  4  0
  1  7  4  0
  2  3  1  0
  2  6  4  0
  2 16  4  0
  3 22  4  0
  4  9  4  0
  4 10  1  0
  4 20  4  0
  5 16  4  0
  5 23  4  0
  6 15  4  0
  7 12  4  0
  8 13  4  0
  8 14  4  0
  9 11  4  0
 11 14  4  0
 11 19  4  0
 12 18  4  0
 13 21  4  0
 15 23  4  0
 17 19  4  0
 17 20  4  0
 18 22  4  0
 19 21  4  0
M  END
$$$$

 Created by Python create_sdf_string function

 23 25  0  0  0  0  0  0  0  0999 V2000
    2.4610   -5.3070   29.1240 C   0  0  0  0  0  0  0  0  0  0  0  0
    4.7710   -4.6952   28.4803 C   0  0  0  0  0  0  0  0  0  0  0  0
    3.4047   -5.1087   28.1314 C   0  0  0  0  0  0  0  0  0  0  0  0
   -0.2234  -11.8615   16.8874 C   0  0  0  0  0  0  0  0  0  0  0  0
    6.4491   -4.1532   30.1213 C   0  0  0  0  0  0  0  0  0  0  0  0
    5.7060   -4.4340   27.4975 C   0  0  0  0  0  0  0  0  0  0  0  0
    1.1818   -5.6612   28.8399 C   0  0  0  0  0  0  0  0  0  0  0  0
   -1.2067   -7.3287   17.7772 C   0  0  0  0  0  0  0  0  0  0  0  0
   -0.0206  -10.5585   16.6210 C   0  0  0  0  0  0  0  0  0  0  0  0
    0.3696  -12.7626   16.2169 O   0  0  0  0  0  0  0  0  0  0  0  0
   -0.6895   -9.5676   17.3297 C   0  0  0  0  0  0  0  0  0  0  0  0
    0.8388   -5.8417   27.5264 C   0  0  0  0  0  0  0  0  0  0  0  0
   -2.0709   -7.6637   18.7817 C   0  0  0  0  0  0  0  0  0  0  0  0
   -0.5279   -8.2168   17.0717 C   0  0  0  0  0  0  0  0  0  0  0  0
    6.9694   -4.0191   27.8190 C   0  0  0  0  0  0  0  0  0  0  0  0
    5.1733   -4.5469   29.8123 C   0  0  0  0  0  0  0  0  0  0  0  0
   -1.7508  -11.3016   18.6072 C   0  0  0  0  0  0  0  0  0  0  0  0
    1.7497   -5.6771   26.4971 C   0  0  0  0  0  0  0  0  0  0  0  0
   -1.5799   -9.9322   18.3468 C   0  0  0  0  0  0  0  0  0  0  0  0
   -1.0871  -12.2214   17.8851 C   0  0  0  0  0  0  0  0  0  0  0  0
   -2.2706   -8.9669   19.0691 C   0  0  0  0  0  0  0  0  0  0  0  0
    3.0279   -5.3073   26.8197 C   0  0  0  0  0  0  0  0  0  0  0  0
    7.3282   -3.8948   29.1186 C   0  0  0  0  0  0  0  0  0  0  0  0
  1  3  4  0
  1  7  4  0
  2  3  1  0
  2  6  4  0
  2 16  4  0
  3 22  4  0
  4  9  4  0
  4 10  1  0
  4 20  4  0
  5 16  4  0
  5 23  4  0
  6 15  4  0
  7 12  4  0
  8 13  4  0
  8 14  4  0
  9 11  4  0
 11 14  4  0
 11 19  4  0
 12 18  4  0
 13 21  4  0
 15 23  4  0
 17 19  4  0
 17 20  4  0
 18 22  4  0
 19 21  4  0
M  END
$$$$

 Created by Python create_sdf_string function

 23 25  0  0  0  0  0  0  0  0999 V2000
    2.4610   -5.3070   29.1240 C   0  0  0  0  0  0  0  0  0  0  0  0
    4.7710   -4.6952   28.4803 C   0  0  0  0  0  0  0  0  0  0  0  0
    3.4047   -5.1087   28.1314 C   0  0  0  0  0  0  0  0  0  0  0  0
   -0.2234  -11.8615   16.8874 C   0  0  0  0  0  0  0  0  0  0  0  0
    6.4491   -4.1532   30.1213 C   0  0  0  0  0  0  0  0  0  0  0  0
    5.7060   -4.4340   27.4975 C   0  0  0  0  0  0  0  0  0  0  0  0
    1.1818   -5.6612   28.8399 C   0  0  0  0  0  0  0  0  0  0  0  0
   -1.2067   -7.3287   17.7772 C   0  0  0  0  0  0  0  0  0  0  0  0
   -0.0206  -10.5585   16.6210 C   0  0  0  0  0  0  0  0  0  0  0  0
    0.3696  -12.7626   16.2169 O   0  0  0  0  0  0  0  0  0  0  0  0
   -0.6895   -9.5676   17.3297 C   0  0  0  0  0  0  0  0  0  0  0  0
    0.8388   -5.8417   27.5264 C   0  0  0  0  0  0  0  0  0  0  0  0
   -2.0709   -7.6637   18.7817 C   0  0  0  0  0  0  0  0  0  0  0  0
   -0.5279   -8.2168   17.0717 C   0  0  0  0  0  0  0  0  0  0  0  0
    6.9694   -4.0191   27.8190 C   0  0  0  0  0  0  0  0  0  0  0  0
    5.1733   -4.5469   29.8123 C   0  0  0  0  0  0  0  0  0  0  0  0
   -1.7508  -11.3016   18.6072 C   0  0  0  0  0  0  0  0  0  0  0  0
    1.7497   -5.6771   26.4971 C   0  0  0  0  0  0  0  0  0  0  0  0
   -1.5799   -9.9322   18.3468 C   0  0  0  0  0  0  0  0  0  0  0  0
   -1.0871  -12.2214   17.8851 C   0  0  0  0  0  0  0  0  0  0  0  0
   -2.2706   -8.9669   19.0691 C   0  0  0  0  0  0  0  0  0  0  0  0
    3.0279   -5.3073   26.8197 C   0  0  0  0  0  0  0  0  0  0  0  0
    7.3282   -3.8948   29.1186 C   0  0  0  0  0  0  0  0  0  0  0  0
  1  3  4  0
  1  7  4  0
  2  3  1  0
  2  6  4  0
  2 16  4  0
  3 22  4  0
  4  9  4  0
  4 10  1  0
  4 20  4  0
  5 16  4  0
  5 23  4  0
  6 15  4  0
  7 12  4  0
  8 13  4  0
  8 14  4  0
  9 11  4  0
 11 14  4  0
 11 19  4  0
 12 18  4  0
 13 21  4  0
 15 23  4  0
 17 19  4  0
 17 20  4  0
 18 22  4  0
 19 21  4  0
M  END
$$$$

 Created by Python create_sdf_string function

 23 25  0  0  0  0  0  0  0  0999 V2000
    2.4610   -5.3070   29.1240 C   0  0  0  0  0  0  0  0  0  0  0  0
    4.7710   -4.6952   28.4803 C   0  0  0  0  0  0  0  0  0  0  0  0
    3.4047   -5.1087   28.1314 C   0  0  0  0  0  0  0  0  0  0  0  0
   -0.2234  -11.8615   16.8874 C   0  0  0  0  0  0  0  0  0  0  0  0
    6.4491   -4.1532   30.1213 C   0  0  0  0  0  0  0  0  0  0  0  0
    5.7060   -4.4340   27.4975 C   0  0  0  0  0  0  0  0  0  0  0  0
    1.1818   -5.6612   28.8399 C   0  0  0  0  0  0  0  0  0  0  0  0
   -1.2067   -7.3287   17.7772 C   0  0  0  0  0  0  0  0  0  0  0  0
   -0.0206  -10.5585   16.6210 C   0  0  0  0  0  0  0  0  0  0  0  0
    0.3696  -12.7626   16.2169 O   0  0  0  0  0  0  0  0  0  0  0  0
   -0.6895   -9.5676   17.3297 C   0  0  0  0  0  0  0  0  0  0  0  0
    0.8388   -5.8417   27.5264 C   0  0  0  0  0  0  0  0  0  0  0  0
   -2.0709   -7.6637   18.7817 C   0  0  0  0  0  0  0  0  0  0  0  0
   -0.5279   -8.2168   17.0717 C   0  0  0  0  0  0  0  0  0  0  0  0
    6.9694   -4.0191   27.8190 C   0  0  0  0  0  0  0  0  0  0  0  0
    5.1733   -4.5469   29.8123 C   0  0  0  0  0  0  0  0  0  0  0  0
   -1.7508  -11.3016   18.6072 C   0  0  0  0  0  0  0  0  0  0  0  0
    1.7497   -5.6771   26.4971 C   0  0  0  0  0  0  0  0  0  0  0  0
   -1.5799   -9.9322   18.3468 C   0  0  0  0  0  0  0  0  0  0  0  0
   -1.0871  -12.2214   17.8851 C   0  0  0  0  0  0  0  0  0  0  0  0
   -2.2706   -8.9669   19.0691 C   0  0  0  0  0  0  0  0  0  0  0  0
    3.0279   -5.3073   26.8197 C   0  0  0  0  0  0  0  0  0  0  0  0
    7.3282   -3.8948   29.1186 C   0  0  0  0  0  0  0  0  0  0  0  0
  1  3  4  0
  1  7  4  0
  2  3  1  0
  2  6  4  0
  2 16  4  0
  3 22  4  0
  4  9  4  0
  4 10  1  0
  4 20  4  0
  5 16  4  0
  5 23  4  0
  6 15  4  0
  7 12  4  0
  8 13  4  0
  8 14  4  0
  9 11  4  0
 11 14  4  0
 11 19  4  0
 12 18  4  0
 13 21  4  0
 15 23  4  0
 17 19  4  0
 17 20  4  0
 18 22  4  0
 19 21  4  0
M  END
$$$$

 Created by Python create_sdf_string function

 23 25  0  0  0  0  0  0  0  0999 V2000
    2.4610   -5.3070   29.1240 C   0  0  0  0  0  0  0  0  0  0  0  0
    4.7710   -4.6952   28.4803 C   0  0  0  0  0  0  0  0  0  0  0  0
    3.4047   -5.1087   28.1314 C   0  0  0  0  0  0  0  0  0  0  0  0
   -0.2234  -11.8615   16.8874 C   0  0  0  0  0  0  0  0  0  0  0  0
    6.4491   -4.1532   30.1213 C   0  0  0  0  0  0  0  0  0  0  0  0
    5.7060   -4.4340   27.4975 C   0  0  0  0  0  0  0  0  0  0  0  0
    1.1818   -5.6612   28.8399 C   0  0  0  0  0  0  0  0  0  0  0  0
   -1.2067   -7.3287   17.7772 C   0  0  0  0  0  0  0  0  0  0  0  0
   -0.0206  -10.5585   16.6210 C   0  0  0  0  0  0  0  0  0  0  0  0
    0.3696  -12.7626   16.2169 O   0  0  0  0  0  0  0  0  0  0  0  0
   -0.6895   -9.5676   17.3297 C   0  0  0  0  0  0  0  0  0  0  0  0
    0.8388   -5.8417   27.5264 C   0  0  0  0  0  0  0  0  0  0  0  0
   -2.0709   -7.6637   18.7817 C   0  0  0  0  0  0  0  0  0  0  0  0
   -0.5279   -8.2168   17.0717 C   0  0  0  0  0  0  0  0  0  0  0  0
    6.9694   -4.0191   27.8190 C   0  0  0  0  0  0  0  0  0  0  0  0
    5.1733   -4.5469   29.8123 C   0  0  0  0  0  0  0  0  0  0  0  0
   -1.7508  -11.3016   18.6072 C   0  0  0  0  0  0  0  0  0  0  0  0
    1.7497   -5.6771   26.4971 C   0  0  0  0  0  0  0  0  0  0  0  0
   -1.5799   -9.9322   18.3468 C   0  0  0  0  0  0  0  0  0  0  0  0
   -1.0871  -12.2214   17.8851 C   0  0  0  0  0  0  0  0  0  0  0  0
   -2.2706   -8.9669   19.0691 C   0  0  0  0  0  0  0  0  0  0  0  0
    3.0279   -5.3073   26.8197 C   0  0  0  0  0  0  0  0  0  0  0  0
    7.3282   -3.8948   29.1186 C   0  0  0  0  0  0  0  0  0  0  0  0
  1  3  4  0
  1  7  4  0
  2  3  1  0
  2  6  4  0
  2 16  4  0
  3 22  4  0
  4  9  4  0
  4 10  1  0
  4 20  4  0
  5 16  4  0
  5 23  4  0
  6 15  4  0
  7 12  4  0
  8 13  4  0
  8 14  4  0
  9 11  4  0
 11 14  4  0
 11 19  4  0
 12 18  4  0
 13 21  4  0
 15 23  4  0
 17 19  4  0
 17 20  4  0
 18 22  4  0
 19 21  4  0
M  END
$$$$

 Created by Python create_sdf_string function

 23 25  0  0  0  0  0  0  0  0999 V2000
    2.4610   -5.3070   29.1240 C   0  0  0  0  0  0  0  0  0  0  0  0
    4.7710   -4.6952   28.4803 C   0  0  0  0  0  0  0  0  0  0  0  0
    3.4047   -5.1087   28.1314 C   0  0  0  0  0  0  0  0  0  0  0  0
   -0.2234  -11.8615   16.8874 C   0  0  0  0  0  0  0  0  0  0  0  0
    6.4491   -4.1532   30.1213 C   0  0  0  0  0  0  0  0  0  0  0  0
    5.7060   -4.4340   27.4975 C   0  0  0  0  0  0  0  0  0  0  0  0
    1.1818   -5.6612   28.8399 C   0  0  0  0  0  0  0  0  0  0  0  0
   -1.2067   -7.3287   17.7772 C   0  0  0  0  0  0  0  0  0  0  0  0
   -0.0206  -10.5585   16.6210 C   0  0  0  0  0  0  0  0  0  0  0  0
    0.3696  -12.7626   16.2169 O   0  0  0  0  0  0  0  0  0  0  0  0
   -0.6895   -9.5676   17.3297 C   0  0  0  0  0  0  0  0  0  0  0  0
    0.8388   -5.8417   27.5264 C   0  0  0  0  0  0  0  0  0  0  0  0
   -2.0709   -7.6637   18.7817 C   0  0  0  0  0  0  0  0  0  0  0  0
   -0.5279   -8.2168   17.0717 C   0  0  0  0  0  0  0  0  0  0  0  0
    6.9694   -4.0191   27.8190 C   0  0  0  0  0  0  0  0  0  0  0  0
    5.1733   -4.5469   29.8123 C   0  0  0  0  0  0  0  0  0  0  0  0
   -1.7508  -11.3016   18.6072 C   0  0  0  0  0  0  0  0  0  0  0  0
    1.7497   -5.6771   26.4971 C   0  0  0  0  0  0  0  0  0  0  0  0
   -1.5799   -9.9322   18.3468 C   0  0  0  0  0  0  0  0  0  0  0  0
   -1.0871  -12.2214   17.8851 C   0  0  0  0  0  0  0  0  0  0  0  0
   -2.2706   -8.9669   19.0691 C   0  0  0  0  0  0  0  0  0  0  0  0
    3.0279   -5.3073   26.8197 C   0  0  0  0  0  0  0  0  0  0  0  0
    7.3282   -3.8948   29.1186 C   0  0  0  0  0  0  0  0  0  0  0  0
  1  3  4  0
  1  7  4  0
  2  3  1  0
  2  6  4  0
  2 16  4  0
  3 22  4  0
  4  9  4  0
  4 10  1  0
  4 20  4  0
  5 16  4  0
  5 23  4  0
  6 15  4  0
  7 12  4  0
  8 13  4  0
  8 14  4  0
  9 11  4  0
 11 14  4  0
 11 19  4  0
 12 18  4  0
 13 21  4  0
 15 23  4  0
 17 19  4  0
 17 20  4  0
 18 22  4  0
 19 21  4  0
M  END
$$$$

 Created by Python create_sdf_string function

 23 25  0  0  0  0  0  0  0  0999 V2000
    2.4610   -5.3070   29.1240 C   0  0  0  0  0  0  0  0  0  0  0  0
    4.7710   -4.6952   28.4803 C   0  0  0  0  0  0  0  0  0  0  0  0
    3.4047   -5.1087   28.1314 C   0  0  0  0  0  0  0  0  0  0  0  0
   -0.2234  -11.8615   16.8874 C   0  0  0  0  0  0  0  0  0  0  0  0
    6.4491   -4.1532   30.1213 C   0  0  0  0  0  0  0  0  0  0  0  0
    5.7060   -4.4340   27.4975 C   0  0  0  0  0  0  0  0  0  0  0  0
    1.1818   -5.6612   28.8399 C   0  0  0  0  0  0  0  0  0  0  0  0
   -1.2067   -7.3287   17.7772 C   0  0  0  0  0  0  0  0  0  0  0  0
   -0.0206  -10.5585   16.6210 C   0  0  0  0  0  0  0  0  0  0  0  0
    0.3696  -12.7626   16.2169 O   0  0  0  0  0  0  0  0  0  0  0  0
   -0.6895   -9.5676   17.3297 C   0  0  0  0  0  0  0  0  0  0  0  0
    0.8388   -5.8417   27.5264 C   0  0  0  0  0  0  0  0  0  0  0  0
   -2.0709   -7.6637   18.7817 C   0  0  0  0  0  0  0  0  0  0  0  0
   -0.5279   -8.2168   17.0717 C   0  0  0  0  0  0  0  0  0  0  0  0
    6.9694   -4.0191   27.8190 C   0  0  0  0  0  0  0  0  0  0  0  0
    5.1733   -4.5469   29.8123 C   0  0  0  0  0  0  0  0  0  0  0  0
   -1.7508  -11.3016   18.6072 C   0  0  0  0  0  0  0  0  0  0  0  0
    1.7497   -5.6771   26.4971 C   0  0  0  0  0  0  0  0  0  0  0  0
   -1.5799   -9.9322   18.3468 C   0  0  0  0  0  0  0  0  0  0  0  0
   -1.0871  -12.2214   17.8851 C   0  0  0  0  0  0  0  0  0  0  0  0
   -2.2706   -8.9669   19.0691 C   0  0  0  0  0  0  0  0  0  0  0  0
    3.0279   -5.3073   26.8197 C   0  0  0  0  0  0  0  0  0  0  0  0
    7.3282   -3.8948   29.1186 C   0  0  0  0  0  0  0  0  0  0  0  0
  1  3  4  0
  1  7  4  0
  2  3  1  0
  2  6  4  0
  2 16  4  0
  3 22  4  0
  4  9  4  0
  4 10  1  0
  4 20  4  0
  5 16  4  0
  5 23  4  0
  6 15  4  0
  7 12  4  0
  8 13  4  0
  8 14  4  0
  9 11  4  0
 11 14  4  0
 11 19  4  0
 12 18  4  0
 13 21  4  0
 15 23  4  0
 17 19  4  0
 17 20  4  0
 18 22  4  0
 19 21  4  0
M  END
$$$$

 Created by Python create_sdf_string function

 23 25  0  0  0  0  0  0  0  0999 V2000
    2.4610   -5.3070   29.1240 C   0  0  0  0  0  0  0  0  0  0  0  0
    4.7710   -4.6952   28.4803 C   0  0  0  0  0  0  0  0  0  0  0  0
    3.4047   -5.1087   28.1314 C   0  0  0  0  0  0  0  0  0  0  0  0
   -0.2234  -11.8615   16.8874 C   0  0  0  0  0  0  0  0  0  0  0  0
    6.4491   -4.1532   30.1213 C   0  0  0  0  0  0  0  0  0  0  0  0
    5.7060   -4.4340   27.4975 C   0  0  0  0  0  0  0  0  0  0  0  0
    1.1818   -5.6612   28.8399 C   0  0  0  0  0  0  0  0  0  0  0  0
   -1.2067   -7.3287   17.7772 C   0  0  0  0  0  0  0  0  0  0  0  0
   -0.0206  -10.5585   16.6210 C   0  0  0  0  0  0  0  0  0  0  0  0
    0.3696  -12.7626   16.2169 O   0  0  0  0  0  0  0  0  0  0  0  0
   -0.6895   -9.5676   17.3297 C   0  0  0  0  0  0  0  0  0  0  0  0
    0.8388   -5.8417   27.5264 C   0  0  0  0  0  0  0  0  0  0  0  0
   -2.0709   -7.6637   18.7817 C   0  0  0  0  0  0  0  0  0  0  0  0
   -0.5279   -8.2168   17.0717 C   0  0  0  0  0  0  0  0  0  0  0  0
    6.9694   -4.0191   27.8190 C   0  0  0  0  0  0  0  0  0  0  0  0
    5.1733   -4.5469   29.8123 C   0  0  0  0  0  0  0  0  0  0  0  0
   -1.7508  -11.3016   18.6072 C   0  0  0  0  0  0  0  0  0  0  0  0
    1.7497   -5.6771   26.4971 C   0  0  0  0  0  0  0  0  0  0  0  0
   -1.5799   -9.9322   18.3468 C   0  0  0  0  0  0  0  0  0  0  0  0
   -1.0871  -12.2214   17.8851 C   0  0  0  0  0  0  0  0  0  0  0  0
   -2.2706   -8.9669   19.0691 C   0  0  0  0  0  0  0  0  0  0  0  0
    3.0279   -5.3073   26.8197 C   0  0  0  0  0  0  0  0  0  0  0  0
    7.3282   -3.8948   29.1186 C   0  0  0  0  0  0  0  0  0  0  0  0
  1  3  4  0
  1  7  4  0
  2  3  1  0
  2  6  4  0
  2 16  4  0
  3 22  4  0
  4  9  4  0
  4 10  1  0
  4 20  4  0
  5 16  4  0
  5 23  4  0
  6 15  4  0
  7 12  4  0
  8 13  4  0
  8 14  4  0
  9 11  4  0
 11 14  4  0
 11 19  4  0
 12 18  4  0
 13 21  4  0
 15 23  4  0
 17 19  4  0
 17 20  4  0
 18 22  4  0
 19 21  4  0
M  END
$$$$

 Created by Python create_sdf_string function

 23 25  0  0  0  0  0  0  0  0999 V2000
    2.4610   -5.3070   29.1240 C   0  0  0  0  0  0  0  0  0  0  0  0
    4.7710   -4.6952   28.4803 C   0  0  0  0  0  0  0  0  0  0  0  0
    3.4047   -5.1087   28.1314 C   0  0  0  0  0  0  0  0  0  0  0  0
   -0.2234  -11.8615   16.8874 C   0  0  0  0  0  0  0  0  0  0  0  0
    6.4491   -4.1532   30.1213 C   0  0  0  0  0  0  0  0  0  0  0  0
    5.7060   -4.4340   27.4975 C   0  0  0  0  0  0  0  0  0  0  0  0
    1.1818   -5.6612   28.8399 C   0  0  0  0  0  0  0  0  0  0  0  0
   -1.2067   -7.3287   17.7772 C   0  0  0  0  0  0  0  0  0  0  0  0
   -0.0206  -10.5585   16.6210 C   0  0  0  0  0  0  0  0  0  0  0  0
    0.3696  -12.7626   16.2169 O   0  0  0  0  0  0  0  0  0  0  0  0
   -0.6895   -9.5676   17.3297 C   0  0  0  0  0  0  0  0  0  0  0  0
    0.8388   -5.8417   27.5264 C   0  0  0  0  0  0  0  0  0  0  0  0
   -2.0709   -7.6637   18.7817 C   0  0  0  0  0  0  0  0  0  0  0  0
   -0.5279   -8.2168   17.0717 C   0  0  0  0  0  0  0  0  0  0  0  0
    6.9694   -4.0191   27.8190 C   0  0  0  0  0  0  0  0  0  0  0  0
    5.1733   -4.5469   29.8123 C   0  0  0  0  0  0  0  0  0  0  0  0
   -1.7508  -11.3016   18.6072 C   0  0  0  0  0  0  0  0  0  0  0  0
    1.7497   -5.6771   26.4971 C   0  0  0  0  0  0  0  0  0  0  0  0
   -1.5799   -9.9322   18.3468 C   0  0  0  0  0  0  0  0  0  0  0  0
   -1.0871  -12.2214   17.8851 C   0  0  0  0  0  0  0  0  0  0  0  0
   -2.2706   -8.9669   19.0691 C   0  0  0  0  0  0  0  0  0  0  0  0
    3.0279   -5.3073   26.8197 C   0  0  0  0  0  0  0  0  0  0  0  0
    7.3282   -3.8948   29.1186 C   0  0  0  0  0  0  0  0  0  0  0  0
  1  3  4  0
  1  7  4  0
  2  3  1  0
  2  6  4  0
  2 16  4  0
  3 22  4  0
  4  9  4  0
  4 10  1  0
  4 20  4  0
  5 16  4  0
  5 23  4  0
  6 15  4  0
  7 12  4  0
  8 13  4  0
  8 14  4  0
  9 11  4  0
 11 14  4  0
 11 19  4  0
 12 18  4  0
 13 21  4  0
 15 23  4  0
 17 19  4  0
 17 20  4  0
 18 22  4  0
 19 21  4  0
M  END
$$$$

 Created by Python create_sdf_string function

 23 25  0  0  0  0  0  0  0  0999 V2000
    2.4610   -5.3070   29.1240 C   0  0  0  0  0  0  0  0  0  0  0  0
    4.7710   -4.6952   28.4803 C   0  0  0  0  0  0  0  0  0  0  0  0
    3.4047   -5.1087   28.1314 C   0  0  0  0  0  0  0  0  0  0  0  0
   -0.2234  -11.8615   16.8874 C   0  0  0  0  0  0  0  0  0  0  0  0
    6.4491   -4.1532   30.1213 C   0  0  0  0  0  0  0  0  0  0  0  0
    5.7060   -4.4340   27.4975 C   0  0  0  0  0  0  0  0  0  0  0  0
    1.1818   -5.6612   28.8399 C   0  0  0  0  0  0  0  0  0  0  0  0
   -1.2067   -7.3287   17.7772 C   0  0  0  0  0  0  0  0  0  0  0  0
   -0.0206  -10.5585   16.6210 C   0  0  0  0  0  0  0  0  0  0  0  0
    0.3696  -12.7626   16.2169 O   0  0  0  0  0  0  0  0  0  0  0  0
   -0.6895   -9.5676   17.3297 C   0  0  0  0  0  0  0  0  0  0  0  0
    0.8388   -5.8417   27.5264 C   0  0  0  0  0  0  0  0  0  0  0  0
   -2.0709   -7.6637   18.7817 C   0  0  0  0  0  0  0  0  0  0  0  0
   -0.5279   -8.2168   17.0717 C   0  0  0  0  0  0  0  0  0  0  0  0
    6.9694   -4.0191   27.8190 C   0  0  0  0  0  0  0  0  0  0  0  0
    5.1733   -4.5469   29.8123 C   0  0  0  0  0  0  0  0  0  0  0  0
   -1.7508  -11.3016   18.6072 C   0  0  0  0  0  0  0  0  0  0  0  0
    1.7497   -5.6771   26.4971 C   0  0  0  0  0  0  0  0  0  0  0  0
   -1.5799   -9.9322   18.3468 C   0  0  0  0  0  0  0  0  0  0  0  0
   -1.0871  -12.2214   17.8851 C   0  0  0  0  0  0  0  0  0  0  0  0
   -2.2706   -8.9669   19.0691 C   0  0  0  0  0  0  0  0  0  0  0  0
    3.0279   -5.3073   26.8197 C   0  0  0  0  0  0  0  0  0  0  0  0
    7.3282   -3.8948   29.1186 C   0  0  0  0  0  0  0  0  0  0  0  0
  1  3  4  0
  1  7  4  0
  2  3  1  0
  2  6  4  0
  2 16  4  0
  3 22  4  0
  4  9  4  0
  4 10  1  0
  4 20  4  0
  5 16  4  0
  5 23  4  0
  6 15  4  0
  7 12  4  0
  8 13  4  0
  8 14  4  0
  9 11  4  0
 11 14  4  0
 11 19  4  0
 12 18  4  0
 13 21  4  0
 15 23  4  0
 17 19  4  0
 17 20  4  0
 18 22  4  0
 19 21  4  0
M  END
$$$$

 Created by Python create_sdf_string function

 23 25  0  0  0  0  0  0  0  0999 V2000
    2.4610   -5.3070   29.1240 C   0  0  0  0  0  0  0  0  0  0  0  0
    4.7710   -4.6952   28.4803 C   0  0  0  0  0  0  0  0  0  0  0  0
    3.4047   -5.1087   28.1314 C   0  0  0  0  0  0  0  0  0  0  0  0
   -0.2234  -11.8615   16.8874 C   0  0  0  0  0  0  0  0  0  0  0  0
    6.4491   -4.1532   30.1213 C   0  0  0  0  0  0  0  0  0  0  0  0
    5.7060   -4.4340   27.4975 C   0  0  0  0  0  0  0  0  0  0  0  0
    1.1818   -5.6612   28.8399 C   0  0  0  0  0  0  0  0  0  0  0  0
   -1.2067   -7.3287   17.7772 C   0  0  0  0  0  0  0  0  0  0  0  0
   -0.0206  -10.5585   16.6210 C   0  0  0  0  0  0  0  0  0  0  0  0
    0.3696  -12.7626   16.2169 O   0  0  0  0  0  0  0  0  0  0  0  0
   -0.6895   -9.5676   17.3297 C   0  0  0  0  0  0  0  0  0  0  0  0
    0.8388   -5.8417   27.5264 C   0  0  0  0  0  0  0  0  0  0  0  0
   -2.0709   -7.6637   18.7817 C   0  0  0  0  0  0  0  0  0  0  0  0
   -0.5279   -8.2168   17.0717 C   0  0  0  0  0  0  0  0  0  0  0  0
    6.9694   -4.0191   27.8190 C   0  0  0  0  0  0  0  0  0  0  0  0
    5.1733   -4.5469   29.8123 C   0  0  0  0  0  0  0  0  0  0  0  0
   -1.7508  -11.3016   18.6072 C   0  0  0  0  0  0  0  0  0  0  0  0
    1.7497   -5.6771   26.4971 C   0  0  0  0  0  0  0  0  0  0  0  0
   -1.5799   -9.9322   18.3468 C   0  0  0  0  0  0  0  0  0  0  0  0
   -1.0871  -12.2214   17.8851 C   0  0  0  0  0  0  0  0  0  0  0  0
   -2.2706   -8.9669   19.0691 C   0  0  0  0  0  0  0  0  0  0  0  0
    3.0279   -5.3073   26.8197 C   0  0  0  0  0  0  0  0  0  0  0  0
    7.3282   -3.8948   29.1186 C   0  0  0  0  0  0  0  0  0  0  0  0
  1  3  4  0
  1  7  4  0
  2  3  1  0
  2  6  4  0
  2 16  4  0
  3 22  4  0
  4  9  4  0
  4 10  1  0
  4 20  4  0
  5 16  4  0
  5 23  4  0
  6 15  4  0
  7 12  4  0
  8 13  4  0
  8 14  4  0
  9 11  4  0
 11 14  4  0
 11 19  4  0
 12 18  4  0
 13 21  4  0
 15 23  4  0
 17 19  4  0
 17 20  4  0
 18 22  4  0
 19 21  4  0
M  END
$$$$

 Created by Python create_sdf_string function

 23 25  0  0  0  0  0  0  0  0999 V2000
    2.4610   -5.3070   29.1240 C   0  0  0  0  0  0  0  0  0  0  0  0
    4.7710   -4.6952   28.4803 C   0  0  0  0  0  0  0  0  0  0  0  0
    3.4047   -5.1087   28.1314 C   0  0  0  0  0  0  0  0  0  0  0  0
   -0.2234  -11.8615   16.8874 C   0  0  0  0  0  0  0  0  0  0  0  0
    6.4491   -4.1532   30.1213 C   0  0  0  0  0  0  0  0  0  0  0  0
    5.7060   -4.4340   27.4975 C   0  0  0  0  0  0  0  0  0  0  0  0
    1.1818   -5.6612   28.8399 C   0  0  0  0  0  0  0  0  0  0  0  0
   -1.2067   -7.3287   17.7772 C   0  0  0  0  0  0  0  0  0  0  0  0
   -0.0206  -10.5585   16.6210 C   0  0  0  0  0  0  0  0  0  0  0  0
    0.3696  -12.7626   16.2169 O   0  0  0  0  0  0  0  0  0  0  0  0
   -0.6895   -9.5676   17.3297 C   0  0  0  0  0  0  0  0  0  0  0  0
    0.8388   -5.8417   27.5264 C   0  0  0  0  0  0  0  0  0  0  0  0
   -2.0709   -7.6637   18.7817 C   0  0  0  0  0  0  0  0  0  0  0  0
   -0.5279   -8.2168   17.0717 C   0  0  0  0  0  0  0  0  0  0  0  0
    6.9694   -4.0191   27.8190 C   0  0  0  0  0  0  0  0  0  0  0  0
    5.1733   -4.5469   29.8123 C   0  0  0  0  0  0  0  0  0  0  0  0
   -1.7508  -11.3016   18.6072 C   0  0  0  0  0  0  0  0  0  0  0  0
    1.7497   -5.6771   26.4971 C   0  0  0  0  0  0  0  0  0  0  0  0
   -1.5799   -9.9322   18.3468 C   0  0  0  0  0  0  0  0  0  0  0  0
   -1.0871  -12.2214   17.8851 C   0  0  0  0  0  0  0  0  0  0  0  0
   -2.2706   -8.9669   19.0691 C   0  0  0  0  0  0  0  0  0  0  0  0
    3.0279   -5.3073   26.8197 C   0  0  0  0  0  0  0  0  0  0  0  0
    7.3282   -3.8948   29.1186 C   0  0  0  0  0  0  0  0  0  0  0  0
  1  3  4  0
  1  7  4  0
  2  3  1  0
  2  6  4  0
  2 16  4  0
  3 22  4  0
  4  9  4  0
  4 10  1  0
  4 20  4  0
  5 16  4  0
  5 23  4  0
  6 15  4  0
  7 12  4  0
  8 13  4  0
  8 14  4  0
  9 11  4  0
 11 14  4  0
 11 19  4  0
 12 18  4  0
 13 21  4  0
 15 23  4  0
 17 19  4  0
 17 20  4  0
 18 22  4  0
 19 21  4  0
M  END
$$$$

 Created by Python create_sdf_string function

 23 25  0  0  0  0  0  0  0  0999 V2000
    2.4610   -5.3070   29.1240 C   0  0  0  0  0  0  0  0  0  0  0  0
    4.7710   -4.6952   28.4803 C   0  0  0  0  0  0  0  0  0  0  0  0
    3.4047   -5.1087   28.1314 C   0  0  0  0  0  0  0  0  0  0  0  0
   -0.2234  -11.8615   16.8874 C   0  0  0  0  0  0  0  0  0  0  0  0
    6.4491   -4.1532   30.1213 C   0  0  0  0  0  0  0  0  0  0  0  0
    5.7060   -4.4340   27.4975 C   0  0  0  0  0  0  0  0  0  0  0  0
    1.1818   -5.6612   28.8399 C   0  0  0  0  0  0  0  0  0  0  0  0
   -1.2067   -7.3287   17.7772 C   0  0  0  0  0  0  0  0  0  0  0  0
   -0.0206  -10.5585   16.6210 C   0  0  0  0  0  0  0  0  0  0  0  0
    0.3696  -12.7626   16.2169 O   0  0  0  0  0  0  0  0  0  0  0  0
   -0.6895   -9.5676   17.3297 C   0  0  0  0  0  0  0  0  0  0  0  0
    0.8388   -5.8417   27.5264 C   0  0  0  0  0  0  0  0  0  0  0  0
   -2.0709   -7.6637   18.7817 C   0  0  0  0  0  0  0  0  0  0  0  0
   -0.5279   -8.2168   17.0717 C   0  0  0  0  0  0  0  0  0  0  0  0
    6.9694   -4.0191   27.8190 C   0  0  0  0  0  0  0  0  0  0  0  0
    5.1733   -4.5469   29.8123 C   0  0  0  0  0  0  0  0  0  0  0  0
   -1.7508  -11.3016   18.6072 C   0  0  0  0  0  0  0  0  0  0  0  0
    1.7497   -5.6771   26.4971 C   0  0  0  0  0  0  0  0  0  0  0  0
   -1.5799   -9.9322   18.3468 C   0  0  0  0  0  0  0  0  0  0  0  0
   -1.0871  -12.2214   17.8851 C   0  0  0  0  0  0  0  0  0  0  0  0
   -2.2706   -8.9669   19.0691 C   0  0  0  0  0  0  0  0  0  0  0  0
    3.0279   -5.3073   26.8197 C   0  0  0  0  0  0  0  0  0  0  0  0
    7.3282   -3.8948   29.1186 C   0  0  0  0  0  0  0  0  0  0  0  0
  1  3  4  0
  1  7  4  0
  2  3  1  0
  2  6  4  0
  2 16  4  0
  3 22  4  0
  4  9  4  0
  4 10  1  0
  4 20  4  0
  5 16  4  0
  5 23  4  0
  6 15  4  0
  7 12  4  0
  8 13  4  0
  8 14  4  0
  9 11  4  0
 11 14  4  0
 11 19  4  0
 12 18  4  0
 13 21  4  0
 15 23  4  0
 17 19  4  0
 17 20  4  0
 18 22  4  0
 19 21  4  0
M  END
$$$$

 Created by Python create_sdf_string function

 23 25  0  0  0  0  0  0  0  0999 V2000
    2.4610   -5.3070   29.1240 C   0  0  0  0  0  0  0  0  0  0  0  0
    4.7710   -4.6952   28.4803 C   0  0  0  0  0  0  0  0  0  0  0  0
    3.4047   -5.1087   28.1314 C   0  0  0  0  0  0  0  0  0  0  0  0
   -0.2234  -11.8615   16.8874 C   0  0  0  0  0  0  0  0  0  0  0  0
    6.4491   -4.1532   30.1213 C   0  0  0  0  0  0  0  0  0  0  0  0
    5.7060   -4.4340   27.4975 C   0  0  0  0  0  0  0  0  0  0  0  0
    1.1818   -5.6612   28.8399 C   0  0  0  0  0  0  0  0  0  0  0  0
   -1.2067   -7.3287   17.7772 C   0  0  0  0  0  0  0  0  0  0  0  0
   -0.0206  -10.5585   16.6210 C   0  0  0  0  0  0  0  0  0  0  0  0
    0.3696  -12.7626   16.2169 O   0  0  0  0  0  0  0  0  0  0  0  0
   -0.6895   -9.5676   17.3297 C   0  0  0  0  0  0  0  0  0  0  0  0
    0.8388   -5.8417   27.5264 C   0  0  0  0  0  0  0  0  0  0  0  0
   -2.0709   -7.6637   18.7817 C   0  0  0  0  0  0  0  0  0  0  0  0
   -0.5279   -8.2168   17.0717 C   0  0  0  0  0  0  0  0  0  0  0  0
    6.9694   -4.0191   27.8190 C   0  0  0  0  0  0  0  0  0  0  0  0
    5.1733   -4.5469   29.8123 C   0  0  0  0  0  0  0  0  0  0  0  0
   -1.7508  -11.3016   18.6072 C   0  0  0  0  0  0  0  0  0  0  0  0
    1.7497   -5.6771   26.4971 C   0  0  0  0  0  0  0  0  0  0  0  0
   -1.5799   -9.9322   18.3468 C   0  0  0  0  0  0  0  0  0  0  0  0
   -1.0871  -12.2214   17.8851 C   0  0  0  0  0  0  0  0  0  0  0  0
   -2.2706   -8.9669   19.0691 C   0  0  0  0  0  0  0  0  0  0  0  0
    3.0279   -5.3073   26.8197 C   0  0  0  0  0  0  0  0  0  0  0  0
    7.3282   -3.8948   29.1186 C   0  0  0  0  0  0  0  0  0  0  0  0
  1  3  4  0
  1  7  4  0
  2  3  1  0
  2  6  4  0
  2 16  4  0
  3 22  4  0
  4  9  4  0
  4 10  1  0
  4 20  4  0
  5 16  4  0
  5 23  4  0
  6 15  4  0
  7 12  4  0
  8 13  4  0
  8 14  4  0
  9 11  4  0
 11 14  4  0
 11 19  4  0
 12 18  4  0
 13 21  4  0
 15 23  4  0
 17 19  4  0
 17 20  4  0
 18 22  4  0
 19 21  4  0
M  END
$$$$

 Created by Python create_sdf_string function

 23 25  0  0  0  0  0  0  0  0999 V2000
    2.4610   -5.3070   29.1240 C   0  0  0  0  0  0  0  0  0  0  0  0
    4.7710   -4.6952   28.4803 C   0  0  0  0  0  0  0  0  0  0  0  0
    3.4047   -5.1087   28.1314 C   0  0  0  0  0  0  0  0  0  0  0  0
   -0.2234  -11.8615   16.8874 C   0  0  0  0  0  0  0  0  0  0  0  0
    6.4491   -4.1532   30.1213 C   0  0  0  0  0  0  0  0  0  0  0  0
    5.7060   -4.4340   27.4975 C   0  0  0  0  0  0  0  0  0  0  0  0
    1.1818   -5.6612   28.8399 C   0  0  0  0  0  0  0  0  0  0  0  0
   -1.2067   -7.3287   17.7772 C   0  0  0  0  0  0  0  0  0  0  0  0
   -0.0206  -10.5585   16.6210 C   0  0  0  0  0  0  0  0  0  0  0  0
    0.3696  -12.7626   16.2169 O   0  0  0  0  0  0  0  0  0  0  0  0
   -0.6895   -9.5676   17.3297 C   0  0  0  0  0  0  0  0  0  0  0  0
    0.8388   -5.8417   27.5264 C   0  0  0  0  0  0  0  0  0  0  0  0
   -2.0709   -7.6637   18.7817 C   0  0  0  0  0  0  0  0  0  0  0  0
   -0.5279   -8.2168   17.0717 C   0  0  0  0  0  0  0  0  0  0  0  0
    6.9694   -4.0191   27.8190 C   0  0  0  0  0  0  0  0  0  0  0  0
    5.1733   -4.5469   29.8123 C   0  0  0  0  0  0  0  0  0  0  0  0
   -1.7508  -11.3016   18.6072 C   0  0  0  0  0  0  0  0  0  0  0  0
    1.7497   -5.6771   26.4971 C   0  0  0  0  0  0  0  0  0  0  0  0
   -1.5799   -9.9322   18.3468 C   0  0  0  0  0  0  0  0  0  0  0  0
   -1.0871  -12.2214   17.8851 C   0  0  0  0  0  0  0  0  0  0  0  0
   -2.2706   -8.9669   19.0691 C   0  0  0  0  0  0  0  0  0  0  0  0
    3.0279   -5.3073   26.8197 C   0  0  0  0  0  0  0  0  0  0  0  0
    7.3282   -3.8948   29.1186 C   0  0  0  0  0  0  0  0  0  0  0  0
  1  3  4  0
  1  7  4  0
  2  3  1  0
  2  6  4  0
  2 16  4  0
  3 22  4  0
  4  9  4  0
  4 10  1  0
  4 20  4  0
  5 16  4  0
  5 23  4  0
  6 15  4  0
  7 12  4  0
  8 13  4  0
  8 14  4  0
  9 11  4  0
 11 14  4  0
 11 19  4  0
 12 18  4  0
 13 21  4  0
 15 23  4  0
 17 19  4  0
 17 20  4  0
 18 22  4  0
 19 21  4  0
M  END
$$$$

 Created by Python create_sdf_string function

 23 25  0  0  0  0  0  0  0  0999 V2000
    2.4610   -5.3070   29.1240 C   0  0  0  0  0  0  0  0  0  0  0  0
    4.7710   -4.6952   28.4803 C   0  0  0  0  0  0  0  0  0  0  0  0
    3.4047   -5.1087   28.1314 C   0  0  0  0  0  0  0  0  0  0  0  0
   -0.2234  -11.8615   16.8874 C   0  0  0  0  0  0  0  0  0  0  0  0
    6.4491   -4.1532   30.1213 C   0  0  0  0  0  0  0  0  0  0  0  0
    5.7060   -4.4340   27.4975 C   0  0  0  0  0  0  0  0  0  0  0  0
    1.1818   -5.6612   28.8399 C   0  0  0  0  0  0  0  0  0  0  0  0
   -1.2067   -7.3287   17.7772 C   0  0  0  0  0  0  0  0  0  0  0  0
   -0.0206  -10.5585   16.6210 C   0  0  0  0  0  0  0  0  0  0  0  0
    0.3696  -12.7626   16.2169 O   0  0  0  0  0  0  0  0  0  0  0  0
   -0.6895   -9.5676   17.3297 C   0  0  0  0  0  0  0  0  0  0  0  0
    0.8388   -5.8417   27.5264 C   0  0  0  0  0  0  0  0  0  0  0  0
   -2.0709   -7.6637   18.7817 C   0  0  0  0  0  0  0  0  0  0  0  0
   -0.5279   -8.2168   17.0717 C   0  0  0  0  0  0  0  0  0  0  0  0
    6.9694   -4.0191   27.8190 C   0  0  0  0  0  0  0  0  0  0  0  0
    5.1733   -4.5469   29.8123 C   0  0  0  0  0  0  0  0  0  0  0  0
   -1.7508  -11.3016   18.6072 C   0  0  0  0  0  0  0  0  0  0  0  0
    1.7497   -5.6771   26.4971 C   0  0  0  0  0  0  0  0  0  0  0  0
   -1.5799   -9.9322   18.3468 C   0  0  0  0  0  0  0  0  0  0  0  0
   -1.0871  -12.2214   17.8851 C   0  0  0  0  0  0  0  0  0  0  0  0
   -2.2706   -8.9669   19.0691 C   0  0  0  0  0  0  0  0  0  0  0  0
    3.0279   -5.3073   26.8197 C   0  0  0  0  0  0  0  0  0  0  0  0
    7.3282   -3.8948   29.1186 C   0  0  0  0  0  0  0  0  0  0  0  0
  1  3  4  0
  1  7  4  0
  2  3  1  0
  2  6  4  0
  2 16  4  0
  3 22  4  0
  4  9  4  0
  4 10  1  0
  4 20  4  0
  5 16  4  0
  5 23  4  0
  6 15  4  0
  7 12  4  0
  8 13  4  0
  8 14  4  0
  9 11  4  0
 11 14  4  0
 11 19  4  0
 12 18  4  0
 13 21  4  0
 15 23  4  0
 17 19  4  0
 17 20  4  0
 18 22  4  0
 19 21  4  0
M  END
$$$$

 Created by Python create_sdf_string function

 23 25  0  0  0  0  0  0  0  0999 V2000
    2.4610   -5.3070   29.1240 C   0  0  0  0  0  0  0  0  0  0  0  0
    4.7710   -4.6952   28.4803 C   0  0  0  0  0  0  0  0  0  0  0  0
    3.4047   -5.1087   28.1314 C   0  0  0  0  0  0  0  0  0  0  0  0
   -0.2234  -11.8615   16.8874 C   0  0  0  0  0  0  0  0  0  0  0  0
    6.4491   -4.1532   30.1213 C   0  0  0  0  0  0  0  0  0  0  0  0
    5.7060   -4.4340   27.4975 C   0  0  0  0  0  0  0  0  0  0  0  0
    1.1818   -5.6612   28.8399 C   0  0  0  0  0  0  0  0  0  0  0  0
   -1.2067   -7.3287   17.7772 C   0  0  0  0  0  0  0  0  0  0  0  0
   -0.0206  -10.5585   16.6210 C   0  0  0  0  0  0  0  0  0  0  0  0
    0.3696  -12.7626   16.2169 O   0  0  0  0  0  0  0  0  0  0  0  0
   -0.6895   -9.5676   17.3297 C   0  0  0  0  0  0  0  0  0  0  0  0
    0.8388   -5.8417   27.5264 C   0  0  0  0  0  0  0  0  0  0  0  0
   -2.0709   -7.6637   18.7817 C   0  0  0  0  0  0  0  0  0  0  0  0
   -0.5279   -8.2168   17.0717 C   0  0  0  0  0  0  0  0  0  0  0  0
    6.9694   -4.0191   27.8190 C   0  0  0  0  0  0  0  0  0  0  0  0
    5.1733   -4.5469   29.8123 C   0  0  0  0  0  0  0  0  0  0  0  0
   -1.7508  -11.3016   18.6072 C   0  0  0  0  0  0  0  0  0  0  0  0
    1.7497   -5.6771   26.4971 C   0  0  0  0  0  0  0  0  0  0  0  0
   -1.5799   -9.9322   18.3468 C   0  0  0  0  0  0  0  0  0  0  0  0
   -1.0871  -12.2214   17.8851 C   0  0  0  0  0  0  0  0  0  0  0  0
   -2.2706   -8.9669   19.0691 C   0  0  0  0  0  0  0  0  0  0  0  0
    3.0279   -5.3073   26.8197 C   0  0  0  0  0  0  0  0  0  0  0  0
    7.3282   -3.8948   29.1186 C   0  0  0  0  0  0  0  0  0  0  0  0
  1  3  4  0
  1  7  4  0
  2  3  1  0
  2  6  4  0
  2 16  4  0
  3 22  4  0
  4  9  4  0
  4 10  1  0
  4 20  4  0
  5 16  4  0
  5 23  4  0
  6 15  4  0
  7 12  4  0
  8 13  4  0
  8 14  4  0
  9 11  4  0
 11 14  4  0
 11 19  4  0
 12 18  4  0
 13 21  4  0
 15 23  4  0
 17 19  4  0
 17 20  4  0
 18 22  4  0
 19 21  4  0
M  END
$$$$

 Created by Python create_sdf_string function

 23 25  0  0  0  0  0  0  0  0999 V2000
    2.4610   -5.3070   29.1240 C   0  0  0  0  0  0  0  0  0  0  0  0
    4.7710   -4.6952   28.4803 C   0  0  0  0  0  0  0  0  0  0  0  0
    3.4047   -5.1087   28.1314 C   0  0  0  0  0  0  0  0  0  0  0  0
   -0.2234  -11.8615   16.8874 C   0  0  0  0  0  0  0  0  0  0  0  0
    6.4491   -4.1532   30.1213 C   0  0  0  0  0  0  0  0  0  0  0  0
    5.7060   -4.4340   27.4975 C   0  0  0  0  0  0  0  0  0  0  0  0
    1.1818   -5.6612   28.8399 C   0  0  0  0  0  0  0  0  0  0  0  0
   -1.2067   -7.3287   17.7772 C   0  0  0  0  0  0  0  0  0  0  0  0
   -0.0206  -10.5585   16.6210 C   0  0  0  0  0  0  0  0  0  0  0  0
    0.3696  -12.7626   16.2169 O   0  0  0  0  0  0  0  0  0  0  0  0
   -0.6895   -9.5676   17.3297 C   0  0  0  0  0  0  0  0  0  0  0  0
    0.8388   -5.8417   27.5264 C   0  0  0  0  0  0  0  0  0  0  0  0
   -2.0709   -7.6637   18.7817 C   0  0  0  0  0  0  0  0  0  0  0  0
   -0.5279   -8.2168   17.0717 C   0  0  0  0  0  0  0  0  0  0  0  0
    6.9694   -4.0191   27.8190 C   0  0  0  0  0  0  0  0  0  0  0  0
    5.1733   -4.5469   29.8123 C   0  0  0  0  0  0  0  0  0  0  0  0
   -1.7508  -11.3016   18.6072 C   0  0  0  0  0  0  0  0  0  0  0  0
    1.7497   -5.6771   26.4971 C   0  0  0  0  0  0  0  0  0  0  0  0
   -1.5799   -9.9322   18.3468 C   0  0  0  0  0  0  0  0  0  0  0  0
   -1.0871  -12.2214   17.8851 C   0  0  0  0  0  0  0  0  0  0  0  0
   -2.2706   -8.9669   19.0691 C   0  0  0  0  0  0  0  0  0  0  0  0
    3.0279   -5.3073   26.8197 C   0  0  0  0  0  0  0  0  0  0  0  0
    7.3282   -3.8948   29.1186 C   0  0  0  0  0  0  0  0  0  0  0  0
  1  3  4  0
  1  7  4  0
  2  3  1  0
  2  6  4  0
  2 16  4  0
  3 22  4  0
  4  9  4  0
  4 10  1  0
  4 20  4  0
  5 16  4  0
  5 23  4  0
  6 15  4  0
  7 12  4  0
  8 13  4  0
  8 14  4  0
  9 11  4  0
 11 14  4  0
 11 19  4  0
 12 18  4  0
 13 21  4  0
 15 23  4  0
 17 19  4  0
 17 20  4  0
 18 22  4  0
 19 21  4  0
M  END
$$$$

 Created by Python create_sdf_string function

 23 25  0  0  0  0  0  0  0  0999 V2000
    2.4610   -5.3070   29.1240 C   0  0  0  0  0  0  0  0  0  0  0  0
    4.7710   -4.6952   28.4803 C   0  0  0  0  0  0  0  0  0  0  0  0
    3.4047   -5.1087   28.1314 C   0  0  0  0  0  0  0  0  0  0  0  0
   -0.2234  -11.8615   16.8874 C   0  0  0  0  0  0  0  0  0  0  0  0
    6.4491   -4.1532   30.1213 C   0  0  0  0  0  0  0  0  0  0  0  0
    5.7060   -4.4340   27.4975 C   0  0  0  0  0  0  0  0  0  0  0  0
    1.1818   -5.6612   28.8399 C   0  0  0  0  0  0  0  0  0  0  0  0
   -1.2067   -7.3287   17.7772 C   0  0  0  0  0  0  0  0  0  0  0  0
   -0.0206  -10.5585   16.6210 C   0  0  0  0  0  0  0  0  0  0  0  0
    0.3696  -12.7626   16.2169 O   0  0  0  0  0  0  0  0  0  0  0  0
   -0.6895   -9.5676   17.3297 C   0  0  0  0  0  0  0  0  0  0  0  0
    0.8388   -5.8417   27.5264 C   0  0  0  0  0  0  0  0  0  0  0  0
   -2.0709   -7.6637   18.7817 C   0  0  0  0  0  0  0  0  0  0  0  0
   -0.5279   -8.2168   17.0717 C   0  0  0  0  0  0  0  0  0  0  0  0
    6.9694   -4.0191   27.8190 C   0  0  0  0  0  0  0  0  0  0  0  0
    5.1733   -4.5469   29.8123 C   0  0  0  0  0  0  0  0  0  0  0  0
   -1.7508  -11.3016   18.6072 C   0  0  0  0  0  0  0  0  0  0  0  0
    1.7497   -5.6771   26.4971 C   0  0  0  0  0  0  0  0  0  0  0  0
   -1.5799   -9.9322   18.3468 C   0  0  0  0  0  0  0  0  0  0  0  0
   -1.0871  -12.2214   17.8851 C   0  0  0  0  0  0  0  0  0  0  0  0
   -2.2706   -8.9669   19.0691 C   0  0  0  0  0  0  0  0  0  0  0  0
    3.0279   -5.3073   26.8197 C   0  0  0  0  0  0  0  0  0  0  0  0
    7.3282   -3.8948   29.1186 C   0  0  0  0  0  0  0  0  0  0  0  0
  1  3  4  0
  1  7  4  0
  2  3  1  0
  2  6  4  0
  2 16  4  0
  3 22  4  0
  4  9  4  0
  4 10  1  0
  4 20  4  0
  5 16  4  0
  5 23  4  0
  6 15  4  0
  7 12  4  0
  8 13  4  0
  8 14  4  0
  9 11  4  0
 11 14  4  0
 11 19  4  0
 12 18  4  0
 13 21  4  0
 15 23  4  0
 17 19  4  0
 17 20  4  0
 18 22  4  0
 19 21  4  0
M  END
$$$$

 Created by Python create_sdf_string function

 23 25  0  0  0  0  0  0  0  0999 V2000
    2.4610   -5.3070   29.1240 C   0  0  0  0  0  0  0  0  0  0  0  0
    4.7710   -4.6952   28.4803 C   0  0  0  0  0  0  0  0  0  0  0  0
    3.4047   -5.1087   28.1314 C   0  0  0  0  0  0  0  0  0  0  0  0
   -0.2234  -11.8615   16.8874 C   0  0  0  0  0  0  0  0  0  0  0  0
    6.4491   -4.1532   30.1213 C   0  0  0  0  0  0  0  0  0  0  0  0
    5.7060   -4.4340   27.4975 C   0  0  0  0  0  0  0  0  0  0  0  0
    1.1818   -5.6612   28.8399 C   0  0  0  0  0  0  0  0  0  0  0  0
   -1.2067   -7.3287   17.7772 C   0  0  0  0  0  0  0  0  0  0  0  0
   -0.0206  -10.5585   16.6210 C   0  0  0  0  0  0  0  0  0  0  0  0
    0.3696  -12.7626   16.2169 O   0  0  0  0  0  0  0  0  0  0  0  0
   -0.6895   -9.5676   17.3297 C   0  0  0  0  0  0  0  0  0  0  0  0
    0.8388   -5.8417   27.5264 C   0  0  0  0  0  0  0  0  0  0  0  0
   -2.0709   -7.6637   18.7817 C   0  0  0  0  0  0  0  0  0  0  0  0
   -0.5279   -8.2168   17.0717 C   0  0  0  0  0  0  0  0  0  0  0  0
    6.9694   -4.0191   27.8190 C   0  0  0  0  0  0  0  0  0  0  0  0
    5.1733   -4.5469   29.8123 C   0  0  0  0  0  0  0  0  0  0  0  0
   -1.7508  -11.3016   18.6072 C   0  0  0  0  0  0  0  0  0  0  0  0
    1.7497   -5.6771   26.4971 C   0  0  0  0  0  0  0  0  0  0  0  0
   -1.5799   -9.9322   18.3468 C   0  0  0  0  0  0  0  0  0  0  0  0
   -1.0871  -12.2214   17.8851 C   0  0  0  0  0  0  0  0  0  0  0  0
   -2.2706   -8.9669   19.0691 C   0  0  0  0  0  0  0  0  0  0  0  0
    3.0279   -5.3073   26.8197 C   0  0  0  0  0  0  0  0  0  0  0  0
    7.3282   -3.8948   29.1186 C   0  0  0  0  0  0  0  0  0  0  0  0
  1  3  4  0
  1  7  4  0
  2  3  1  0
  2  6  4  0
  2 16  4  0
  3 22  4  0
  4  9  4  0
  4 10  1  0
  4 20  4  0
  5 16  4  0
  5 23  4  0
  6 15  4  0
  7 12  4  0
  8 13  4  0
  8 14  4  0
  9 11  4  0
 11 14  4  0
 11 19  4  0
 12 18  4  0
 13 21  4  0
 15 23  4  0
 17 19  4  0
 17 20  4  0
 18 22  4  0
 19 21  4  0
M  END
$$$$

 Created by Python create_sdf_string function

 23 25  0  0  0  0  0  0  0  0999 V2000
    2.4610   -5.3070   29.1240 C   0  0  0  0  0  0  0  0  0  0  0  0
    4.7710   -4.6952   28.4803 C   0  0  0  0  0  0  0  0  0  0  0  0
    3.4047   -5.1087   28.1314 C   0  0  0  0  0  0  0  0  0  0  0  0
   -0.2234  -11.8615   16.8874 C   0  0  0  0  0  0  0  0  0  0  0  0
    6.4491   -4.1532   30.1213 C   0  0  0  0  0  0  0  0  0  0  0  0
    5.7060   -4.4340   27.4975 C   0  0  0  0  0  0  0  0  0  0  0  0
    1.1818   -5.6612   28.8399 C   0  0  0  0  0  0  0  0  0  0  0  0
   -1.2067   -7.3287   17.7772 C   0  0  0  0  0  0  0  0  0  0  0  0
   -0.0206  -10.5585   16.6210 C   0  0  0  0  0  0  0  0  0  0  0  0
    0.3696  -12.7626   16.2169 O   0  0  0  0  0  0  0  0  0  0  0  0
   -0.6895   -9.5676   17.3297 C   0  0  0  0  0  0  0  0  0  0  0  0
    0.8388   -5.8417   27.5264 C   0  0  0  0  0  0  0  0  0  0  0  0
   -2.0709   -7.6637   18.7817 C   0  0  0  0  0  0  0  0  0  0  0  0
   -0.5279   -8.2168   17.0717 C   0  0  0  0  0  0  0  0  0  0  0  0
    6.9694   -4.0191   27.8190 C   0  0  0  0  0  0  0  0  0  0  0  0
    5.1733   -4.5469   29.8123 C   0  0  0  0  0  0  0  0  0  0  0  0
   -1.7508  -11.3016   18.6072 C   0  0  0  0  0  0  0  0  0  0  0  0
    1.7497   -5.6771   26.4971 C   0  0  0  0  0  0  0  0  0  0  0  0
   -1.5799   -9.9322   18.3468 C   0  0  0  0  0  0  0  0  0  0  0  0
   -1.0871  -12.2214   17.8851 C   0  0  0  0  0  0  0  0  0  0  0  0
   -2.2706   -8.9669   19.0691 C   0  0  0  0  0  0  0  0  0  0  0  0
    3.0279   -5.3073   26.8197 C   0  0  0  0  0  0  0  0  0  0  0  0
    7.3282   -3.8948   29.1186 C   0  0  0  0  0  0  0  0  0  0  0  0
  1  3  4  0
  1  7  4  0
  2  3  1  0
  2  6  4  0
  2 16  4  0
  3 22  4  0
  4  9  4  0
  4 10  1  0
  4 20  4  0
  5 16  4  0
  5 23  4  0
  6 15  4  0
  7 12  4  0
  8 13  4  0
  8 14  4  0
  9 11  4  0
 11 14  4  0
 11 19  4  0
 12 18  4  0
 13 21  4  0
 15 23  4  0
 17 19  4  0
 17 20  4  0
 18 22  4  0
 19 21  4  0
M  END
$$$$

 Created by Python create_sdf_string function

 23 25  0  0  0  0  0  0  0  0999 V2000
    2.4610   -5.3070   29.1240 C   0  0  0  0  0  0  0  0  0  0  0  0
    4.7710   -4.6952   28.4803 C   0  0  0  0  0  0  0  0  0  0  0  0
    3.4047   -5.1087   28.1314 C   0  0  0  0  0  0  0  0  0  0  0  0
   -0.2234  -11.8615   16.8874 C   0  0  0  0  0  0  0  0  0  0  0  0
    6.4491   -4.1532   30.1213 C   0  0  0  0  0  0  0  0  0  0  0  0
    5.7060   -4.4340   27.4975 C   0  0  0  0  0  0  0  0  0  0  0  0
    1.1818   -5.6612   28.8399 C   0  0  0  0  0  0  0  0  0  0  0  0
   -1.2067   -7.3287   17.7772 C   0  0  0  0  0  0  0  0  0  0  0  0
   -0.0206  -10.5585   16.6210 C   0  0  0  0  0  0  0  0  0  0  0  0
    0.3696  -12.7626   16.2169 O   0  0  0  0  0  0  0  0  0  0  0  0
   -0.6895   -9.5676   17.3297 C   0  0  0  0  0  0  0  0  0  0  0  0
    0.8388   -5.8417   27.5264 C   0  0  0  0  0  0  0  0  0  0  0  0
   -2.0709   -7.6637   18.7817 C   0  0  0  0  0  0  0  0  0  0  0  0
   -0.5279   -8.2168   17.0717 C   0  0  0  0  0  0  0  0  0  0  0  0
    6.9694   -4.0191   27.8190 C   0  0  0  0  0  0  0  0  0  0  0  0
    5.1733   -4.5469   29.8123 C   0  0  0  0  0  0  0  0  0  0  0  0
   -1.7508  -11.3016   18.6072 C   0  0  0  0  0  0  0  0  0  0  0  0
    1.7497   -5.6771   26.4971 C   0  0  0  0  0  0  0  0  0  0  0  0
   -1.5799   -9.9322   18.3468 C   0  0  0  0  0  0  0  0  0  0  0  0
   -1.0871  -12.2214   17.8851 C   0  0  0  0  0  0  0  0  0  0  0  0
   -2.2706   -8.9669   19.0691 C   0  0  0  0  0  0  0  0  0  0  0  0
    3.0279   -5.3073   26.8197 C   0  0  0  0  0  0  0  0  0  0  0  0
    7.3282   -3.8948   29.1186 C   0  0  0  0  0  0  0  0  0  0  0  0
  1  3  4  0
  1  7  4  0
  2  3  1  0
  2  6  4  0
  2 16  4  0
  3 22  4  0
  4  9  4  0
  4 10  1  0
  4 20  4  0
  5 16  4  0
  5 23  4  0
  6 15  4  0
  7 12  4  0
  8 13  4  0
  8 14  4  0
  9 11  4  0
 11 14  4  0
 11 19  4  0
 12 18  4  0
 13 21  4  0
 15 23  4  0
 17 19  4  0
 17 20  4  0
 18 22  4  0
 19 21  4  0
M  END
$$$$

 Created by Python create_sdf_string function

 23 25  0  0  0  0  0  0  0  0999 V2000
    2.4610   -5.3070   29.1240 C   0  0  0  0  0  0  0  0  0  0  0  0
    4.7710   -4.6952   28.4803 C   0  0  0  0  0  0  0  0  0  0  0  0
    3.4047   -5.1087   28.1314 C   0  0  0  0  0  0  0  0  0  0  0  0
   -0.2234  -11.8615   16.8874 C   0  0  0  0  0  0  0  0  0  0  0  0
    6.4491   -4.1532   30.1213 C   0  0  0  0  0  0  0  0  0  0  0  0
    5.7060   -4.4340   27.4975 C   0  0  0  0  0  0  0  0  0  0  0  0
    1.1818   -5.6612   28.8399 C   0  0  0  0  0  0  0  0  0  0  0  0
   -1.2067   -7.3287   17.7772 C   0  0  0  0  0  0  0  0  0  0  0  0
   -0.0206  -10.5585   16.6210 C   0  0  0  0  0  0  0  0  0  0  0  0
    0.3696  -12.7626   16.2169 O   0  0  0  0  0  0  0  0  0  0  0  0
   -0.6895   -9.5676   17.3297 C   0  0  0  0  0  0  0  0  0  0  0  0
    0.8388   -5.8417   27.5264 C   0  0  0  0  0  0  0  0  0  0  0  0
   -2.0709   -7.6637   18.7817 C   0  0  0  0  0  0  0  0  0  0  0  0
   -0.5279   -8.2168   17.0717 C   0  0  0  0  0  0  0  0  0  0  0  0
    6.9694   -4.0191   27.8190 C   0  0  0  0  0  0  0  0  0  0  0  0
    5.1733   -4.5469   29.8123 C   0  0  0  0  0  0  0  0  0  0  0  0
   -1.7508  -11.3016   18.6072 C   0  0  0  0  0  0  0  0  0  0  0  0
    1.7497   -5.6771   26.4971 C   0  0  0  0  0  0  0  0  0  0  0  0
   -1.5799   -9.9322   18.3468 C   0  0  0  0  0  0  0  0  0  0  0  0
   -1.0871  -12.2214   17.8851 C   0  0  0  0  0  0  0  0  0  0  0  0
   -2.2706   -8.9669   19.0691 C   0  0  0  0  0  0  0  0  0  0  0  0
    3.0279   -5.3073   26.8197 C   0  0  0  0  0  0  0  0  0  0  0  0
    7.3282   -3.8948   29.1186 C   0  0  0  0  0  0  0  0  0  0  0  0
  1  3  4  0
  1  7  4  0
  2  3  1  0
  2  6  4  0
  2 16  4  0
  3 22  4  0
  4  9  4  0
  4 10  1  0
  4 20  4  0
  5 16  4  0
  5 23  4  0
  6 15  4  0
  7 12  4  0
  8 13  4  0
  8 14  4  0
  9 11  4  0
 11 14  4  0
 11 19  4  0
 12 18  4  0
 13 21  4  0
 15 23  4  0
 17 19  4  0
 17 20  4  0
 18 22  4  0
 19 21  4  0
M  END
$$$$

 Created by Python create_sdf_string function

 23 25  0  0  0  0  0  0  0  0999 V2000
    2.4610   -5.3070   29.1240 C   0  0  0  0  0  0  0  0  0  0  0  0
    4.7710   -4.6952   28.4803 C   0  0  0  0  0  0  0  0  0  0  0  0
    3.4047   -5.1087   28.1314 C   0  0  0  0  0  0  0  0  0  0  0  0
   -0.2234  -11.8615   16.8874 C   0  0  0  0  0  0  0  0  0  0  0  0
    6.4491   -4.1532   30.1213 C   0  0  0  0  0  0  0  0  0  0  0  0
    5.7060   -4.4340   27.4975 C   0  0  0  0  0  0  0  0  0  0  0  0
    1.1818   -5.6612   28.8399 C   0  0  0  0  0  0  0  0  0  0  0  0
   -1.2067   -7.3287   17.7772 C   0  0  0  0  0  0  0  0  0  0  0  0
   -0.0206  -10.5585   16.6210 C   0  0  0  0  0  0  0  0  0  0  0  0
    0.3696  -12.7626   16.2169 O   0  0  0  0  0  0  0  0  0  0  0  0
   -0.6895   -9.5676   17.3297 C   0  0  0  0  0  0  0  0  0  0  0  0
    0.8388   -5.8417   27.5264 C   0  0  0  0  0  0  0  0  0  0  0  0
   -2.0709   -7.6637   18.7817 C   0  0  0  0  0  0  0  0  0  0  0  0
   -0.5279   -8.2168   17.0717 C   0  0  0  0  0  0  0  0  0  0  0  0
    6.9694   -4.0191   27.8190 C   0  0  0  0  0  0  0  0  0  0  0  0
    5.1733   -4.5469   29.8123 C   0  0  0  0  0  0  0  0  0  0  0  0
   -1.7508  -11.3016   18.6072 C   0  0  0  0  0  0  0  0  0  0  0  0
    1.7497   -5.6771   26.4971 C   0  0  0  0  0  0  0  0  0  0  0  0
   -1.5799   -9.9322   18.3468 C   0  0  0  0  0  0  0  0  0  0  0  0
   -1.0871  -12.2214   17.8851 C   0  0  0  0  0  0  0  0  0  0  0  0
   -2.2706   -8.9669   19.0691 C   0  0  0  0  0  0  0  0  0  0  0  0
    3.0279   -5.3073   26.8197 C   0  0  0  0  0  0  0  0  0  0  0  0
    7.3282   -3.8948   29.1186 C   0  0  0  0  0  0  0  0  0  0  0  0
  1  3  4  0
  1  7  4  0
  2  3  1  0
  2  6  4  0
  2 16  4  0
  3 22  4  0
  4  9  4  0
  4 10  1  0
  4 20  4  0
  5 16  4  0
  5 23  4  0
  6 15  4  0
  7 12  4  0
  8 13  4  0
  8 14  4  0
  9 11  4  0
 11 14  4  0
 11 19  4  0
 12 18  4  0
 13 21  4  0
 15 23  4  0
 17 19  4  0
 17 20  4  0
 18 22  4  0
 19 21  4  0
M  END
$$$$

 Created by Python create_sdf_string function

 23 25  0  0  0  0  0  0  0  0999 V2000
    2.4610   -5.3070   29.1240 C   0  0  0  0  0  0  0  0  0  0  0  0
    4.7710   -4.6952   28.4803 C   0  0  0  0  0  0  0  0  0  0  0  0
    3.4047   -5.1087   28.1314 C   0  0  0  0  0  0  0  0  0  0  0  0
   -0.2234  -11.8615   16.8874 C   0  0  0  0  0  0  0  0  0  0  0  0
    6.4491   -4.1532   30.1213 C   0  0  0  0  0  0  0  0  0  0  0  0
    5.7060   -4.4340   27.4975 C   0  0  0  0  0  0  0  0  0  0  0  0
    1.1818   -5.6612   28.8399 C   0  0  0  0  0  0  0  0  0  0  0  0
   -1.2067   -7.3287   17.7772 C   0  0  0  0  0  0  0  0  0  0  0  0
   -0.0206  -10.5585   16.6210 C   0  0  0  0  0  0  0  0  0  0  0  0
    0.3696  -12.7626   16.2169 O   0  0  0  0  0  0  0  0  0  0  0  0
   -0.6895   -9.5676   17.3297 C   0  0  0  0  0  0  0  0  0  0  0  0
    0.8388   -5.8417   27.5264 C   0  0  0  0  0  0  0  0  0  0  0  0
   -2.0709   -7.6637   18.7817 C   0  0  0  0  0  0  0  0  0  0  0  0
   -0.5279   -8.2168   17.0717 C   0  0  0  0  0  0  0  0  0  0  0  0
    6.9694   -4.0191   27.8190 C   0  0  0  0  0  0  0  0  0  0  0  0
    5.1733   -4.5469   29.8123 C   0  0  0  0  0  0  0  0  0  0  0  0
   -1.7508  -11.3016   18.6072 C   0  0  0  0  0  0  0  0  0  0  0  0
    1.7497   -5.6771   26.4971 C   0  0  0  0  0  0  0  0  0  0  0  0
   -1.5799   -9.9322   18.3468 C   0  0  0  0  0  0  0  0  0  0  0  0
   -1.0871  -12.2214   17.8851 C   0  0  0  0  0  0  0  0  0  0  0  0
   -2.2706   -8.9669   19.0691 C   0  0  0  0  0  0  0  0  0  0  0  0
    3.0279   -5.3073   26.8197 C   0  0  0  0  0  0  0  0  0  0  0  0
    7.3282   -3.8948   29.1186 C   0  0  0  0  0  0  0  0  0  0  0  0
  1  3  4  0
  1  7  4  0
  2  3  1  0
  2  6  4  0
  2 16  4  0
  3 22  4  0
  4  9  4  0
  4 10  1  0
  4 20  4  0
  5 16  4  0
  5 23  4  0
  6 15  4  0
  7 12  4  0
  8 13  4  0
  8 14  4  0
  9 11  4  0
 11 14  4  0
 11 19  4  0
 12 18  4  0
 13 21  4  0
 15 23  4  0
 17 19  4  0
 17 20  4  0
 18 22  4  0
 19 21  4  0
M  END
$$$$

 Created by Python create_sdf_string function

 23 25  0  0  0  0  0  0  0  0999 V2000
    2.4610   -5.3070   29.1240 C   0  0  0  0  0  0  0  0  0  0  0  0
    4.7710   -4.6952   28.4803 C   0  0  0  0  0  0  0  0  0  0  0  0
    3.4047   -5.1087   28.1314 C   0  0  0  0  0  0  0  0  0  0  0  0
   -0.2234  -11.8615   16.8874 C   0  0  0  0  0  0  0  0  0  0  0  0
    6.4491   -4.1532   30.1213 C   0  0  0  0  0  0  0  0  0  0  0  0
    5.7060   -4.4340   27.4975 C   0  0  0  0  0  0  0  0  0  0  0  0
    1.1818   -5.6612   28.8399 C   0  0  0  0  0  0  0  0  0  0  0  0
   -1.2067   -7.3287   17.7772 C   0  0  0  0  0  0  0  0  0  0  0  0
   -0.0206  -10.5585   16.6210 C   0  0  0  0  0  0  0  0  0  0  0  0
    0.3696  -12.7626   16.2169 O   0  0  0  0  0  0  0  0  0  0  0  0
   -0.6895   -9.5676   17.3297 C   0  0  0  0  0  0  0  0  0  0  0  0
    0.8388   -5.8417   27.5264 C   0  0  0  0  0  0  0  0  0  0  0  0
   -2.0709   -7.6637   18.7817 C   0  0  0  0  0  0  0  0  0  0  0  0
   -0.5279   -8.2168   17.0717 C   0  0  0  0  0  0  0  0  0  0  0  0
    6.9694   -4.0191   27.8190 C   0  0  0  0  0  0  0  0  0  0  0  0
    5.1733   -4.5469   29.8123 C   0  0  0  0  0  0  0  0  0  0  0  0
   -1.7508  -11.3016   18.6072 C   0  0  0  0  0  0  0  0  0  0  0  0
    1.7497   -5.6771   26.4971 C   0  0  0  0  0  0  0  0  0  0  0  0
   -1.5799   -9.9322   18.3468 C   0  0  0  0  0  0  0  0  0  0  0  0
   -1.0871  -12.2214   17.8851 C   0  0  0  0  0  0  0  0  0  0  0  0
   -2.2706   -8.9669   19.0691 C   0  0  0  0  0  0  0  0  0  0  0  0
    3.0279   -5.3073   26.8197 C   0  0  0  0  0  0  0  0  0  0  0  0
    7.3282   -3.8948   29.1186 C   0  0  0  0  0  0  0  0  0  0  0  0
  1  3  4  0
  1  7  4  0
  2  3  1  0
  2  6  4  0
  2 16  4  0
  3 22  4  0
  4  9  4  0
  4 10  1  0
  4 20  4  0
  5 16  4  0
  5 23  4  0
  6 15  4  0
  7 12  4  0
  8 13  4  0
  8 14  4  0
  9 11  4  0
 11 14  4  0
 11 19  4  0
 12 18  4  0
 13 21  4  0
 15 23  4  0
 17 19  4  0
 17 20  4  0
 18 22  4  0
 19 21  4  0
M  END
$$$$

 Created by Python create_sdf_string function

 23 25  0  0  0  0  0  0  0  0999 V2000
    2.4610   -5.3070   29.1240 C   0  0  0  0  0  0  0  0  0  0  0  0
    4.7710   -4.6952   28.4803 C   0  0  0  0  0  0  0  0  0  0  0  0
    3.4047   -5.1087   28.1314 C   0  0  0  0  0  0  0  0  0  0  0  0
   -0.2234  -11.8615   16.8874 C   0  0  0  0  0  0  0  0  0  0  0  0
    6.4491   -4.1532   30.1213 C   0  0  0  0  0  0  0  0  0  0  0  0
    5.7060   -4.4340   27.4975 C   0  0  0  0  0  0  0  0  0  0  0  0
    1.1818   -5.6612   28.8399 C   0  0  0  0  0  0  0  0  0  0  0  0
   -1.2067   -7.3287   17.7772 C   0  0  0  0  0  0  0  0  0  0  0  0
   -0.0206  -10.5585   16.6210 C   0  0  0  0  0  0  0  0  0  0  0  0
    0.3696  -12.7626   16.2169 O   0  0  0  0  0  0  0  0  0  0  0  0
   -0.6895   -9.5676   17.3297 C   0  0  0  0  0  0  0  0  0  0  0  0
    0.8388   -5.8417   27.5264 C   0  0  0  0  0  0  0  0  0  0  0  0
   -2.0709   -7.6637   18.7817 C   0  0  0  0  0  0  0  0  0  0  0  0
   -0.5279   -8.2168   17.0717 C   0  0  0  0  0  0  0  0  0  0  0  0
    6.9694   -4.0191   27.8190 C   0  0  0  0  0  0  0  0  0  0  0  0
    5.1733   -4.5469   29.8123 C   0  0  0  0  0  0  0  0  0  0  0  0
   -1.7508  -11.3016   18.6072 C   0  0  0  0  0  0  0  0  0  0  0  0
    1.7497   -5.6771   26.4971 C   0  0  0  0  0  0  0  0  0  0  0  0
   -1.5799   -9.9322   18.3468 C   0  0  0  0  0  0  0  0  0  0  0  0
   -1.0871  -12.2214   17.8851 C   0  0  0  0  0  0  0  0  0  0  0  0
   -2.2706   -8.9669   19.0691 C   0  0  0  0  0  0  0  0  0  0  0  0
    3.0279   -5.3073   26.8197 C   0  0  0  0  0  0  0  0  0  0  0  0
    7.3282   -3.8948   29.1186 C   0  0  0  0  0  0  0  0  0  0  0  0
  1  3  4  0
  1  7  4  0
  2  3  1  0
  2  6  4  0
  2 16  4  0
  3 22  4  0
  4  9  4  0
  4 10  1  0
  4 20  4  0
  5 16  4  0
  5 23  4  0
  6 15  4  0
  7 12  4  0
  8 13  4  0
  8 14  4  0
  9 11  4  0
 11 14  4  0
 11 19  4  0
 12 18  4  0
 13 21  4  0
 15 23  4  0
 17 19  4  0
 17 20  4  0
 18 22  4  0
 19 21  4  0
M  END
$$$$

 Created by Python create_sdf_string function

 23 25  0  0  0  0  0  0  0  0999 V2000
    2.4610   -5.3070   29.1240 C   0  0  0  0  0  0  0  0  0  0  0  0
    4.7710   -4.6952   28.4803 C   0  0  0  0  0  0  0  0  0  0  0  0
    3.4047   -5.1087   28.1314 C   0  0  0  0  0  0  0  0  0  0  0  0
   -0.2234  -11.8615   16.8874 C   0  0  0  0  0  0  0  0  0  0  0  0
    6.4491   -4.1532   30.1213 C   0  0  0  0  0  0  0  0  0  0  0  0
    5.7060   -4.4340   27.4975 C   0  0  0  0  0  0  0  0  0  0  0  0
    1.1818   -5.6612   28.8399 C   0  0  0  0  0  0  0  0  0  0  0  0
   -1.2067   -7.3287   17.7772 C   0  0  0  0  0  0  0  0  0  0  0  0
   -0.0206  -10.5585   16.6210 C   0  0  0  0  0  0  0  0  0  0  0  0
    0.3696  -12.7626   16.2169 O   0  0  0  0  0  0  0  0  0  0  0  0
   -0.6895   -9.5676   17.3297 C   0  0  0  0  0  0  0  0  0  0  0  0
    0.8388   -5.8417   27.5264 C   0  0  0  0  0  0  0  0  0  0  0  0
   -2.0709   -7.6637   18.7817 C   0  0  0  0  0  0  0  0  0  0  0  0
   -0.5279   -8.2168   17.0717 C   0  0  0  0  0  0  0  0  0  0  0  0
    6.9694   -4.0191   27.8190 C   0  0  0  0  0  0  0  0  0  0  0  0
    5.1733   -4.5469   29.8123 C   0  0  0  0  0  0  0  0  0  0  0  0
   -1.7508  -11.3016   18.6072 C   0  0  0  0  0  0  0  0  0  0  0  0
    1.7497   -5.6771   26.4971 C   0  0  0  0  0  0  0  0  0  0  0  0
   -1.5799   -9.9322   18.3468 C   0  0  0  0  0  0  0  0  0  0  0  0
   -1.0871  -12.2214   17.8851 C   0  0  0  0  0  0  0  0  0  0  0  0
   -2.2706   -8.9669   19.0691 C   0  0  0  0  0  0  0  0  0  0  0  0
    3.0279   -5.3073   26.8197 C   0  0  0  0  0  0  0  0  0  0  0  0
    7.3282   -3.8948   29.1186 C   0  0  0  0  0  0  0  0  0  0  0  0
  1  3  4  0
  1  7  4  0
  2  3  1  0
  2  6  4  0
  2 16  4  0
  3 22  4  0
  4  9  4  0
  4 10  1  0
  4 20  4  0
  5 16  4  0
  5 23  4  0
  6 15  4  0
  7 12  4  0
  8 13  4  0
  8 14  4  0
  9 11  4  0
 11 14  4  0
 11 19  4  0
 12 18  4  0
 13 21  4  0
 15 23  4  0
 17 19  4  0
 17 20  4  0
 18 22  4  0
 19 21  4  0
M  END
$$$$

 Created by Python create_sdf_string function

 23 25  0  0  0  0  0  0  0  0999 V2000
    2.4610   -5.3070   29.1240 C   0  0  0  0  0  0  0  0  0  0  0  0
    4.7710   -4.6952   28.4803 C   0  0  0  0  0  0  0  0  0  0  0  0
    3.4047   -5.1087   28.1314 C   0  0  0  0  0  0  0  0  0  0  0  0
   -0.2234  -11.8615   16.8874 C   0  0  0  0  0  0  0  0  0  0  0  0
    6.4491   -4.1532   30.1213 C   0  0  0  0  0  0  0  0  0  0  0  0
    5.7060   -4.4340   27.4975 C   0  0  0  0  0  0  0  0  0  0  0  0
    1.1818   -5.6612   28.8399 C   0  0  0  0  0  0  0  0  0  0  0  0
   -1.2067   -7.3287   17.7772 C   0  0  0  0  0  0  0  0  0  0  0  0
   -0.0206  -10.5585   16.6210 C   0  0  0  0  0  0  0  0  0  0  0  0
    0.3696  -12.7626   16.2169 O   0  0  0  0  0  0  0  0  0  0  0  0
   -0.6895   -9.5676   17.3297 C   0  0  0  0  0  0  0  0  0  0  0  0
    0.8388   -5.8417   27.5264 C   0  0  0  0  0  0  0  0  0  0  0  0
   -2.0709   -7.6637   18.7817 C   0  0  0  0  0  0  0  0  0  0  0  0
   -0.5279   -8.2168   17.0717 C   0  0  0  0  0  0  0  0  0  0  0  0
    6.9694   -4.0191   27.8190 C   0  0  0  0  0  0  0  0  0  0  0  0
    5.1733   -4.5469   29.8123 C   0  0  0  0  0  0  0  0  0  0  0  0
   -1.7508  -11.3016   18.6072 C   0  0  0  0  0  0  0  0  0  0  0  0
    1.7497   -5.6771   26.4971 C   0  0  0  0  0  0  0  0  0  0  0  0
   -1.5799   -9.9322   18.3468 C   0  0  0  0  0  0  0  0  0  0  0  0
   -1.0871  -12.2214   17.8851 C   0  0  0  0  0  0  0  0  0  0  0  0
   -2.2706   -8.9669   19.0691 C   0  0  0  0  0  0  0  0  0  0  0  0
    3.0279   -5.3073   26.8197 C   0  0  0  0  0  0  0  0  0  0  0  0
    7.3282   -3.8948   29.1186 C   0  0  0  0  0  0  0  0  0  0  0  0
  1  3  4  0
  1  7  4  0
  2  3  1  0
  2  6  4  0
  2 16  4  0
  3 22  4  0
  4  9  4  0
  4 10  1  0
  4 20  4  0
  5 16  4  0
  5 23  4  0
  6 15  4  0
  7 12  4  0
  8 13  4  0
  8 14  4  0
  9 11  4  0
 11 14  4  0
 11 19  4  0
 12 18  4  0
 13 21  4  0
 15 23  4  0
 17 19  4  0
 17 20  4  0
 18 22  4  0
 19 21  4  0
M  END
$$$$

 Created by Python create_sdf_string function

 23 25  0  0  0  0  0  0  0  0999 V2000
    2.4610   -5.3070   29.1240 C   0  0  0  0  0  0  0  0  0  0  0  0
    4.7710   -4.6952   28.4803 C   0  0  0  0  0  0  0  0  0  0  0  0
    3.4047   -5.1087   28.1314 C   0  0  0  0  0  0  0  0  0  0  0  0
   -0.2234  -11.8615   16.8874 C   0  0  0  0  0  0  0  0  0  0  0  0
    6.4491   -4.1532   30.1213 C   0  0  0  0  0  0  0  0  0  0  0  0
    5.7060   -4.4340   27.4975 C   0  0  0  0  0  0  0  0  0  0  0  0
    1.1818   -5.6612   28.8399 C   0  0  0  0  0  0  0  0  0  0  0  0
   -1.2067   -7.3287   17.7772 C   0  0  0  0  0  0  0  0  0  0  0  0
   -0.0206  -10.5585   16.6210 C   0  0  0  0  0  0  0  0  0  0  0  0
    0.3696  -12.7626   16.2169 O   0  0  0  0  0  0  0  0  0  0  0  0
   -0.6895   -9.5676   17.3297 C   0  0  0  0  0  0  0  0  0  0  0  0
    0.8388   -5.8417   27.5264 C   0  0  0  0  0  0  0  0  0  0  0  0
   -2.0709   -7.6637   18.7817 C   0  0  0  0  0  0  0  0  0  0  0  0
   -0.5279   -8.2168   17.0717 C   0  0  0  0  0  0  0  0  0  0  0  0
    6.9694   -4.0191   27.8190 C   0  0  0  0  0  0  0  0  0  0  0  0
    5.1733   -4.5469   29.8123 C   0  0  0  0  0  0  0  0  0  0  0  0
   -1.7508  -11.3016   18.6072 C   0  0  0  0  0  0  0  0  0  0  0  0
    1.7497   -5.6771   26.4971 C   0  0  0  0  0  0  0  0  0  0  0  0
   -1.5799   -9.9322   18.3468 C   0  0  0  0  0  0  0  0  0  0  0  0
   -1.0871  -12.2214   17.8851 C   0  0  0  0  0  0  0  0  0  0  0  0
   -2.2706   -8.9669   19.0691 C   0  0  0  0  0  0  0  0  0  0  0  0
    3.0279   -5.3073   26.8197 C   0  0  0  0  0  0  0  0  0  0  0  0
    7.3282   -3.8948   29.1186 C   0  0  0  0  0  0  0  0  0  0  0  0
  1  3  4  0
  1  7  4  0
  2  3  1  0
  2  6  4  0
  2 16  4  0
  3 22  4  0
  4  9  4  0
  4 10  1  0
  4 20  4  0
  5 16  4  0
  5 23  4  0
  6 15  4  0
  7 12  4  0
  8 13  4  0
  8 14  4  0
  9 11  4  0
 11 14  4  0
 11 19  4  0
 12 18  4  0
 13 21  4  0
 15 23  4  0
 17 19  4  0
 17 20  4  0
 18 22  4  0
 19 21  4  0
M  END
$$$$

 Created by Python create_sdf_string function

 23 25  0  0  0  0  0  0  0  0999 V2000
    2.4610   -5.3070   29.1240 C   0  0  0  0  0  0  0  0  0  0  0  0
    4.7710   -4.6952   28.4803 C   0  0  0  0  0  0  0  0  0  0  0  0
    3.4047   -5.1087   28.1314 C   0  0  0  0  0  0  0  0  0  0  0  0
   -0.2234  -11.8615   16.8874 C   0  0  0  0  0  0  0  0  0  0  0  0
    6.4491   -4.1532   30.1213 C   0  0  0  0  0  0  0  0  0  0  0  0
    5.7060   -4.4340   27.4975 C   0  0  0  0  0  0  0  0  0  0  0  0
    1.1818   -5.6612   28.8399 C   0  0  0  0  0  0  0  0  0  0  0  0
   -1.2067   -7.3287   17.7772 C   0  0  0  0  0  0  0  0  0  0  0  0
   -0.0206  -10.5585   16.6210 C   0  0  0  0  0  0  0  0  0  0  0  0
    0.3696  -12.7626   16.2169 O   0  0  0  0  0  0  0  0  0  0  0  0
   -0.6895   -9.5676   17.3297 C   0  0  0  0  0  0  0  0  0  0  0  0
    0.8388   -5.8417   27.5264 C   0  0  0  0  0  0  0  0  0  0  0  0
   -2.0709   -7.6637   18.7817 C   0  0  0  0  0  0  0  0  0  0  0  0
   -0.5279   -8.2168   17.0717 C   0  0  0  0  0  0  0  0  0  0  0  0
    6.9694   -4.0191   27.8190 C   0  0  0  0  0  0  0  0  0  0  0  0
    5.1733   -4.5469   29.8123 C   0  0  0  0  0  0  0  0  0  0  0  0
   -1.7508  -11.3016   18.6072 C   0  0  0  0  0  0  0  0  0  0  0  0
    1.7497   -5.6771   26.4971 C   0  0  0  0  0  0  0  0  0  0  0  0
   -1.5799   -9.9322   18.3468 C   0  0  0  0  0  0  0  0  0  0  0  0
   -1.0871  -12.2214   17.8851 C   0  0  0  0  0  0  0  0  0  0  0  0
   -2.2706   -8.9669   19.0691 C   0  0  0  0  0  0  0  0  0  0  0  0
    3.0279   -5.3073   26.8197 C   0  0  0  0  0  0  0  0  0  0  0  0
    7.3282   -3.8948   29.1186 C   0  0  0  0  0  0  0  0  0  0  0  0
  1  3  4  0
  1  7  4  0
  2  3  1  0
  2  6  4  0
  2 16  4  0
  3 22  4  0
  4  9  4  0
  4 10  1  0
  4 20  4  0
  5 16  4  0
  5 23  4  0
  6 15  4  0
  7 12  4  0
  8 13  4  0
  8 14  4  0
  9 11  4  0
 11 14  4  0
 11 19  4  0
 12 18  4  0
 13 21  4  0
 15 23  4  0
 17 19  4  0
 17 20  4  0
 18 22  4  0
 19 21  4  0
M  END
$$$$

 Created by Python create_sdf_string function

 23 25  0  0  0  0  0  0  0  0999 V2000
    2.4610   -5.3070   29.1240 C   0  0  0  0  0  0  0  0  0  0  0  0
    4.7710   -4.6952   28.4803 C   0  0  0  0  0  0  0  0  0  0  0  0
    3.4047   -5.1087   28.1314 C   0  0  0  0  0  0  0  0  0  0  0  0
   -0.2234  -11.8615   16.8874 C   0  0  0  0  0  0  0  0  0  0  0  0
    6.4491   -4.1532   30.1213 C   0  0  0  0  0  0  0  0  0  0  0  0
    5.7060   -4.4340   27.4975 C   0  0  0  0  0  0  0  0  0  0  0  0
    1.1818   -5.6612   28.8399 C   0  0  0  0  0  0  0  0  0  0  0  0
   -1.2067   -7.3287   17.7772 C   0  0  0  0  0  0  0  0  0  0  0  0
   -0.0206  -10.5585   16.6210 C   0  0  0  0  0  0  0  0  0  0  0  0
    0.3696  -12.7626   16.2169 O   0  0  0  0  0  0  0  0  0  0  0  0
   -0.6895   -9.5676   17.3297 C   0  0  0  0  0  0  0  0  0  0  0  0
    0.8388   -5.8417   27.5264 C   0  0  0  0  0  0  0  0  0  0  0  0
   -2.0709   -7.6637   18.7817 C   0  0  0  0  0  0  0  0  0  0  0  0
   -0.5279   -8.2168   17.0717 C   0  0  0  0  0  0  0  0  0  0  0  0
    6.9694   -4.0191   27.8190 C   0  0  0  0  0  0  0  0  0  0  0  0
    5.1733   -4.5469   29.8123 C   0  0  0  0  0  0  0  0  0  0  0  0
   -1.7508  -11.3016   18.6072 C   0  0  0  0  0  0  0  0  0  0  0  0
    1.7497   -5.6771   26.4971 C   0  0  0  0  0  0  0  0  0  0  0  0
   -1.5799   -9.9322   18.3468 C   0  0  0  0  0  0  0  0  0  0  0  0
   -1.0871  -12.2214   17.8851 C   0  0  0  0  0  0  0  0  0  0  0  0
   -2.2706   -8.9669   19.0691 C   0  0  0  0  0  0  0  0  0  0  0  0
    3.0279   -5.3073   26.8197 C   0  0  0  0  0  0  0  0  0  0  0  0
    7.3282   -3.8948   29.1186 C   0  0  0  0  0  0  0  0  0  0  0  0
  1  3  4  0
  1  7  4  0
  2  3  1  0
  2  6  4  0
  2 16  4  0
  3 22  4  0
  4  9  4  0
  4 10  1  0
  4 20  4  0
  5 16  4  0
  5 23  4  0
  6 15  4  0
  7 12  4  0
  8 13  4  0
  8 14  4  0
  9 11  4  0
 11 14  4  0
 11 19  4  0
 12 18  4  0
 13 21  4  0
 15 23  4  0
 17 19  4  0
 17 20  4  0
 18 22  4  0
 19 21  4  0
M  END
$$$$

 Created by Python create_sdf_string function

 23 25  0  0  0  0  0  0  0  0999 V2000
    2.4610   -5.3070   29.1240 C   0  0  0  0  0  0  0  0  0  0  0  0
    4.7710   -4.6952   28.4803 C   0  0  0  0  0  0  0  0  0  0  0  0
    3.4047   -5.1087   28.1314 C   0  0  0  0  0  0  0  0  0  0  0  0
   -0.2234  -11.8615   16.8874 C   0  0  0  0  0  0  0  0  0  0  0  0
    6.4491   -4.1532   30.1213 C   0  0  0  0  0  0  0  0  0  0  0  0
    5.7060   -4.4340   27.4975 C   0  0  0  0  0  0  0  0  0  0  0  0
    1.1818   -5.6612   28.8399 C   0  0  0  0  0  0  0  0  0  0  0  0
   -1.2067   -7.3287   17.7772 C   0  0  0  0  0  0  0  0  0  0  0  0
   -0.0206  -10.5585   16.6210 C   0  0  0  0  0  0  0  0  0  0  0  0
    0.3696  -12.7626   16.2169 O   0  0  0  0  0  0  0  0  0  0  0  0
   -0.6895   -9.5676   17.3297 C   0  0  0  0  0  0  0  0  0  0  0  0
    0.8388   -5.8417   27.5264 C   0  0  0  0  0  0  0  0  0  0  0  0
   -2.0709   -7.6637   18.7817 C   0  0  0  0  0  0  0  0  0  0  0  0
   -0.5279   -8.2168   17.0717 C   0  0  0  0  0  0  0  0  0  0  0  0
    6.9694   -4.0191   27.8190 C   0  0  0  0  0  0  0  0  0  0  0  0
    5.1733   -4.5469   29.8123 C   0  0  0  0  0  0  0  0  0  0  0  0
   -1.7508  -11.3016   18.6072 C   0  0  0  0  0  0  0  0  0  0  0  0
    1.7497   -5.6771   26.4971 C   0  0  0  0  0  0  0  0  0  0  0  0
   -1.5799   -9.9322   18.3468 C   0  0  0  0  0  0  0  0  0  0  0  0
   -1.0871  -12.2214   17.8851 C   0  0  0  0  0  0  0  0  0  0  0  0
   -2.2706   -8.9669   19.0691 C   0  0  0  0  0  0  0  0  0  0  0  0
    3.0279   -5.3073   26.8197 C   0  0  0  0  0  0  0  0  0  0  0  0
    7.3282   -3.8948   29.1186 C   0  0  0  0  0  0  0  0  0  0  0  0
  1  3  4  0
  1  7  4  0
  2  3  1  0
  2  6  4  0
  2 16  4  0
  3 22  4  0
  4  9  4  0
  4 10  1  0
  4 20  4  0
  5 16  4  0
  5 23  4  0
  6 15  4  0
  7 12  4  0
  8 13  4  0
  8 14  4  0
  9 11  4  0
 11 14  4  0
 11 19  4  0
 12 18  4  0
 13 21  4  0
 15 23  4  0
 17 19  4  0
 17 20  4  0
 18 22  4  0
 19 21  4  0
M  END
$$$$

 Created by Python create_sdf_string function

 23 25  0  0  0  0  0  0  0  0999 V2000
    2.4610   -5.3070   29.1240 C   0  0  0  0  0  0  0  0  0  0  0  0
    4.7710   -4.6952   28.4803 C   0  0  0  0  0  0  0  0  0  0  0  0
    3.4047   -5.1087   28.1314 C   0  0  0  0  0  0  0  0  0  0  0  0
   -0.2234  -11.8615   16.8874 C   0  0  0  0  0  0  0  0  0  0  0  0
    6.4491   -4.1532   30.1213 C   0  0  0  0  0  0  0  0  0  0  0  0
    5.7060   -4.4340   27.4975 C   0  0  0  0  0  0  0  0  0  0  0  0
    1.1818   -5.6612   28.8399 C   0  0  0  0  0  0  0  0  0  0  0  0
   -1.2067   -7.3287   17.7772 C   0  0  0  0  0  0  0  0  0  0  0  0
   -0.0206  -10.5585   16.6210 C   0  0  0  0  0  0  0  0  0  0  0  0
    0.3696  -12.7626   16.2169 O   0  0  0  0  0  0  0  0  0  0  0  0
   -0.6895   -9.5676   17.3297 C   0  0  0  0  0  0  0  0  0  0  0  0
    0.8388   -5.8417   27.5264 C   0  0  0  0  0  0  0  0  0  0  0  0
   -2.0709   -7.6637   18.7817 C   0  0  0  0  0  0  0  0  0  0  0  0
   -0.5279   -8.2168   17.0717 C   0  0  0  0  0  0  0  0  0  0  0  0
    6.9694   -4.0191   27.8190 C   0  0  0  0  0  0  0  0  0  0  0  0
    5.1733   -4.5469   29.8123 C   0  0  0  0  0  0  0  0  0  0  0  0
   -1.7508  -11.3016   18.6072 C   0  0  0  0  0  0  0  0  0  0  0  0
    1.7497   -5.6771   26.4971 C   0  0  0  0  0  0  0  0  0  0  0  0
   -1.5799   -9.9322   18.3468 C   0  0  0  0  0  0  0  0  0  0  0  0
   -1.0871  -12.2214   17.8851 C   0  0  0  0  0  0  0  0  0  0  0  0
   -2.2706   -8.9669   19.0691 C   0  0  0  0  0  0  0  0  0  0  0  0
    3.0279   -5.3073   26.8197 C   0  0  0  0  0  0  0  0  0  0  0  0
    7.3282   -3.8948   29.1186 C   0  0  0  0  0  0  0  0  0  0  0  0
  1  3  4  0
  1  7  4  0
  2  3  1  0
  2  6  4  0
  2 16  4  0
  3 22  4  0
  4  9  4  0
  4 10  1  0
  4 20  4  0
  5 16  4  0
  5 23  4  0
  6 15  4  0
  7 12  4  0
  8 13  4  0
  8 14  4  0
  9 11  4  0
 11 14  4  0
 11 19  4  0
 12 18  4  0
 13 21  4  0
 15 23  4  0
 17 19  4  0
 17 20  4  0
 18 22  4  0
 19 21  4  0
M  END
$$$$

 Created by Python create_sdf_string function

 23 25  0  0  0  0  0  0  0  0999 V2000
    2.4610   -5.3070   29.1240 C   0  0  0  0  0  0  0  0  0  0  0  0
    4.7710   -4.6952   28.4803 C   0  0  0  0  0  0  0  0  0  0  0  0
    3.4047   -5.1087   28.1314 C   0  0  0  0  0  0  0  0  0  0  0  0
   -0.2234  -11.8615   16.8874 C   0  0  0  0  0  0  0  0  0  0  0  0
    6.4491   -4.1532   30.1213 C   0  0  0  0  0  0  0  0  0  0  0  0
    5.7060   -4.4340   27.4975 C   0  0  0  0  0  0  0  0  0  0  0  0
    1.1818   -5.6612   28.8399 C   0  0  0  0  0  0  0  0  0  0  0  0
   -1.2067   -7.3287   17.7772 C   0  0  0  0  0  0  0  0  0  0  0  0
   -0.0206  -10.5585   16.6210 C   0  0  0  0  0  0  0  0  0  0  0  0
    0.3696  -12.7626   16.2169 O   0  0  0  0  0  0  0  0  0  0  0  0
   -0.6895   -9.5676   17.3297 C   0  0  0  0  0  0  0  0  0  0  0  0
    0.8388   -5.8417   27.5264 C   0  0  0  0  0  0  0  0  0  0  0  0
   -2.0709   -7.6637   18.7817 C   0  0  0  0  0  0  0  0  0  0  0  0
   -0.5279   -8.2168   17.0717 C   0  0  0  0  0  0  0  0  0  0  0  0
    6.9694   -4.0191   27.8190 C   0  0  0  0  0  0  0  0  0  0  0  0
    5.1733   -4.5469   29.8123 C   0  0  0  0  0  0  0  0  0  0  0  0
   -1.7508  -11.3016   18.6072 C   0  0  0  0  0  0  0  0  0  0  0  0
    1.7497   -5.6771   26.4971 C   0  0  0  0  0  0  0  0  0  0  0  0
   -1.5799   -9.9322   18.3468 C   0  0  0  0  0  0  0  0  0  0  0  0
   -1.0871  -12.2214   17.8851 C   0  0  0  0  0  0  0  0  0  0  0  0
   -2.2706   -8.9669   19.0691 C   0  0  0  0  0  0  0  0  0  0  0  0
    3.0279   -5.3073   26.8197 C   0  0  0  0  0  0  0  0  0  0  0  0
    7.3282   -3.8948   29.1186 C   0  0  0  0  0  0  0  0  0  0  0  0
  1  3  4  0
  1  7  4  0
  2  3  1  0
  2  6  4  0
  2 16  4  0
  3 22  4  0
  4  9  4  0
  4 10  1  0
  4 20  4  0
  5 16  4  0
  5 23  4  0
  6 15  4  0
  7 12  4  0
  8 13  4  0
  8 14  4  0
  9 11  4  0
 11 14  4  0
 11 19  4  0
 12 18  4  0
 13 21  4  0
 15 23  4  0
 17 19  4  0
 17 20  4  0
 18 22  4  0
 19 21  4  0
M  END
$$$$

 Created by Python create_sdf_string function

 23 25  0  0  0  0  0  0  0  0999 V2000
    2.4610   -5.3070   29.1240 C   0  0  0  0  0  0  0  0  0  0  0  0
    4.7710   -4.6952   28.4803 C   0  0  0  0  0  0  0  0  0  0  0  0
    3.4047   -5.1087   28.1314 C   0  0  0  0  0  0  0  0  0  0  0  0
   -0.2234  -11.8615   16.8874 C   0  0  0  0  0  0  0  0  0  0  0  0
    6.4491   -4.1532   30.1213 C   0  0  0  0  0  0  0  0  0  0  0  0
    5.7060   -4.4340   27.4975 C   0  0  0  0  0  0  0  0  0  0  0  0
    1.1818   -5.6612   28.8399 C   0  0  0  0  0  0  0  0  0  0  0  0
   -1.2067   -7.3287   17.7772 C   0  0  0  0  0  0  0  0  0  0  0  0
   -0.0206  -10.5585   16.6210 C   0  0  0  0  0  0  0  0  0  0  0  0
    0.3696  -12.7626   16.2169 O   0  0  0  0  0  0  0  0  0  0  0  0
   -0.6895   -9.5676   17.3297 C   0  0  0  0  0  0  0  0  0  0  0  0
    0.8388   -5.8417   27.5264 C   0  0  0  0  0  0  0  0  0  0  0  0
   -2.0709   -7.6637   18.7817 C   0  0  0  0  0  0  0  0  0  0  0  0
   -0.5279   -8.2168   17.0717 C   0  0  0  0  0  0  0  0  0  0  0  0
    6.9694   -4.0191   27.8190 C   0  0  0  0  0  0  0  0  0  0  0  0
    5.1733   -4.5469   29.8123 C   0  0  0  0  0  0  0  0  0  0  0  0
   -1.7508  -11.3016   18.6072 C   0  0  0  0  0  0  0  0  0  0  0  0
    1.7497   -5.6771   26.4971 C   0  0  0  0  0  0  0  0  0  0  0  0
   -1.5799   -9.9322   18.3468 C   0  0  0  0  0  0  0  0  0  0  0  0
   -1.0871  -12.2214   17.8851 C   0  0  0  0  0  0  0  0  0  0  0  0
   -2.2706   -8.9669   19.0691 C   0  0  0  0  0  0  0  0  0  0  0  0
    3.0279   -5.3073   26.8197 C   0  0  0  0  0  0  0  0  0  0  0  0
    7.3282   -3.8948   29.1186 C   0  0  0  0  0  0  0  0  0  0  0  0
  1  3  4  0
  1  7  4  0
  2  3  1  0
  2  6  4  0
  2 16  4  0
  3 22  4  0
  4  9  4  0
  4 10  1  0
  4 20  4  0
  5 16  4  0
  5 23  4  0
  6 15  4  0
  7 12  4  0
  8 13  4  0
  8 14  4  0
  9 11  4  0
 11 14  4  0
 11 19  4  0
 12 18  4  0
 13 21  4  0
 15 23  4  0
 17 19  4  0
 17 20  4  0
 18 22  4  0
 19 21  4  0
M  END
$$$$

 Created by Python create_sdf_string function

 23 25  0  0  0  0  0  0  0  0999 V2000
    2.4610   -5.3070   29.1240 C   0  0  0  0  0  0  0  0  0  0  0  0
    4.7710   -4.6952   28.4803 C   0  0  0  0  0  0  0  0  0  0  0  0
    3.4047   -5.1087   28.1314 C   0  0  0  0  0  0  0  0  0  0  0  0
   -0.2234  -11.8615   16.8874 C   0  0  0  0  0  0  0  0  0  0  0  0
    6.4491   -4.1532   30.1213 C   0  0  0  0  0  0  0  0  0  0  0  0
    5.7060   -4.4340   27.4975 C   0  0  0  0  0  0  0  0  0  0  0  0
    1.1818   -5.6612   28.8399 C   0  0  0  0  0  0  0  0  0  0  0  0
   -1.2067   -7.3287   17.7772 C   0  0  0  0  0  0  0  0  0  0  0  0
   -0.0206  -10.5585   16.6210 C   0  0  0  0  0  0  0  0  0  0  0  0
    0.3696  -12.7626   16.2169 O   0  0  0  0  0  0  0  0  0  0  0  0
   -0.6895   -9.5676   17.3297 C   0  0  0  0  0  0  0  0  0  0  0  0
    0.8388   -5.8417   27.5264 C   0  0  0  0  0  0  0  0  0  0  0  0
   -2.0709   -7.6637   18.7817 C   0  0  0  0  0  0  0  0  0  0  0  0
   -0.5279   -8.2168   17.0717 C   0  0  0  0  0  0  0  0  0  0  0  0
    6.9694   -4.0191   27.8190 C   0  0  0  0  0  0  0  0  0  0  0  0
    5.1733   -4.5469   29.8123 C   0  0  0  0  0  0  0  0  0  0  0  0
   -1.7508  -11.3016   18.6072 C   0  0  0  0  0  0  0  0  0  0  0  0
    1.7497   -5.6771   26.4971 C   0  0  0  0  0  0  0  0  0  0  0  0
   -1.5799   -9.9322   18.3468 C   0  0  0  0  0  0  0  0  0  0  0  0
   -1.0871  -12.2214   17.8851 C   0  0  0  0  0  0  0  0  0  0  0  0
   -2.2706   -8.9669   19.0691 C   0  0  0  0  0  0  0  0  0  0  0  0
    3.0279   -5.3073   26.8197 C   0  0  0  0  0  0  0  0  0  0  0  0
    7.3282   -3.8948   29.1186 C   0  0  0  0  0  0  0  0  0  0  0  0
  1  3  4  0
  1  7  4  0
  2  3  1  0
  2  6  4  0
  2 16  4  0
  3 22  4  0
  4  9  4  0
  4 10  1  0
  4 20  4  0
  5 16  4  0
  5 23  4  0
  6 15  4  0
  7 12  4  0
  8 13  4  0
  8 14  4  0
  9 11  4  0
 11 14  4  0
 11 19  4  0
 12 18  4  0
 13 21  4  0
 15 23  4  0
 17 19  4  0
 17 20  4  0
 18 22  4  0
 19 21  4  0
M  END
$$$$

 Created by Python create_sdf_string function

 23 25  0  0  0  0  0  0  0  0999 V2000
    2.4610   -5.3070   29.1240 C   0  0  0  0  0  0  0  0  0  0  0  0
    4.7710   -4.6952   28.4803 C   0  0  0  0  0  0  0  0  0  0  0  0
    3.4047   -5.1087   28.1314 C   0  0  0  0  0  0  0  0  0  0  0  0
   -0.2234  -11.8615   16.8874 C   0  0  0  0  0  0  0  0  0  0  0  0
    6.4491   -4.1532   30.1213 C   0  0  0  0  0  0  0  0  0  0  0  0
    5.7060   -4.4340   27.4975 C   0  0  0  0  0  0  0  0  0  0  0  0
    1.1818   -5.6612   28.8399 C   0  0  0  0  0  0  0  0  0  0  0  0
   -1.2067   -7.3287   17.7772 C   0  0  0  0  0  0  0  0  0  0  0  0
   -0.0206  -10.5585   16.6210 C   0  0  0  0  0  0  0  0  0  0  0  0
    0.3696  -12.7626   16.2169 O   0  0  0  0  0  0  0  0  0  0  0  0
   -0.6895   -9.5676   17.3297 C   0  0  0  0  0  0  0  0  0  0  0  0
    0.8388   -5.8417   27.5264 C   0  0  0  0  0  0  0  0  0  0  0  0
   -2.0709   -7.6637   18.7817 C   0  0  0  0  0  0  0  0  0  0  0  0
   -0.5279   -8.2168   17.0717 C   0  0  0  0  0  0  0  0  0  0  0  0
    6.9694   -4.0191   27.8190 C   0  0  0  0  0  0  0  0  0  0  0  0
    5.1733   -4.5469   29.8123 C   0  0  0  0  0  0  0  0  0  0  0  0
   -1.7508  -11.3016   18.6072 C   0  0  0  0  0  0  0  0  0  0  0  0
    1.7497   -5.6771   26.4971 C   0  0  0  0  0  0  0  0  0  0  0  0
   -1.5799   -9.9322   18.3468 C   0  0  0  0  0  0  0  0  0  0  0  0
   -1.0871  -12.2214   17.8851 C   0  0  0  0  0  0  0  0  0  0  0  0
   -2.2706   -8.9669   19.0691 C   0  0  0  0  0  0  0  0  0  0  0  0
    3.0279   -5.3073   26.8197 C   0  0  0  0  0  0  0  0  0  0  0  0
    7.3282   -3.8948   29.1186 C   0  0  0  0  0  0  0  0  0  0  0  0
  1  3  4  0
  1  7  4  0
  2  3  1  0
  2  6  4  0
  2 16  4  0
  3 22  4  0
  4  9  4  0
  4 10  1  0
  4 20  4  0
  5 16  4  0
  5 23  4  0
  6 15  4  0
  7 12  4  0
  8 13  4  0
  8 14  4  0
  9 11  4  0
 11 14  4  0
 11 19  4  0
 12 18  4  0
 13 21  4  0
 15 23  4  0
 17 19  4  0
 17 20  4  0
 18 22  4  0
 19 21  4  0
M  END
$$$$

 Created by Python create_sdf_string function

 23 25  0  0  0  0  0  0  0  0999 V2000
    2.4610   -5.3070   29.1240 C   0  0  0  0  0  0  0  0  0  0  0  0
    4.7710   -4.6952   28.4803 C   0  0  0  0  0  0  0  0  0  0  0  0
    3.4047   -5.1087   28.1314 C   0  0  0  0  0  0  0  0  0  0  0  0
   -0.2234  -11.8615   16.8874 C   0  0  0  0  0  0  0  0  0  0  0  0
    6.4491   -4.1532   30.1213 C   0  0  0  0  0  0  0  0  0  0  0  0
    5.7060   -4.4340   27.4975 C   0  0  0  0  0  0  0  0  0  0  0  0
    1.1818   -5.6612   28.8399 C   0  0  0  0  0  0  0  0  0  0  0  0
   -1.2067   -7.3287   17.7772 C   0  0  0  0  0  0  0  0  0  0  0  0
   -0.0206  -10.5585   16.6210 C   0  0  0  0  0  0  0  0  0  0  0  0
    0.3696  -12.7626   16.2169 O   0  0  0  0  0  0  0  0  0  0  0  0
   -0.6895   -9.5676   17.3297 C   0  0  0  0  0  0  0  0  0  0  0  0
    0.8388   -5.8417   27.5264 C   0  0  0  0  0  0  0  0  0  0  0  0
   -2.0709   -7.6637   18.7817 C   0  0  0  0  0  0  0  0  0  0  0  0
   -0.5279   -8.2168   17.0717 C   0  0  0  0  0  0  0  0  0  0  0  0
    6.9694   -4.0191   27.8190 C   0  0  0  0  0  0  0  0  0  0  0  0
    5.1733   -4.5469   29.8123 C   0  0  0  0  0  0  0  0  0  0  0  0
   -1.7508  -11.3016   18.6072 C   0  0  0  0  0  0  0  0  0  0  0  0
    1.7497   -5.6771   26.4971 C   0  0  0  0  0  0  0  0  0  0  0  0
   -1.5799   -9.9322   18.3468 C   0  0  0  0  0  0  0  0  0  0  0  0
   -1.0871  -12.2214   17.8851 C   0  0  0  0  0  0  0  0  0  0  0  0
   -2.2706   -8.9669   19.0691 C   0  0  0  0  0  0  0  0  0  0  0  0
    3.0279   -5.3073   26.8197 C   0  0  0  0  0  0  0  0  0  0  0  0
    7.3282   -3.8948   29.1186 C   0  0  0  0  0  0  0  0  0  0  0  0
  1  3  4  0
  1  7  4  0
  2  3  1  0
  2  6  4  0
  2 16  4  0
  3 22  4  0
  4  9  4  0
  4 10  1  0
  4 20  4  0
  5 16  4  0
  5 23  4  0
  6 15  4  0
  7 12  4  0
  8 13  4  0
  8 14  4  0
  9 11  4  0
 11 14  4  0
 11 19  4  0
 12 18  4  0
 13 21  4  0
 15 23  4  0
 17 19  4  0
 17 20  4  0
 18 22  4  0
 19 21  4  0
M  END
$$$$

 Created by Python create_sdf_string function

 23 25  0  0  0  0  0  0  0  0999 V2000
    2.4610   -5.3070   29.1240 C   0  0  0  0  0  0  0  0  0  0  0  0
    4.7710   -4.6952   28.4803 C   0  0  0  0  0  0  0  0  0  0  0  0
    3.4047   -5.1087   28.1314 C   0  0  0  0  0  0  0  0  0  0  0  0
   -0.2234  -11.8615   16.8874 C   0  0  0  0  0  0  0  0  0  0  0  0
    6.4491   -4.1532   30.1213 C   0  0  0  0  0  0  0  0  0  0  0  0
    5.7060   -4.4340   27.4975 C   0  0  0  0  0  0  0  0  0  0  0  0
    1.1818   -5.6612   28.8399 C   0  0  0  0  0  0  0  0  0  0  0  0
   -1.2067   -7.3287   17.7772 C   0  0  0  0  0  0  0  0  0  0  0  0
   -0.0206  -10.5585   16.6210 C   0  0  0  0  0  0  0  0  0  0  0  0
    0.3696  -12.7626   16.2169 O   0  0  0  0  0  0  0  0  0  0  0  0
   -0.6895   -9.5676   17.3297 C   0  0  0  0  0  0  0  0  0  0  0  0
    0.8388   -5.8417   27.5264 C   0  0  0  0  0  0  0  0  0  0  0  0
   -2.0709   -7.6637   18.7817 C   0  0  0  0  0  0  0  0  0  0  0  0
   -0.5279   -8.2168   17.0717 C   0  0  0  0  0  0  0  0  0  0  0  0
    6.9694   -4.0191   27.8190 C   0  0  0  0  0  0  0  0  0  0  0  0
    5.1733   -4.5469   29.8123 C   0  0  0  0  0  0  0  0  0  0  0  0
   -1.7508  -11.3016   18.6072 C   0  0  0  0  0  0  0  0  0  0  0  0
    1.7497   -5.6771   26.4971 C   0  0  0  0  0  0  0  0  0  0  0  0
   -1.5799   -9.9322   18.3468 C   0  0  0  0  0  0  0  0  0  0  0  0
   -1.0871  -12.2214   17.8851 C   0  0  0  0  0  0  0  0  0  0  0  0
   -2.2706   -8.9669   19.0691 C   0  0  0  0  0  0  0  0  0  0  0  0
    3.0279   -5.3073   26.8197 C   0  0  0  0  0  0  0  0  0  0  0  0
    7.3282   -3.8948   29.1186 C   0  0  0  0  0  0  0  0  0  0  0  0
  1  3  4  0
  1  7  4  0
  2  3  1  0
  2  6  4  0
  2 16  4  0
  3 22  4  0
  4  9  4  0
  4 10  1  0
  4 20  4  0
  5 16  4  0
  5 23  4  0
  6 15  4  0
  7 12  4  0
  8 13  4  0
  8 14  4  0
  9 11  4  0
 11 14  4  0
 11 19  4  0
 12 18  4  0
 13 21  4  0
 15 23  4  0
 17 19  4  0
 17 20  4  0
 18 22  4  0
 19 21  4  0
M  END
$$$$

 Created by Python create_sdf_string function

 23 25  0  0  0  0  0  0  0  0999 V2000
    2.4610   -5.3070   29.1240 C   0  0  0  0  0  0  0  0  0  0  0  0
    4.7710   -4.6952   28.4803 C   0  0  0  0  0  0  0  0  0  0  0  0
    3.4047   -5.1087   28.1314 C   0  0  0  0  0  0  0  0  0  0  0  0
   -0.2234  -11.8615   16.8874 C   0  0  0  0  0  0  0  0  0  0  0  0
    6.4491   -4.1532   30.1213 C   0  0  0  0  0  0  0  0  0  0  0  0
    5.7060   -4.4340   27.4975 C   0  0  0  0  0  0  0  0  0  0  0  0
    1.1818   -5.6612   28.8399 C   0  0  0  0  0  0  0  0  0  0  0  0
   -1.2067   -7.3287   17.7772 C   0  0  0  0  0  0  0  0  0  0  0  0
   -0.0206  -10.5585   16.6210 C   0  0  0  0  0  0  0  0  0  0  0  0
    0.3696  -12.7626   16.2169 O   0  0  0  0  0  0  0  0  0  0  0  0
   -0.6895   -9.5676   17.3297 C   0  0  0  0  0  0  0  0  0  0  0  0
    0.8388   -5.8417   27.5264 C   0  0  0  0  0  0  0  0  0  0  0  0
   -2.0709   -7.6637   18.7817 C   0  0  0  0  0  0  0  0  0  0  0  0
   -0.5279   -8.2168   17.0717 C   0  0  0  0  0  0  0  0  0  0  0  0
    6.9694   -4.0191   27.8190 C   0  0  0  0  0  0  0  0  0  0  0  0
    5.1733   -4.5469   29.8123 C   0  0  0  0  0  0  0  0  0  0  0  0
   -1.7508  -11.3016   18.6072 C   0  0  0  0  0  0  0  0  0  0  0  0
    1.7497   -5.6771   26.4971 C   0  0  0  0  0  0  0  0  0  0  0  0
   -1.5799   -9.9322   18.3468 C   0  0  0  0  0  0  0  0  0  0  0  0
   -1.0871  -12.2214   17.8851 C   0  0  0  0  0  0  0  0  0  0  0  0
   -2.2706   -8.9669   19.0691 C   0  0  0  0  0  0  0  0  0  0  0  0
    3.0279   -5.3073   26.8197 C   0  0  0  0  0  0  0  0  0  0  0  0
    7.3282   -3.8948   29.1186 C   0  0  0  0  0  0  0  0  0  0  0  0
  1  3  4  0
  1  7  4  0
  2  3  1  0
  2  6  4  0
  2 16  4  0
  3 22  4  0
  4  9  4  0
  4 10  1  0
  4 20  4  0
  5 16  4  0
  5 23  4  0
  6 15  4  0
  7 12  4  0
  8 13  4  0
  8 14  4  0
  9 11  4  0
 11 14  4  0
 11 19  4  0
 12 18  4  0
 13 21  4  0
 15 23  4  0
 17 19  4  0
 17 20  4  0
 18 22  4  0
 19 21  4  0
M  END
$$$$

 Created by Python create_sdf_string function

 23 25  0  0  0  0  0  0  0  0999 V2000
    2.4610   -5.3070   29.1240 C   0  0  0  0  0  0  0  0  0  0  0  0
    4.7710   -4.6952   28.4803 C   0  0  0  0  0  0  0  0  0  0  0  0
    3.4047   -5.1087   28.1314 C   0  0  0  0  0  0  0  0  0  0  0  0
   -0.2234  -11.8615   16.8874 C   0  0  0  0  0  0  0  0  0  0  0  0
    6.4491   -4.1532   30.1213 C   0  0  0  0  0  0  0  0  0  0  0  0
    5.7060   -4.4340   27.4975 C   0  0  0  0  0  0  0  0  0  0  0  0
    1.1818   -5.6612   28.8399 C   0  0  0  0  0  0  0  0  0  0  0  0
   -1.2067   -7.3287   17.7772 C   0  0  0  0  0  0  0  0  0  0  0  0
   -0.0206  -10.5585   16.6210 C   0  0  0  0  0  0  0  0  0  0  0  0
    0.3696  -12.7626   16.2169 O   0  0  0  0  0  0  0  0  0  0  0  0
   -0.6895   -9.5676   17.3297 C   0  0  0  0  0  0  0  0  0  0  0  0
    0.8388   -5.8417   27.5264 C   0  0  0  0  0  0  0  0  0  0  0  0
   -2.0709   -7.6637   18.7817 C   0  0  0  0  0  0  0  0  0  0  0  0
   -0.5279   -8.2168   17.0717 C   0  0  0  0  0  0  0  0  0  0  0  0
    6.9694   -4.0191   27.8190 C   0  0  0  0  0  0  0  0  0  0  0  0
    5.1733   -4.5469   29.8123 C   0  0  0  0  0  0  0  0  0  0  0  0
   -1.7508  -11.3016   18.6072 C   0  0  0  0  0  0  0  0  0  0  0  0
    1.7497   -5.6771   26.4971 C   0  0  0  0  0  0  0  0  0  0  0  0
   -1.5799   -9.9322   18.3468 C   0  0  0  0  0  0  0  0  0  0  0  0
   -1.0871  -12.2214   17.8851 C   0  0  0  0  0  0  0  0  0  0  0  0
   -2.2706   -8.9669   19.0691 C   0  0  0  0  0  0  0  0  0  0  0  0
    3.0279   -5.3073   26.8197 C   0  0  0  0  0  0  0  0  0  0  0  0
    7.3282   -3.8948   29.1186 C   0  0  0  0  0  0  0  0  0  0  0  0
  1  3  4  0
  1  7  4  0
  2  3  1  0
  2  6  4  0
  2 16  4  0
  3 22  4  0
  4  9  4  0
  4 10  1  0
  4 20  4  0
  5 16  4  0
  5 23  4  0
  6 15  4  0
  7 12  4  0
  8 13  4  0
  8 14  4  0
  9 11  4  0
 11 14  4  0
 11 19  4  0
 12 18  4  0
 13 21  4  0
 15 23  4  0
 17 19  4  0
 17 20  4  0
 18 22  4  0
 19 21  4  0
M  END
$$$$

 Created by Python create_sdf_string function

 23 25  0  0  0  0  0  0  0  0999 V2000
    2.4610   -5.3070   29.1240 C   0  0  0  0  0  0  0  0  0  0  0  0
    4.7710   -4.6952   28.4803 C   0  0  0  0  0  0  0  0  0  0  0  0
    3.4047   -5.1087   28.1314 C   0  0  0  0  0  0  0  0  0  0  0  0
   -0.2234  -11.8615   16.8874 C   0  0  0  0  0  0  0  0  0  0  0  0
    6.4491   -4.1532   30.1213 C   0  0  0  0  0  0  0  0  0  0  0  0
    5.7060   -4.4340   27.4975 C   0  0  0  0  0  0  0  0  0  0  0  0
    1.1818   -5.6612   28.8399 C   0  0  0  0  0  0  0  0  0  0  0  0
   -1.2067   -7.3287   17.7772 C   0  0  0  0  0  0  0  0  0  0  0  0
   -0.0206  -10.5585   16.6210 C   0  0  0  0  0  0  0  0  0  0  0  0
    0.3696  -12.7626   16.2169 O   0  0  0  0  0  0  0  0  0  0  0  0
   -0.6895   -9.5676   17.3297 C   0  0  0  0  0  0  0  0  0  0  0  0
    0.8388   -5.8417   27.5264 C   0  0  0  0  0  0  0  0  0  0  0  0
   -2.0709   -7.6637   18.7817 C   0  0  0  0  0  0  0  0  0  0  0  0
   -0.5279   -8.2168   17.0717 C   0  0  0  0  0  0  0  0  0  0  0  0
    6.9694   -4.0191   27.8190 C   0  0  0  0  0  0  0  0  0  0  0  0
    5.1733   -4.5469   29.8123 C   0  0  0  0  0  0  0  0  0  0  0  0
   -1.7508  -11.3016   18.6072 C   0  0  0  0  0  0  0  0  0  0  0  0
    1.7497   -5.6771   26.4971 C   0  0  0  0  0  0  0  0  0  0  0  0
   -1.5799   -9.9322   18.3468 C   0  0  0  0  0  0  0  0  0  0  0  0
   -1.0871  -12.2214   17.8851 C   0  0  0  0  0  0  0  0  0  0  0  0
   -2.2706   -8.9669   19.0691 C   0  0  0  0  0  0  0  0  0  0  0  0
    3.0279   -5.3073   26.8197 C   0  0  0  0  0  0  0  0  0  0  0  0
    7.3282   -3.8948   29.1186 C   0  0  0  0  0  0  0  0  0  0  0  0
  1  3  4  0
  1  7  4  0
  2  3  1  0
  2  6  4  0
  2 16  4  0
  3 22  4  0
  4  9  4  0
  4 10  1  0
  4 20  4  0
  5 16  4  0
  5 23  4  0
  6 15  4  0
  7 12  4  0
  8 13  4  0
  8 14  4  0
  9 11  4  0
 11 14  4  0
 11 19  4  0
 12 18  4  0
 13 21  4  0
 15 23  4  0
 17 19  4  0
 17 20  4  0
 18 22  4  0
 19 21  4  0
M  END
$$$$

 Created by Python create_sdf_string function

 23 25  0  0  0  0  0  0  0  0999 V2000
    2.4610   -5.3070   29.1240 C   0  0  0  0  0  0  0  0  0  0  0  0
    4.7710   -4.6952   28.4803 C   0  0  0  0  0  0  0  0  0  0  0  0
    3.4047   -5.1087   28.1314 C   0  0  0  0  0  0  0  0  0  0  0  0
   -0.2234  -11.8615   16.8874 C   0  0  0  0  0  0  0  0  0  0  0  0
    6.4491   -4.1532   30.1213 C   0  0  0  0  0  0  0  0  0  0  0  0
    5.7060   -4.4340   27.4975 C   0  0  0  0  0  0  0  0  0  0  0  0
    1.1818   -5.6612   28.8399 C   0  0  0  0  0  0  0  0  0  0  0  0
   -1.2067   -7.3287   17.7772 C   0  0  0  0  0  0  0  0  0  0  0  0
   -0.0206  -10.5585   16.6210 C   0  0  0  0  0  0  0  0  0  0  0  0
    0.3696  -12.7626   16.2169 O   0  0  0  0  0  0  0  0  0  0  0  0
   -0.6895   -9.5676   17.3297 C   0  0  0  0  0  0  0  0  0  0  0  0
    0.8388   -5.8417   27.5264 C   0  0  0  0  0  0  0  0  0  0  0  0
   -2.0709   -7.6637   18.7817 C   0  0  0  0  0  0  0  0  0  0  0  0
   -0.5279   -8.2168   17.0717 C   0  0  0  0  0  0  0  0  0  0  0  0
    6.9694   -4.0191   27.8190 C   0  0  0  0  0  0  0  0  0  0  0  0
    5.1733   -4.5469   29.8123 C   0  0  0  0  0  0  0  0  0  0  0  0
   -1.7508  -11.3016   18.6072 C   0  0  0  0  0  0  0  0  0  0  0  0
    1.7497   -5.6771   26.4971 C   0  0  0  0  0  0  0  0  0  0  0  0
   -1.5799   -9.9322   18.3468 C   0  0  0  0  0  0  0  0  0  0  0  0
   -1.0871  -12.2214   17.8851 C   0  0  0  0  0  0  0  0  0  0  0  0
   -2.2706   -8.9669   19.0691 C   0  0  0  0  0  0  0  0  0  0  0  0
    3.0279   -5.3073   26.8197 C   0  0  0  0  0  0  0  0  0  0  0  0
    7.3282   -3.8948   29.1186 C   0  0  0  0  0  0  0  0  0  0  0  0
  1  3  4  0
  1  7  4  0
  2  3  1  0
  2  6  4  0
  2 16  4  0
  3 22  4  0
  4  9  4  0
  4 10  1  0
  4 20  4  0
  5 16  4  0
  5 23  4  0
  6 15  4  0
  7 12  4  0
  8 13  4  0
  8 14  4  0
  9 11  4  0
 11 14  4  0
 11 19  4  0
 12 18  4  0
 13 21  4  0
 15 23  4  0
 17 19  4  0
 17 20  4  0
 18 22  4  0
 19 21  4  0
M  END
$$$$

 Created by Python create_sdf_string function

 23 25  0  0  0  0  0  0  0  0999 V2000
    2.4610   -5.3070   29.1240 C   0  0  0  0  0  0  0  0  0  0  0  0
    4.7710   -4.6952   28.4803 C   0  0  0  0  0  0  0  0  0  0  0  0
    3.4047   -5.1087   28.1314 C   0  0  0  0  0  0  0  0  0  0  0  0
   -0.2234  -11.8615   16.8874 C   0  0  0  0  0  0  0  0  0  0  0  0
    6.4491   -4.1532   30.1213 C   0  0  0  0  0  0  0  0  0  0  0  0
    5.7060   -4.4340   27.4975 C   0  0  0  0  0  0  0  0  0  0  0  0
    1.1818   -5.6612   28.8399 C   0  0  0  0  0  0  0  0  0  0  0  0
   -1.2067   -7.3287   17.7772 C   0  0  0  0  0  0  0  0  0  0  0  0
   -0.0206  -10.5585   16.6210 C   0  0  0  0  0  0  0  0  0  0  0  0
    0.3696  -12.7626   16.2169 O   0  0  0  0  0  0  0  0  0  0  0  0
   -0.6895   -9.5676   17.3297 C   0  0  0  0  0  0  0  0  0  0  0  0
    0.8388   -5.8417   27.5264 C   0  0  0  0  0  0  0  0  0  0  0  0
   -2.0709   -7.6637   18.7817 C   0  0  0  0  0  0  0  0  0  0  0  0
   -0.5279   -8.2168   17.0717 C   0  0  0  0  0  0  0  0  0  0  0  0
    6.9694   -4.0191   27.8190 C   0  0  0  0  0  0  0  0  0  0  0  0
    5.1733   -4.5469   29.8123 C   0  0  0  0  0  0  0  0  0  0  0  0
   -1.7508  -11.3016   18.6072 C   0  0  0  0  0  0  0  0  0  0  0  0
    1.7497   -5.6771   26.4971 C   0  0  0  0  0  0  0  0  0  0  0  0
   -1.5799   -9.9322   18.3468 C   0  0  0  0  0  0  0  0  0  0  0  0
   -1.0871  -12.2214   17.8851 C   0  0  0  0  0  0  0  0  0  0  0  0
   -2.2706   -8.9669   19.0691 C   0  0  0  0  0  0  0  0  0  0  0  0
    3.0279   -5.3073   26.8197 C   0  0  0  0  0  0  0  0  0  0  0  0
    7.3282   -3.8948   29.1186 C   0  0  0  0  0  0  0  0  0  0  0  0
  1  3  4  0
  1  7  4  0
  2  3  1  0
  2  6  4  0
  2 16  4  0
  3 22  4  0
  4  9  4  0
  4 10  1  0
  4 20  4  0
  5 16  4  0
  5 23  4  0
  6 15  4  0
  7 12  4  0
  8 13  4  0
  8 14  4  0
  9 11  4  0
 11 14  4  0
 11 19  4  0
 12 18  4  0
 13 21  4  0
 15 23  4  0
 17 19  4  0
 17 20  4  0
 18 22  4  0
 19 21  4  0
M  END
$$$$

 Created by Python create_sdf_string function

 23 25  0  0  0  0  0  0  0  0999 V2000
    2.4610   -5.3070   29.1240 C   0  0  0  0  0  0  0  0  0  0  0  0
    4.7710   -4.6952   28.4803 C   0  0  0  0  0  0  0  0  0  0  0  0
    3.4047   -5.1087   28.1314 C   0  0  0  0  0  0  0  0  0  0  0  0
   -0.2234  -11.8615   16.8874 C   0  0  0  0  0  0  0  0  0  0  0  0
    6.4491   -4.1532   30.1213 C   0  0  0  0  0  0  0  0  0  0  0  0
    5.7060   -4.4340   27.4975 C   0  0  0  0  0  0  0  0  0  0  0  0
    1.1818   -5.6612   28.8399 C   0  0  0  0  0  0  0  0  0  0  0  0
   -1.2067   -7.3287   17.7772 C   0  0  0  0  0  0  0  0  0  0  0  0
   -0.0206  -10.5585   16.6210 C   0  0  0  0  0  0  0  0  0  0  0  0
    0.3696  -12.7626   16.2169 O   0  0  0  0  0  0  0  0  0  0  0  0
   -0.6895   -9.5676   17.3297 C   0  0  0  0  0  0  0  0  0  0  0  0
    0.8388   -5.8417   27.5264 C   0  0  0  0  0  0  0  0  0  0  0  0
   -2.0709   -7.6637   18.7817 C   0  0  0  0  0  0  0  0  0  0  0  0
   -0.5279   -8.2168   17.0717 C   0  0  0  0  0  0  0  0  0  0  0  0
    6.9694   -4.0191   27.8190 C   0  0  0  0  0  0  0  0  0  0  0  0
    5.1733   -4.5469   29.8123 C   0  0  0  0  0  0  0  0  0  0  0  0
   -1.7508  -11.3016   18.6072 C   0  0  0  0  0  0  0  0  0  0  0  0
    1.7497   -5.6771   26.4971 C   0  0  0  0  0  0  0  0  0  0  0  0
   -1.5799   -9.9322   18.3468 C   0  0  0  0  0  0  0  0  0  0  0  0
   -1.0871  -12.2214   17.8851 C   0  0  0  0  0  0  0  0  0  0  0  0
   -2.2706   -8.9669   19.0691 C   0  0  0  0  0  0  0  0  0  0  0  0
    3.0279   -5.3073   26.8197 C   0  0  0  0  0  0  0  0  0  0  0  0
    7.3282   -3.8948   29.1186 C   0  0  0  0  0  0  0  0  0  0  0  0
  1  3  4  0
  1  7  4  0
  2  3  1  0
  2  6  4  0
  2 16  4  0
  3 22  4  0
  4  9  4  0
  4 10  1  0
  4 20  4  0
  5 16  4  0
  5 23  4  0
  6 15  4  0
  7 12  4  0
  8 13  4  0
  8 14  4  0
  9 11  4  0
 11 14  4  0
 11 19  4  0
 12 18  4  0
 13 21  4  0
 15 23  4  0
 17 19  4  0
 17 20  4  0
 18 22  4  0
 19 21  4  0
M  END
$$$$

 Created by Python create_sdf_string function

 23 25  0  0  0  0  0  0  0  0999 V2000
    2.4610   -5.3070   29.1240 C   0  0  0  0  0  0  0  0  0  0  0  0
    4.7710   -4.6952   28.4803 C   0  0  0  0  0  0  0  0  0  0  0  0
    3.4047   -5.1087   28.1314 C   0  0  0  0  0  0  0  0  0  0  0  0
   -0.2234  -11.8615   16.8874 C   0  0  0  0  0  0  0  0  0  0  0  0
    6.4491   -4.1532   30.1213 C   0  0  0  0  0  0  0  0  0  0  0  0
    5.7060   -4.4340   27.4975 C   0  0  0  0  0  0  0  0  0  0  0  0
    1.1818   -5.6612   28.8399 C   0  0  0  0  0  0  0  0  0  0  0  0
   -1.2067   -7.3287   17.7772 C   0  0  0  0  0  0  0  0  0  0  0  0
   -0.0206  -10.5585   16.6210 C   0  0  0  0  0  0  0  0  0  0  0  0
    0.3696  -12.7626   16.2169 O   0  0  0  0  0  0  0  0  0  0  0  0
   -0.6895   -9.5676   17.3297 C   0  0  0  0  0  0  0  0  0  0  0  0
    0.8388   -5.8417   27.5264 C   0  0  0  0  0  0  0  0  0  0  0  0
   -2.0709   -7.6637   18.7817 C   0  0  0  0  0  0  0  0  0  0  0  0
   -0.5279   -8.2168   17.0717 C   0  0  0  0  0  0  0  0  0  0  0  0
    6.9694   -4.0191   27.8190 C   0  0  0  0  0  0  0  0  0  0  0  0
    5.1733   -4.5469   29.8123 C   0  0  0  0  0  0  0  0  0  0  0  0
   -1.7508  -11.3016   18.6072 C   0  0  0  0  0  0  0  0  0  0  0  0
    1.7497   -5.6771   26.4971 C   0  0  0  0  0  0  0  0  0  0  0  0
   -1.5799   -9.9322   18.3468 C   0  0  0  0  0  0  0  0  0  0  0  0
   -1.0871  -12.2214   17.8851 C   0  0  0  0  0  0  0  0  0  0  0  0
   -2.2706   -8.9669   19.0691 C   0  0  0  0  0  0  0  0  0  0  0  0
    3.0279   -5.3073   26.8197 C   0  0  0  0  0  0  0  0  0  0  0  0
    7.3282   -3.8948   29.1186 C   0  0  0  0  0  0  0  0  0  0  0  0
  1  3  4  0
  1  7  4  0
  2  3  1  0
  2  6  4  0
  2 16  4  0
  3 22  4  0
  4  9  4  0
  4 10  1  0
  4 20  4  0
  5 16  4  0
  5 23  4  0
  6 15  4  0
  7 12  4  0
  8 13  4  0
  8 14  4  0
  9 11  4  0
 11 14  4  0
 11 19  4  0
 12 18  4  0
 13 21  4  0
 15 23  4  0
 17 19  4  0
 17 20  4  0
 18 22  4  0
 19 21  4  0
M  END
$$$$

 Created by Python create_sdf_string function

 23 25  0  0  0  0  0  0  0  0999 V2000
    2.4610   -5.3070   29.1240 C   0  0  0  0  0  0  0  0  0  0  0  0
    4.7710   -4.6952   28.4803 C   0  0  0  0  0  0  0  0  0  0  0  0
    3.4047   -5.1087   28.1314 C   0  0  0  0  0  0  0  0  0  0  0  0
   -0.2234  -11.8615   16.8874 C   0  0  0  0  0  0  0  0  0  0  0  0
    6.4491   -4.1532   30.1213 C   0  0  0  0  0  0  0  0  0  0  0  0
    5.7060   -4.4340   27.4975 C   0  0  0  0  0  0  0  0  0  0  0  0
    1.1818   -5.6612   28.8399 C   0  0  0  0  0  0  0  0  0  0  0  0
   -1.2067   -7.3287   17.7772 C   0  0  0  0  0  0  0  0  0  0  0  0
   -0.0206  -10.5585   16.6210 C   0  0  0  0  0  0  0  0  0  0  0  0
    0.3696  -12.7626   16.2169 O   0  0  0  0  0  0  0  0  0  0  0  0
   -0.6895   -9.5676   17.3297 C   0  0  0  0  0  0  0  0  0  0  0  0
    0.8388   -5.8417   27.5264 C   0  0  0  0  0  0  0  0  0  0  0  0
   -2.0709   -7.6637   18.7817 C   0  0  0  0  0  0  0  0  0  0  0  0
   -0.5279   -8.2168   17.0717 C   0  0  0  0  0  0  0  0  0  0  0  0
    6.9694   -4.0191   27.8190 C   0  0  0  0  0  0  0  0  0  0  0  0
    5.1733   -4.5469   29.8123 C   0  0  0  0  0  0  0  0  0  0  0  0
   -1.7508  -11.3016   18.6072 C   0  0  0  0  0  0  0  0  0  0  0  0
    1.7497   -5.6771   26.4971 C   0  0  0  0  0  0  0  0  0  0  0  0
   -1.5799   -9.9322   18.3468 C   0  0  0  0  0  0  0  0  0  0  0  0
   -1.0871  -12.2214   17.8851 C   0  0  0  0  0  0  0  0  0  0  0  0
   -2.2706   -8.9669   19.0691 C   0  0  0  0  0  0  0  0  0  0  0  0
    3.0279   -5.3073   26.8197 C   0  0  0  0  0  0  0  0  0  0  0  0
    7.3282   -3.8948   29.1186 C   0  0  0  0  0  0  0  0  0  0  0  0
  1  3  4  0
  1  7  4  0
  2  3  1  0
  2  6  4  0
  2 16  4  0
  3 22  4  0
  4  9  4  0
  4 10  1  0
  4 20  4  0
  5 16  4  0
  5 23  4  0
  6 15  4  0
  7 12  4  0
  8 13  4  0
  8 14  4  0
  9 11  4  0
 11 14  4  0
 11 19  4  0
 12 18  4  0
 13 21  4  0
 15 23  4  0
 17 19  4  0
 17 20  4  0
 18 22  4  0
 19 21  4  0
M  END
$$$$

 Created by Python create_sdf_string function

 23 25  0  0  0  0  0  0  0  0999 V2000
    2.4610   -5.3070   29.1240 C   0  0  0  0  0  0  0  0  0  0  0  0
    4.7710   -4.6952   28.4803 C   0  0  0  0  0  0  0  0  0  0  0  0
    3.4047   -5.1087   28.1314 C   0  0  0  0  0  0  0  0  0  0  0  0
   -0.2234  -11.8615   16.8874 C   0  0  0  0  0  0  0  0  0  0  0  0
    6.4491   -4.1532   30.1213 C   0  0  0  0  0  0  0  0  0  0  0  0
    5.7060   -4.4340   27.4975 C   0  0  0  0  0  0  0  0  0  0  0  0
    1.1818   -5.6612   28.8399 C   0  0  0  0  0  0  0  0  0  0  0  0
   -1.2067   -7.3287   17.7772 C   0  0  0  0  0  0  0  0  0  0  0  0
   -0.0206  -10.5585   16.6210 C   0  0  0  0  0  0  0  0  0  0  0  0
    0.3696  -12.7626   16.2169 O   0  0  0  0  0  0  0  0  0  0  0  0
   -0.6895   -9.5676   17.3297 C   0  0  0  0  0  0  0  0  0  0  0  0
    0.8388   -5.8417   27.5264 C   0  0  0  0  0  0  0  0  0  0  0  0
   -2.0709   -7.6637   18.7817 C   0  0  0  0  0  0  0  0  0  0  0  0
   -0.5279   -8.2168   17.0717 C   0  0  0  0  0  0  0  0  0  0  0  0
    6.9694   -4.0191   27.8190 C   0  0  0  0  0  0  0  0  0  0  0  0
    5.1733   -4.5469   29.8123 C   0  0  0  0  0  0  0  0  0  0  0  0
   -1.7508  -11.3016   18.6072 C   0  0  0  0  0  0  0  0  0  0  0  0
    1.7497   -5.6771   26.4971 C   0  0  0  0  0  0  0  0  0  0  0  0
   -1.5799   -9.9322   18.3468 C   0  0  0  0  0  0  0  0  0  0  0  0
   -1.0871  -12.2214   17.8851 C   0  0  0  0  0  0  0  0  0  0  0  0
   -2.2706   -8.9669   19.0691 C   0  0  0  0  0  0  0  0  0  0  0  0
    3.0279   -5.3073   26.8197 C   0  0  0  0  0  0  0  0  0  0  0  0
    7.3282   -3.8948   29.1186 C   0  0  0  0  0  0  0  0  0  0  0  0
  1  3  4  0
  1  7  4  0
  2  3  1  0
  2  6  4  0
  2 16  4  0
  3 22  4  0
  4  9  4  0
  4 10  1  0
  4 20  4  0
  5 16  4  0
  5 23  4  0
  6 15  4  0
  7 12  4  0
  8 13  4  0
  8 14  4  0
  9 11  4  0
 11 14  4  0
 11 19  4  0
 12 18  4  0
 13 21  4  0
 15 23  4  0
 17 19  4  0
 17 20  4  0
 18 22  4  0
 19 21  4  0
M  END
$$$$

 Created by Python create_sdf_string function

 23 25  0  0  0  0  0  0  0  0999 V2000
    2.4610   -5.3070   29.1240 C   0  0  0  0  0  0  0  0  0  0  0  0
    4.7710   -4.6952   28.4803 C   0  0  0  0  0  0  0  0  0  0  0  0
    3.4047   -5.1087   28.1314 C   0  0  0  0  0  0  0  0  0  0  0  0
   -0.2234  -11.8615   16.8874 C   0  0  0  0  0  0  0  0  0  0  0  0
    6.4491   -4.1532   30.1213 C   0  0  0  0  0  0  0  0  0  0  0  0
    5.7060   -4.4340   27.4975 C   0  0  0  0  0  0  0  0  0  0  0  0
    1.1818   -5.6612   28.8399 C   0  0  0  0  0  0  0  0  0  0  0  0
   -1.2067   -7.3287   17.7772 C   0  0  0  0  0  0  0  0  0  0  0  0
   -0.0206  -10.5585   16.6210 C   0  0  0  0  0  0  0  0  0  0  0  0
    0.3696  -12.7626   16.2169 O   0  0  0  0  0  0  0  0  0  0  0  0
   -0.6895   -9.5676   17.3297 C   0  0  0  0  0  0  0  0  0  0  0  0
    0.8388   -5.8417   27.5264 C   0  0  0  0  0  0  0  0  0  0  0  0
   -2.0709   -7.6637   18.7817 C   0  0  0  0  0  0  0  0  0  0  0  0
   -0.5279   -8.2168   17.0717 C   0  0  0  0  0  0  0  0  0  0  0  0
    6.9694   -4.0191   27.8190 C   0  0  0  0  0  0  0  0  0  0  0  0
    5.1733   -4.5469   29.8123 C   0  0  0  0  0  0  0  0  0  0  0  0
   -1.7508  -11.3016   18.6072 C   0  0  0  0  0  0  0  0  0  0  0  0
    1.7497   -5.6771   26.4971 C   0  0  0  0  0  0  0  0  0  0  0  0
   -1.5799   -9.9322   18.3468 C   0  0  0  0  0  0  0  0  0  0  0  0
   -1.0871  -12.2214   17.8851 C   0  0  0  0  0  0  0  0  0  0  0  0
   -2.2706   -8.9669   19.0691 C   0  0  0  0  0  0  0  0  0  0  0  0
    3.0279   -5.3073   26.8197 C   0  0  0  0  0  0  0  0  0  0  0  0
    7.3282   -3.8948   29.1186 C   0  0  0  0  0  0  0  0  0  0  0  0
  1  3  4  0
  1  7  4  0
  2  3  1  0
  2  6  4  0
  2 16  4  0
  3 22  4  0
  4  9  4  0
  4 10  1  0
  4 20  4  0
  5 16  4  0
  5 23  4  0
  6 15  4  0
  7 12  4  0
  8 13  4  0
  8 14  4  0
  9 11  4  0
 11 14  4  0
 11 19  4  0
 12 18  4  0
 13 21  4  0
 15 23  4  0
 17 19  4  0
 17 20  4  0
 18 22  4  0
 19 21  4  0
M  END
$$$$

 Created by Python create_sdf_string function

 23 25  0  0  0  0  0  0  0  0999 V2000
    2.4610   -5.3070   29.1240 C   0  0  0  0  0  0  0  0  0  0  0  0
    4.7710   -4.6952   28.4803 C   0  0  0  0  0  0  0  0  0  0  0  0
    3.4047   -5.1087   28.1314 C   0  0  0  0  0  0  0  0  0  0  0  0
   -0.2234  -11.8615   16.8874 C   0  0  0  0  0  0  0  0  0  0  0  0
    6.4491   -4.1532   30.1213 C   0  0  0  0  0  0  0  0  0  0  0  0
    5.7060   -4.4340   27.4975 C   0  0  0  0  0  0  0  0  0  0  0  0
    1.1818   -5.6612   28.8399 C   0  0  0  0  0  0  0  0  0  0  0  0
   -1.2067   -7.3287   17.7772 C   0  0  0  0  0  0  0  0  0  0  0  0
   -0.0206  -10.5585   16.6210 C   0  0  0  0  0  0  0  0  0  0  0  0
    0.3696  -12.7626   16.2169 O   0  0  0  0  0  0  0  0  0  0  0  0
   -0.6895   -9.5676   17.3297 C   0  0  0  0  0  0  0  0  0  0  0  0
    0.8388   -5.8417   27.5264 C   0  0  0  0  0  0  0  0  0  0  0  0
   -2.0709   -7.6637   18.7817 C   0  0  0  0  0  0  0  0  0  0  0  0
   -0.5279   -8.2168   17.0717 C   0  0  0  0  0  0  0  0  0  0  0  0
    6.9694   -4.0191   27.8190 C   0  0  0  0  0  0  0  0  0  0  0  0
    5.1733   -4.5469   29.8123 C   0  0  0  0  0  0  0  0  0  0  0  0
   -1.7508  -11.3016   18.6072 C   0  0  0  0  0  0  0  0  0  0  0  0
    1.7497   -5.6771   26.4971 C   0  0  0  0  0  0  0  0  0  0  0  0
   -1.5799   -9.9322   18.3468 C   0  0  0  0  0  0  0  0  0  0  0  0
   -1.0871  -12.2214   17.8851 C   0  0  0  0  0  0  0  0  0  0  0  0
   -2.2706   -8.9669   19.0691 C   0  0  0  0  0  0  0  0  0  0  0  0
    3.0279   -5.3073   26.8197 C   0  0  0  0  0  0  0  0  0  0  0  0
    7.3282   -3.8948   29.1186 C   0  0  0  0  0  0  0  0  0  0  0  0
  1  3  4  0
  1  7  4  0
  2  3  1  0
  2  6  4  0
  2 16  4  0
  3 22  4  0
  4  9  4  0
  4 10  1  0
  4 20  4  0
  5 16  4  0
  5 23  4  0
  6 15  4  0
  7 12  4  0
  8 13  4  0
  8 14  4  0
  9 11  4  0
 11 14  4  0
 11 19  4  0
 12 18  4  0
 13 21  4  0
 15 23  4  0
 17 19  4  0
 17 20  4  0
 18 22  4  0
 19 21  4  0
M  END
$$$$

 Created by Python create_sdf_string function

 23 25  0  0  0  0  0  0  0  0999 V2000
    2.4610   -5.3070   29.1240 C   0  0  0  0  0  0  0  0  0  0  0  0
    4.7710   -4.6952   28.4803 C   0  0  0  0  0  0  0  0  0  0  0  0
    3.4047   -5.1087   28.1314 C   0  0  0  0  0  0  0  0  0  0  0  0
   -0.2234  -11.8615   16.8874 C   0  0  0  0  0  0  0  0  0  0  0  0
    6.4491   -4.1532   30.1213 C   0  0  0  0  0  0  0  0  0  0  0  0
    5.7060   -4.4340   27.4975 C   0  0  0  0  0  0  0  0  0  0  0  0
    1.1818   -5.6612   28.8399 C   0  0  0  0  0  0  0  0  0  0  0  0
   -1.2067   -7.3287   17.7772 C   0  0  0  0  0  0  0  0  0  0  0  0
   -0.0206  -10.5585   16.6210 C   0  0  0  0  0  0  0  0  0  0  0  0
    0.3696  -12.7626   16.2169 O   0  0  0  0  0  0  0  0  0  0  0  0
   -0.6895   -9.5676   17.3297 C   0  0  0  0  0  0  0  0  0  0  0  0
    0.8388   -5.8417   27.5264 C   0  0  0  0  0  0  0  0  0  0  0  0
   -2.0709   -7.6637   18.7817 C   0  0  0  0  0  0  0  0  0  0  0  0
   -0.5279   -8.2168   17.0717 C   0  0  0  0  0  0  0  0  0  0  0  0
    6.9694   -4.0191   27.8190 C   0  0  0  0  0  0  0  0  0  0  0  0
    5.1733   -4.5469   29.8123 C   0  0  0  0  0  0  0  0  0  0  0  0
   -1.7508  -11.3016   18.6072 C   0  0  0  0  0  0  0  0  0  0  0  0
    1.7497   -5.6771   26.4971 C   0  0  0  0  0  0  0  0  0  0  0  0
   -1.5799   -9.9322   18.3468 C   0  0  0  0  0  0  0  0  0  0  0  0
   -1.0871  -12.2214   17.8851 C   0  0  0  0  0  0  0  0  0  0  0  0
   -2.2706   -8.9669   19.0691 C   0  0  0  0  0  0  0  0  0  0  0  0
    3.0279   -5.3073   26.8197 C   0  0  0  0  0  0  0  0  0  0  0  0
    7.3282   -3.8948   29.1186 C   0  0  0  0  0  0  0  0  0  0  0  0
  1  3  4  0
  1  7  4  0
  2  3  1  0
  2  6  4  0
  2 16  4  0
  3 22  4  0
  4  9  4  0
  4 10  1  0
  4 20  4  0
  5 16  4  0
  5 23  4  0
  6 15  4  0
  7 12  4  0
  8 13  4  0
  8 14  4  0
  9 11  4  0
 11 14  4  0
 11 19  4  0
 12 18  4  0
 13 21  4  0
 15 23  4  0
 17 19  4  0
 17 20  4  0
 18 22  4  0
 19 21  4  0
M  END
$$$$

 Created by Python create_sdf_string function

 23 25  0  0  0  0  0  0  0  0999 V2000
    2.4610   -5.3070   29.1240 C   0  0  0  0  0  0  0  0  0  0  0  0
    4.7710   -4.6952   28.4803 C   0  0  0  0  0  0  0  0  0  0  0  0
    3.4047   -5.1087   28.1314 C   0  0  0  0  0  0  0  0  0  0  0  0
   -0.2234  -11.8615   16.8874 C   0  0  0  0  0  0  0  0  0  0  0  0
    6.4491   -4.1532   30.1213 C   0  0  0  0  0  0  0  0  0  0  0  0
    5.7060   -4.4340   27.4975 C   0  0  0  0  0  0  0  0  0  0  0  0
    1.1818   -5.6612   28.8399 C   0  0  0  0  0  0  0  0  0  0  0  0
   -1.2067   -7.3287   17.7772 C   0  0  0  0  0  0  0  0  0  0  0  0
   -0.0206  -10.5585   16.6210 C   0  0  0  0  0  0  0  0  0  0  0  0
    0.3696  -12.7626   16.2169 O   0  0  0  0  0  0  0  0  0  0  0  0
   -0.6895   -9.5676   17.3297 C   0  0  0  0  0  0  0  0  0  0  0  0
    0.8388   -5.8417   27.5264 C   0  0  0  0  0  0  0  0  0  0  0  0
   -2.0709   -7.6637   18.7817 C   0  0  0  0  0  0  0  0  0  0  0  0
   -0.5279   -8.2168   17.0717 C   0  0  0  0  0  0  0  0  0  0  0  0
    6.9694   -4.0191   27.8190 C   0  0  0  0  0  0  0  0  0  0  0  0
    5.1733   -4.5469   29.8123 C   0  0  0  0  0  0  0  0  0  0  0  0
   -1.7508  -11.3016   18.6072 C   0  0  0  0  0  0  0  0  0  0  0  0
    1.7497   -5.6771   26.4971 C   0  0  0  0  0  0  0  0  0  0  0  0
   -1.5799   -9.9322   18.3468 C   0  0  0  0  0  0  0  0  0  0  0  0
   -1.0871  -12.2214   17.8851 C   0  0  0  0  0  0  0  0  0  0  0  0
   -2.2706   -8.9669   19.0691 C   0  0  0  0  0  0  0  0  0  0  0  0
    3.0279   -5.3073   26.8197 C   0  0  0  0  0  0  0  0  0  0  0  0
    7.3282   -3.8948   29.1186 C   0  0  0  0  0  0  0  0  0  0  0  0
  1  3  4  0
  1  7  4  0
  2  3  1  0
  2  6  4  0
  2 16  4  0
  3 22  4  0
  4  9  4  0
  4 10  1  0
  4 20  4  0
  5 16  4  0
  5 23  4  0
  6 15  4  0
  7 12  4  0
  8 13  4  0
  8 14  4  0
  9 11  4  0
 11 14  4  0
 11 19  4  0
 12 18  4  0
 13 21  4  0
 15 23  4  0
 17 19  4  0
 17 20  4  0
 18 22  4  0
 19 21  4  0
M  END
$$$$

 Created by Python create_sdf_string function

 23 25  0  0  0  0  0  0  0  0999 V2000
    2.4610   -5.3070   29.1240 C   0  0  0  0  0  0  0  0  0  0  0  0
    4.7710   -4.6952   28.4803 C   0  0  0  0  0  0  0  0  0  0  0  0
    3.4047   -5.1087   28.1314 C   0  0  0  0  0  0  0  0  0  0  0  0
   -0.2234  -11.8615   16.8874 C   0  0  0  0  0  0  0  0  0  0  0  0
    6.4491   -4.1532   30.1213 C   0  0  0  0  0  0  0  0  0  0  0  0
    5.7060   -4.4340   27.4975 C   0  0  0  0  0  0  0  0  0  0  0  0
    1.1818   -5.6612   28.8399 C   0  0  0  0  0  0  0  0  0  0  0  0
   -1.2067   -7.3287   17.7772 C   0  0  0  0  0  0  0  0  0  0  0  0
   -0.0206  -10.5585   16.6210 C   0  0  0  0  0  0  0  0  0  0  0  0
    0.3696  -12.7626   16.2169 O   0  0  0  0  0  0  0  0  0  0  0  0
   -0.6895   -9.5676   17.3297 C   0  0  0  0  0  0  0  0  0  0  0  0
    0.8388   -5.8417   27.5264 C   0  0  0  0  0  0  0  0  0  0  0  0
   -2.0709   -7.6637   18.7817 C   0  0  0  0  0  0  0  0  0  0  0  0
   -0.5279   -8.2168   17.0717 C   0  0  0  0  0  0  0  0  0  0  0  0
    6.9694   -4.0191   27.8190 C   0  0  0  0  0  0  0  0  0  0  0  0
    5.1733   -4.5469   29.8123 C   0  0  0  0  0  0  0  0  0  0  0  0
   -1.7508  -11.3016   18.6072 C   0  0  0  0  0  0  0  0  0  0  0  0
    1.7497   -5.6771   26.4971 C   0  0  0  0  0  0  0  0  0  0  0  0
   -1.5799   -9.9322   18.3468 C   0  0  0  0  0  0  0  0  0  0  0  0
   -1.0871  -12.2214   17.8851 C   0  0  0  0  0  0  0  0  0  0  0  0
   -2.2706   -8.9669   19.0691 C   0  0  0  0  0  0  0  0  0  0  0  0
    3.0279   -5.3073   26.8197 C   0  0  0  0  0  0  0  0  0  0  0  0
    7.3282   -3.8948   29.1186 C   0  0  0  0  0  0  0  0  0  0  0  0
  1  3  4  0
  1  7  4  0
  2  3  1  0
  2  6  4  0
  2 16  4  0
  3 22  4  0
  4  9  4  0
  4 10  1  0
  4 20  4  0
  5 16  4  0
  5 23  4  0
  6 15  4  0
  7 12  4  0
  8 13  4  0
  8 14  4  0
  9 11  4  0
 11 14  4  0
 11 19  4  0
 12 18  4  0
 13 21  4  0
 15 23  4  0
 17 19  4  0
 17 20  4  0
 18 22  4  0
 19 21  4  0
M  END
$$$$

 Created by Python create_sdf_string function

 23 25  0  0  0  0  0  0  0  0999 V2000
    2.4610   -5.3070   29.1240 C   0  0  0  0  0  0  0  0  0  0  0  0
    4.7710   -4.6952   28.4803 C   0  0  0  0  0  0  0  0  0  0  0  0
    3.4047   -5.1087   28.1314 C   0  0  0  0  0  0  0  0  0  0  0  0
   -0.2234  -11.8615   16.8874 C   0  0  0  0  0  0  0  0  0  0  0  0
    6.4491   -4.1532   30.1213 C   0  0  0  0  0  0  0  0  0  0  0  0
    5.7060   -4.4340   27.4975 C   0  0  0  0  0  0  0  0  0  0  0  0
    1.1818   -5.6612   28.8399 C   0  0  0  0  0  0  0  0  0  0  0  0
   -1.2067   -7.3287   17.7772 C   0  0  0  0  0  0  0  0  0  0  0  0
   -0.0206  -10.5585   16.6210 C   0  0  0  0  0  0  0  0  0  0  0  0
    0.3696  -12.7626   16.2169 O   0  0  0  0  0  0  0  0  0  0  0  0
   -0.6895   -9.5676   17.3297 C   0  0  0  0  0  0  0  0  0  0  0  0
    0.8388   -5.8417   27.5264 C   0  0  0  0  0  0  0  0  0  0  0  0
   -2.0709   -7.6637   18.7817 C   0  0  0  0  0  0  0  0  0  0  0  0
   -0.5279   -8.2168   17.0717 C   0  0  0  0  0  0  0  0  0  0  0  0
    6.9694   -4.0191   27.8190 C   0  0  0  0  0  0  0  0  0  0  0  0
    5.1733   -4.5469   29.8123 C   0  0  0  0  0  0  0  0  0  0  0  0
   -1.7508  -11.3016   18.6072 C   0  0  0  0  0  0  0  0  0  0  0  0
    1.7497   -5.6771   26.4971 C   0  0  0  0  0  0  0  0  0  0  0  0
   -1.5799   -9.9322   18.3468 C   0  0  0  0  0  0  0  0  0  0  0  0
   -1.0871  -12.2214   17.8851 C   0  0  0  0  0  0  0  0  0  0  0  0
   -2.2706   -8.9669   19.0691 C   0  0  0  0  0  0  0  0  0  0  0  0
    3.0279   -5.3073   26.8197 C   0  0  0  0  0  0  0  0  0  0  0  0
    7.3282   -3.8948   29.1186 C   0  0  0  0  0  0  0  0  0  0  0  0
  1  3  4  0
  1  7  4  0
  2  3  1  0
  2  6  4  0
  2 16  4  0
  3 22  4  0
  4  9  4  0
  4 10  1  0
  4 20  4  0
  5 16  4  0
  5 23  4  0
  6 15  4  0
  7 12  4  0
  8 13  4  0
  8 14  4  0
  9 11  4  0
 11 14  4  0
 11 19  4  0
 12 18  4  0
 13 21  4  0
 15 23  4  0
 17 19  4  0
 17 20  4  0
 18 22  4  0
 19 21  4  0
M  END
$$$$

 Created by Python create_sdf_string function

 23 25  0  0  0  0  0  0  0  0999 V2000
    2.4610   -5.3070   29.1240 C   0  0  0  0  0  0  0  0  0  0  0  0
    4.7710   -4.6952   28.4803 C   0  0  0  0  0  0  0  0  0  0  0  0
    3.4047   -5.1087   28.1314 C   0  0  0  0  0  0  0  0  0  0  0  0
   -0.2234  -11.8615   16.8874 C   0  0  0  0  0  0  0  0  0  0  0  0
    6.4491   -4.1532   30.1213 C   0  0  0  0  0  0  0  0  0  0  0  0
    5.7060   -4.4340   27.4975 C   0  0  0  0  0  0  0  0  0  0  0  0
    1.1818   -5.6612   28.8399 C   0  0  0  0  0  0  0  0  0  0  0  0
   -1.2067   -7.3287   17.7772 C   0  0  0  0  0  0  0  0  0  0  0  0
   -0.0206  -10.5585   16.6210 C   0  0  0  0  0  0  0  0  0  0  0  0
    0.3696  -12.7626   16.2169 O   0  0  0  0  0  0  0  0  0  0  0  0
   -0.6895   -9.5676   17.3297 C   0  0  0  0  0  0  0  0  0  0  0  0
    0.8388   -5.8417   27.5264 C   0  0  0  0  0  0  0  0  0  0  0  0
   -2.0709   -7.6637   18.7817 C   0  0  0  0  0  0  0  0  0  0  0  0
   -0.5279   -8.2168   17.0717 C   0  0  0  0  0  0  0  0  0  0  0  0
    6.9694   -4.0191   27.8190 C   0  0  0  0  0  0  0  0  0  0  0  0
    5.1733   -4.5469   29.8123 C   0  0  0  0  0  0  0  0  0  0  0  0
   -1.7508  -11.3016   18.6072 C   0  0  0  0  0  0  0  0  0  0  0  0
    1.7497   -5.6771   26.4971 C   0  0  0  0  0  0  0  0  0  0  0  0
   -1.5799   -9.9322   18.3468 C   0  0  0  0  0  0  0  0  0  0  0  0
   -1.0871  -12.2214   17.8851 C   0  0  0  0  0  0  0  0  0  0  0  0
   -2.2706   -8.9669   19.0691 C   0  0  0  0  0  0  0  0  0  0  0  0
    3.0279   -5.3073   26.8197 C   0  0  0  0  0  0  0  0  0  0  0  0
    7.3282   -3.8948   29.1186 C   0  0  0  0  0  0  0  0  0  0  0  0
  1  3  4  0
  1  7  4  0
  2  3  1  0
  2  6  4  0
  2 16  4  0
  3 22  4  0
  4  9  4  0
  4 10  1  0
  4 20  4  0
  5 16  4  0
  5 23  4  0
  6 15  4  0
  7 12  4  0
  8 13  4  0
  8 14  4  0
  9 11  4  0
 11 14  4  0
 11 19  4  0
 12 18  4  0
 13 21  4  0
 15 23  4  0
 17 19  4  0
 17 20  4  0
 18 22  4  0
 19 21  4  0
M  END
$$$$

 Created by Python create_sdf_string function

 23 25  0  0  0  0  0  0  0  0999 V2000
    2.4610   -5.3070   29.1240 C   0  0  0  0  0  0  0  0  0  0  0  0
    4.7710   -4.6952   28.4803 C   0  0  0  0  0  0  0  0  0  0  0  0
    3.4047   -5.1087   28.1314 C   0  0  0  0  0  0  0  0  0  0  0  0
   -0.2234  -11.8615   16.8874 C   0  0  0  0  0  0  0  0  0  0  0  0
    6.4491   -4.1532   30.1213 C   0  0  0  0  0  0  0  0  0  0  0  0
    5.7060   -4.4340   27.4975 C   0  0  0  0  0  0  0  0  0  0  0  0
    1.1818   -5.6612   28.8399 C   0  0  0  0  0  0  0  0  0  0  0  0
   -1.2067   -7.3287   17.7772 C   0  0  0  0  0  0  0  0  0  0  0  0
   -0.0206  -10.5585   16.6210 C   0  0  0  0  0  0  0  0  0  0  0  0
    0.3696  -12.7626   16.2169 O   0  0  0  0  0  0  0  0  0  0  0  0
   -0.6895   -9.5676   17.3297 C   0  0  0  0  0  0  0  0  0  0  0  0
    0.8388   -5.8417   27.5264 C   0  0  0  0  0  0  0  0  0  0  0  0
   -2.0709   -7.6637   18.7817 C   0  0  0  0  0  0  0  0  0  0  0  0
   -0.5279   -8.2168   17.0717 C   0  0  0  0  0  0  0  0  0  0  0  0
    6.9694   -4.0191   27.8190 C   0  0  0  0  0  0  0  0  0  0  0  0
    5.1733   -4.5469   29.8123 C   0  0  0  0  0  0  0  0  0  0  0  0
   -1.7508  -11.3016   18.6072 C   0  0  0  0  0  0  0  0  0  0  0  0
    1.7497   -5.6771   26.4971 C   0  0  0  0  0  0  0  0  0  0  0  0
   -1.5799   -9.9322   18.3468 C   0  0  0  0  0  0  0  0  0  0  0  0
   -1.0871  -12.2214   17.8851 C   0  0  0  0  0  0  0  0  0  0  0  0
   -2.2706   -8.9669   19.0691 C   0  0  0  0  0  0  0  0  0  0  0  0
    3.0279   -5.3073   26.8197 C   0  0  0  0  0  0  0  0  0  0  0  0
    7.3282   -3.8948   29.1186 C   0  0  0  0  0  0  0  0  0  0  0  0
  1  3  4  0
  1  7  4  0
  2  3  1  0
  2  6  4  0
  2 16  4  0
  3 22  4  0
  4  9  4  0
  4 10  1  0
  4 20  4  0
  5 16  4  0
  5 23  4  0
  6 15  4  0
  7 12  4  0
  8 13  4  0
  8 14  4  0
  9 11  4  0
 11 14  4  0
 11 19  4  0
 12 18  4  0
 13 21  4  0
 15 23  4  0
 17 19  4  0
 17 20  4  0
 18 22  4  0
 19 21  4  0
M  END
$$$$

 Created by Python create_sdf_string function

 23 25  0  0  0  0  0  0  0  0999 V2000
    2.4610   -5.3070   29.1240 C   0  0  0  0  0  0  0  0  0  0  0  0
    4.7710   -4.6952   28.4803 C   0  0  0  0  0  0  0  0  0  0  0  0
    3.4047   -5.1087   28.1314 C   0  0  0  0  0  0  0  0  0  0  0  0
   -0.2234  -11.8615   16.8874 C   0  0  0  0  0  0  0  0  0  0  0  0
    6.4491   -4.1532   30.1213 C   0  0  0  0  0  0  0  0  0  0  0  0
    5.7060   -4.4340   27.4975 C   0  0  0  0  0  0  0  0  0  0  0  0
    1.1818   -5.6612   28.8399 C   0  0  0  0  0  0  0  0  0  0  0  0
   -1.2067   -7.3287   17.7772 C   0  0  0  0  0  0  0  0  0  0  0  0
   -0.0206  -10.5585   16.6210 C   0  0  0  0  0  0  0  0  0  0  0  0
    0.3696  -12.7626   16.2169 O   0  0  0  0  0  0  0  0  0  0  0  0
   -0.6895   -9.5676   17.3297 C   0  0  0  0  0  0  0  0  0  0  0  0
    0.8388   -5.8417   27.5264 C   0  0  0  0  0  0  0  0  0  0  0  0
   -2.0709   -7.6637   18.7817 C   0  0  0  0  0  0  0  0  0  0  0  0
   -0.5279   -8.2168   17.0717 C   0  0  0  0  0  0  0  0  0  0  0  0
    6.9694   -4.0191   27.8190 C   0  0  0  0  0  0  0  0  0  0  0  0
    5.1733   -4.5469   29.8123 C   0  0  0  0  0  0  0  0  0  0  0  0
   -1.7508  -11.3016   18.6072 C   0  0  0  0  0  0  0  0  0  0  0  0
    1.7497   -5.6771   26.4971 C   0  0  0  0  0  0  0  0  0  0  0  0
   -1.5799   -9.9322   18.3468 C   0  0  0  0  0  0  0  0  0  0  0  0
   -1.0871  -12.2214   17.8851 C   0  0  0  0  0  0  0  0  0  0  0  0
   -2.2706   -8.9669   19.0691 C   0  0  0  0  0  0  0  0  0  0  0  0
    3.0279   -5.3073   26.8197 C   0  0  0  0  0  0  0  0  0  0  0  0
    7.3282   -3.8948   29.1186 C   0  0  0  0  0  0  0  0  0  0  0  0
  1  3  4  0
  1  7  4  0
  2  3  1  0
  2  6  4  0
  2 16  4  0
  3 22  4  0
  4  9  4  0
  4 10  1  0
  4 20  4  0
  5 16  4  0
  5 23  4  0
  6 15  4  0
  7 12  4  0
  8 13  4  0
  8 14  4  0
  9 11  4  0
 11 14  4  0
 11 19  4  0
 12 18  4  0
 13 21  4  0
 15 23  4  0
 17 19  4  0
 17 20  4  0
 18 22  4  0
 19 21  4  0
M  END
$$$$

 Created by Python create_sdf_string function

 23 25  0  0  0  0  0  0  0  0999 V2000
    2.4610   -5.3070   29.1240 C   0  0  0  0  0  0  0  0  0  0  0  0
    4.7710   -4.6952   28.4803 C   0  0  0  0  0  0  0  0  0  0  0  0
    3.4047   -5.1087   28.1314 C   0  0  0  0  0  0  0  0  0  0  0  0
   -0.2234  -11.8615   16.8874 C   0  0  0  0  0  0  0  0  0  0  0  0
    6.4491   -4.1532   30.1213 C   0  0  0  0  0  0  0  0  0  0  0  0
    5.7060   -4.4340   27.4975 C   0  0  0  0  0  0  0  0  0  0  0  0
    1.1818   -5.6612   28.8399 C   0  0  0  0  0  0  0  0  0  0  0  0
   -1.2067   -7.3287   17.7772 C   0  0  0  0  0  0  0  0  0  0  0  0
   -0.0206  -10.5585   16.6210 C   0  0  0  0  0  0  0  0  0  0  0  0
    0.3696  -12.7626   16.2169 O   0  0  0  0  0  0  0  0  0  0  0  0
   -0.6895   -9.5676   17.3297 C   0  0  0  0  0  0  0  0  0  0  0  0
    0.8388   -5.8417   27.5264 C   0  0  0  0  0  0  0  0  0  0  0  0
   -2.0709   -7.6637   18.7817 C   0  0  0  0  0  0  0  0  0  0  0  0
   -0.5279   -8.2168   17.0717 C   0  0  0  0  0  0  0  0  0  0  0  0
    6.9694   -4.0191   27.8190 C   0  0  0  0  0  0  0  0  0  0  0  0
    5.1733   -4.5469   29.8123 C   0  0  0  0  0  0  0  0  0  0  0  0
   -1.7508  -11.3016   18.6072 C   0  0  0  0  0  0  0  0  0  0  0  0
    1.7497   -5.6771   26.4971 C   0  0  0  0  0  0  0  0  0  0  0  0
   -1.5799   -9.9322   18.3468 C   0  0  0  0  0  0  0  0  0  0  0  0
   -1.0871  -12.2214   17.8851 C   0  0  0  0  0  0  0  0  0  0  0  0
   -2.2706   -8.9669   19.0691 C   0  0  0  0  0  0  0  0  0  0  0  0
    3.0279   -5.3073   26.8197 C   0  0  0  0  0  0  0  0  0  0  0  0
    7.3282   -3.8948   29.1186 C   0  0  0  0  0  0  0  0  0  0  0  0
  1  3  4  0
  1  7  4  0
  2  3  1  0
  2  6  4  0
  2 16  4  0
  3 22  4  0
  4  9  4  0
  4 10  1  0
  4 20  4  0
  5 16  4  0
  5 23  4  0
  6 15  4  0
  7 12  4  0
  8 13  4  0
  8 14  4  0
  9 11  4  0
 11 14  4  0
 11 19  4  0
 12 18  4  0
 13 21  4  0
 15 23  4  0
 17 19  4  0
 17 20  4  0
 18 22  4  0
 19 21  4  0
M  END
$$$$

 Created by Python create_sdf_string function

 23 25  0  0  0  0  0  0  0  0999 V2000
    2.4610   -5.3070   29.1240 C   0  0  0  0  0  0  0  0  0  0  0  0
    4.7710   -4.6952   28.4803 C   0  0  0  0  0  0  0  0  0  0  0  0
    3.4047   -5.1087   28.1314 C   0  0  0  0  0  0  0  0  0  0  0  0
   -0.2234  -11.8615   16.8874 C   0  0  0  0  0  0  0  0  0  0  0  0
    6.4491   -4.1532   30.1213 C   0  0  0  0  0  0  0  0  0  0  0  0
    5.7060   -4.4340   27.4975 C   0  0  0  0  0  0  0  0  0  0  0  0
    1.1818   -5.6612   28.8399 C   0  0  0  0  0  0  0  0  0  0  0  0
   -1.2067   -7.3287   17.7772 C   0  0  0  0  0  0  0  0  0  0  0  0
   -0.0206  -10.5585   16.6210 C   0  0  0  0  0  0  0  0  0  0  0  0
    0.3696  -12.7626   16.2169 O   0  0  0  0  0  0  0  0  0  0  0  0
   -0.6895   -9.5676   17.3297 C   0  0  0  0  0  0  0  0  0  0  0  0
    0.8388   -5.8417   27.5264 C   0  0  0  0  0  0  0  0  0  0  0  0
   -2.0709   -7.6637   18.7817 C   0  0  0  0  0  0  0  0  0  0  0  0
   -0.5279   -8.2168   17.0717 C   0  0  0  0  0  0  0  0  0  0  0  0
    6.9694   -4.0191   27.8190 C   0  0  0  0  0  0  0  0  0  0  0  0
    5.1733   -4.5469   29.8123 C   0  0  0  0  0  0  0  0  0  0  0  0
   -1.7508  -11.3016   18.6072 C   0  0  0  0  0  0  0  0  0  0  0  0
    1.7497   -5.6771   26.4971 C   0  0  0  0  0  0  0  0  0  0  0  0
   -1.5799   -9.9322   18.3468 C   0  0  0  0  0  0  0  0  0  0  0  0
   -1.0871  -12.2214   17.8851 C   0  0  0  0  0  0  0  0  0  0  0  0
   -2.2706   -8.9669   19.0691 C   0  0  0  0  0  0  0  0  0  0  0  0
    3.0279   -5.3073   26.8197 C   0  0  0  0  0  0  0  0  0  0  0  0
    7.3282   -3.8948   29.1186 C   0  0  0  0  0  0  0  0  0  0  0  0
  1  3  4  0
  1  7  4  0
  2  3  1  0
  2  6  4  0
  2 16  4  0
  3 22  4  0
  4  9  4  0
  4 10  1  0
  4 20  4  0
  5 16  4  0
  5 23  4  0
  6 15  4  0
  7 12  4  0
  8 13  4  0
  8 14  4  0
  9 11  4  0
 11 14  4  0
 11 19  4  0
 12 18  4  0
 13 21  4  0
 15 23  4  0
 17 19  4  0
 17 20  4  0
 18 22  4  0
 19 21  4  0
M  END
$$$$

 Created by Python create_sdf_string function

 23 25  0  0  0  0  0  0  0  0999 V2000
    2.4610   -5.3070   29.1240 C   0  0  0  0  0  0  0  0  0  0  0  0
    4.7710   -4.6952   28.4803 C   0  0  0  0  0  0  0  0  0  0  0  0
    3.4047   -5.1087   28.1314 C   0  0  0  0  0  0  0  0  0  0  0  0
   -0.2234  -11.8615   16.8874 C   0  0  0  0  0  0  0  0  0  0  0  0
    6.4491   -4.1532   30.1213 C   0  0  0  0  0  0  0  0  0  0  0  0
    5.7060   -4.4340   27.4975 C   0  0  0  0  0  0  0  0  0  0  0  0
    1.1818   -5.6612   28.8399 C   0  0  0  0  0  0  0  0  0  0  0  0
   -1.2067   -7.3287   17.7772 C   0  0  0  0  0  0  0  0  0  0  0  0
   -0.0206  -10.5585   16.6210 C   0  0  0  0  0  0  0  0  0  0  0  0
    0.3696  -12.7626   16.2169 O   0  0  0  0  0  0  0  0  0  0  0  0
   -0.6895   -9.5676   17.3297 C   0  0  0  0  0  0  0  0  0  0  0  0
    0.8388   -5.8417   27.5264 C   0  0  0  0  0  0  0  0  0  0  0  0
   -2.0709   -7.6637   18.7817 C   0  0  0  0  0  0  0  0  0  0  0  0
   -0.5279   -8.2168   17.0717 C   0  0  0  0  0  0  0  0  0  0  0  0
    6.9694   -4.0191   27.8190 C   0  0  0  0  0  0  0  0  0  0  0  0
    5.1733   -4.5469   29.8123 C   0  0  0  0  0  0  0  0  0  0  0  0
   -1.7508  -11.3016   18.6072 C   0  0  0  0  0  0  0  0  0  0  0  0
    1.7497   -5.6771   26.4971 C   0  0  0  0  0  0  0  0  0  0  0  0
   -1.5799   -9.9322   18.3468 C   0  0  0  0  0  0  0  0  0  0  0  0
   -1.0871  -12.2214   17.8851 C   0  0  0  0  0  0  0  0  0  0  0  0
   -2.2706   -8.9669   19.0691 C   0  0  0  0  0  0  0  0  0  0  0  0
    3.0279   -5.3073   26.8197 C   0  0  0  0  0  0  0  0  0  0  0  0
    7.3282   -3.8948   29.1186 C   0  0  0  0  0  0  0  0  0  0  0  0
  1  3  4  0
  1  7  4  0
  2  3  1  0
  2  6  4  0
  2 16  4  0
  3 22  4  0
  4  9  4  0
  4 10  1  0
  4 20  4  0
  5 16  4  0
  5 23  4  0
  6 15  4  0
  7 12  4  0
  8 13  4  0
  8 14  4  0
  9 11  4  0
 11 14  4  0
 11 19  4  0
 12 18  4  0
 13 21  4  0
 15 23  4  0
 17 19  4  0
 17 20  4  0
 18 22  4  0
 19 21  4  0
M  END
$$$$

 Created by Python create_sdf_string function

 23 25  0  0  0  0  0  0  0  0999 V2000
    2.4610   -5.3070   29.1240 C   0  0  0  0  0  0  0  0  0  0  0  0
    4.7710   -4.6952   28.4803 C   0  0  0  0  0  0  0  0  0  0  0  0
    3.4047   -5.1087   28.1314 C   0  0  0  0  0  0  0  0  0  0  0  0
   -0.2234  -11.8615   16.8874 C   0  0  0  0  0  0  0  0  0  0  0  0
    6.4491   -4.1532   30.1213 C   0  0  0  0  0  0  0  0  0  0  0  0
    5.7060   -4.4340   27.4975 C   0  0  0  0  0  0  0  0  0  0  0  0
    1.1818   -5.6612   28.8399 C   0  0  0  0  0  0  0  0  0  0  0  0
   -1.2067   -7.3287   17.7772 C   0  0  0  0  0  0  0  0  0  0  0  0
   -0.0206  -10.5585   16.6210 C   0  0  0  0  0  0  0  0  0  0  0  0
    0.3696  -12.7626   16.2169 O   0  0  0  0  0  0  0  0  0  0  0  0
   -0.6895   -9.5676   17.3297 C   0  0  0  0  0  0  0  0  0  0  0  0
    0.8388   -5.8417   27.5264 C   0  0  0  0  0  0  0  0  0  0  0  0
   -2.0709   -7.6637   18.7817 C   0  0  0  0  0  0  0  0  0  0  0  0
   -0.5279   -8.2168   17.0717 C   0  0  0  0  0  0  0  0  0  0  0  0
    6.9694   -4.0191   27.8190 C   0  0  0  0  0  0  0  0  0  0  0  0
    5.1733   -4.5469   29.8123 C   0  0  0  0  0  0  0  0  0  0  0  0
   -1.7508  -11.3016   18.6072 C   0  0  0  0  0  0  0  0  0  0  0  0
    1.7497   -5.6771   26.4971 C   0  0  0  0  0  0  0  0  0  0  0  0
   -1.5799   -9.9322   18.3468 C   0  0  0  0  0  0  0  0  0  0  0  0
   -1.0871  -12.2214   17.8851 C   0  0  0  0  0  0  0  0  0  0  0  0
   -2.2706   -8.9669   19.0691 C   0  0  0  0  0  0  0  0  0  0  0  0
    3.0279   -5.3073   26.8197 C   0  0  0  0  0  0  0  0  0  0  0  0
    7.3282   -3.8948   29.1186 C   0  0  0  0  0  0  0  0  0  0  0  0
  1  3  4  0
  1  7  4  0
  2  3  1  0
  2  6  4  0
  2 16  4  0
  3 22  4  0
  4  9  4  0
  4 10  1  0
  4 20  4  0
  5 16  4  0
  5 23  4  0
  6 15  4  0
  7 12  4  0
  8 13  4  0
  8 14  4  0
  9 11  4  0
 11 14  4  0
 11 19  4  0
 12 18  4  0
 13 21  4  0
 15 23  4  0
 17 19  4  0
 17 20  4  0
 18 22  4  0
 19 21  4  0
M  END
$$$$

 Created by Python create_sdf_string function

 23 25  0  0  0  0  0  0  0  0999 V2000
    2.4610   -5.3070   29.1240 C   0  0  0  0  0  0  0  0  0  0  0  0
    4.7710   -4.6952   28.4803 C   0  0  0  0  0  0  0  0  0  0  0  0
    3.4047   -5.1087   28.1314 C   0  0  0  0  0  0  0  0  0  0  0  0
   -0.2234  -11.8615   16.8874 C   0  0  0  0  0  0  0  0  0  0  0  0
    6.4491   -4.1532   30.1213 C   0  0  0  0  0  0  0  0  0  0  0  0
    5.7060   -4.4340   27.4975 C   0  0  0  0  0  0  0  0  0  0  0  0
    1.1818   -5.6612   28.8399 C   0  0  0  0  0  0  0  0  0  0  0  0
   -1.2067   -7.3287   17.7772 C   0  0  0  0  0  0  0  0  0  0  0  0
   -0.0206  -10.5585   16.6210 C   0  0  0  0  0  0  0  0  0  0  0  0
    0.3696  -12.7626   16.2169 O   0  0  0  0  0  0  0  0  0  0  0  0
   -0.6895   -9.5676   17.3297 C   0  0  0  0  0  0  0  0  0  0  0  0
    0.8388   -5.8417   27.5264 C   0  0  0  0  0  0  0  0  0  0  0  0
   -2.0709   -7.6637   18.7817 C   0  0  0  0  0  0  0  0  0  0  0  0
   -0.5279   -8.2168   17.0717 C   0  0  0  0  0  0  0  0  0  0  0  0
    6.9694   -4.0191   27.8190 C   0  0  0  0  0  0  0  0  0  0  0  0
    5.1733   -4.5469   29.8123 C   0  0  0  0  0  0  0  0  0  0  0  0
   -1.7508  -11.3016   18.6072 C   0  0  0  0  0  0  0  0  0  0  0  0
    1.7497   -5.6771   26.4971 C   0  0  0  0  0  0  0  0  0  0  0  0
   -1.5799   -9.9322   18.3468 C   0  0  0  0  0  0  0  0  0  0  0  0
   -1.0871  -12.2214   17.8851 C   0  0  0  0  0  0  0  0  0  0  0  0
   -2.2706   -8.9669   19.0691 C   0  0  0  0  0  0  0  0  0  0  0  0
    3.0279   -5.3073   26.8197 C   0  0  0  0  0  0  0  0  0  0  0  0
    7.3282   -3.8948   29.1186 C   0  0  0  0  0  0  0  0  0  0  0  0
  1  3  4  0
  1  7  4  0
  2  3  1  0
  2  6  4  0
  2 16  4  0
  3 22  4  0
  4  9  4  0
  4 10  1  0
  4 20  4  0
  5 16  4  0
  5 23  4  0
  6 15  4  0
  7 12  4  0
  8 13  4  0
  8 14  4  0
  9 11  4  0
 11 14  4  0
 11 19  4  0
 12 18  4  0
 13 21  4  0
 15 23  4  0
 17 19  4  0
 17 20  4  0
 18 22  4  0
 19 21  4  0
M  END
$$$$

 Created by Python create_sdf_string function

 23 25  0  0  0  0  0  0  0  0999 V2000
    2.4610   -5.3070   29.1240 C   0  0  0  0  0  0  0  0  0  0  0  0
    4.7710   -4.6952   28.4803 C   0  0  0  0  0  0  0  0  0  0  0  0
    3.4047   -5.1087   28.1314 C   0  0  0  0  0  0  0  0  0  0  0  0
   -0.2234  -11.8615   16.8874 C   0  0  0  0  0  0  0  0  0  0  0  0
    6.4491   -4.1532   30.1213 C   0  0  0  0  0  0  0  0  0  0  0  0
    5.7060   -4.4340   27.4975 C   0  0  0  0  0  0  0  0  0  0  0  0
    1.1818   -5.6612   28.8399 C   0  0  0  0  0  0  0  0  0  0  0  0
   -1.2067   -7.3287   17.7772 C   0  0  0  0  0  0  0  0  0  0  0  0
   -0.0206  -10.5585   16.6210 C   0  0  0  0  0  0  0  0  0  0  0  0
    0.3696  -12.7626   16.2169 O   0  0  0  0  0  0  0  0  0  0  0  0
   -0.6895   -9.5676   17.3297 C   0  0  0  0  0  0  0  0  0  0  0  0
    0.8388   -5.8417   27.5264 C   0  0  0  0  0  0  0  0  0  0  0  0
   -2.0709   -7.6637   18.7817 C   0  0  0  0  0  0  0  0  0  0  0  0
   -0.5279   -8.2168   17.0717 C   0  0  0  0  0  0  0  0  0  0  0  0
    6.9694   -4.0191   27.8190 C   0  0  0  0  0  0  0  0  0  0  0  0
    5.1733   -4.5469   29.8123 C   0  0  0  0  0  0  0  0  0  0  0  0
   -1.7508  -11.3016   18.6072 C   0  0  0  0  0  0  0  0  0  0  0  0
    1.7497   -5.6771   26.4971 C   0  0  0  0  0  0  0  0  0  0  0  0
   -1.5799   -9.9322   18.3468 C   0  0  0  0  0  0  0  0  0  0  0  0
   -1.0871  -12.2214   17.8851 C   0  0  0  0  0  0  0  0  0  0  0  0
   -2.2706   -8.9669   19.0691 C   0  0  0  0  0  0  0  0  0  0  0  0
    3.0279   -5.3073   26.8197 C   0  0  0  0  0  0  0  0  0  0  0  0
    7.3282   -3.8948   29.1186 C   0  0  0  0  0  0  0  0  0  0  0  0
  1  3  4  0
  1  7  4  0
  2  3  1  0
  2  6  4  0
  2 16  4  0
  3 22  4  0
  4  9  4  0
  4 10  1  0
  4 20  4  0
  5 16  4  0
  5 23  4  0
  6 15  4  0
  7 12  4  0
  8 13  4  0
  8 14  4  0
  9 11  4  0
 11 14  4  0
 11 19  4  0
 12 18  4  0
 13 21  4  0
 15 23  4  0
 17 19  4  0
 17 20  4  0
 18 22  4  0
 19 21  4  0
M  END
$$$$

 Created by Python create_sdf_string function

 23 25  0  0  0  0  0  0  0  0999 V2000
    2.4610   -5.3070   29.1240 C   0  0  0  0  0  0  0  0  0  0  0  0
    4.7710   -4.6952   28.4803 C   0  0  0  0  0  0  0  0  0  0  0  0
    3.4047   -5.1087   28.1314 C   0  0  0  0  0  0  0  0  0  0  0  0
   -0.2234  -11.8615   16.8874 C   0  0  0  0  0  0  0  0  0  0  0  0
    6.4491   -4.1532   30.1213 C   0  0  0  0  0  0  0  0  0  0  0  0
    5.7060   -4.4340   27.4975 C   0  0  0  0  0  0  0  0  0  0  0  0
    1.1818   -5.6612   28.8399 C   0  0  0  0  0  0  0  0  0  0  0  0
   -1.2067   -7.3287   17.7772 C   0  0  0  0  0  0  0  0  0  0  0  0
   -0.0206  -10.5585   16.6210 C   0  0  0  0  0  0  0  0  0  0  0  0
    0.3696  -12.7626   16.2169 O   0  0  0  0  0  0  0  0  0  0  0  0
   -0.6895   -9.5676   17.3297 C   0  0  0  0  0  0  0  0  0  0  0  0
    0.8388   -5.8417   27.5264 C   0  0  0  0  0  0  0  0  0  0  0  0
   -2.0709   -7.6637   18.7817 C   0  0  0  0  0  0  0  0  0  0  0  0
   -0.5279   -8.2168   17.0717 C   0  0  0  0  0  0  0  0  0  0  0  0
    6.9694   -4.0191   27.8190 C   0  0  0  0  0  0  0  0  0  0  0  0
    5.1733   -4.5469   29.8123 C   0  0  0  0  0  0  0  0  0  0  0  0
   -1.7508  -11.3016   18.6072 C   0  0  0  0  0  0  0  0  0  0  0  0
    1.7497   -5.6771   26.4971 C   0  0  0  0  0  0  0  0  0  0  0  0
   -1.5799   -9.9322   18.3468 C   0  0  0  0  0  0  0  0  0  0  0  0
   -1.0871  -12.2214   17.8851 C   0  0  0  0  0  0  0  0  0  0  0  0
   -2.2706   -8.9669   19.0691 C   0  0  0  0  0  0  0  0  0  0  0  0
    3.0279   -5.3073   26.8197 C   0  0  0  0  0  0  0  0  0  0  0  0
    7.3282   -3.8948   29.1186 C   0  0  0  0  0  0  0  0  0  0  0  0
  1  3  4  0
  1  7  4  0
  2  3  1  0
  2  6  4  0
  2 16  4  0
  3 22  4  0
  4  9  4  0
  4 10  1  0
  4 20  4  0
  5 16  4  0
  5 23  4  0
  6 15  4  0
  7 12  4  0
  8 13  4  0
  8 14  4  0
  9 11  4  0
 11 14  4  0
 11 19  4  0
 12 18  4  0
 13 21  4  0
 15 23  4  0
 17 19  4  0
 17 20  4  0
 18 22  4  0
 19 21  4  0
M  END
$$$$

 Created by Python create_sdf_string function

 23 25  0  0  0  0  0  0  0  0999 V2000
    2.4610   -5.3070   29.1240 C   0  0  0  0  0  0  0  0  0  0  0  0
    4.7710   -4.6952   28.4803 C   0  0  0  0  0  0  0  0  0  0  0  0
    3.4047   -5.1087   28.1314 C   0  0  0  0  0  0  0  0  0  0  0  0
   -0.2234  -11.8615   16.8874 C   0  0  0  0  0  0  0  0  0  0  0  0
    6.4491   -4.1532   30.1213 C   0  0  0  0  0  0  0  0  0  0  0  0
    5.7060   -4.4340   27.4975 C   0  0  0  0  0  0  0  0  0  0  0  0
    1.1818   -5.6612   28.8399 C   0  0  0  0  0  0  0  0  0  0  0  0
   -1.2067   -7.3287   17.7772 C   0  0  0  0  0  0  0  0  0  0  0  0
   -0.0206  -10.5585   16.6210 C   0  0  0  0  0  0  0  0  0  0  0  0
    0.3696  -12.7626   16.2169 O   0  0  0  0  0  0  0  0  0  0  0  0
   -0.6895   -9.5676   17.3297 C   0  0  0  0  0  0  0  0  0  0  0  0
    0.8388   -5.8417   27.5264 C   0  0  0  0  0  0  0  0  0  0  0  0
   -2.0709   -7.6637   18.7817 C   0  0  0  0  0  0  0  0  0  0  0  0
   -0.5279   -8.2168   17.0717 C   0  0  0  0  0  0  0  0  0  0  0  0
    6.9694   -4.0191   27.8190 C   0  0  0  0  0  0  0  0  0  0  0  0
    5.1733   -4.5469   29.8123 C   0  0  0  0  0  0  0  0  0  0  0  0
   -1.7508  -11.3016   18.6072 C   0  0  0  0  0  0  0  0  0  0  0  0
    1.7497   -5.6771   26.4971 C   0  0  0  0  0  0  0  0  0  0  0  0
   -1.5799   -9.9322   18.3468 C   0  0  0  0  0  0  0  0  0  0  0  0
   -1.0871  -12.2214   17.8851 C   0  0  0  0  0  0  0  0  0  0  0  0
   -2.2706   -8.9669   19.0691 C   0  0  0  0  0  0  0  0  0  0  0  0
    3.0279   -5.3073   26.8197 C   0  0  0  0  0  0  0  0  0  0  0  0
    7.3282   -3.8948   29.1186 C   0  0  0  0  0  0  0  0  0  0  0  0
  1  3  4  0
  1  7  4  0
  2  3  1  0
  2  6  4  0
  2 16  4  0
  3 22  4  0
  4  9  4  0
  4 10  1  0
  4 20  4  0
  5 16  4  0
  5 23  4  0
  6 15  4  0
  7 12  4  0
  8 13  4  0
  8 14  4  0
  9 11  4  0
 11 14  4  0
 11 19  4  0
 12 18  4  0
 13 21  4  0
 15 23  4  0
 17 19  4  0
 17 20  4  0
 18 22  4  0
 19 21  4  0
M  END
$$$$

 Created by Python create_sdf_string function

 23 25  0  0  0  0  0  0  0  0999 V2000
    2.4610   -5.3070   29.1240 C   0  0  0  0  0  0  0  0  0  0  0  0
    4.7710   -4.6952   28.4803 C   0  0  0  0  0  0  0  0  0  0  0  0
    3.4047   -5.1087   28.1314 C   0  0  0  0  0  0  0  0  0  0  0  0
   -0.2234  -11.8615   16.8874 C   0  0  0  0  0  0  0  0  0  0  0  0
    6.4491   -4.1532   30.1213 C   0  0  0  0  0  0  0  0  0  0  0  0
    5.7060   -4.4340   27.4975 C   0  0  0  0  0  0  0  0  0  0  0  0
    1.1818   -5.6612   28.8399 C   0  0  0  0  0  0  0  0  0  0  0  0
   -1.2067   -7.3287   17.7772 C   0  0  0  0  0  0  0  0  0  0  0  0
   -0.0206  -10.5585   16.6210 C   0  0  0  0  0  0  0  0  0  0  0  0
    0.3696  -12.7626   16.2169 O   0  0  0  0  0  0  0  0  0  0  0  0
   -0.6895   -9.5676   17.3297 C   0  0  0  0  0  0  0  0  0  0  0  0
    0.8388   -5.8417   27.5264 C   0  0  0  0  0  0  0  0  0  0  0  0
   -2.0709   -7.6637   18.7817 C   0  0  0  0  0  0  0  0  0  0  0  0
   -0.5279   -8.2168   17.0717 C   0  0  0  0  0  0  0  0  0  0  0  0
    6.9694   -4.0191   27.8190 C   0  0  0  0  0  0  0  0  0  0  0  0
    5.1733   -4.5469   29.8123 C   0  0  0  0  0  0  0  0  0  0  0  0
   -1.7508  -11.3016   18.6072 C   0  0  0  0  0  0  0  0  0  0  0  0
    1.7497   -5.6771   26.4971 C   0  0  0  0  0  0  0  0  0  0  0  0
   -1.5799   -9.9322   18.3468 C   0  0  0  0  0  0  0  0  0  0  0  0
   -1.0871  -12.2214   17.8851 C   0  0  0  0  0  0  0  0  0  0  0  0
   -2.2706   -8.9669   19.0691 C   0  0  0  0  0  0  0  0  0  0  0  0
    3.0279   -5.3073   26.8197 C   0  0  0  0  0  0  0  0  0  0  0  0
    7.3282   -3.8948   29.1186 C   0  0  0  0  0  0  0  0  0  0  0  0
  1  3  4  0
  1  7  4  0
  2  3  1  0
  2  6  4  0
  2 16  4  0
  3 22  4  0
  4  9  4  0
  4 10  1  0
  4 20  4  0
  5 16  4  0
  5 23  4  0
  6 15  4  0
  7 12  4  0
  8 13  4  0
  8 14  4  0
  9 11  4  0
 11 14  4  0
 11 19  4  0
 12 18  4  0
 13 21  4  0
 15 23  4  0
 17 19  4  0
 17 20  4  0
 18 22  4  0
 19 21  4  0
M  END
$$$$

 Created by Python create_sdf_string function

 23 25  0  0  0  0  0  0  0  0999 V2000
    2.4610   -5.3070   29.1240 C   0  0  0  0  0  0  0  0  0  0  0  0
    4.7710   -4.6952   28.4803 C   0  0  0  0  0  0  0  0  0  0  0  0
    3.4047   -5.1087   28.1314 C   0  0  0  0  0  0  0  0  0  0  0  0
   -0.2234  -11.8615   16.8874 C   0  0  0  0  0  0  0  0  0  0  0  0
    6.4491   -4.1532   30.1213 C   0  0  0  0  0  0  0  0  0  0  0  0
    5.7060   -4.4340   27.4975 C   0  0  0  0  0  0  0  0  0  0  0  0
    1.1818   -5.6612   28.8399 C   0  0  0  0  0  0  0  0  0  0  0  0
   -1.2067   -7.3287   17.7772 C   0  0  0  0  0  0  0  0  0  0  0  0
   -0.0206  -10.5585   16.6210 C   0  0  0  0  0  0  0  0  0  0  0  0
    0.3696  -12.7626   16.2169 O   0  0  0  0  0  0  0  0  0  0  0  0
   -0.6895   -9.5676   17.3297 C   0  0  0  0  0  0  0  0  0  0  0  0
    0.8388   -5.8417   27.5264 C   0  0  0  0  0  0  0  0  0  0  0  0
   -2.0709   -7.6637   18.7817 C   0  0  0  0  0  0  0  0  0  0  0  0
   -0.5279   -8.2168   17.0717 C   0  0  0  0  0  0  0  0  0  0  0  0
    6.9694   -4.0191   27.8190 C   0  0  0  0  0  0  0  0  0  0  0  0
    5.1733   -4.5469   29.8123 C   0  0  0  0  0  0  0  0  0  0  0  0
   -1.7508  -11.3016   18.6072 C   0  0  0  0  0  0  0  0  0  0  0  0
    1.7497   -5.6771   26.4971 C   0  0  0  0  0  0  0  0  0  0  0  0
   -1.5799   -9.9322   18.3468 C   0  0  0  0  0  0  0  0  0  0  0  0
   -1.0871  -12.2214   17.8851 C   0  0  0  0  0  0  0  0  0  0  0  0
   -2.2706   -8.9669   19.0691 C   0  0  0  0  0  0  0  0  0  0  0  0
    3.0279   -5.3073   26.8197 C   0  0  0  0  0  0  0  0  0  0  0  0
    7.3282   -3.8948   29.1186 C   0  0  0  0  0  0  0  0  0  0  0  0
  1  3  4  0
  1  7  4  0
  2  3  1  0
  2  6  4  0
  2 16  4  0
  3 22  4  0
  4  9  4  0
  4 10  1  0
  4 20  4  0
  5 16  4  0
  5 23  4  0
  6 15  4  0
  7 12  4  0
  8 13  4  0
  8 14  4  0
  9 11  4  0
 11 14  4  0
 11 19  4  0
 12 18  4  0
 13 21  4  0
 15 23  4  0
 17 19  4  0
 17 20  4  0
 18 22  4  0
 19 21  4  0
M  END
$$$$

 Created by Python create_sdf_string function

 23 25  0  0  0  0  0  0  0  0999 V2000
    2.4610   -5.3070   29.1240 C   0  0  0  0  0  0  0  0  0  0  0  0
    4.7710   -4.6952   28.4803 C   0  0  0  0  0  0  0  0  0  0  0  0
    3.4047   -5.1087   28.1314 C   0  0  0  0  0  0  0  0  0  0  0  0
   -0.2234  -11.8615   16.8874 C   0  0  0  0  0  0  0  0  0  0  0  0
    6.4491   -4.1532   30.1213 C   0  0  0  0  0  0  0  0  0  0  0  0
    5.7060   -4.4340   27.4975 C   0  0  0  0  0  0  0  0  0  0  0  0
    1.1818   -5.6612   28.8399 C   0  0  0  0  0  0  0  0  0  0  0  0
   -1.2067   -7.3287   17.7772 C   0  0  0  0  0  0  0  0  0  0  0  0
   -0.0206  -10.5585   16.6210 C   0  0  0  0  0  0  0  0  0  0  0  0
    0.3696  -12.7626   16.2169 O   0  0  0  0  0  0  0  0  0  0  0  0
   -0.6895   -9.5676   17.3297 C   0  0  0  0  0  0  0  0  0  0  0  0
    0.8388   -5.8417   27.5264 C   0  0  0  0  0  0  0  0  0  0  0  0
   -2.0709   -7.6637   18.7817 C   0  0  0  0  0  0  0  0  0  0  0  0
   -0.5279   -8.2168   17.0717 C   0  0  0  0  0  0  0  0  0  0  0  0
    6.9694   -4.0191   27.8190 C   0  0  0  0  0  0  0  0  0  0  0  0
    5.1733   -4.5469   29.8123 C   0  0  0  0  0  0  0  0  0  0  0  0
   -1.7508  -11.3016   18.6072 C   0  0  0  0  0  0  0  0  0  0  0  0
    1.7497   -5.6771   26.4971 C   0  0  0  0  0  0  0  0  0  0  0  0
   -1.5799   -9.9322   18.3468 C   0  0  0  0  0  0  0  0  0  0  0  0
   -1.0871  -12.2214   17.8851 C   0  0  0  0  0  0  0  0  0  0  0  0
   -2.2706   -8.9669   19.0691 C   0  0  0  0  0  0  0  0  0  0  0  0
    3.0279   -5.3073   26.8197 C   0  0  0  0  0  0  0  0  0  0  0  0
    7.3282   -3.8948   29.1186 C   0  0  0  0  0  0  0  0  0  0  0  0
  1  3  4  0
  1  7  4  0
  2  3  1  0
  2  6  4  0
  2 16  4  0
  3 22  4  0
  4  9  4  0
  4 10  1  0
  4 20  4  0
  5 16  4  0
  5 23  4  0
  6 15  4  0
  7 12  4  0
  8 13  4  0
  8 14  4  0
  9 11  4  0
 11 14  4  0
 11 19  4  0
 12 18  4  0
 13 21  4  0
 15 23  4  0
 17 19  4  0
 17 20  4  0
 18 22  4  0
 19 21  4  0
M  END
$$$$

 Created by Python create_sdf_string function

 23 25  0  0  0  0  0  0  0  0999 V2000
    2.4610   -5.3070   29.1240 C   0  0  0  0  0  0  0  0  0  0  0  0
    4.7710   -4.6952   28.4803 C   0  0  0  0  0  0  0  0  0  0  0  0
    3.4047   -5.1087   28.1314 C   0  0  0  0  0  0  0  0  0  0  0  0
   -0.2234  -11.8615   16.8874 C   0  0  0  0  0  0  0  0  0  0  0  0
    6.4491   -4.1532   30.1213 C   0  0  0  0  0  0  0  0  0  0  0  0
    5.7060   -4.4340   27.4975 C   0  0  0  0  0  0  0  0  0  0  0  0
    1.1818   -5.6612   28.8399 C   0  0  0  0  0  0  0  0  0  0  0  0
   -1.2067   -7.3287   17.7772 C   0  0  0  0  0  0  0  0  0  0  0  0
   -0.0206  -10.5585   16.6210 C   0  0  0  0  0  0  0  0  0  0  0  0
    0.3696  -12.7626   16.2169 O   0  0  0  0  0  0  0  0  0  0  0  0
   -0.6895   -9.5676   17.3297 C   0  0  0  0  0  0  0  0  0  0  0  0
    0.8388   -5.8417   27.5264 C   0  0  0  0  0  0  0  0  0  0  0  0
   -2.0709   -7.6637   18.7817 C   0  0  0  0  0  0  0  0  0  0  0  0
   -0.5279   -8.2168   17.0717 C   0  0  0  0  0  0  0  0  0  0  0  0
    6.9694   -4.0191   27.8190 C   0  0  0  0  0  0  0  0  0  0  0  0
    5.1733   -4.5469   29.8123 C   0  0  0  0  0  0  0  0  0  0  0  0
   -1.7508  -11.3016   18.6072 C   0  0  0  0  0  0  0  0  0  0  0  0
    1.7497   -5.6771   26.4971 C   0  0  0  0  0  0  0  0  0  0  0  0
   -1.5799   -9.9322   18.3468 C   0  0  0  0  0  0  0  0  0  0  0  0
   -1.0871  -12.2214   17.8851 C   0  0  0  0  0  0  0  0  0  0  0  0
   -2.2706   -8.9669   19.0691 C   0  0  0  0  0  0  0  0  0  0  0  0
    3.0279   -5.3073   26.8197 C   0  0  0  0  0  0  0  0  0  0  0  0
    7.3282   -3.8948   29.1186 C   0  0  0  0  0  0  0  0  0  0  0  0
  1  3  4  0
  1  7  4  0
  2  3  1  0
  2  6  4  0
  2 16  4  0
  3 22  4  0
  4  9  4  0
  4 10  1  0
  4 20  4  0
  5 16  4  0
  5 23  4  0
  6 15  4  0
  7 12  4  0
  8 13  4  0
  8 14  4  0
  9 11  4  0
 11 14  4  0
 11 19  4  0
 12 18  4  0
 13 21  4  0
 15 23  4  0
 17 19  4  0
 17 20  4  0
 18 22  4  0
 19 21  4  0
M  END
$$$$

 Created by Python create_sdf_string function

 23 25  0  0  0  0  0  0  0  0999 V2000
    2.4610   -5.3070   29.1240 C   0  0  0  0  0  0  0  0  0  0  0  0
    4.7710   -4.6952   28.4803 C   0  0  0  0  0  0  0  0  0  0  0  0
    3.4047   -5.1087   28.1314 C   0  0  0  0  0  0  0  0  0  0  0  0
   -0.2234  -11.8615   16.8874 C   0  0  0  0  0  0  0  0  0  0  0  0
    6.4491   -4.1532   30.1213 C   0  0  0  0  0  0  0  0  0  0  0  0
    5.7060   -4.4340   27.4975 C   0  0  0  0  0  0  0  0  0  0  0  0
    1.1818   -5.6612   28.8399 C   0  0  0  0  0  0  0  0  0  0  0  0
   -1.2067   -7.3287   17.7772 C   0  0  0  0  0  0  0  0  0  0  0  0
   -0.0206  -10.5585   16.6210 C   0  0  0  0  0  0  0  0  0  0  0  0
    0.3696  -12.7626   16.2169 O   0  0  0  0  0  0  0  0  0  0  0  0
   -0.6895   -9.5676   17.3297 C   0  0  0  0  0  0  0  0  0  0  0  0
    0.8388   -5.8417   27.5264 C   0  0  0  0  0  0  0  0  0  0  0  0
   -2.0709   -7.6637   18.7817 C   0  0  0  0  0  0  0  0  0  0  0  0
   -0.5279   -8.2168   17.0717 C   0  0  0  0  0  0  0  0  0  0  0  0
    6.9694   -4.0191   27.8190 C   0  0  0  0  0  0  0  0  0  0  0  0
    5.1733   -4.5469   29.8123 C   0  0  0  0  0  0  0  0  0  0  0  0
   -1.7508  -11.3016   18.6072 C   0  0  0  0  0  0  0  0  0  0  0  0
    1.7497   -5.6771   26.4971 C   0  0  0  0  0  0  0  0  0  0  0  0
   -1.5799   -9.9322   18.3468 C   0  0  0  0  0  0  0  0  0  0  0  0
   -1.0871  -12.2214   17.8851 C   0  0  0  0  0  0  0  0  0  0  0  0
   -2.2706   -8.9669   19.0691 C   0  0  0  0  0  0  0  0  0  0  0  0
    3.0279   -5.3073   26.8197 C   0  0  0  0  0  0  0  0  0  0  0  0
    7.3282   -3.8948   29.1186 C   0  0  0  0  0  0  0  0  0  0  0  0
  1  3  4  0
  1  7  4  0
  2  3  1  0
  2  6  4  0
  2 16  4  0
  3 22  4  0
  4  9  4  0
  4 10  1  0
  4 20  4  0
  5 16  4  0
  5 23  4  0
  6 15  4  0
  7 12  4  0
  8 13  4  0
  8 14  4  0
  9 11  4  0
 11 14  4  0
 11 19  4  0
 12 18  4  0
 13 21  4  0
 15 23  4  0
 17 19  4  0
 17 20  4  0
 18 22  4  0
 19 21  4  0
M  END
$$$$

 Created by Python create_sdf_string function

 23 25  0  0  0  0  0  0  0  0999 V2000
    2.4610   -5.3070   29.1240 C   0  0  0  0  0  0  0  0  0  0  0  0
    4.7710   -4.6952   28.4803 C   0  0  0  0  0  0  0  0  0  0  0  0
    3.4047   -5.1087   28.1314 C   0  0  0  0  0  0  0  0  0  0  0  0
   -0.2234  -11.8615   16.8874 C   0  0  0  0  0  0  0  0  0  0  0  0
    6.4491   -4.1532   30.1213 C   0  0  0  0  0  0  0  0  0  0  0  0
    5.7060   -4.4340   27.4975 C   0  0  0  0  0  0  0  0  0  0  0  0
    1.1818   -5.6612   28.8399 C   0  0  0  0  0  0  0  0  0  0  0  0
   -1.2067   -7.3287   17.7772 C   0  0  0  0  0  0  0  0  0  0  0  0
   -0.0206  -10.5585   16.6210 C   0  0  0  0  0  0  0  0  0  0  0  0
    0.3696  -12.7626   16.2169 O   0  0  0  0  0  0  0  0  0  0  0  0
   -0.6895   -9.5676   17.3297 C   0  0  0  0  0  0  0  0  0  0  0  0
    0.8388   -5.8417   27.5264 C   0  0  0  0  0  0  0  0  0  0  0  0
   -2.0709   -7.6637   18.7817 C   0  0  0  0  0  0  0  0  0  0  0  0
   -0.5279   -8.2168   17.0717 C   0  0  0  0  0  0  0  0  0  0  0  0
    6.9694   -4.0191   27.8190 C   0  0  0  0  0  0  0  0  0  0  0  0
    5.1733   -4.5469   29.8123 C   0  0  0  0  0  0  0  0  0  0  0  0
   -1.7508  -11.3016   18.6072 C   0  0  0  0  0  0  0  0  0  0  0  0
    1.7497   -5.6771   26.4971 C   0  0  0  0  0  0  0  0  0  0  0  0
   -1.5799   -9.9322   18.3468 C   0  0  0  0  0  0  0  0  0  0  0  0
   -1.0871  -12.2214   17.8851 C   0  0  0  0  0  0  0  0  0  0  0  0
   -2.2706   -8.9669   19.0691 C   0  0  0  0  0  0  0  0  0  0  0  0
    3.0279   -5.3073   26.8197 C   0  0  0  0  0  0  0  0  0  0  0  0
    7.3282   -3.8948   29.1186 C   0  0  0  0  0  0  0  0  0  0  0  0
  1  3  4  0
  1  7  4  0
  2  3  1  0
  2  6  4  0
  2 16  4  0
  3 22  4  0
  4  9  4  0
  4 10  1  0
  4 20  4  0
  5 16  4  0
  5 23  4  0
  6 15  4  0
  7 12  4  0
  8 13  4  0
  8 14  4  0
  9 11  4  0
 11 14  4  0
 11 19  4  0
 12 18  4  0
 13 21  4  0
 15 23  4  0
 17 19  4  0
 17 20  4  0
 18 22  4  0
 19 21  4  0
M  END
$$$$

 Created by Python create_sdf_string function

 23 25  0  0  0  0  0  0  0  0999 V2000
    2.4610   -5.3070   29.1240 C   0  0  0  0  0  0  0  0  0  0  0  0
    4.7710   -4.6952   28.4803 C   0  0  0  0  0  0  0  0  0  0  0  0
    3.4047   -5.1087   28.1314 C   0  0  0  0  0  0  0  0  0  0  0  0
   -0.2234  -11.8615   16.8874 C   0  0  0  0  0  0  0  0  0  0  0  0
    6.4491   -4.1532   30.1213 C   0  0  0  0  0  0  0  0  0  0  0  0
    5.7060   -4.4340   27.4975 C   0  0  0  0  0  0  0  0  0  0  0  0
    1.1818   -5.6612   28.8399 C   0  0  0  0  0  0  0  0  0  0  0  0
   -1.2067   -7.3287   17.7772 C   0  0  0  0  0  0  0  0  0  0  0  0
   -0.0206  -10.5585   16.6210 C   0  0  0  0  0  0  0  0  0  0  0  0
    0.3696  -12.7626   16.2169 O   0  0  0  0  0  0  0  0  0  0  0  0
   -0.6895   -9.5676   17.3297 C   0  0  0  0  0  0  0  0  0  0  0  0
    0.8388   -5.8417   27.5264 C   0  0  0  0  0  0  0  0  0  0  0  0
   -2.0709   -7.6637   18.7817 C   0  0  0  0  0  0  0  0  0  0  0  0
   -0.5279   -8.2168   17.0717 C   0  0  0  0  0  0  0  0  0  0  0  0
    6.9694   -4.0191   27.8190 C   0  0  0  0  0  0  0  0  0  0  0  0
    5.1733   -4.5469   29.8123 C   0  0  0  0  0  0  0  0  0  0  0  0
   -1.7508  -11.3016   18.6072 C   0  0  0  0  0  0  0  0  0  0  0  0
    1.7497   -5.6771   26.4971 C   0  0  0  0  0  0  0  0  0  0  0  0
   -1.5799   -9.9322   18.3468 C   0  0  0  0  0  0  0  0  0  0  0  0
   -1.0871  -12.2214   17.8851 C   0  0  0  0  0  0  0  0  0  0  0  0
   -2.2706   -8.9669   19.0691 C   0  0  0  0  0  0  0  0  0  0  0  0
    3.0279   -5.3073   26.8197 C   0  0  0  0  0  0  0  0  0  0  0  0
    7.3282   -3.8948   29.1186 C   0  0  0  0  0  0  0  0  0  0  0  0
  1  3  4  0
  1  7  4  0
  2  3  1  0
  2  6  4  0
  2 16  4  0
  3 22  4  0
  4  9  4  0
  4 10  1  0
  4 20  4  0
  5 16  4  0
  5 23  4  0
  6 15  4  0
  7 12  4  0
  8 13  4  0
  8 14  4  0
  9 11  4  0
 11 14  4  0
 11 19  4  0
 12 18  4  0
 13 21  4  0
 15 23  4  0
 17 19  4  0
 17 20  4  0
 18 22  4  0
 19 21  4  0
M  END
$$$$

 Created by Python create_sdf_string function

 23 25  0  0  0  0  0  0  0  0999 V2000
    2.4610   -5.3070   29.1240 C   0  0  0  0  0  0  0  0  0  0  0  0
    4.7710   -4.6952   28.4803 C   0  0  0  0  0  0  0  0  0  0  0  0
    3.4047   -5.1087   28.1314 C   0  0  0  0  0  0  0  0  0  0  0  0
   -0.2234  -11.8615   16.8874 C   0  0  0  0  0  0  0  0  0  0  0  0
    6.4491   -4.1532   30.1213 C   0  0  0  0  0  0  0  0  0  0  0  0
    5.7060   -4.4340   27.4975 C   0  0  0  0  0  0  0  0  0  0  0  0
    1.1818   -5.6612   28.8399 C   0  0  0  0  0  0  0  0  0  0  0  0
   -1.2067   -7.3287   17.7772 C   0  0  0  0  0  0  0  0  0  0  0  0
   -0.0206  -10.5585   16.6210 C   0  0  0  0  0  0  0  0  0  0  0  0
    0.3696  -12.7626   16.2169 O   0  0  0  0  0  0  0  0  0  0  0  0
   -0.6895   -9.5676   17.3297 C   0  0  0  0  0  0  0  0  0  0  0  0
    0.8388   -5.8417   27.5264 C   0  0  0  0  0  0  0  0  0  0  0  0
   -2.0709   -7.6637   18.7817 C   0  0  0  0  0  0  0  0  0  0  0  0
   -0.5279   -8.2168   17.0717 C   0  0  0  0  0  0  0  0  0  0  0  0
    6.9694   -4.0191   27.8190 C   0  0  0  0  0  0  0  0  0  0  0  0
    5.1733   -4.5469   29.8123 C   0  0  0  0  0  0  0  0  0  0  0  0
   -1.7508  -11.3016   18.6072 C   0  0  0  0  0  0  0  0  0  0  0  0
    1.7497   -5.6771   26.4971 C   0  0  0  0  0  0  0  0  0  0  0  0
   -1.5799   -9.9322   18.3468 C   0  0  0  0  0  0  0  0  0  0  0  0
   -1.0871  -12.2214   17.8851 C   0  0  0  0  0  0  0  0  0  0  0  0
   -2.2706   -8.9669   19.0691 C   0  0  0  0  0  0  0  0  0  0  0  0
    3.0279   -5.3073   26.8197 C   0  0  0  0  0  0  0  0  0  0  0  0
    7.3282   -3.8948   29.1186 C   0  0  0  0  0  0  0  0  0  0  0  0
  1  3  4  0
  1  7  4  0
  2  3  1  0
  2  6  4  0
  2 16  4  0
  3 22  4  0
  4  9  4  0
  4 10  1  0
  4 20  4  0
  5 16  4  0
  5 23  4  0
  6 15  4  0
  7 12  4  0
  8 13  4  0
  8 14  4  0
  9 11  4  0
 11 14  4  0
 11 19  4  0
 12 18  4  0
 13 21  4  0
 15 23  4  0
 17 19  4  0
 17 20  4  0
 18 22  4  0
 19 21  4  0
M  END
$$$$

 Created by Python create_sdf_string function

 23 25  0  0  0  0  0  0  0  0999 V2000
    2.4610   -5.3070   29.1240 C   0  0  0  0  0  0  0  0  0  0  0  0
    4.7710   -4.6952   28.4803 C   0  0  0  0  0  0  0  0  0  0  0  0
    3.4047   -5.1087   28.1314 C   0  0  0  0  0  0  0  0  0  0  0  0
   -0.2234  -11.8615   16.8874 C   0  0  0  0  0  0  0  0  0  0  0  0
    6.4491   -4.1532   30.1213 C   0  0  0  0  0  0  0  0  0  0  0  0
    5.7060   -4.4340   27.4975 C   0  0  0  0  0  0  0  0  0  0  0  0
    1.1818   -5.6612   28.8399 C   0  0  0  0  0  0  0  0  0  0  0  0
   -1.2067   -7.3287   17.7772 C   0  0  0  0  0  0  0  0  0  0  0  0
   -0.0206  -10.5585   16.6210 C   0  0  0  0  0  0  0  0  0  0  0  0
    0.3696  -12.7626   16.2169 O   0  0  0  0  0  0  0  0  0  0  0  0
   -0.6895   -9.5676   17.3297 C   0  0  0  0  0  0  0  0  0  0  0  0
    0.8388   -5.8417   27.5264 C   0  0  0  0  0  0  0  0  0  0  0  0
   -2.0709   -7.6637   18.7817 C   0  0  0  0  0  0  0  0  0  0  0  0
   -0.5279   -8.2168   17.0717 C   0  0  0  0  0  0  0  0  0  0  0  0
    6.9694   -4.0191   27.8190 C   0  0  0  0  0  0  0  0  0  0  0  0
    5.1733   -4.5469   29.8123 C   0  0  0  0  0  0  0  0  0  0  0  0
   -1.7508  -11.3016   18.6072 C   0  0  0  0  0  0  0  0  0  0  0  0
    1.7497   -5.6771   26.4971 C   0  0  0  0  0  0  0  0  0  0  0  0
   -1.5799   -9.9322   18.3468 C   0  0  0  0  0  0  0  0  0  0  0  0
   -1.0871  -12.2214   17.8851 C   0  0  0  0  0  0  0  0  0  0  0  0
   -2.2706   -8.9669   19.0691 C   0  0  0  0  0  0  0  0  0  0  0  0
    3.0279   -5.3073   26.8197 C   0  0  0  0  0  0  0  0  0  0  0  0
    7.3282   -3.8948   29.1186 C   0  0  0  0  0  0  0  0  0  0  0  0
  1  3  4  0
  1  7  4  0
  2  3  1  0
  2  6  4  0
  2 16  4  0
  3 22  4  0
  4  9  4  0
  4 10  1  0
  4 20  4  0
  5 16  4  0
  5 23  4  0
  6 15  4  0
  7 12  4  0
  8 13  4  0
  8 14  4  0
  9 11  4  0
 11 14  4  0
 11 19  4  0
 12 18  4  0
 13 21  4  0
 15 23  4  0
 17 19  4  0
 17 20  4  0
 18 22  4  0
 19 21  4  0
M  END
$$$$

 Created by Python create_sdf_string function

 23 25  0  0  0  0  0  0  0  0999 V2000
    2.4610   -5.3070   29.1240 C   0  0  0  0  0  0  0  0  0  0  0  0
    4.7710   -4.6952   28.4803 C   0  0  0  0  0  0  0  0  0  0  0  0
    3.4047   -5.1087   28.1314 C   0  0  0  0  0  0  0  0  0  0  0  0
   -0.2234  -11.8615   16.8874 C   0  0  0  0  0  0  0  0  0  0  0  0
    6.4491   -4.1532   30.1213 C   0  0  0  0  0  0  0  0  0  0  0  0
    5.7060   -4.4340   27.4975 C   0  0  0  0  0  0  0  0  0  0  0  0
    1.1818   -5.6612   28.8399 C   0  0  0  0  0  0  0  0  0  0  0  0
   -1.2067   -7.3287   17.7772 C   0  0  0  0  0  0  0  0  0  0  0  0
   -0.0206  -10.5585   16.6210 C   0  0  0  0  0  0  0  0  0  0  0  0
    0.3696  -12.7626   16.2169 O   0  0  0  0  0  0  0  0  0  0  0  0
   -0.6895   -9.5676   17.3297 C   0  0  0  0  0  0  0  0  0  0  0  0
    0.8388   -5.8417   27.5264 C   0  0  0  0  0  0  0  0  0  0  0  0
   -2.0709   -7.6637   18.7817 C   0  0  0  0  0  0  0  0  0  0  0  0
   -0.5279   -8.2168   17.0717 C   0  0  0  0  0  0  0  0  0  0  0  0
    6.9694   -4.0191   27.8190 C   0  0  0  0  0  0  0  0  0  0  0  0
    5.1733   -4.5469   29.8123 C   0  0  0  0  0  0  0  0  0  0  0  0
   -1.7508  -11.3016   18.6072 C   0  0  0  0  0  0  0  0  0  0  0  0
    1.7497   -5.6771   26.4971 C   0  0  0  0  0  0  0  0  0  0  0  0
   -1.5799   -9.9322   18.3468 C   0  0  0  0  0  0  0  0  0  0  0  0
   -1.0871  -12.2214   17.8851 C   0  0  0  0  0  0  0  0  0  0  0  0
   -2.2706   -8.9669   19.0691 C   0  0  0  0  0  0  0  0  0  0  0  0
    3.0279   -5.3073   26.8197 C   0  0  0  0  0  0  0  0  0  0  0  0
    7.3282   -3.8948   29.1186 C   0  0  0  0  0  0  0  0  0  0  0  0
  1  3  4  0
  1  7  4  0
  2  3  1  0
  2  6  4  0
  2 16  4  0
  3 22  4  0
  4  9  4  0
  4 10  1  0
  4 20  4  0
  5 16  4  0
  5 23  4  0
  6 15  4  0
  7 12  4  0
  8 13  4  0
  8 14  4  0
  9 11  4  0
 11 14  4  0
 11 19  4  0
 12 18  4  0
 13 21  4  0
 15 23  4  0
 17 19  4  0
 17 20  4  0
 18 22  4  0
 19 21  4  0
M  END
$$$$

 Created by Python create_sdf_string function

 23 25  0  0  0  0  0  0  0  0999 V2000
    2.4610   -5.3070   29.1240 C   0  0  0  0  0  0  0  0  0  0  0  0
    4.7710   -4.6952   28.4803 C   0  0  0  0  0  0  0  0  0  0  0  0
    3.4047   -5.1087   28.1314 C   0  0  0  0  0  0  0  0  0  0  0  0
   -0.2234  -11.8615   16.8874 C   0  0  0  0  0  0  0  0  0  0  0  0
    6.4491   -4.1532   30.1213 C   0  0  0  0  0  0  0  0  0  0  0  0
    5.7060   -4.4340   27.4975 C   0  0  0  0  0  0  0  0  0  0  0  0
    1.1818   -5.6612   28.8399 C   0  0  0  0  0  0  0  0  0  0  0  0
   -1.2067   -7.3287   17.7772 C   0  0  0  0  0  0  0  0  0  0  0  0
   -0.0206  -10.5585   16.6210 C   0  0  0  0  0  0  0  0  0  0  0  0
    0.3696  -12.7626   16.2169 O   0  0  0  0  0  0  0  0  0  0  0  0
   -0.6895   -9.5676   17.3297 C   0  0  0  0  0  0  0  0  0  0  0  0
    0.8388   -5.8417   27.5264 C   0  0  0  0  0  0  0  0  0  0  0  0
   -2.0709   -7.6637   18.7817 C   0  0  0  0  0  0  0  0  0  0  0  0
   -0.5279   -8.2168   17.0717 C   0  0  0  0  0  0  0  0  0  0  0  0
    6.9694   -4.0191   27.8190 C   0  0  0  0  0  0  0  0  0  0  0  0
    5.1733   -4.5469   29.8123 C   0  0  0  0  0  0  0  0  0  0  0  0
   -1.7508  -11.3016   18.6072 C   0  0  0  0  0  0  0  0  0  0  0  0
    1.7497   -5.6771   26.4971 C   0  0  0  0  0  0  0  0  0  0  0  0
   -1.5799   -9.9322   18.3468 C   0  0  0  0  0  0  0  0  0  0  0  0
   -1.0871  -12.2214   17.8851 C   0  0  0  0  0  0  0  0  0  0  0  0
   -2.2706   -8.9669   19.0691 C   0  0  0  0  0  0  0  0  0  0  0  0
    3.0279   -5.3073   26.8197 C   0  0  0  0  0  0  0  0  0  0  0  0
    7.3282   -3.8948   29.1186 C   0  0  0  0  0  0  0  0  0  0  0  0
  1  3  4  0
  1  7  4  0
  2  3  1  0
  2  6  4  0
  2 16  4  0
  3 22  4  0
  4  9  4  0
  4 10  1  0
  4 20  4  0
  5 16  4  0
  5 23  4  0
  6 15  4  0
  7 12  4  0
  8 13  4  0
  8 14  4  0
  9 11  4  0
 11 14  4  0
 11 19  4  0
 12 18  4  0
 13 21  4  0
 15 23  4  0
 17 19  4  0
 17 20  4  0
 18 22  4  0
 19 21  4  0
M  END
$$$$

 Created by Python create_sdf_string function

 23 25  0  0  0  0  0  0  0  0999 V2000
    2.4610   -5.3070   29.1240 C   0  0  0  0  0  0  0  0  0  0  0  0
    4.7710   -4.6952   28.4803 C   0  0  0  0  0  0  0  0  0  0  0  0
    3.4047   -5.1087   28.1314 C   0  0  0  0  0  0  0  0  0  0  0  0
   -0.2234  -11.8615   16.8874 C   0  0  0  0  0  0  0  0  0  0  0  0
    6.4491   -4.1532   30.1213 C   0  0  0  0  0  0  0  0  0  0  0  0
    5.7060   -4.4340   27.4975 C   0  0  0  0  0  0  0  0  0  0  0  0
    1.1818   -5.6612   28.8399 C   0  0  0  0  0  0  0  0  0  0  0  0
   -1.2067   -7.3287   17.7772 C   0  0  0  0  0  0  0  0  0  0  0  0
   -0.0206  -10.5585   16.6210 C   0  0  0  0  0  0  0  0  0  0  0  0
    0.3696  -12.7626   16.2169 O   0  0  0  0  0  0  0  0  0  0  0  0
   -0.6895   -9.5676   17.3297 C   0  0  0  0  0  0  0  0  0  0  0  0
    0.8388   -5.8417   27.5264 C   0  0  0  0  0  0  0  0  0  0  0  0
   -2.0709   -7.6637   18.7817 C   0  0  0  0  0  0  0  0  0  0  0  0
   -0.5279   -8.2168   17.0717 C   0  0  0  0  0  0  0  0  0  0  0  0
    6.9694   -4.0191   27.8190 C   0  0  0  0  0  0  0  0  0  0  0  0
    5.1733   -4.5469   29.8123 C   0  0  0  0  0  0  0  0  0  0  0  0
   -1.7508  -11.3016   18.6072 C   0  0  0  0  0  0  0  0  0  0  0  0
    1.7497   -5.6771   26.4971 C   0  0  0  0  0  0  0  0  0  0  0  0
   -1.5799   -9.9322   18.3468 C   0  0  0  0  0  0  0  0  0  0  0  0
   -1.0871  -12.2214   17.8851 C   0  0  0  0  0  0  0  0  0  0  0  0
   -2.2706   -8.9669   19.0691 C   0  0  0  0  0  0  0  0  0  0  0  0
    3.0279   -5.3073   26.8197 C   0  0  0  0  0  0  0  0  0  0  0  0
    7.3282   -3.8948   29.1186 C   0  0  0  0  0  0  0  0  0  0  0  0
  1  3  4  0
  1  7  4  0
  2  3  1  0
  2  6  4  0
  2 16  4  0
  3 22  4  0
  4  9  4  0
  4 10  1  0
  4 20  4  0
  5 16  4  0
  5 23  4  0
  6 15  4  0
  7 12  4  0
  8 13  4  0
  8 14  4  0
  9 11  4  0
 11 14  4  0
 11 19  4  0
 12 18  4  0
 13 21  4  0
 15 23  4  0
 17 19  4  0
 17 20  4  0
 18 22  4  0
 19 21  4  0
M  END
$$$$

 Created by Python create_sdf_string function

 23 25  0  0  0  0  0  0  0  0999 V2000
    2.4610   -5.3070   29.1240 C   0  0  0  0  0  0  0  0  0  0  0  0
    4.7710   -4.6952   28.4803 C   0  0  0  0  0  0  0  0  0  0  0  0
    3.4047   -5.1087   28.1314 C   0  0  0  0  0  0  0  0  0  0  0  0
   -0.2234  -11.8615   16.8874 C   0  0  0  0  0  0  0  0  0  0  0  0
    6.4491   -4.1532   30.1213 C   0  0  0  0  0  0  0  0  0  0  0  0
    5.7060   -4.4340   27.4975 C   0  0  0  0  0  0  0  0  0  0  0  0
    1.1818   -5.6612   28.8399 C   0  0  0  0  0  0  0  0  0  0  0  0
   -1.2067   -7.3287   17.7772 C   0  0  0  0  0  0  0  0  0  0  0  0
   -0.0206  -10.5585   16.6210 C   0  0  0  0  0  0  0  0  0  0  0  0
    0.3696  -12.7626   16.2169 O   0  0  0  0  0  0  0  0  0  0  0  0
   -0.6895   -9.5676   17.3297 C   0  0  0  0  0  0  0  0  0  0  0  0
    0.8388   -5.8417   27.5264 C   0  0  0  0  0  0  0  0  0  0  0  0
   -2.0709   -7.6637   18.7817 C   0  0  0  0  0  0  0  0  0  0  0  0
   -0.5279   -8.2168   17.0717 C   0  0  0  0  0  0  0  0  0  0  0  0
    6.9694   -4.0191   27.8190 C   0  0  0  0  0  0  0  0  0  0  0  0
    5.1733   -4.5469   29.8123 C   0  0  0  0  0  0  0  0  0  0  0  0
   -1.7508  -11.3016   18.6072 C   0  0  0  0  0  0  0  0  0  0  0  0
    1.7497   -5.6771   26.4971 C   0  0  0  0  0  0  0  0  0  0  0  0
   -1.5799   -9.9322   18.3468 C   0  0  0  0  0  0  0  0  0  0  0  0
   -1.0871  -12.2214   17.8851 C   0  0  0  0  0  0  0  0  0  0  0  0
   -2.2706   -8.9669   19.0691 C   0  0  0  0  0  0  0  0  0  0  0  0
    3.0279   -5.3073   26.8197 C   0  0  0  0  0  0  0  0  0  0  0  0
    7.3282   -3.8948   29.1186 C   0  0  0  0  0  0  0  0  0  0  0  0
  1  3  4  0
  1  7  4  0
  2  3  1  0
  2  6  4  0
  2 16  4  0
  3 22  4  0
  4  9  4  0
  4 10  1  0
  4 20  4  0
  5 16  4  0
  5 23  4  0
  6 15  4  0
  7 12  4  0
  8 13  4  0
  8 14  4  0
  9 11  4  0
 11 14  4  0
 11 19  4  0
 12 18  4  0
 13 21  4  0
 15 23  4  0
 17 19  4  0
 17 20  4  0
 18 22  4  0
 19 21  4  0
M  END
$$$$

 Created by Python create_sdf_string function

 23 25  0  0  0  0  0  0  0  0999 V2000
    2.4610   -5.3070   29.1240 C   0  0  0  0  0  0  0  0  0  0  0  0
    4.7710   -4.6952   28.4803 C   0  0  0  0  0  0  0  0  0  0  0  0
    3.4047   -5.1087   28.1314 C   0  0  0  0  0  0  0  0  0  0  0  0
   -0.2234  -11.8615   16.8874 C   0  0  0  0  0  0  0  0  0  0  0  0
    6.4491   -4.1532   30.1213 C   0  0  0  0  0  0  0  0  0  0  0  0
    5.7060   -4.4340   27.4975 C   0  0  0  0  0  0  0  0  0  0  0  0
    1.1818   -5.6612   28.8399 C   0  0  0  0  0  0  0  0  0  0  0  0
   -1.2067   -7.3287   17.7772 C   0  0  0  0  0  0  0  0  0  0  0  0
   -0.0206  -10.5585   16.6210 C   0  0  0  0  0  0  0  0  0  0  0  0
    0.3696  -12.7626   16.2169 O   0  0  0  0  0  0  0  0  0  0  0  0
   -0.6895   -9.5676   17.3297 C   0  0  0  0  0  0  0  0  0  0  0  0
    0.8388   -5.8417   27.5264 C   0  0  0  0  0  0  0  0  0  0  0  0
   -2.0709   -7.6637   18.7817 C   0  0  0  0  0  0  0  0  0  0  0  0
   -0.5279   -8.2168   17.0717 C   0  0  0  0  0  0  0  0  0  0  0  0
    6.9694   -4.0191   27.8190 C   0  0  0  0  0  0  0  0  0  0  0  0
    5.1733   -4.5469   29.8123 C   0  0  0  0  0  0  0  0  0  0  0  0
   -1.7508  -11.3016   18.6072 C   0  0  0  0  0  0  0  0  0  0  0  0
    1.7497   -5.6771   26.4971 C   0  0  0  0  0  0  0  0  0  0  0  0
   -1.5799   -9.9322   18.3468 C   0  0  0  0  0  0  0  0  0  0  0  0
   -1.0871  -12.2214   17.8851 C   0  0  0  0  0  0  0  0  0  0  0  0
   -2.2706   -8.9669   19.0691 C   0  0  0  0  0  0  0  0  0  0  0  0
    3.0279   -5.3073   26.8197 C   0  0  0  0  0  0  0  0  0  0  0  0
    7.3282   -3.8948   29.1186 C   0  0  0  0  0  0  0  0  0  0  0  0
  1  3  4  0
  1  7  4  0
  2  3  1  0
  2  6  4  0
  2 16  4  0
  3 22  4  0
  4  9  4  0
  4 10  1  0
  4 20  4  0
  5 16  4  0
  5 23  4  0
  6 15  4  0
  7 12  4  0
  8 13  4  0
  8 14  4  0
  9 11  4  0
 11 14  4  0
 11 19  4  0
 12 18  4  0
 13 21  4  0
 15 23  4  0
 17 19  4  0
 17 20  4  0
 18 22  4  0
 19 21  4  0
M  END
$$$$

 Created by Python create_sdf_string function

 23 25  0  0  0  0  0  0  0  0999 V2000
    2.4610   -5.3070   29.1240 C   0  0  0  0  0  0  0  0  0  0  0  0
    4.7710   -4.6952   28.4803 C   0  0  0  0  0  0  0  0  0  0  0  0
    3.4047   -5.1087   28.1314 C   0  0  0  0  0  0  0  0  0  0  0  0
   -0.2234  -11.8615   16.8874 C   0  0  0  0  0  0  0  0  0  0  0  0
    6.4491   -4.1532   30.1213 C   0  0  0  0  0  0  0  0  0  0  0  0
    5.7060   -4.4340   27.4975 C   0  0  0  0  0  0  0  0  0  0  0  0
    1.1818   -5.6612   28.8399 C   0  0  0  0  0  0  0  0  0  0  0  0
   -1.2067   -7.3287   17.7772 C   0  0  0  0  0  0  0  0  0  0  0  0
   -0.0206  -10.5585   16.6210 C   0  0  0  0  0  0  0  0  0  0  0  0
    0.3696  -12.7626   16.2169 O   0  0  0  0  0  0  0  0  0  0  0  0
   -0.6895   -9.5676   17.3297 C   0  0  0  0  0  0  0  0  0  0  0  0
    0.8388   -5.8417   27.5264 C   0  0  0  0  0  0  0  0  0  0  0  0
   -2.0709   -7.6637   18.7817 C   0  0  0  0  0  0  0  0  0  0  0  0
   -0.5279   -8.2168   17.0717 C   0  0  0  0  0  0  0  0  0  0  0  0
    6.9694   -4.0191   27.8190 C   0  0  0  0  0  0  0  0  0  0  0  0
    5.1733   -4.5469   29.8123 C   0  0  0  0  0  0  0  0  0  0  0  0
   -1.7508  -11.3016   18.6072 C   0  0  0  0  0  0  0  0  0  0  0  0
    1.7497   -5.6771   26.4971 C   0  0  0  0  0  0  0  0  0  0  0  0
   -1.5799   -9.9322   18.3468 C   0  0  0  0  0  0  0  0  0  0  0  0
   -1.0871  -12.2214   17.8851 C   0  0  0  0  0  0  0  0  0  0  0  0
   -2.2706   -8.9669   19.0691 C   0  0  0  0  0  0  0  0  0  0  0  0
    3.0279   -5.3073   26.8197 C   0  0  0  0  0  0  0  0  0  0  0  0
    7.3282   -3.8948   29.1186 C   0  0  0  0  0  0  0  0  0  0  0  0
  1  3  4  0
  1  7  4  0
  2  3  1  0
  2  6  4  0
  2 16  4  0
  3 22  4  0
  4  9  4  0
  4 10  1  0
  4 20  4  0
  5 16  4  0
  5 23  4  0
  6 15  4  0
  7 12  4  0
  8 13  4  0
  8 14  4  0
  9 11  4  0
 11 14  4  0
 11 19  4  0
 12 18  4  0
 13 21  4  0
 15 23  4  0
 17 19  4  0
 17 20  4  0
 18 22  4  0
 19 21  4  0
M  END
$$$$

 Created by Python create_sdf_string function

 23 25  0  0  0  0  0  0  0  0999 V2000
    2.4610   -5.3070   29.1240 C   0  0  0  0  0  0  0  0  0  0  0  0
    4.7710   -4.6952   28.4803 C   0  0  0  0  0  0  0  0  0  0  0  0
    3.4047   -5.1087   28.1314 C   0  0  0  0  0  0  0  0  0  0  0  0
   -0.2234  -11.8615   16.8874 C   0  0  0  0  0  0  0  0  0  0  0  0
    6.4491   -4.1532   30.1213 C   0  0  0  0  0  0  0  0  0  0  0  0
    5.7060   -4.4340   27.4975 C   0  0  0  0  0  0  0  0  0  0  0  0
    1.1818   -5.6612   28.8399 C   0  0  0  0  0  0  0  0  0  0  0  0
   -1.2067   -7.3287   17.7772 C   0  0  0  0  0  0  0  0  0  0  0  0
   -0.0206  -10.5585   16.6210 C   0  0  0  0  0  0  0  0  0  0  0  0
    0.3696  -12.7626   16.2169 O   0  0  0  0  0  0  0  0  0  0  0  0
   -0.6895   -9.5676   17.3297 C   0  0  0  0  0  0  0  0  0  0  0  0
    0.8388   -5.8417   27.5264 C   0  0  0  0  0  0  0  0  0  0  0  0
   -2.0709   -7.6637   18.7817 C   0  0  0  0  0  0  0  0  0  0  0  0
   -0.5279   -8.2168   17.0717 C   0  0  0  0  0  0  0  0  0  0  0  0
    6.9694   -4.0191   27.8190 C   0  0  0  0  0  0  0  0  0  0  0  0
    5.1733   -4.5469   29.8123 C   0  0  0  0  0  0  0  0  0  0  0  0
   -1.7508  -11.3016   18.6072 C   0  0  0  0  0  0  0  0  0  0  0  0
    1.7497   -5.6771   26.4971 C   0  0  0  0  0  0  0  0  0  0  0  0
   -1.5799   -9.9322   18.3468 C   0  0  0  0  0  0  0  0  0  0  0  0
   -1.0871  -12.2214   17.8851 C   0  0  0  0  0  0  0  0  0  0  0  0
   -2.2706   -8.9669   19.0691 C   0  0  0  0  0  0  0  0  0  0  0  0
    3.0279   -5.3073   26.8197 C   0  0  0  0  0  0  0  0  0  0  0  0
    7.3282   -3.8948   29.1186 C   0  0  0  0  0  0  0  0  0  0  0  0
  1  3  4  0
  1  7  4  0
  2  3  1  0
  2  6  4  0
  2 16  4  0
  3 22  4  0
  4  9  4  0
  4 10  1  0
  4 20  4  0
  5 16  4  0
  5 23  4  0
  6 15  4  0
  7 12  4  0
  8 13  4  0
  8 14  4  0
  9 11  4  0
 11 14  4  0
 11 19  4  0
 12 18  4  0
 13 21  4  0
 15 23  4  0
 17 19  4  0
 17 20  4  0
 18 22  4  0
 19 21  4  0
M  END
$$$$

 Created by Python create_sdf_string function

 23 25  0  0  0  0  0  0  0  0999 V2000
    2.4610   -5.3070   29.1240 C   0  0  0  0  0  0  0  0  0  0  0  0
    4.7710   -4.6952   28.4803 C   0  0  0  0  0  0  0  0  0  0  0  0
    3.4047   -5.1087   28.1314 C   0  0  0  0  0  0  0  0  0  0  0  0
   -0.2234  -11.8615   16.8874 C   0  0  0  0  0  0  0  0  0  0  0  0
    6.4491   -4.1532   30.1213 C   0  0  0  0  0  0  0  0  0  0  0  0
    5.7060   -4.4340   27.4975 C   0  0  0  0  0  0  0  0  0  0  0  0
    1.1818   -5.6612   28.8399 C   0  0  0  0  0  0  0  0  0  0  0  0
   -1.2067   -7.3287   17.7772 C   0  0  0  0  0  0  0  0  0  0  0  0
   -0.0206  -10.5585   16.6210 C   0  0  0  0  0  0  0  0  0  0  0  0
    0.3696  -12.7626   16.2169 O   0  0  0  0  0  0  0  0  0  0  0  0
   -0.6895   -9.5676   17.3297 C   0  0  0  0  0  0  0  0  0  0  0  0
    0.8388   -5.8417   27.5264 C   0  0  0  0  0  0  0  0  0  0  0  0
   -2.0709   -7.6637   18.7817 C   0  0  0  0  0  0  0  0  0  0  0  0
   -0.5279   -8.2168   17.0717 C   0  0  0  0  0  0  0  0  0  0  0  0
    6.9694   -4.0191   27.8190 C   0  0  0  0  0  0  0  0  0  0  0  0
    5.1733   -4.5469   29.8123 C   0  0  0  0  0  0  0  0  0  0  0  0
   -1.7508  -11.3016   18.6072 C   0  0  0  0  0  0  0  0  0  0  0  0
    1.7497   -5.6771   26.4971 C   0  0  0  0  0  0  0  0  0  0  0  0
   -1.5799   -9.9322   18.3468 C   0  0  0  0  0  0  0  0  0  0  0  0
   -1.0871  -12.2214   17.8851 C   0  0  0  0  0  0  0  0  0  0  0  0
   -2.2706   -8.9669   19.0691 C   0  0  0  0  0  0  0  0  0  0  0  0
    3.0279   -5.3073   26.8197 C   0  0  0  0  0  0  0  0  0  0  0  0
    7.3282   -3.8948   29.1186 C   0  0  0  0  0  0  0  0  0  0  0  0
  1  3  4  0
  1  7  4  0
  2  3  1  0
  2  6  4  0
  2 16  4  0
  3 22  4  0
  4  9  4  0
  4 10  1  0
  4 20  4  0
  5 16  4  0
  5 23  4  0
  6 15  4  0
  7 12  4  0
  8 13  4  0
  8 14  4  0
  9 11  4  0
 11 14  4  0
 11 19  4  0
 12 18  4  0
 13 21  4  0
 15 23  4  0
 17 19  4  0
 17 20  4  0
 18 22  4  0
 19 21  4  0
M  END
$$$$

 Created by Python create_sdf_string function

 23 25  0  0  0  0  0  0  0  0999 V2000
    2.4610   -5.3070   29.1240 C   0  0  0  0  0  0  0  0  0  0  0  0
    4.7710   -4.6952   28.4803 C   0  0  0  0  0  0  0  0  0  0  0  0
    3.4047   -5.1087   28.1314 C   0  0  0  0  0  0  0  0  0  0  0  0
   -0.2234  -11.8615   16.8874 C   0  0  0  0  0  0  0  0  0  0  0  0
    6.4491   -4.1532   30.1213 C   0  0  0  0  0  0  0  0  0  0  0  0
    5.7060   -4.4340   27.4975 C   0  0  0  0  0  0  0  0  0  0  0  0
    1.1818   -5.6612   28.8399 C   0  0  0  0  0  0  0  0  0  0  0  0
   -1.2067   -7.3287   17.7772 C   0  0  0  0  0  0  0  0  0  0  0  0
   -0.0206  -10.5585   16.6210 C   0  0  0  0  0  0  0  0  0  0  0  0
    0.3696  -12.7626   16.2169 O   0  0  0  0  0  0  0  0  0  0  0  0
   -0.6895   -9.5676   17.3297 C   0  0  0  0  0  0  0  0  0  0  0  0
    0.8388   -5.8417   27.5264 C   0  0  0  0  0  0  0  0  0  0  0  0
   -2.0709   -7.6637   18.7817 C   0  0  0  0  0  0  0  0  0  0  0  0
   -0.5279   -8.2168   17.0717 C   0  0  0  0  0  0  0  0  0  0  0  0
    6.9694   -4.0191   27.8190 C   0  0  0  0  0  0  0  0  0  0  0  0
    5.1733   -4.5469   29.8123 C   0  0  0  0  0  0  0  0  0  0  0  0
   -1.7508  -11.3016   18.6072 C   0  0  0  0  0  0  0  0  0  0  0  0
    1.7497   -5.6771   26.4971 C   0  0  0  0  0  0  0  0  0  0  0  0
   -1.5799   -9.9322   18.3468 C   0  0  0  0  0  0  0  0  0  0  0  0
   -1.0871  -12.2214   17.8851 C   0  0  0  0  0  0  0  0  0  0  0  0
   -2.2706   -8.9669   19.0691 C   0  0  0  0  0  0  0  0  0  0  0  0
    3.0279   -5.3073   26.8197 C   0  0  0  0  0  0  0  0  0  0  0  0
    7.3282   -3.8948   29.1186 C   0  0  0  0  0  0  0  0  0  0  0  0
  1  3  4  0
  1  7  4  0
  2  3  1  0
  2  6  4  0
  2 16  4  0
  3 22  4  0
  4  9  4  0
  4 10  1  0
  4 20  4  0
  5 16  4  0
  5 23  4  0
  6 15  4  0
  7 12  4  0
  8 13  4  0
  8 14  4  0
  9 11  4  0
 11 14  4  0
 11 19  4  0
 12 18  4  0
 13 21  4  0
 15 23  4  0
 17 19  4  0
 17 20  4  0
 18 22  4  0
 19 21  4  0
M  END
$$$$

 Created by Python create_sdf_string function

 23 25  0  0  0  0  0  0  0  0999 V2000
    2.4610   -5.3070   29.1240 C   0  0  0  0  0  0  0  0  0  0  0  0
    4.7710   -4.6952   28.4803 C   0  0  0  0  0  0  0  0  0  0  0  0
    3.4047   -5.1087   28.1314 C   0  0  0  0  0  0  0  0  0  0  0  0
   -0.2234  -11.8615   16.8874 C   0  0  0  0  0  0  0  0  0  0  0  0
    6.4491   -4.1532   30.1213 C   0  0  0  0  0  0  0  0  0  0  0  0
    5.7060   -4.4340   27.4975 C   0  0  0  0  0  0  0  0  0  0  0  0
    1.1818   -5.6612   28.8399 C   0  0  0  0  0  0  0  0  0  0  0  0
   -1.2067   -7.3287   17.7772 C   0  0  0  0  0  0  0  0  0  0  0  0
   -0.0206  -10.5585   16.6210 C   0  0  0  0  0  0  0  0  0  0  0  0
    0.3696  -12.7626   16.2169 O   0  0  0  0  0  0  0  0  0  0  0  0
   -0.6895   -9.5676   17.3297 C   0  0  0  0  0  0  0  0  0  0  0  0
    0.8388   -5.8417   27.5264 C   0  0  0  0  0  0  0  0  0  0  0  0
   -2.0709   -7.6637   18.7817 C   0  0  0  0  0  0  0  0  0  0  0  0
   -0.5279   -8.2168   17.0717 C   0  0  0  0  0  0  0  0  0  0  0  0
    6.9694   -4.0191   27.8190 C   0  0  0  0  0  0  0  0  0  0  0  0
    5.1733   -4.5469   29.8123 C   0  0  0  0  0  0  0  0  0  0  0  0
   -1.7508  -11.3016   18.6072 C   0  0  0  0  0  0  0  0  0  0  0  0
    1.7497   -5.6771   26.4971 C   0  0  0  0  0  0  0  0  0  0  0  0
   -1.5799   -9.9322   18.3468 C   0  0  0  0  0  0  0  0  0  0  0  0
   -1.0871  -12.2214   17.8851 C   0  0  0  0  0  0  0  0  0  0  0  0
   -2.2706   -8.9669   19.0691 C   0  0  0  0  0  0  0  0  0  0  0  0
    3.0279   -5.3073   26.8197 C   0  0  0  0  0  0  0  0  0  0  0  0
    7.3282   -3.8948   29.1186 C   0  0  0  0  0  0  0  0  0  0  0  0
  1  3  4  0
  1  7  4  0
  2  3  1  0
  2  6  4  0
  2 16  4  0
  3 22  4  0
  4  9  4  0
  4 10  1  0
  4 20  4  0
  5 16  4  0
  5 23  4  0
  6 15  4  0
  7 12  4  0
  8 13  4  0
  8 14  4  0
  9 11  4  0
 11 14  4  0
 11 19  4  0
 12 18  4  0
 13 21  4  0
 15 23  4  0
 17 19  4  0
 17 20  4  0
 18 22  4  0
 19 21  4  0
M  END
$$$$

 Created by Python create_sdf_string function

 23 25  0  0  0  0  0  0  0  0999 V2000
    2.4610   -5.3070   29.1240 C   0  0  0  0  0  0  0  0  0  0  0  0
    4.7710   -4.6952   28.4803 C   0  0  0  0  0  0  0  0  0  0  0  0
    3.4047   -5.1087   28.1314 C   0  0  0  0  0  0  0  0  0  0  0  0
   -0.2234  -11.8615   16.8874 C   0  0  0  0  0  0  0  0  0  0  0  0
    6.4491   -4.1532   30.1213 C   0  0  0  0  0  0  0  0  0  0  0  0
    5.7060   -4.4340   27.4975 C   0  0  0  0  0  0  0  0  0  0  0  0
    1.1818   -5.6612   28.8399 C   0  0  0  0  0  0  0  0  0  0  0  0
   -1.2067   -7.3287   17.7772 C   0  0  0  0  0  0  0  0  0  0  0  0
   -0.0206  -10.5585   16.6210 C   0  0  0  0  0  0  0  0  0  0  0  0
    0.3696  -12.7626   16.2169 O   0  0  0  0  0  0  0  0  0  0  0  0
   -0.6895   -9.5676   17.3297 C   0  0  0  0  0  0  0  0  0  0  0  0
    0.8388   -5.8417   27.5264 C   0  0  0  0  0  0  0  0  0  0  0  0
   -2.0709   -7.6637   18.7817 C   0  0  0  0  0  0  0  0  0  0  0  0
   -0.5279   -8.2168   17.0717 C   0  0  0  0  0  0  0  0  0  0  0  0
    6.9694   -4.0191   27.8190 C   0  0  0  0  0  0  0  0  0  0  0  0
    5.1733   -4.5469   29.8123 C   0  0  0  0  0  0  0  0  0  0  0  0
   -1.7508  -11.3016   18.6072 C   0  0  0  0  0  0  0  0  0  0  0  0
    1.7497   -5.6771   26.4971 C   0  0  0  0  0  0  0  0  0  0  0  0
   -1.5799   -9.9322   18.3468 C   0  0  0  0  0  0  0  0  0  0  0  0
   -1.0871  -12.2214   17.8851 C   0  0  0  0  0  0  0  0  0  0  0  0
   -2.2706   -8.9669   19.0691 C   0  0  0  0  0  0  0  0  0  0  0  0
    3.0279   -5.3073   26.8197 C   0  0  0  0  0  0  0  0  0  0  0  0
    7.3282   -3.8948   29.1186 C   0  0  0  0  0  0  0  0  0  0  0  0
  1  3  4  0
  1  7  4  0
  2  3  1  0
  2  6  4  0
  2 16  4  0
  3 22  4  0
  4  9  4  0
  4 10  1  0
  4 20  4  0
  5 16  4  0
  5 23  4  0
  6 15  4  0
  7 12  4  0
  8 13  4  0
  8 14  4  0
  9 11  4  0
 11 14  4  0
 11 19  4  0
 12 18  4  0
 13 21  4  0
 15 23  4  0
 17 19  4  0
 17 20  4  0
 18 22  4  0
 19 21  4  0
M  END
$$$$

 Created by Python create_sdf_string function

 23 25  0  0  0  0  0  0  0  0999 V2000
    2.4610   -5.3070   29.1240 C   0  0  0  0  0  0  0  0  0  0  0  0
    4.7710   -4.6952   28.4803 C   0  0  0  0  0  0  0  0  0  0  0  0
    3.4047   -5.1087   28.1314 C   0  0  0  0  0  0  0  0  0  0  0  0
   -0.2234  -11.8615   16.8874 C   0  0  0  0  0  0  0  0  0  0  0  0
    6.4491   -4.1532   30.1213 C   0  0  0  0  0  0  0  0  0  0  0  0
    5.7060   -4.4340   27.4975 C   0  0  0  0  0  0  0  0  0  0  0  0
    1.1818   -5.6612   28.8399 C   0  0  0  0  0  0  0  0  0  0  0  0
   -1.2067   -7.3287   17.7772 C   0  0  0  0  0  0  0  0  0  0  0  0
   -0.0206  -10.5585   16.6210 C   0  0  0  0  0  0  0  0  0  0  0  0
    0.3696  -12.7626   16.2169 O   0  0  0  0  0  0  0  0  0  0  0  0
   -0.6895   -9.5676   17.3297 C   0  0  0  0  0  0  0  0  0  0  0  0
    0.8388   -5.8417   27.5264 C   0  0  0  0  0  0  0  0  0  0  0  0
   -2.0709   -7.6637   18.7817 C   0  0  0  0  0  0  0  0  0  0  0  0
   -0.5279   -8.2168   17.0717 C   0  0  0  0  0  0  0  0  0  0  0  0
    6.9694   -4.0191   27.8190 C   0  0  0  0  0  0  0  0  0  0  0  0
    5.1733   -4.5469   29.8123 C   0  0  0  0  0  0  0  0  0  0  0  0
   -1.7508  -11.3016   18.6072 C   0  0  0  0  0  0  0  0  0  0  0  0
    1.7497   -5.6771   26.4971 C   0  0  0  0  0  0  0  0  0  0  0  0
   -1.5799   -9.9322   18.3468 C   0  0  0  0  0  0  0  0  0  0  0  0
   -1.0871  -12.2214   17.8851 C   0  0  0  0  0  0  0  0  0  0  0  0
   -2.2706   -8.9669   19.0691 C   0  0  0  0  0  0  0  0  0  0  0  0
    3.0279   -5.3073   26.8197 C   0  0  0  0  0  0  0  0  0  0  0  0
    7.3282   -3.8948   29.1186 C   0  0  0  0  0  0  0  0  0  0  0  0
  1  3  4  0
  1  7  4  0
  2  3  1  0
  2  6  4  0
  2 16  4  0
  3 22  4  0
  4  9  4  0
  4 10  1  0
  4 20  4  0
  5 16  4  0
  5 23  4  0
  6 15  4  0
  7 12  4  0
  8 13  4  0
  8 14  4  0
  9 11  4  0
 11 14  4  0
 11 19  4  0
 12 18  4  0
 13 21  4  0
 15 23  4  0
 17 19  4  0
 17 20  4  0
 18 22  4  0
 19 21  4  0
M  END
$$$$

 Created by Python create_sdf_string function

 23 25  0  0  0  0  0  0  0  0999 V2000
    2.4610   -5.3070   29.1240 C   0  0  0  0  0  0  0  0  0  0  0  0
    4.7710   -4.6952   28.4803 C   0  0  0  0  0  0  0  0  0  0  0  0
    3.4047   -5.1087   28.1314 C   0  0  0  0  0  0  0  0  0  0  0  0
   -0.2234  -11.8615   16.8874 C   0  0  0  0  0  0  0  0  0  0  0  0
    6.4491   -4.1532   30.1213 C   0  0  0  0  0  0  0  0  0  0  0  0
    5.7060   -4.4340   27.4975 C   0  0  0  0  0  0  0  0  0  0  0  0
    1.1818   -5.6612   28.8399 C   0  0  0  0  0  0  0  0  0  0  0  0
   -1.2067   -7.3287   17.7772 C   0  0  0  0  0  0  0  0  0  0  0  0
   -0.0206  -10.5585   16.6210 C   0  0  0  0  0  0  0  0  0  0  0  0
    0.3696  -12.7626   16.2169 O   0  0  0  0  0  0  0  0  0  0  0  0
   -0.6895   -9.5676   17.3297 C   0  0  0  0  0  0  0  0  0  0  0  0
    0.8388   -5.8417   27.5264 C   0  0  0  0  0  0  0  0  0  0  0  0
   -2.0709   -7.6637   18.7817 C   0  0  0  0  0  0  0  0  0  0  0  0
   -0.5279   -8.2168   17.0717 C   0  0  0  0  0  0  0  0  0  0  0  0
    6.9694   -4.0191   27.8190 C   0  0  0  0  0  0  0  0  0  0  0  0
    5.1733   -4.5469   29.8123 C   0  0  0  0  0  0  0  0  0  0  0  0
   -1.7508  -11.3016   18.6072 C   0  0  0  0  0  0  0  0  0  0  0  0
    1.7497   -5.6771   26.4971 C   0  0  0  0  0  0  0  0  0  0  0  0
   -1.5799   -9.9322   18.3468 C   0  0  0  0  0  0  0  0  0  0  0  0
   -1.0871  -12.2214   17.8851 C   0  0  0  0  0  0  0  0  0  0  0  0
   -2.2706   -8.9669   19.0691 C   0  0  0  0  0  0  0  0  0  0  0  0
    3.0279   -5.3073   26.8197 C   0  0  0  0  0  0  0  0  0  0  0  0
    7.3282   -3.8948   29.1186 C   0  0  0  0  0  0  0  0  0  0  0  0
  1  3  4  0
  1  7  4  0
  2  3  1  0
  2  6  4  0
  2 16  4  0
  3 22  4  0
  4  9  4  0
  4 10  1  0
  4 20  4  0
  5 16  4  0
  5 23  4  0
  6 15  4  0
  7 12  4  0
  8 13  4  0
  8 14  4  0
  9 11  4  0
 11 14  4  0
 11 19  4  0
 12 18  4  0
 13 21  4  0
 15 23  4  0
 17 19  4  0
 17 20  4  0
 18 22  4  0
 19 21  4  0
M  END
$$$$

 Created by Python create_sdf_string function

 23 25  0  0  0  0  0  0  0  0999 V2000
    2.4610   -5.3070   29.1240 C   0  0  0  0  0  0  0  0  0  0  0  0
    4.7710   -4.6952   28.4803 C   0  0  0  0  0  0  0  0  0  0  0  0
    3.4047   -5.1087   28.1314 C   0  0  0  0  0  0  0  0  0  0  0  0
   -0.2234  -11.8615   16.8874 C   0  0  0  0  0  0  0  0  0  0  0  0
    6.4491   -4.1532   30.1213 C   0  0  0  0  0  0  0  0  0  0  0  0
    5.7060   -4.4340   27.4975 C   0  0  0  0  0  0  0  0  0  0  0  0
    1.1818   -5.6612   28.8399 C   0  0  0  0  0  0  0  0  0  0  0  0
   -1.2067   -7.3287   17.7772 C   0  0  0  0  0  0  0  0  0  0  0  0
   -0.0206  -10.5585   16.6210 C   0  0  0  0  0  0  0  0  0  0  0  0
    0.3696  -12.7626   16.2169 O   0  0  0  0  0  0  0  0  0  0  0  0
   -0.6895   -9.5676   17.3297 C   0  0  0  0  0  0  0  0  0  0  0  0
    0.8388   -5.8417   27.5264 C   0  0  0  0  0  0  0  0  0  0  0  0
   -2.0709   -7.6637   18.7817 C   0  0  0  0  0  0  0  0  0  0  0  0
   -0.5279   -8.2168   17.0717 C   0  0  0  0  0  0  0  0  0  0  0  0
    6.9694   -4.0191   27.8190 C   0  0  0  0  0  0  0  0  0  0  0  0
    5.1733   -4.5469   29.8123 C   0  0  0  0  0  0  0  0  0  0  0  0
   -1.7508  -11.3016   18.6072 C   0  0  0  0  0  0  0  0  0  0  0  0
    1.7497   -5.6771   26.4971 C   0  0  0  0  0  0  0  0  0  0  0  0
   -1.5799   -9.9322   18.3468 C   0  0  0  0  0  0  0  0  0  0  0  0
   -1.0871  -12.2214   17.8851 C   0  0  0  0  0  0  0  0  0  0  0  0
   -2.2706   -8.9669   19.0691 C   0  0  0  0  0  0  0  0  0  0  0  0
    3.0279   -5.3073   26.8197 C   0  0  0  0  0  0  0  0  0  0  0  0
    7.3282   -3.8948   29.1186 C   0  0  0  0  0  0  0  0  0  0  0  0
  1  3  4  0
  1  7  4  0
  2  3  1  0
  2  6  4  0
  2 16  4  0
  3 22  4  0
  4  9  4  0
  4 10  1  0
  4 20  4  0
  5 16  4  0
  5 23  4  0
  6 15  4  0
  7 12  4  0
  8 13  4  0
  8 14  4  0
  9 11  4  0
 11 14  4  0
 11 19  4  0
 12 18  4  0
 13 21  4  0
 15 23  4  0
 17 19  4  0
 17 20  4  0
 18 22  4  0
 19 21  4  0
M  END
$$$$

 Created by Python create_sdf_string function

 23 25  0  0  0  0  0  0  0  0999 V2000
    2.4610   -5.3070   29.1240 C   0  0  0  0  0  0  0  0  0  0  0  0
    4.7710   -4.6952   28.4803 C   0  0  0  0  0  0  0  0  0  0  0  0
    3.4047   -5.1087   28.1314 C   0  0  0  0  0  0  0  0  0  0  0  0
   -0.2234  -11.8615   16.8874 C   0  0  0  0  0  0  0  0  0  0  0  0
    6.4491   -4.1532   30.1213 C   0  0  0  0  0  0  0  0  0  0  0  0
    5.7060   -4.4340   27.4975 C   0  0  0  0  0  0  0  0  0  0  0  0
    1.1818   -5.6612   28.8399 C   0  0  0  0  0  0  0  0  0  0  0  0
   -1.2067   -7.3287   17.7772 C   0  0  0  0  0  0  0  0  0  0  0  0
   -0.0206  -10.5585   16.6210 C   0  0  0  0  0  0  0  0  0  0  0  0
    0.3696  -12.7626   16.2169 O   0  0  0  0  0  0  0  0  0  0  0  0
   -0.6895   -9.5676   17.3297 C   0  0  0  0  0  0  0  0  0  0  0  0
    0.8388   -5.8417   27.5264 C   0  0  0  0  0  0  0  0  0  0  0  0
   -2.0709   -7.6637   18.7817 C   0  0  0  0  0  0  0  0  0  0  0  0
   -0.5279   -8.2168   17.0717 C   0  0  0  0  0  0  0  0  0  0  0  0
    6.9694   -4.0191   27.8190 C   0  0  0  0  0  0  0  0  0  0  0  0
    5.1733   -4.5469   29.8123 C   0  0  0  0  0  0  0  0  0  0  0  0
   -1.7508  -11.3016   18.6072 C   0  0  0  0  0  0  0  0  0  0  0  0
    1.7497   -5.6771   26.4971 C   0  0  0  0  0  0  0  0  0  0  0  0
   -1.5799   -9.9322   18.3468 C   0  0  0  0  0  0  0  0  0  0  0  0
   -1.0871  -12.2214   17.8851 C   0  0  0  0  0  0  0  0  0  0  0  0
   -2.2706   -8.9669   19.0691 C   0  0  0  0  0  0  0  0  0  0  0  0
    3.0279   -5.3073   26.8197 C   0  0  0  0  0  0  0  0  0  0  0  0
    7.3282   -3.8948   29.1186 C   0  0  0  0  0  0  0  0  0  0  0  0
  1  3  4  0
  1  7  4  0
  2  3  1  0
  2  6  4  0
  2 16  4  0
  3 22  4  0
  4  9  4  0
  4 10  1  0
  4 20  4  0
  5 16  4  0
  5 23  4  0
  6 15  4  0
  7 12  4  0
  8 13  4  0
  8 14  4  0
  9 11  4  0
 11 14  4  0
 11 19  4  0
 12 18  4  0
 13 21  4  0
 15 23  4  0
 17 19  4  0
 17 20  4  0
 18 22  4  0
 19 21  4  0
M  END
$$$$

 Created by Python create_sdf_string function

 23 25  0  0  0  0  0  0  0  0999 V2000
    2.4610   -5.3070   29.1240 C   0  0  0  0  0  0  0  0  0  0  0  0
    4.7710   -4.6952   28.4803 C   0  0  0  0  0  0  0  0  0  0  0  0
    3.4047   -5.1087   28.1314 C   0  0  0  0  0  0  0  0  0  0  0  0
   -0.2234  -11.8615   16.8874 C   0  0  0  0  0  0  0  0  0  0  0  0
    6.4491   -4.1532   30.1213 C   0  0  0  0  0  0  0  0  0  0  0  0
    5.7060   -4.4340   27.4975 C   0  0  0  0  0  0  0  0  0  0  0  0
    1.1818   -5.6612   28.8399 C   0  0  0  0  0  0  0  0  0  0  0  0
   -1.2067   -7.3287   17.7772 C   0  0  0  0  0  0  0  0  0  0  0  0
   -0.0206  -10.5585   16.6210 C   0  0  0  0  0  0  0  0  0  0  0  0
    0.3696  -12.7626   16.2169 O   0  0  0  0  0  0  0  0  0  0  0  0
   -0.6895   -9.5676   17.3297 C   0  0  0  0  0  0  0  0  0  0  0  0
    0.8388   -5.8417   27.5264 C   0  0  0  0  0  0  0  0  0  0  0  0
   -2.0709   -7.6637   18.7817 C   0  0  0  0  0  0  0  0  0  0  0  0
   -0.5279   -8.2168   17.0717 C   0  0  0  0  0  0  0  0  0  0  0  0
    6.9694   -4.0191   27.8190 C   0  0  0  0  0  0  0  0  0  0  0  0
    5.1733   -4.5469   29.8123 C   0  0  0  0  0  0  0  0  0  0  0  0
   -1.7508  -11.3016   18.6072 C   0  0  0  0  0  0  0  0  0  0  0  0
    1.7497   -5.6771   26.4971 C   0  0  0  0  0  0  0  0  0  0  0  0
   -1.5799   -9.9322   18.3468 C   0  0  0  0  0  0  0  0  0  0  0  0
   -1.0871  -12.2214   17.8851 C   0  0  0  0  0  0  0  0  0  0  0  0
   -2.2706   -8.9669   19.0691 C   0  0  0  0  0  0  0  0  0  0  0  0
    3.0279   -5.3073   26.8197 C   0  0  0  0  0  0  0  0  0  0  0  0
    7.3282   -3.8948   29.1186 C   0  0  0  0  0  0  0  0  0  0  0  0
  1  3  4  0
  1  7  4  0
  2  3  1  0
  2  6  4  0
  2 16  4  0
  3 22  4  0
  4  9  4  0
  4 10  1  0
  4 20  4  0
  5 16  4  0
  5 23  4  0
  6 15  4  0
  7 12  4  0
  8 13  4  0
  8 14  4  0
  9 11  4  0
 11 14  4  0
 11 19  4  0
 12 18  4  0
 13 21  4  0
 15 23  4  0
 17 19  4  0
 17 20  4  0
 18 22  4  0
 19 21  4  0
M  END
$$$$

 Created by Python create_sdf_string function

 23 25  0  0  0  0  0  0  0  0999 V2000
    2.4610   -5.3070   29.1240 C   0  0  0  0  0  0  0  0  0  0  0  0
    4.7710   -4.6952   28.4803 C   0  0  0  0  0  0  0  0  0  0  0  0
    3.4047   -5.1087   28.1314 C   0  0  0  0  0  0  0  0  0  0  0  0
   -0.2234  -11.8615   16.8874 C   0  0  0  0  0  0  0  0  0  0  0  0
    6.4491   -4.1532   30.1213 C   0  0  0  0  0  0  0  0  0  0  0  0
    5.7060   -4.4340   27.4975 C   0  0  0  0  0  0  0  0  0  0  0  0
    1.1818   -5.6612   28.8399 C   0  0  0  0  0  0  0  0  0  0  0  0
   -1.2067   -7.3287   17.7772 C   0  0  0  0  0  0  0  0  0  0  0  0
   -0.0206  -10.5585   16.6210 C   0  0  0  0  0  0  0  0  0  0  0  0
    0.3696  -12.7626   16.2169 O   0  0  0  0  0  0  0  0  0  0  0  0
   -0.6895   -9.5676   17.3297 C   0  0  0  0  0  0  0  0  0  0  0  0
    0.8388   -5.8417   27.5264 C   0  0  0  0  0  0  0  0  0  0  0  0
   -2.0709   -7.6637   18.7817 C   0  0  0  0  0  0  0  0  0  0  0  0
   -0.5279   -8.2168   17.0717 C   0  0  0  0  0  0  0  0  0  0  0  0
    6.9694   -4.0191   27.8190 C   0  0  0  0  0  0  0  0  0  0  0  0
    5.1733   -4.5469   29.8123 C   0  0  0  0  0  0  0  0  0  0  0  0
   -1.7508  -11.3016   18.6072 C   0  0  0  0  0  0  0  0  0  0  0  0
    1.7497   -5.6771   26.4971 C   0  0  0  0  0  0  0  0  0  0  0  0
   -1.5799   -9.9322   18.3468 C   0  0  0  0  0  0  0  0  0  0  0  0
   -1.0871  -12.2214   17.8851 C   0  0  0  0  0  0  0  0  0  0  0  0
   -2.2706   -8.9669   19.0691 C   0  0  0  0  0  0  0  0  0  0  0  0
    3.0279   -5.3073   26.8197 C   0  0  0  0  0  0  0  0  0  0  0  0
    7.3282   -3.8948   29.1186 C   0  0  0  0  0  0  0  0  0  0  0  0
  1  3  4  0
  1  7  4  0
  2  3  1  0
  2  6  4  0
  2 16  4  0
  3 22  4  0
  4  9  4  0
  4 10  1  0
  4 20  4  0
  5 16  4  0
  5 23  4  0
  6 15  4  0
  7 12  4  0
  8 13  4  0
  8 14  4  0
  9 11  4  0
 11 14  4  0
 11 19  4  0
 12 18  4  0
 13 21  4  0
 15 23  4  0
 17 19  4  0
 17 20  4  0
 18 22  4  0
 19 21  4  0
M  END
$$$$

 Created by Python create_sdf_string function

 23 25  0  0  0  0  0  0  0  0999 V2000
    2.4610   -5.3070   29.1240 C   0  0  0  0  0  0  0  0  0  0  0  0
    4.7710   -4.6952   28.4803 C   0  0  0  0  0  0  0  0  0  0  0  0
    3.4047   -5.1087   28.1314 C   0  0  0  0  0  0  0  0  0  0  0  0
   -0.2234  -11.8615   16.8874 C   0  0  0  0  0  0  0  0  0  0  0  0
    6.4491   -4.1532   30.1213 C   0  0  0  0  0  0  0  0  0  0  0  0
    5.7060   -4.4340   27.4975 C   0  0  0  0  0  0  0  0  0  0  0  0
    1.1818   -5.6612   28.8399 C   0  0  0  0  0  0  0  0  0  0  0  0
   -1.2067   -7.3287   17.7772 C   0  0  0  0  0  0  0  0  0  0  0  0
   -0.0206  -10.5585   16.6210 C   0  0  0  0  0  0  0  0  0  0  0  0
    0.3696  -12.7626   16.2169 O   0  0  0  0  0  0  0  0  0  0  0  0
   -0.6895   -9.5676   17.3297 C   0  0  0  0  0  0  0  0  0  0  0  0
    0.8388   -5.8417   27.5264 C   0  0  0  0  0  0  0  0  0  0  0  0
   -2.0709   -7.6637   18.7817 C   0  0  0  0  0  0  0  0  0  0  0  0
   -0.5279   -8.2168   17.0717 C   0  0  0  0  0  0  0  0  0  0  0  0
    6.9694   -4.0191   27.8190 C   0  0  0  0  0  0  0  0  0  0  0  0
    5.1733   -4.5469   29.8123 C   0  0  0  0  0  0  0  0  0  0  0  0
   -1.7508  -11.3016   18.6072 C   0  0  0  0  0  0  0  0  0  0  0  0
    1.7497   -5.6771   26.4971 C   0  0  0  0  0  0  0  0  0  0  0  0
   -1.5799   -9.9322   18.3468 C   0  0  0  0  0  0  0  0  0  0  0  0
   -1.0871  -12.2214   17.8851 C   0  0  0  0  0  0  0  0  0  0  0  0
   -2.2706   -8.9669   19.0691 C   0  0  0  0  0  0  0  0  0  0  0  0
    3.0279   -5.3073   26.8197 C   0  0  0  0  0  0  0  0  0  0  0  0
    7.3282   -3.8948   29.1186 C   0  0  0  0  0  0  0  0  0  0  0  0
  1  3  4  0
  1  7  4  0
  2  3  1  0
  2  6  4  0
  2 16  4  0
  3 22  4  0
  4  9  4  0
  4 10  1  0
  4 20  4  0
  5 16  4  0
  5 23  4  0
  6 15  4  0
  7 12  4  0
  8 13  4  0
  8 14  4  0
  9 11  4  0
 11 14  4  0
 11 19  4  0
 12 18  4  0
 13 21  4  0
 15 23  4  0
 17 19  4  0
 17 20  4  0
 18 22  4  0
 19 21  4  0
M  END
$$$$

 Created by Python create_sdf_string function

 23 25  0  0  0  0  0  0  0  0999 V2000
    2.4610   -5.3070   29.1240 C   0  0  0  0  0  0  0  0  0  0  0  0
    4.7710   -4.6952   28.4803 C   0  0  0  0  0  0  0  0  0  0  0  0
    3.4047   -5.1087   28.1314 C   0  0  0  0  0  0  0  0  0  0  0  0
   -0.2234  -11.8615   16.8874 C   0  0  0  0  0  0  0  0  0  0  0  0
    6.4491   -4.1532   30.1213 C   0  0  0  0  0  0  0  0  0  0  0  0
    5.7060   -4.4340   27.4975 C   0  0  0  0  0  0  0  0  0  0  0  0
    1.1818   -5.6612   28.8399 C   0  0  0  0  0  0  0  0  0  0  0  0
   -1.2067   -7.3287   17.7772 C   0  0  0  0  0  0  0  0  0  0  0  0
   -0.0206  -10.5585   16.6210 C   0  0  0  0  0  0  0  0  0  0  0  0
    0.3696  -12.7626   16.2169 O   0  0  0  0  0  0  0  0  0  0  0  0
   -0.6895   -9.5676   17.3297 C   0  0  0  0  0  0  0  0  0  0  0  0
    0.8388   -5.8417   27.5264 C   0  0  0  0  0  0  0  0  0  0  0  0
   -2.0709   -7.6637   18.7817 C   0  0  0  0  0  0  0  0  0  0  0  0
   -0.5279   -8.2168   17.0717 C   0  0  0  0  0  0  0  0  0  0  0  0
    6.9694   -4.0191   27.8190 C   0  0  0  0  0  0  0  0  0  0  0  0
    5.1733   -4.5469   29.8123 C   0  0  0  0  0  0  0  0  0  0  0  0
   -1.7508  -11.3016   18.6072 C   0  0  0  0  0  0  0  0  0  0  0  0
    1.7497   -5.6771   26.4971 C   0  0  0  0  0  0  0  0  0  0  0  0
   -1.5799   -9.9322   18.3468 C   0  0  0  0  0  0  0  0  0  0  0  0
   -1.0871  -12.2214   17.8851 C   0  0  0  0  0  0  0  0  0  0  0  0
   -2.2706   -8.9669   19.0691 C   0  0  0  0  0  0  0  0  0  0  0  0
    3.0279   -5.3073   26.8197 C   0  0  0  0  0  0  0  0  0  0  0  0
    7.3282   -3.8948   29.1186 C   0  0  0  0  0  0  0  0  0  0  0  0
  1  3  4  0
  1  7  4  0
  2  3  1  0
  2  6  4  0
  2 16  4  0
  3 22  4  0
  4  9  4  0
  4 10  1  0
  4 20  4  0
  5 16  4  0
  5 23  4  0
  6 15  4  0
  7 12  4  0
  8 13  4  0
  8 14  4  0
  9 11  4  0
 11 14  4  0
 11 19  4  0
 12 18  4  0
 13 21  4  0
 15 23  4  0
 17 19  4  0
 17 20  4  0
 18 22  4  0
 19 21  4  0
M  END
$$$$

 Created by Python create_sdf_string function

 23 25  0  0  0  0  0  0  0  0999 V2000
    2.4610   -5.3070   29.1240 C   0  0  0  0  0  0  0  0  0  0  0  0
    4.7710   -4.6952   28.4803 C   0  0  0  0  0  0  0  0  0  0  0  0
    3.4047   -5.1087   28.1314 C   0  0  0  0  0  0  0  0  0  0  0  0
   -0.2234  -11.8615   16.8874 C   0  0  0  0  0  0  0  0  0  0  0  0
    6.4491   -4.1532   30.1213 C   0  0  0  0  0  0  0  0  0  0  0  0
    5.7060   -4.4340   27.4975 C   0  0  0  0  0  0  0  0  0  0  0  0
    1.1818   -5.6612   28.8399 C   0  0  0  0  0  0  0  0  0  0  0  0
   -1.2067   -7.3287   17.7772 C   0  0  0  0  0  0  0  0  0  0  0  0
   -0.0206  -10.5585   16.6210 C   0  0  0  0  0  0  0  0  0  0  0  0
    0.3696  -12.7626   16.2169 O   0  0  0  0  0  0  0  0  0  0  0  0
   -0.6895   -9.5676   17.3297 C   0  0  0  0  0  0  0  0  0  0  0  0
    0.8388   -5.8417   27.5264 C   0  0  0  0  0  0  0  0  0  0  0  0
   -2.0709   -7.6637   18.7817 C   0  0  0  0  0  0  0  0  0  0  0  0
   -0.5279   -8.2168   17.0717 C   0  0  0  0  0  0  0  0  0  0  0  0
    6.9694   -4.0191   27.8190 C   0  0  0  0  0  0  0  0  0  0  0  0
    5.1733   -4.5469   29.8123 C   0  0  0  0  0  0  0  0  0  0  0  0
   -1.7508  -11.3016   18.6072 C   0  0  0  0  0  0  0  0  0  0  0  0
    1.7497   -5.6771   26.4971 C   0  0  0  0  0  0  0  0  0  0  0  0
   -1.5799   -9.9322   18.3468 C   0  0  0  0  0  0  0  0  0  0  0  0
   -1.0871  -12.2214   17.8851 C   0  0  0  0  0  0  0  0  0  0  0  0
   -2.2706   -8.9669   19.0691 C   0  0  0  0  0  0  0  0  0  0  0  0
    3.0279   -5.3073   26.8197 C   0  0  0  0  0  0  0  0  0  0  0  0
    7.3282   -3.8948   29.1186 C   0  0  0  0  0  0  0  0  0  0  0  0
  1  3  4  0
  1  7  4  0
  2  3  1  0
  2  6  4  0
  2 16  4  0
  3 22  4  0
  4  9  4  0
  4 10  1  0
  4 20  4  0
  5 16  4  0
  5 23  4  0
  6 15  4  0
  7 12  4  0
  8 13  4  0
  8 14  4  0
  9 11  4  0
 11 14  4  0
 11 19  4  0
 12 18  4  0
 13 21  4  0
 15 23  4  0
 17 19  4  0
 17 20  4  0
 18 22  4  0
 19 21  4  0
M  END
$$$$

 Created by Python create_sdf_string function

 23 25  0  0  0  0  0  0  0  0999 V2000
    2.4610   -5.3070   29.1240 C   0  0  0  0  0  0  0  0  0  0  0  0
    4.7710   -4.6952   28.4803 C   0  0  0  0  0  0  0  0  0  0  0  0
    3.4047   -5.1087   28.1314 C   0  0  0  0  0  0  0  0  0  0  0  0
   -0.2234  -11.8615   16.8874 C   0  0  0  0  0  0  0  0  0  0  0  0
    6.4491   -4.1532   30.1213 C   0  0  0  0  0  0  0  0  0  0  0  0
    5.7060   -4.4340   27.4975 C   0  0  0  0  0  0  0  0  0  0  0  0
    1.1818   -5.6612   28.8399 C   0  0  0  0  0  0  0  0  0  0  0  0
   -1.2067   -7.3287   17.7772 C   0  0  0  0  0  0  0  0  0  0  0  0
   -0.0206  -10.5585   16.6210 C   0  0  0  0  0  0  0  0  0  0  0  0
    0.3696  -12.7626   16.2169 O   0  0  0  0  0  0  0  0  0  0  0  0
   -0.6895   -9.5676   17.3297 C   0  0  0  0  0  0  0  0  0  0  0  0
    0.8388   -5.8417   27.5264 C   0  0  0  0  0  0  0  0  0  0  0  0
   -2.0709   -7.6637   18.7817 C   0  0  0  0  0  0  0  0  0  0  0  0
   -0.5279   -8.2168   17.0717 C   0  0  0  0  0  0  0  0  0  0  0  0
    6.9694   -4.0191   27.8190 C   0  0  0  0  0  0  0  0  0  0  0  0
    5.1733   -4.5469   29.8123 C   0  0  0  0  0  0  0  0  0  0  0  0
   -1.7508  -11.3016   18.6072 C   0  0  0  0  0  0  0  0  0  0  0  0
    1.7497   -5.6771   26.4971 C   0  0  0  0  0  0  0  0  0  0  0  0
   -1.5799   -9.9322   18.3468 C   0  0  0  0  0  0  0  0  0  0  0  0
   -1.0871  -12.2214   17.8851 C   0  0  0  0  0  0  0  0  0  0  0  0
   -2.2706   -8.9669   19.0691 C   0  0  0  0  0  0  0  0  0  0  0  0
    3.0279   -5.3073   26.8197 C   0  0  0  0  0  0  0  0  0  0  0  0
    7.3282   -3.8948   29.1186 C   0  0  0  0  0  0  0  0  0  0  0  0
  1  3  4  0
  1  7  4  0
  2  3  1  0
  2  6  4  0
  2 16  4  0
  3 22  4  0
  4  9  4  0
  4 10  1  0
  4 20  4  0
  5 16  4  0
  5 23  4  0
  6 15  4  0
  7 12  4  0
  8 13  4  0
  8 14  4  0
  9 11  4  0
 11 14  4  0
 11 19  4  0
 12 18  4  0
 13 21  4  0
 15 23  4  0
 17 19  4  0
 17 20  4  0
 18 22  4  0
 19 21  4  0
M  END
$$$$

 Created by Python create_sdf_string function

 23 25  0  0  0  0  0  0  0  0999 V2000
    2.4610   -5.3070   29.1240 C   0  0  0  0  0  0  0  0  0  0  0  0
    4.7710   -4.6952   28.4803 C   0  0  0  0  0  0  0  0  0  0  0  0
    3.4047   -5.1087   28.1314 C   0  0  0  0  0  0  0  0  0  0  0  0
   -0.2234  -11.8615   16.8874 C   0  0  0  0  0  0  0  0  0  0  0  0
    6.4491   -4.1532   30.1213 C   0  0  0  0  0  0  0  0  0  0  0  0
    5.7060   -4.4340   27.4975 C   0  0  0  0  0  0  0  0  0  0  0  0
    1.1818   -5.6612   28.8399 C   0  0  0  0  0  0  0  0  0  0  0  0
   -1.2067   -7.3287   17.7772 C   0  0  0  0  0  0  0  0  0  0  0  0
   -0.0206  -10.5585   16.6210 C   0  0  0  0  0  0  0  0  0  0  0  0
    0.3696  -12.7626   16.2169 O   0  0  0  0  0  0  0  0  0  0  0  0
   -0.6895   -9.5676   17.3297 C   0  0  0  0  0  0  0  0  0  0  0  0
    0.8388   -5.8417   27.5264 C   0  0  0  0  0  0  0  0  0  0  0  0
   -2.0709   -7.6637   18.7817 C   0  0  0  0  0  0  0  0  0  0  0  0
   -0.5279   -8.2168   17.0717 C   0  0  0  0  0  0  0  0  0  0  0  0
    6.9694   -4.0191   27.8190 C   0  0  0  0  0  0  0  0  0  0  0  0
    5.1733   -4.5469   29.8123 C   0  0  0  0  0  0  0  0  0  0  0  0
   -1.7508  -11.3016   18.6072 C   0  0  0  0  0  0  0  0  0  0  0  0
    1.7497   -5.6771   26.4971 C   0  0  0  0  0  0  0  0  0  0  0  0
   -1.5799   -9.9322   18.3468 C   0  0  0  0  0  0  0  0  0  0  0  0
   -1.0871  -12.2214   17.8851 C   0  0  0  0  0  0  0  0  0  0  0  0
   -2.2706   -8.9669   19.0691 C   0  0  0  0  0  0  0  0  0  0  0  0
    3.0279   -5.3073   26.8197 C   0  0  0  0  0  0  0  0  0  0  0  0
    7.3282   -3.8948   29.1186 C   0  0  0  0  0  0  0  0  0  0  0  0
  1  3  4  0
  1  7  4  0
  2  3  1  0
  2  6  4  0
  2 16  4  0
  3 22  4  0
  4  9  4  0
  4 10  1  0
  4 20  4  0
  5 16  4  0
  5 23  4  0
  6 15  4  0
  7 12  4  0
  8 13  4  0
  8 14  4  0
  9 11  4  0
 11 14  4  0
 11 19  4  0
 12 18  4  0
 13 21  4  0
 15 23  4  0
 17 19  4  0
 17 20  4  0
 18 22  4  0
 19 21  4  0
M  END
$$$$

 Created by Python create_sdf_string function

 23 25  0  0  0  0  0  0  0  0999 V2000
    2.4610   -5.3070   29.1240 C   0  0  0  0  0  0  0  0  0  0  0  0
    4.7710   -4.6952   28.4803 C   0  0  0  0  0  0  0  0  0  0  0  0
    3.4047   -5.1087   28.1314 C   0  0  0  0  0  0  0  0  0  0  0  0
   -0.2234  -11.8615   16.8874 C   0  0  0  0  0  0  0  0  0  0  0  0
    6.4491   -4.1532   30.1213 C   0  0  0  0  0  0  0  0  0  0  0  0
    5.7060   -4.4340   27.4975 C   0  0  0  0  0  0  0  0  0  0  0  0
    1.1818   -5.6612   28.8399 C   0  0  0  0  0  0  0  0  0  0  0  0
   -1.2067   -7.3287   17.7772 C   0  0  0  0  0  0  0  0  0  0  0  0
   -0.0206  -10.5585   16.6210 C   0  0  0  0  0  0  0  0  0  0  0  0
    0.3696  -12.7626   16.2169 O   0  0  0  0  0  0  0  0  0  0  0  0
   -0.6895   -9.5676   17.3297 C   0  0  0  0  0  0  0  0  0  0  0  0
    0.8388   -5.8417   27.5264 C   0  0  0  0  0  0  0  0  0  0  0  0
   -2.0709   -7.6637   18.7817 C   0  0  0  0  0  0  0  0  0  0  0  0
   -0.5279   -8.2168   17.0717 C   0  0  0  0  0  0  0  0  0  0  0  0
    6.9694   -4.0191   27.8190 C   0  0  0  0  0  0  0  0  0  0  0  0
    5.1733   -4.5469   29.8123 C   0  0  0  0  0  0  0  0  0  0  0  0
   -1.7508  -11.3016   18.6072 C   0  0  0  0  0  0  0  0  0  0  0  0
    1.7497   -5.6771   26.4971 C   0  0  0  0  0  0  0  0  0  0  0  0
   -1.5799   -9.9322   18.3468 C   0  0  0  0  0  0  0  0  0  0  0  0
   -1.0871  -12.2214   17.8851 C   0  0  0  0  0  0  0  0  0  0  0  0
   -2.2706   -8.9669   19.0691 C   0  0  0  0  0  0  0  0  0  0  0  0
    3.0279   -5.3073   26.8197 C   0  0  0  0  0  0  0  0  0  0  0  0
    7.3282   -3.8948   29.1186 C   0  0  0  0  0  0  0  0  0  0  0  0
  1  3  4  0
  1  7  4  0
  2  3  1  0
  2  6  4  0
  2 16  4  0
  3 22  4  0
  4  9  4  0
  4 10  1  0
  4 20  4  0
  5 16  4  0
  5 23  4  0
  6 15  4  0
  7 12  4  0
  8 13  4  0
  8 14  4  0
  9 11  4  0
 11 14  4  0
 11 19  4  0
 12 18  4  0
 13 21  4  0
 15 23  4  0
 17 19  4  0
 17 20  4  0
 18 22  4  0
 19 21  4  0
M  END
$$$$

 Created by Python create_sdf_string function

 23 25  0  0  0  0  0  0  0  0999 V2000
    2.4610   -5.3070   29.1240 C   0  0  0  0  0  0  0  0  0  0  0  0
    4.7710   -4.6952   28.4803 C   0  0  0  0  0  0  0  0  0  0  0  0
    3.4047   -5.1087   28.1314 C   0  0  0  0  0  0  0  0  0  0  0  0
   -0.2234  -11.8615   16.8874 C   0  0  0  0  0  0  0  0  0  0  0  0
    6.4491   -4.1532   30.1213 C   0  0  0  0  0  0  0  0  0  0  0  0
    5.7060   -4.4340   27.4975 C   0  0  0  0  0  0  0  0  0  0  0  0
    1.1818   -5.6612   28.8399 C   0  0  0  0  0  0  0  0  0  0  0  0
   -1.2067   -7.3287   17.7772 C   0  0  0  0  0  0  0  0  0  0  0  0
   -0.0206  -10.5585   16.6210 C   0  0  0  0  0  0  0  0  0  0  0  0
    0.3696  -12.7626   16.2169 O   0  0  0  0  0  0  0  0  0  0  0  0
   -0.6895   -9.5676   17.3297 C   0  0  0  0  0  0  0  0  0  0  0  0
    0.8388   -5.8417   27.5264 C   0  0  0  0  0  0  0  0  0  0  0  0
   -2.0709   -7.6637   18.7817 C   0  0  0  0  0  0  0  0  0  0  0  0
   -0.5279   -8.2168   17.0717 C   0  0  0  0  0  0  0  0  0  0  0  0
    6.9694   -4.0191   27.8190 C   0  0  0  0  0  0  0  0  0  0  0  0
    5.1733   -4.5469   29.8123 C   0  0  0  0  0  0  0  0  0  0  0  0
   -1.7508  -11.3016   18.6072 C   0  0  0  0  0  0  0  0  0  0  0  0
    1.7497   -5.6771   26.4971 C   0  0  0  0  0  0  0  0  0  0  0  0
   -1.5799   -9.9322   18.3468 C   0  0  0  0  0  0  0  0  0  0  0  0
   -1.0871  -12.2214   17.8851 C   0  0  0  0  0  0  0  0  0  0  0  0
   -2.2706   -8.9669   19.0691 C   0  0  0  0  0  0  0  0  0  0  0  0
    3.0279   -5.3073   26.8197 C   0  0  0  0  0  0  0  0  0  0  0  0
    7.3282   -3.8948   29.1186 C   0  0  0  0  0  0  0  0  0  0  0  0
  1  3  4  0
  1  7  4  0
  2  3  1  0
  2  6  4  0
  2 16  4  0
  3 22  4  0
  4  9  4  0
  4 10  1  0
  4 20  4  0
  5 16  4  0
  5 23  4  0
  6 15  4  0
  7 12  4  0
  8 13  4  0
  8 14  4  0
  9 11  4  0
 11 14  4  0
 11 19  4  0
 12 18  4  0
 13 21  4  0
 15 23  4  0
 17 19  4  0
 17 20  4  0
 18 22  4  0
 19 21  4  0
M  END
$$$$

 Created by Python create_sdf_string function

 23 25  0  0  0  0  0  0  0  0999 V2000
    2.4610   -5.3070   29.1240 C   0  0  0  0  0  0  0  0  0  0  0  0
    4.7710   -4.6952   28.4803 C   0  0  0  0  0  0  0  0  0  0  0  0
    3.4047   -5.1087   28.1314 C   0  0  0  0  0  0  0  0  0  0  0  0
   -0.2234  -11.8615   16.8874 C   0  0  0  0  0  0  0  0  0  0  0  0
    6.4491   -4.1532   30.1213 C   0  0  0  0  0  0  0  0  0  0  0  0
    5.7060   -4.4340   27.4975 C   0  0  0  0  0  0  0  0  0  0  0  0
    1.1818   -5.6612   28.8399 C   0  0  0  0  0  0  0  0  0  0  0  0
   -1.2067   -7.3287   17.7772 C   0  0  0  0  0  0  0  0  0  0  0  0
   -0.0206  -10.5585   16.6210 C   0  0  0  0  0  0  0  0  0  0  0  0
    0.3696  -12.7626   16.2169 O   0  0  0  0  0  0  0  0  0  0  0  0
   -0.6895   -9.5676   17.3297 C   0  0  0  0  0  0  0  0  0  0  0  0
    0.8388   -5.8417   27.5264 C   0  0  0  0  0  0  0  0  0  0  0  0
   -2.0709   -7.6637   18.7817 C   0  0  0  0  0  0  0  0  0  0  0  0
   -0.5279   -8.2168   17.0717 C   0  0  0  0  0  0  0  0  0  0  0  0
    6.9694   -4.0191   27.8190 C   0  0  0  0  0  0  0  0  0  0  0  0
    5.1733   -4.5469   29.8123 C   0  0  0  0  0  0  0  0  0  0  0  0
   -1.7508  -11.3016   18.6072 C   0  0  0  0  0  0  0  0  0  0  0  0
    1.7497   -5.6771   26.4971 C   0  0  0  0  0  0  0  0  0  0  0  0
   -1.5799   -9.9322   18.3468 C   0  0  0  0  0  0  0  0  0  0  0  0
   -1.0871  -12.2214   17.8851 C   0  0  0  0  0  0  0  0  0  0  0  0
   -2.2706   -8.9669   19.0691 C   0  0  0  0  0  0  0  0  0  0  0  0
    3.0279   -5.3073   26.8197 C   0  0  0  0  0  0  0  0  0  0  0  0
    7.3282   -3.8948   29.1186 C   0  0  0  0  0  0  0  0  0  0  0  0
  1  3  4  0
  1  7  4  0
  2  3  1  0
  2  6  4  0
  2 16  4  0
  3 22  4  0
  4  9  4  0
  4 10  1  0
  4 20  4  0
  5 16  4  0
  5 23  4  0
  6 15  4  0
  7 12  4  0
  8 13  4  0
  8 14  4  0
  9 11  4  0
 11 14  4  0
 11 19  4  0
 12 18  4  0
 13 21  4  0
 15 23  4  0
 17 19  4  0
 17 20  4  0
 18 22  4  0
 19 21  4  0
M  END
$$$$

 Created by Python create_sdf_string function

 23 25  0  0  0  0  0  0  0  0999 V2000
    2.4610   -5.3070   29.1240 C   0  0  0  0  0  0  0  0  0  0  0  0
    4.7710   -4.6952   28.4803 C   0  0  0  0  0  0  0  0  0  0  0  0
    3.4047   -5.1087   28.1314 C   0  0  0  0  0  0  0  0  0  0  0  0
   -0.2234  -11.8615   16.8874 C   0  0  0  0  0  0  0  0  0  0  0  0
    6.4491   -4.1532   30.1213 C   0  0  0  0  0  0  0  0  0  0  0  0
    5.7060   -4.4340   27.4975 C   0  0  0  0  0  0  0  0  0  0  0  0
    1.1818   -5.6612   28.8399 C   0  0  0  0  0  0  0  0  0  0  0  0
   -1.2067   -7.3287   17.7772 C   0  0  0  0  0  0  0  0  0  0  0  0
   -0.0206  -10.5585   16.6210 C   0  0  0  0  0  0  0  0  0  0  0  0
    0.3696  -12.7626   16.2169 O   0  0  0  0  0  0  0  0  0  0  0  0
   -0.6895   -9.5676   17.3297 C   0  0  0  0  0  0  0  0  0  0  0  0
    0.8388   -5.8417   27.5264 C   0  0  0  0  0  0  0  0  0  0  0  0
   -2.0709   -7.6637   18.7817 C   0  0  0  0  0  0  0  0  0  0  0  0
   -0.5279   -8.2168   17.0717 C   0  0  0  0  0  0  0  0  0  0  0  0
    6.9694   -4.0191   27.8190 C   0  0  0  0  0  0  0  0  0  0  0  0
    5.1733   -4.5469   29.8123 C   0  0  0  0  0  0  0  0  0  0  0  0
   -1.7508  -11.3016   18.6072 C   0  0  0  0  0  0  0  0  0  0  0  0
    1.7497   -5.6771   26.4971 C   0  0  0  0  0  0  0  0  0  0  0  0
   -1.5799   -9.9322   18.3468 C   0  0  0  0  0  0  0  0  0  0  0  0
   -1.0871  -12.2214   17.8851 C   0  0  0  0  0  0  0  0  0  0  0  0
   -2.2706   -8.9669   19.0691 C   0  0  0  0  0  0  0  0  0  0  0  0
    3.0279   -5.3073   26.8197 C   0  0  0  0  0  0  0  0  0  0  0  0
    7.3282   -3.8948   29.1186 C   0  0  0  0  0  0  0  0  0  0  0  0
  1  3  4  0
  1  7  4  0
  2  3  1  0
  2  6  4  0
  2 16  4  0
  3 22  4  0
  4  9  4  0
  4 10  1  0
  4 20  4  0
  5 16  4  0
  5 23  4  0
  6 15  4  0
  7 12  4  0
  8 13  4  0
  8 14  4  0
  9 11  4  0
 11 14  4  0
 11 19  4  0
 12 18  4  0
 13 21  4  0
 15 23  4  0
 17 19  4  0
 17 20  4  0
 18 22  4  0
 19 21  4  0
M  END
$$$$

 Created by Python create_sdf_string function

 23 25  0  0  0  0  0  0  0  0999 V2000
    2.4610   -5.3070   29.1240 C   0  0  0  0  0  0  0  0  0  0  0  0
    4.7710   -4.6952   28.4803 C   0  0  0  0  0  0  0  0  0  0  0  0
    3.4047   -5.1087   28.1314 C   0  0  0  0  0  0  0  0  0  0  0  0
   -0.2234  -11.8615   16.8874 C   0  0  0  0  0  0  0  0  0  0  0  0
    6.4491   -4.1532   30.1213 C   0  0  0  0  0  0  0  0  0  0  0  0
    5.7060   -4.4340   27.4975 C   0  0  0  0  0  0  0  0  0  0  0  0
    1.1818   -5.6612   28.8399 C   0  0  0  0  0  0  0  0  0  0  0  0
   -1.2067   -7.3287   17.7772 C   0  0  0  0  0  0  0  0  0  0  0  0
   -0.0206  -10.5585   16.6210 C   0  0  0  0  0  0  0  0  0  0  0  0
    0.3696  -12.7626   16.2169 O   0  0  0  0  0  0  0  0  0  0  0  0
   -0.6895   -9.5676   17.3297 C   0  0  0  0  0  0  0  0  0  0  0  0
    0.8388   -5.8417   27.5264 C   0  0  0  0  0  0  0  0  0  0  0  0
   -2.0709   -7.6637   18.7817 C   0  0  0  0  0  0  0  0  0  0  0  0
   -0.5279   -8.2168   17.0717 C   0  0  0  0  0  0  0  0  0  0  0  0
    6.9694   -4.0191   27.8190 C   0  0  0  0  0  0  0  0  0  0  0  0
    5.1733   -4.5469   29.8123 C   0  0  0  0  0  0  0  0  0  0  0  0
   -1.7508  -11.3016   18.6072 C   0  0  0  0  0  0  0  0  0  0  0  0
    1.7497   -5.6771   26.4971 C   0  0  0  0  0  0  0  0  0  0  0  0
   -1.5799   -9.9322   18.3468 C   0  0  0  0  0  0  0  0  0  0  0  0
   -1.0871  -12.2214   17.8851 C   0  0  0  0  0  0  0  0  0  0  0  0
   -2.2706   -8.9669   19.0691 C   0  0  0  0  0  0  0  0  0  0  0  0
    3.0279   -5.3073   26.8197 C   0  0  0  0  0  0  0  0  0  0  0  0
    7.3282   -3.8948   29.1186 C   0  0  0  0  0  0  0  0  0  0  0  0
  1  3  4  0
  1  7  4  0
  2  3  1  0
  2  6  4  0
  2 16  4  0
  3 22  4  0
  4  9  4  0
  4 10  1  0
  4 20  4  0
  5 16  4  0
  5 23  4  0
  6 15  4  0
  7 12  4  0
  8 13  4  0
  8 14  4  0
  9 11  4  0
 11 14  4  0
 11 19  4  0
 12 18  4  0
 13 21  4  0
 15 23  4  0
 17 19  4  0
 17 20  4  0
 18 22  4  0
 19 21  4  0
M  END
$$$$

 Created by Python create_sdf_string function

 23 25  0  0  0  0  0  0  0  0999 V2000
    2.4610   -5.3070   29.1240 C   0  0  0  0  0  0  0  0  0  0  0  0
    4.7710   -4.6952   28.4803 C   0  0  0  0  0  0  0  0  0  0  0  0
    3.4047   -5.1087   28.1314 C   0  0  0  0  0  0  0  0  0  0  0  0
   -0.2234  -11.8615   16.8874 C   0  0  0  0  0  0  0  0  0  0  0  0
    6.4491   -4.1532   30.1213 C   0  0  0  0  0  0  0  0  0  0  0  0
    5.7060   -4.4340   27.4975 C   0  0  0  0  0  0  0  0  0  0  0  0
    1.1818   -5.6612   28.8399 C   0  0  0  0  0  0  0  0  0  0  0  0
   -1.2067   -7.3287   17.7772 C   0  0  0  0  0  0  0  0  0  0  0  0
   -0.0206  -10.5585   16.6210 C   0  0  0  0  0  0  0  0  0  0  0  0
    0.3696  -12.7626   16.2169 O   0  0  0  0  0  0  0  0  0  0  0  0
   -0.6895   -9.5676   17.3297 C   0  0  0  0  0  0  0  0  0  0  0  0
    0.8388   -5.8417   27.5264 C   0  0  0  0  0  0  0  0  0  0  0  0
   -2.0709   -7.6637   18.7817 C   0  0  0  0  0  0  0  0  0  0  0  0
   -0.5279   -8.2168   17.0717 C   0  0  0  0  0  0  0  0  0  0  0  0
    6.9694   -4.0191   27.8190 C   0  0  0  0  0  0  0  0  0  0  0  0
    5.1733   -4.5469   29.8123 C   0  0  0  0  0  0  0  0  0  0  0  0
   -1.7508  -11.3016   18.6072 C   0  0  0  0  0  0  0  0  0  0  0  0
    1.7497   -5.6771   26.4971 C   0  0  0  0  0  0  0  0  0  0  0  0
   -1.5799   -9.9322   18.3468 C   0  0  0  0  0  0  0  0  0  0  0  0
   -1.0871  -12.2214   17.8851 C   0  0  0  0  0  0  0  0  0  0  0  0
   -2.2706   -8.9669   19.0691 C   0  0  0  0  0  0  0  0  0  0  0  0
    3.0279   -5.3073   26.8197 C   0  0  0  0  0  0  0  0  0  0  0  0
    7.3282   -3.8948   29.1186 C   0  0  0  0  0  0  0  0  0  0  0  0
  1  3  4  0
  1  7  4  0
  2  3  1  0
  2  6  4  0
  2 16  4  0
  3 22  4  0
  4  9  4  0
  4 10  1  0
  4 20  4  0
  5 16  4  0
  5 23  4  0
  6 15  4  0
  7 12  4  0
  8 13  4  0
  8 14  4  0
  9 11  4  0
 11 14  4  0
 11 19  4  0
 12 18  4  0
 13 21  4  0
 15 23  4  0
 17 19  4  0
 17 20  4  0
 18 22  4  0
 19 21  4  0
M  END
$$$$

 Created by Python create_sdf_string function

 23 25  0  0  0  0  0  0  0  0999 V2000
    2.4610   -5.3070   29.1240 C   0  0  0  0  0  0  0  0  0  0  0  0
    4.7710   -4.6952   28.4803 C   0  0  0  0  0  0  0  0  0  0  0  0
    3.4047   -5.1087   28.1314 C   0  0  0  0  0  0  0  0  0  0  0  0
   -0.2234  -11.8615   16.8874 C   0  0  0  0  0  0  0  0  0  0  0  0
    6.4491   -4.1532   30.1213 C   0  0  0  0  0  0  0  0  0  0  0  0
    5.7060   -4.4340   27.4975 C   0  0  0  0  0  0  0  0  0  0  0  0
    1.1818   -5.6612   28.8399 C   0  0  0  0  0  0  0  0  0  0  0  0
   -1.2067   -7.3287   17.7772 C   0  0  0  0  0  0  0  0  0  0  0  0
   -0.0206  -10.5585   16.6210 C   0  0  0  0  0  0  0  0  0  0  0  0
    0.3696  -12.7626   16.2169 O   0  0  0  0  0  0  0  0  0  0  0  0
   -0.6895   -9.5676   17.3297 C   0  0  0  0  0  0  0  0  0  0  0  0
    0.8388   -5.8417   27.5264 C   0  0  0  0  0  0  0  0  0  0  0  0
   -2.0709   -7.6637   18.7817 C   0  0  0  0  0  0  0  0  0  0  0  0
   -0.5279   -8.2168   17.0717 C   0  0  0  0  0  0  0  0  0  0  0  0
    6.9694   -4.0191   27.8190 C   0  0  0  0  0  0  0  0  0  0  0  0
    5.1733   -4.5469   29.8123 C   0  0  0  0  0  0  0  0  0  0  0  0
   -1.7508  -11.3016   18.6072 C   0  0  0  0  0  0  0  0  0  0  0  0
    1.7497   -5.6771   26.4971 C   0  0  0  0  0  0  0  0  0  0  0  0
   -1.5799   -9.9322   18.3468 C   0  0  0  0  0  0  0  0  0  0  0  0
   -1.0871  -12.2214   17.8851 C   0  0  0  0  0  0  0  0  0  0  0  0
   -2.2706   -8.9669   19.0691 C   0  0  0  0  0  0  0  0  0  0  0  0
    3.0279   -5.3073   26.8197 C   0  0  0  0  0  0  0  0  0  0  0  0
    7.3282   -3.8948   29.1186 C   0  0  0  0  0  0  0  0  0  0  0  0
  1  3  4  0
  1  7  4  0
  2  3  1  0
  2  6  4  0
  2 16  4  0
  3 22  4  0
  4  9  4  0
  4 10  1  0
  4 20  4  0
  5 16  4  0
  5 23  4  0
  6 15  4  0
  7 12  4  0
  8 13  4  0
  8 14  4  0
  9 11  4  0
 11 14  4  0
 11 19  4  0
 12 18  4  0
 13 21  4  0
 15 23  4  0
 17 19  4  0
 17 20  4  0
 18 22  4  0
 19 21  4  0
M  END
$$$$

 Created by Python create_sdf_string function

 23 25  0  0  0  0  0  0  0  0999 V2000
    2.4610   -5.3070   29.1240 C   0  0  0  0  0  0  0  0  0  0  0  0
    4.7710   -4.6952   28.4803 C   0  0  0  0  0  0  0  0  0  0  0  0
    3.4047   -5.1087   28.1314 C   0  0  0  0  0  0  0  0  0  0  0  0
   -0.2234  -11.8615   16.8874 C   0  0  0  0  0  0  0  0  0  0  0  0
    6.4491   -4.1532   30.1213 C   0  0  0  0  0  0  0  0  0  0  0  0
    5.7060   -4.4340   27.4975 C   0  0  0  0  0  0  0  0  0  0  0  0
    1.1818   -5.6612   28.8399 C   0  0  0  0  0  0  0  0  0  0  0  0
   -1.2067   -7.3287   17.7772 C   0  0  0  0  0  0  0  0  0  0  0  0
   -0.0206  -10.5585   16.6210 C   0  0  0  0  0  0  0  0  0  0  0  0
    0.3696  -12.7626   16.2169 O   0  0  0  0  0  0  0  0  0  0  0  0
   -0.6895   -9.5676   17.3297 C   0  0  0  0  0  0  0  0  0  0  0  0
    0.8388   -5.8417   27.5264 C   0  0  0  0  0  0  0  0  0  0  0  0
   -2.0709   -7.6637   18.7817 C   0  0  0  0  0  0  0  0  0  0  0  0
   -0.5279   -8.2168   17.0717 C   0  0  0  0  0  0  0  0  0  0  0  0
    6.9694   -4.0191   27.8190 C   0  0  0  0  0  0  0  0  0  0  0  0
    5.1733   -4.5469   29.8123 C   0  0  0  0  0  0  0  0  0  0  0  0
   -1.7508  -11.3016   18.6072 C   0  0  0  0  0  0  0  0  0  0  0  0
    1.7497   -5.6771   26.4971 C   0  0  0  0  0  0  0  0  0  0  0  0
   -1.5799   -9.9322   18.3468 C   0  0  0  0  0  0  0  0  0  0  0  0
   -1.0871  -12.2214   17.8851 C   0  0  0  0  0  0  0  0  0  0  0  0
   -2.2706   -8.9669   19.0691 C   0  0  0  0  0  0  0  0  0  0  0  0
    3.0279   -5.3073   26.8197 C   0  0  0  0  0  0  0  0  0  0  0  0
    7.3282   -3.8948   29.1186 C   0  0  0  0  0  0  0  0  0  0  0  0
  1  3  4  0
  1  7  4  0
  2  3  1  0
  2  6  4  0
  2 16  4  0
  3 22  4  0
  4  9  4  0
  4 10  1  0
  4 20  4  0
  5 16  4  0
  5 23  4  0
  6 15  4  0
  7 12  4  0
  8 13  4  0
  8 14  4  0
  9 11  4  0
 11 14  4  0
 11 19  4  0
 12 18  4  0
 13 21  4  0
 15 23  4  0
 17 19  4  0
 17 20  4  0
 18 22  4  0
 19 21  4  0
M  END
$$$$

 Created by Python create_sdf_string function

 23 25  0  0  0  0  0  0  0  0999 V2000
    2.4610   -5.3070   29.1240 C   0  0  0  0  0  0  0  0  0  0  0  0
    4.7710   -4.6952   28.4803 C   0  0  0  0  0  0  0  0  0  0  0  0
    3.4047   -5.1087   28.1314 C   0  0  0  0  0  0  0  0  0  0  0  0
   -0.2234  -11.8615   16.8874 C   0  0  0  0  0  0  0  0  0  0  0  0
    6.4491   -4.1532   30.1213 C   0  0  0  0  0  0  0  0  0  0  0  0
    5.7060   -4.4340   27.4975 C   0  0  0  0  0  0  0  0  0  0  0  0
    1.1818   -5.6612   28.8399 C   0  0  0  0  0  0  0  0  0  0  0  0
   -1.2067   -7.3287   17.7772 C   0  0  0  0  0  0  0  0  0  0  0  0
   -0.0206  -10.5585   16.6210 C   0  0  0  0  0  0  0  0  0  0  0  0
    0.3696  -12.7626   16.2169 O   0  0  0  0  0  0  0  0  0  0  0  0
   -0.6895   -9.5676   17.3297 C   0  0  0  0  0  0  0  0  0  0  0  0
    0.8388   -5.8417   27.5264 C   0  0  0  0  0  0  0  0  0  0  0  0
   -2.0709   -7.6637   18.7817 C   0  0  0  0  0  0  0  0  0  0  0  0
   -0.5279   -8.2168   17.0717 C   0  0  0  0  0  0  0  0  0  0  0  0
    6.9694   -4.0191   27.8190 C   0  0  0  0  0  0  0  0  0  0  0  0
    5.1733   -4.5469   29.8123 C   0  0  0  0  0  0  0  0  0  0  0  0
   -1.7508  -11.3016   18.6072 C   0  0  0  0  0  0  0  0  0  0  0  0
    1.7497   -5.6771   26.4971 C   0  0  0  0  0  0  0  0  0  0  0  0
   -1.5799   -9.9322   18.3468 C   0  0  0  0  0  0  0  0  0  0  0  0
   -1.0871  -12.2214   17.8851 C   0  0  0  0  0  0  0  0  0  0  0  0
   -2.2706   -8.9669   19.0691 C   0  0  0  0  0  0  0  0  0  0  0  0
    3.0279   -5.3073   26.8197 C   0  0  0  0  0  0  0  0  0  0  0  0
    7.3282   -3.8948   29.1186 C   0  0  0  0  0  0  0  0  0  0  0  0
  1  3  4  0
  1  7  4  0
  2  3  1  0
  2  6  4  0
  2 16  4  0
  3 22  4  0
  4  9  4  0
  4 10  1  0
  4 20  4  0
  5 16  4  0
  5 23  4  0
  6 15  4  0
  7 12  4  0
  8 13  4  0
  8 14  4  0
  9 11  4  0
 11 14  4  0
 11 19  4  0
 12 18  4  0
 13 21  4  0
 15 23  4  0
 17 19  4  0
 17 20  4  0
 18 22  4  0
 19 21  4  0
M  END
$$$$

 Created by Python create_sdf_string function

 23 25  0  0  0  0  0  0  0  0999 V2000
    2.4610   -5.3070   29.1240 C   0  0  0  0  0  0  0  0  0  0  0  0
    4.7710   -4.6952   28.4803 C   0  0  0  0  0  0  0  0  0  0  0  0
    3.4047   -5.1087   28.1314 C   0  0  0  0  0  0  0  0  0  0  0  0
   -0.2234  -11.8615   16.8874 C   0  0  0  0  0  0  0  0  0  0  0  0
    6.4491   -4.1532   30.1213 C   0  0  0  0  0  0  0  0  0  0  0  0
    5.7060   -4.4340   27.4975 C   0  0  0  0  0  0  0  0  0  0  0  0
    1.1818   -5.6612   28.8399 C   0  0  0  0  0  0  0  0  0  0  0  0
   -1.2067   -7.3287   17.7772 C   0  0  0  0  0  0  0  0  0  0  0  0
   -0.0206  -10.5585   16.6210 C   0  0  0  0  0  0  0  0  0  0  0  0
    0.3696  -12.7626   16.2169 O   0  0  0  0  0  0  0  0  0  0  0  0
   -0.6895   -9.5676   17.3297 C   0  0  0  0  0  0  0  0  0  0  0  0
    0.8388   -5.8417   27.5264 C   0  0  0  0  0  0  0  0  0  0  0  0
   -2.0709   -7.6637   18.7817 C   0  0  0  0  0  0  0  0  0  0  0  0
   -0.5279   -8.2168   17.0717 C   0  0  0  0  0  0  0  0  0  0  0  0
    6.9694   -4.0191   27.8190 C   0  0  0  0  0  0  0  0  0  0  0  0
    5.1733   -4.5469   29.8123 C   0  0  0  0  0  0  0  0  0  0  0  0
   -1.7508  -11.3016   18.6072 C   0  0  0  0  0  0  0  0  0  0  0  0
    1.7497   -5.6771   26.4971 C   0  0  0  0  0  0  0  0  0  0  0  0
   -1.5799   -9.9322   18.3468 C   0  0  0  0  0  0  0  0  0  0  0  0
   -1.0871  -12.2214   17.8851 C   0  0  0  0  0  0  0  0  0  0  0  0
   -2.2706   -8.9669   19.0691 C   0  0  0  0  0  0  0  0  0  0  0  0
    3.0279   -5.3073   26.8197 C   0  0  0  0  0  0  0  0  0  0  0  0
    7.3282   -3.8948   29.1186 C   0  0  0  0  0  0  0  0  0  0  0  0
  1  3  4  0
  1  7  4  0
  2  3  1  0
  2  6  4  0
  2 16  4  0
  3 22  4  0
  4  9  4  0
  4 10  1  0
  4 20  4  0
  5 16  4  0
  5 23  4  0
  6 15  4  0
  7 12  4  0
  8 13  4  0
  8 14  4  0
  9 11  4  0
 11 14  4  0
 11 19  4  0
 12 18  4  0
 13 21  4  0
 15 23  4  0
 17 19  4  0
 17 20  4  0
 18 22  4  0
 19 21  4  0
M  END
$$$$

 Created by Python create_sdf_string function

 23 25  0  0  0  0  0  0  0  0999 V2000
    2.4610   -5.3070   29.1240 C   0  0  0  0  0  0  0  0  0  0  0  0
    4.7710   -4.6952   28.4803 C   0  0  0  0  0  0  0  0  0  0  0  0
    3.4047   -5.1087   28.1314 C   0  0  0  0  0  0  0  0  0  0  0  0
   -0.2234  -11.8615   16.8874 C   0  0  0  0  0  0  0  0  0  0  0  0
    6.4491   -4.1532   30.1213 C   0  0  0  0  0  0  0  0  0  0  0  0
    5.7060   -4.4340   27.4975 C   0  0  0  0  0  0  0  0  0  0  0  0
    1.1818   -5.6612   28.8399 C   0  0  0  0  0  0  0  0  0  0  0  0
   -1.2067   -7.3287   17.7772 C   0  0  0  0  0  0  0  0  0  0  0  0
   -0.0206  -10.5585   16.6210 C   0  0  0  0  0  0  0  0  0  0  0  0
    0.3696  -12.7626   16.2169 O   0  0  0  0  0  0  0  0  0  0  0  0
   -0.6895   -9.5676   17.3297 C   0  0  0  0  0  0  0  0  0  0  0  0
    0.8388   -5.8417   27.5264 C   0  0  0  0  0  0  0  0  0  0  0  0
   -2.0709   -7.6637   18.7817 C   0  0  0  0  0  0  0  0  0  0  0  0
   -0.5279   -8.2168   17.0717 C   0  0  0  0  0  0  0  0  0  0  0  0
    6.9694   -4.0191   27.8190 C   0  0  0  0  0  0  0  0  0  0  0  0
    5.1733   -4.5469   29.8123 C   0  0  0  0  0  0  0  0  0  0  0  0
   -1.7508  -11.3016   18.6072 C   0  0  0  0  0  0  0  0  0  0  0  0
    1.7497   -5.6771   26.4971 C   0  0  0  0  0  0  0  0  0  0  0  0
   -1.5799   -9.9322   18.3468 C   0  0  0  0  0  0  0  0  0  0  0  0
   -1.0871  -12.2214   17.8851 C   0  0  0  0  0  0  0  0  0  0  0  0
   -2.2706   -8.9669   19.0691 C   0  0  0  0  0  0  0  0  0  0  0  0
    3.0279   -5.3073   26.8197 C   0  0  0  0  0  0  0  0  0  0  0  0
    7.3282   -3.8948   29.1186 C   0  0  0  0  0  0  0  0  0  0  0  0
  1  3  4  0
  1  7  4  0
  2  3  1  0
  2  6  4  0
  2 16  4  0
  3 22  4  0
  4  9  4  0
  4 10  1  0
  4 20  4  0
  5 16  4  0
  5 23  4  0
  6 15  4  0
  7 12  4  0
  8 13  4  0
  8 14  4  0
  9 11  4  0
 11 14  4  0
 11 19  4  0
 12 18  4  0
 13 21  4  0
 15 23  4  0
 17 19  4  0
 17 20  4  0
 18 22  4  0
 19 21  4  0
M  END
$$$$

 Created by Python create_sdf_string function

 23 25  0  0  0  0  0  0  0  0999 V2000
    2.4610   -5.3070   29.1240 C   0  0  0  0  0  0  0  0  0  0  0  0
    4.7710   -4.6952   28.4803 C   0  0  0  0  0  0  0  0  0  0  0  0
    3.4047   -5.1087   28.1314 C   0  0  0  0  0  0  0  0  0  0  0  0
   -0.2234  -11.8615   16.8874 C   0  0  0  0  0  0  0  0  0  0  0  0
    6.4491   -4.1532   30.1213 C   0  0  0  0  0  0  0  0  0  0  0  0
    5.7060   -4.4340   27.4975 C   0  0  0  0  0  0  0  0  0  0  0  0
    1.1818   -5.6612   28.8399 C   0  0  0  0  0  0  0  0  0  0  0  0
   -1.2067   -7.3287   17.7772 C   0  0  0  0  0  0  0  0  0  0  0  0
   -0.0206  -10.5585   16.6210 C   0  0  0  0  0  0  0  0  0  0  0  0
    0.3696  -12.7626   16.2169 O   0  0  0  0  0  0  0  0  0  0  0  0
   -0.6895   -9.5676   17.3297 C   0  0  0  0  0  0  0  0  0  0  0  0
    0.8388   -5.8417   27.5264 C   0  0  0  0  0  0  0  0  0  0  0  0
   -2.0709   -7.6637   18.7817 C   0  0  0  0  0  0  0  0  0  0  0  0
   -0.5279   -8.2168   17.0717 C   0  0  0  0  0  0  0  0  0  0  0  0
    6.9694   -4.0191   27.8190 C   0  0  0  0  0  0  0  0  0  0  0  0
    5.1733   -4.5469   29.8123 C   0  0  0  0  0  0  0  0  0  0  0  0
   -1.7508  -11.3016   18.6072 C   0  0  0  0  0  0  0  0  0  0  0  0
    1.7497   -5.6771   26.4971 C   0  0  0  0  0  0  0  0  0  0  0  0
   -1.5799   -9.9322   18.3468 C   0  0  0  0  0  0  0  0  0  0  0  0
   -1.0871  -12.2214   17.8851 C   0  0  0  0  0  0  0  0  0  0  0  0
   -2.2706   -8.9669   19.0691 C   0  0  0  0  0  0  0  0  0  0  0  0
    3.0279   -5.3073   26.8197 C   0  0  0  0  0  0  0  0  0  0  0  0
    7.3282   -3.8948   29.1186 C   0  0  0  0  0  0  0  0  0  0  0  0
  1  3  4  0
  1  7  4  0
  2  3  1  0
  2  6  4  0
  2 16  4  0
  3 22  4  0
  4  9  4  0
  4 10  1  0
  4 20  4  0
  5 16  4  0
  5 23  4  0
  6 15  4  0
  7 12  4  0
  8 13  4  0
  8 14  4  0
  9 11  4  0
 11 14  4  0
 11 19  4  0
 12 18  4  0
 13 21  4  0
 15 23  4  0
 17 19  4  0
 17 20  4  0
 18 22  4  0
 19 21  4  0
M  END
$$$$

 Created by Python create_sdf_string function

 23 25  0  0  0  0  0  0  0  0999 V2000
    2.4610   -5.3070   29.1240 C   0  0  0  0  0  0  0  0  0  0  0  0
    4.7710   -4.6952   28.4803 C   0  0  0  0  0  0  0  0  0  0  0  0
    3.4047   -5.1087   28.1314 C   0  0  0  0  0  0  0  0  0  0  0  0
   -0.2234  -11.8615   16.8874 C   0  0  0  0  0  0  0  0  0  0  0  0
    6.4491   -4.1532   30.1213 C   0  0  0  0  0  0  0  0  0  0  0  0
    5.7060   -4.4340   27.4975 C   0  0  0  0  0  0  0  0  0  0  0  0
    1.1818   -5.6612   28.8399 C   0  0  0  0  0  0  0  0  0  0  0  0
   -1.2067   -7.3287   17.7772 C   0  0  0  0  0  0  0  0  0  0  0  0
   -0.0206  -10.5585   16.6210 C   0  0  0  0  0  0  0  0  0  0  0  0
    0.3696  -12.7626   16.2169 O   0  0  0  0  0  0  0  0  0  0  0  0
   -0.6895   -9.5676   17.3297 C   0  0  0  0  0  0  0  0  0  0  0  0
    0.8388   -5.8417   27.5264 C   0  0  0  0  0  0  0  0  0  0  0  0
   -2.0709   -7.6637   18.7817 C   0  0  0  0  0  0  0  0  0  0  0  0
   -0.5279   -8.2168   17.0717 C   0  0  0  0  0  0  0  0  0  0  0  0
    6.9694   -4.0191   27.8190 C   0  0  0  0  0  0  0  0  0  0  0  0
    5.1733   -4.5469   29.8123 C   0  0  0  0  0  0  0  0  0  0  0  0
   -1.7508  -11.3016   18.6072 C   0  0  0  0  0  0  0  0  0  0  0  0
    1.7497   -5.6771   26.4971 C   0  0  0  0  0  0  0  0  0  0  0  0
   -1.5799   -9.9322   18.3468 C   0  0  0  0  0  0  0  0  0  0  0  0
   -1.0871  -12.2214   17.8851 C   0  0  0  0  0  0  0  0  0  0  0  0
   -2.2706   -8.9669   19.0691 C   0  0  0  0  0  0  0  0  0  0  0  0
    3.0279   -5.3073   26.8197 C   0  0  0  0  0  0  0  0  0  0  0  0
    7.3282   -3.8948   29.1186 C   0  0  0  0  0  0  0  0  0  0  0  0
  1  3  4  0
  1  7  4  0
  2  3  1  0
  2  6  4  0
  2 16  4  0
  3 22  4  0
  4  9  4  0
  4 10  1  0
  4 20  4  0
  5 16  4  0
  5 23  4  0
  6 15  4  0
  7 12  4  0
  8 13  4  0
  8 14  4  0
  9 11  4  0
 11 14  4  0
 11 19  4  0
 12 18  4  0
 13 21  4  0
 15 23  4  0
 17 19  4  0
 17 20  4  0
 18 22  4  0
 19 21  4  0
M  END
$$$$

 Created by Python create_sdf_string function

 23 25  0  0  0  0  0  0  0  0999 V2000
    2.4610   -5.3070   29.1240 C   0  0  0  0  0  0  0  0  0  0  0  0
    4.7710   -4.6952   28.4803 C   0  0  0  0  0  0  0  0  0  0  0  0
    3.4047   -5.1087   28.1314 C   0  0  0  0  0  0  0  0  0  0  0  0
   -0.2234  -11.8615   16.8874 C   0  0  0  0  0  0  0  0  0  0  0  0
    6.4491   -4.1532   30.1213 C   0  0  0  0  0  0  0  0  0  0  0  0
    5.7060   -4.4340   27.4975 C   0  0  0  0  0  0  0  0  0  0  0  0
    1.1818   -5.6612   28.8399 C   0  0  0  0  0  0  0  0  0  0  0  0
   -1.2067   -7.3287   17.7772 C   0  0  0  0  0  0  0  0  0  0  0  0
   -0.0206  -10.5585   16.6210 C   0  0  0  0  0  0  0  0  0  0  0  0
    0.3696  -12.7626   16.2169 O   0  0  0  0  0  0  0  0  0  0  0  0
   -0.6895   -9.5676   17.3297 C   0  0  0  0  0  0  0  0  0  0  0  0
    0.8388   -5.8417   27.5264 C   0  0  0  0  0  0  0  0  0  0  0  0
   -2.0709   -7.6637   18.7817 C   0  0  0  0  0  0  0  0  0  0  0  0
   -0.5279   -8.2168   17.0717 C   0  0  0  0  0  0  0  0  0  0  0  0
    6.9694   -4.0191   27.8190 C   0  0  0  0  0  0  0  0  0  0  0  0
    5.1733   -4.5469   29.8123 C   0  0  0  0  0  0  0  0  0  0  0  0
   -1.7508  -11.3016   18.6072 C   0  0  0  0  0  0  0  0  0  0  0  0
    1.7497   -5.6771   26.4971 C   0  0  0  0  0  0  0  0  0  0  0  0
   -1.5799   -9.9322   18.3468 C   0  0  0  0  0  0  0  0  0  0  0  0
   -1.0871  -12.2214   17.8851 C   0  0  0  0  0  0  0  0  0  0  0  0
   -2.2706   -8.9669   19.0691 C   0  0  0  0  0  0  0  0  0  0  0  0
    3.0279   -5.3073   26.8197 C   0  0  0  0  0  0  0  0  0  0  0  0
    7.3282   -3.8948   29.1186 C   0  0  0  0  0  0  0  0  0  0  0  0
  1  3  4  0
  1  7  4  0
  2  3  1  0
  2  6  4  0
  2 16  4  0
  3 22  4  0
  4  9  4  0
  4 10  1  0
  4 20  4  0
  5 16  4  0
  5 23  4  0
  6 15  4  0
  7 12  4  0
  8 13  4  0
  8 14  4  0
  9 11  4  0
 11 14  4  0
 11 19  4  0
 12 18  4  0
 13 21  4  0
 15 23  4  0
 17 19  4  0
 17 20  4  0
 18 22  4  0
 19 21  4  0
M  END
$$$$

 Created by Python create_sdf_string function

 23 25  0  0  0  0  0  0  0  0999 V2000
    2.4610   -5.3070   29.1240 C   0  0  0  0  0  0  0  0  0  0  0  0
    4.7710   -4.6952   28.4803 C   0  0  0  0  0  0  0  0  0  0  0  0
    3.4047   -5.1087   28.1314 C   0  0  0  0  0  0  0  0  0  0  0  0
   -0.2234  -11.8615   16.8874 C   0  0  0  0  0  0  0  0  0  0  0  0
    6.4491   -4.1532   30.1213 C   0  0  0  0  0  0  0  0  0  0  0  0
    5.7060   -4.4340   27.4975 C   0  0  0  0  0  0  0  0  0  0  0  0
    1.1818   -5.6612   28.8399 C   0  0  0  0  0  0  0  0  0  0  0  0
   -1.2067   -7.3287   17.7772 C   0  0  0  0  0  0  0  0  0  0  0  0
   -0.0206  -10.5585   16.6210 C   0  0  0  0  0  0  0  0  0  0  0  0
    0.3696  -12.7626   16.2169 O   0  0  0  0  0  0  0  0  0  0  0  0
   -0.6895   -9.5676   17.3297 C   0  0  0  0  0  0  0  0  0  0  0  0
    0.8388   -5.8417   27.5264 C   0  0  0  0  0  0  0  0  0  0  0  0
   -2.0709   -7.6637   18.7817 C   0  0  0  0  0  0  0  0  0  0  0  0
   -0.5279   -8.2168   17.0717 C   0  0  0  0  0  0  0  0  0  0  0  0
    6.9694   -4.0191   27.8190 C   0  0  0  0  0  0  0  0  0  0  0  0
    5.1733   -4.5469   29.8123 C   0  0  0  0  0  0  0  0  0  0  0  0
   -1.7508  -11.3016   18.6072 C   0  0  0  0  0  0  0  0  0  0  0  0
    1.7497   -5.6771   26.4971 C   0  0  0  0  0  0  0  0  0  0  0  0
   -1.5799   -9.9322   18.3468 C   0  0  0  0  0  0  0  0  0  0  0  0
   -1.0871  -12.2214   17.8851 C   0  0  0  0  0  0  0  0  0  0  0  0
   -2.2706   -8.9669   19.0691 C   0  0  0  0  0  0  0  0  0  0  0  0
    3.0279   -5.3073   26.8197 C   0  0  0  0  0  0  0  0  0  0  0  0
    7.3282   -3.8948   29.1186 C   0  0  0  0  0  0  0  0  0  0  0  0
  1  3  4  0
  1  7  4  0
  2  3  1  0
  2  6  4  0
  2 16  4  0
  3 22  4  0
  4  9  4  0
  4 10  1  0
  4 20  4  0
  5 16  4  0
  5 23  4  0
  6 15  4  0
  7 12  4  0
  8 13  4  0
  8 14  4  0
  9 11  4  0
 11 14  4  0
 11 19  4  0
 12 18  4  0
 13 21  4  0
 15 23  4  0
 17 19  4  0
 17 20  4  0
 18 22  4  0
 19 21  4  0
M  END
$$$$

 Created by Python create_sdf_string function

 23 25  0  0  0  0  0  0  0  0999 V2000
    2.4610   -5.3070   29.1240 C   0  0  0  0  0  0  0  0  0  0  0  0
    4.7710   -4.6952   28.4803 C   0  0  0  0  0  0  0  0  0  0  0  0
    3.4047   -5.1087   28.1314 C   0  0  0  0  0  0  0  0  0  0  0  0
   -0.2234  -11.8615   16.8874 C   0  0  0  0  0  0  0  0  0  0  0  0
    6.4491   -4.1532   30.1213 C   0  0  0  0  0  0  0  0  0  0  0  0
    5.7060   -4.4340   27.4975 C   0  0  0  0  0  0  0  0  0  0  0  0
    1.1818   -5.6612   28.8399 C   0  0  0  0  0  0  0  0  0  0  0  0
   -1.2067   -7.3287   17.7772 C   0  0  0  0  0  0  0  0  0  0  0  0
   -0.0206  -10.5585   16.6210 C   0  0  0  0  0  0  0  0  0  0  0  0
    0.3696  -12.7626   16.2169 O   0  0  0  0  0  0  0  0  0  0  0  0
   -0.6895   -9.5676   17.3297 C   0  0  0  0  0  0  0  0  0  0  0  0
    0.8388   -5.8417   27.5264 C   0  0  0  0  0  0  0  0  0  0  0  0
   -2.0709   -7.6637   18.7817 C   0  0  0  0  0  0  0  0  0  0  0  0
   -0.5279   -8.2168   17.0717 C   0  0  0  0  0  0  0  0  0  0  0  0
    6.9694   -4.0191   27.8190 C   0  0  0  0  0  0  0  0  0  0  0  0
    5.1733   -4.5469   29.8123 C   0  0  0  0  0  0  0  0  0  0  0  0
   -1.7508  -11.3016   18.6072 C   0  0  0  0  0  0  0  0  0  0  0  0
    1.7497   -5.6771   26.4971 C   0  0  0  0  0  0  0  0  0  0  0  0
   -1.5799   -9.9322   18.3468 C   0  0  0  0  0  0  0  0  0  0  0  0
   -1.0871  -12.2214   17.8851 C   0  0  0  0  0  0  0  0  0  0  0  0
   -2.2706   -8.9669   19.0691 C   0  0  0  0  0  0  0  0  0  0  0  0
    3.0279   -5.3073   26.8197 C   0  0  0  0  0  0  0  0  0  0  0  0
    7.3282   -3.8948   29.1186 C   0  0  0  0  0  0  0  0  0  0  0  0
  1  3  4  0
  1  7  4  0
  2  3  1  0
  2  6  4  0
  2 16  4  0
  3 22  4  0
  4  9  4  0
  4 10  1  0
  4 20  4  0
  5 16  4  0
  5 23  4  0
  6 15  4  0
  7 12  4  0
  8 13  4  0
  8 14  4  0
  9 11  4  0
 11 14  4  0
 11 19  4  0
 12 18  4  0
 13 21  4  0
 15 23  4  0
 17 19  4  0
 17 20  4  0
 18 22  4  0
 19 21  4  0
M  END
$$$$

 Created by Python create_sdf_string function

 23 25  0  0  0  0  0  0  0  0999 V2000
    2.4610   -5.3070   29.1240 C   0  0  0  0  0  0  0  0  0  0  0  0
    4.7710   -4.6952   28.4803 C   0  0  0  0  0  0  0  0  0  0  0  0
    3.4047   -5.1087   28.1314 C   0  0  0  0  0  0  0  0  0  0  0  0
   -0.2234  -11.8615   16.8874 C   0  0  0  0  0  0  0  0  0  0  0  0
    6.4491   -4.1532   30.1213 C   0  0  0  0  0  0  0  0  0  0  0  0
    5.7060   -4.4340   27.4975 C   0  0  0  0  0  0  0  0  0  0  0  0
    1.1818   -5.6612   28.8399 C   0  0  0  0  0  0  0  0  0  0  0  0
   -1.2067   -7.3287   17.7772 C   0  0  0  0  0  0  0  0  0  0  0  0
   -0.0206  -10.5585   16.6210 C   0  0  0  0  0  0  0  0  0  0  0  0
    0.3696  -12.7626   16.2169 O   0  0  0  0  0  0  0  0  0  0  0  0
   -0.6895   -9.5676   17.3297 C   0  0  0  0  0  0  0  0  0  0  0  0
    0.8388   -5.8417   27.5264 C   0  0  0  0  0  0  0  0  0  0  0  0
   -2.0709   -7.6637   18.7817 C   0  0  0  0  0  0  0  0  0  0  0  0
   -0.5279   -8.2168   17.0717 C   0  0  0  0  0  0  0  0  0  0  0  0
    6.9694   -4.0191   27.8190 C   0  0  0  0  0  0  0  0  0  0  0  0
    5.1733   -4.5469   29.8123 C   0  0  0  0  0  0  0  0  0  0  0  0
   -1.7508  -11.3016   18.6072 C   0  0  0  0  0  0  0  0  0  0  0  0
    1.7497   -5.6771   26.4971 C   0  0  0  0  0  0  0  0  0  0  0  0
   -1.5799   -9.9322   18.3468 C   0  0  0  0  0  0  0  0  0  0  0  0
   -1.0871  -12.2214   17.8851 C   0  0  0  0  0  0  0  0  0  0  0  0
   -2.2706   -8.9669   19.0691 C   0  0  0  0  0  0  0  0  0  0  0  0
    3.0279   -5.3073   26.8197 C   0  0  0  0  0  0  0  0  0  0  0  0
    7.3282   -3.8948   29.1186 C   0  0  0  0  0  0  0  0  0  0  0  0
  1  3  4  0
  1  7  4  0
  2  3  1  0
  2  6  4  0
  2 16  4  0
  3 22  4  0
  4  9  4  0
  4 10  1  0
  4 20  4  0
  5 16  4  0
  5 23  4  0
  6 15  4  0
  7 12  4  0
  8 13  4  0
  8 14  4  0
  9 11  4  0
 11 14  4  0
 11 19  4  0
 12 18  4  0
 13 21  4  0
 15 23  4  0
 17 19  4  0
 17 20  4  0
 18 22  4  0
 19 21  4  0
M  END
$$$$

 Created by Python create_sdf_string function

 23 25  0  0  0  0  0  0  0  0999 V2000
    2.4610   -5.3070   29.1240 C   0  0  0  0  0  0  0  0  0  0  0  0
    4.7710   -4.6952   28.4803 C   0  0  0  0  0  0  0  0  0  0  0  0
    3.4047   -5.1087   28.1314 C   0  0  0  0  0  0  0  0  0  0  0  0
   -0.2234  -11.8615   16.8874 C   0  0  0  0  0  0  0  0  0  0  0  0
    6.4491   -4.1532   30.1213 C   0  0  0  0  0  0  0  0  0  0  0  0
    5.7060   -4.4340   27.4975 C   0  0  0  0  0  0  0  0  0  0  0  0
    1.1818   -5.6612   28.8399 C   0  0  0  0  0  0  0  0  0  0  0  0
   -1.2067   -7.3287   17.7772 C   0  0  0  0  0  0  0  0  0  0  0  0
   -0.0206  -10.5585   16.6210 C   0  0  0  0  0  0  0  0  0  0  0  0
    0.3696  -12.7626   16.2169 O   0  0  0  0  0  0  0  0  0  0  0  0
   -0.6895   -9.5676   17.3297 C   0  0  0  0  0  0  0  0  0  0  0  0
    0.8388   -5.8417   27.5264 C   0  0  0  0  0  0  0  0  0  0  0  0
   -2.0709   -7.6637   18.7817 C   0  0  0  0  0  0  0  0  0  0  0  0
   -0.5279   -8.2168   17.0717 C   0  0  0  0  0  0  0  0  0  0  0  0
    6.9694   -4.0191   27.8190 C   0  0  0  0  0  0  0  0  0  0  0  0
    5.1733   -4.5469   29.8123 C   0  0  0  0  0  0  0  0  0  0  0  0
   -1.7508  -11.3016   18.6072 C   0  0  0  0  0  0  0  0  0  0  0  0
    1.7497   -5.6771   26.4971 C   0  0  0  0  0  0  0  0  0  0  0  0
   -1.5799   -9.9322   18.3468 C   0  0  0  0  0  0  0  0  0  0  0  0
   -1.0871  -12.2214   17.8851 C   0  0  0  0  0  0  0  0  0  0  0  0
   -2.2706   -8.9669   19.0691 C   0  0  0  0  0  0  0  0  0  0  0  0
    3.0279   -5.3073   26.8197 C   0  0  0  0  0  0  0  0  0  0  0  0
    7.3282   -3.8948   29.1186 C   0  0  0  0  0  0  0  0  0  0  0  0
  1  3  4  0
  1  7  4  0
  2  3  1  0
  2  6  4  0
  2 16  4  0
  3 22  4  0
  4  9  4  0
  4 10  1  0
  4 20  4  0
  5 16  4  0
  5 23  4  0
  6 15  4  0
  7 12  4  0
  8 13  4  0
  8 14  4  0
  9 11  4  0
 11 14  4  0
 11 19  4  0
 12 18  4  0
 13 21  4  0
 15 23  4  0
 17 19  4  0
 17 20  4  0
 18 22  4  0
 19 21  4  0
M  END
$$$$

 Created by Python create_sdf_string function

 23 25  0  0  0  0  0  0  0  0999 V2000
    2.4610   -5.3070   29.1240 C   0  0  0  0  0  0  0  0  0  0  0  0
    4.7710   -4.6952   28.4803 C   0  0  0  0  0  0  0  0  0  0  0  0
    3.4047   -5.1087   28.1314 C   0  0  0  0  0  0  0  0  0  0  0  0
   -0.2234  -11.8615   16.8874 C   0  0  0  0  0  0  0  0  0  0  0  0
    6.4491   -4.1532   30.1213 C   0  0  0  0  0  0  0  0  0  0  0  0
    5.7060   -4.4340   27.4975 C   0  0  0  0  0  0  0  0  0  0  0  0
    1.1818   -5.6612   28.8399 C   0  0  0  0  0  0  0  0  0  0  0  0
   -1.2067   -7.3287   17.7772 C   0  0  0  0  0  0  0  0  0  0  0  0
   -0.0206  -10.5585   16.6210 C   0  0  0  0  0  0  0  0  0  0  0  0
    0.3696  -12.7626   16.2169 O   0  0  0  0  0  0  0  0  0  0  0  0
   -0.6895   -9.5676   17.3297 C   0  0  0  0  0  0  0  0  0  0  0  0
    0.8388   -5.8417   27.5264 C   0  0  0  0  0  0  0  0  0  0  0  0
   -2.0709   -7.6637   18.7817 C   0  0  0  0  0  0  0  0  0  0  0  0
   -0.5279   -8.2168   17.0717 C   0  0  0  0  0  0  0  0  0  0  0  0
    6.9694   -4.0191   27.8190 C   0  0  0  0  0  0  0  0  0  0  0  0
    5.1733   -4.5469   29.8123 C   0  0  0  0  0  0  0  0  0  0  0  0
   -1.7508  -11.3016   18.6072 C   0  0  0  0  0  0  0  0  0  0  0  0
    1.7497   -5.6771   26.4971 C   0  0  0  0  0  0  0  0  0  0  0  0
   -1.5799   -9.9322   18.3468 C   0  0  0  0  0  0  0  0  0  0  0  0
   -1.0871  -12.2214   17.8851 C   0  0  0  0  0  0  0  0  0  0  0  0
   -2.2706   -8.9669   19.0691 C   0  0  0  0  0  0  0  0  0  0  0  0
    3.0279   -5.3073   26.8197 C   0  0  0  0  0  0  0  0  0  0  0  0
    7.3282   -3.8948   29.1186 C   0  0  0  0  0  0  0  0  0  0  0  0
  1  3  4  0
  1  7  4  0
  2  3  1  0
  2  6  4  0
  2 16  4  0
  3 22  4  0
  4  9  4  0
  4 10  1  0
  4 20  4  0
  5 16  4  0
  5 23  4  0
  6 15  4  0
  7 12  4  0
  8 13  4  0
  8 14  4  0
  9 11  4  0
 11 14  4  0
 11 19  4  0
 12 18  4  0
 13 21  4  0
 15 23  4  0
 17 19  4  0
 17 20  4  0
 18 22  4  0
 19 21  4  0
M  END
$$$$

 Created by Python create_sdf_string function

 23 25  0  0  0  0  0  0  0  0999 V2000
    2.4610   -5.3070   29.1240 C   0  0  0  0  0  0  0  0  0  0  0  0
    4.7710   -4.6952   28.4803 C   0  0  0  0  0  0  0  0  0  0  0  0
    3.4047   -5.1087   28.1314 C   0  0  0  0  0  0  0  0  0  0  0  0
   -0.2234  -11.8615   16.8874 C   0  0  0  0  0  0  0  0  0  0  0  0
    6.4491   -4.1532   30.1213 C   0  0  0  0  0  0  0  0  0  0  0  0
    5.7060   -4.4340   27.4975 C   0  0  0  0  0  0  0  0  0  0  0  0
    1.1818   -5.6612   28.8399 C   0  0  0  0  0  0  0  0  0  0  0  0
   -1.2067   -7.3287   17.7772 C   0  0  0  0  0  0  0  0  0  0  0  0
   -0.0206  -10.5585   16.6210 C   0  0  0  0  0  0  0  0  0  0  0  0
    0.3696  -12.7626   16.2169 O   0  0  0  0  0  0  0  0  0  0  0  0
   -0.6895   -9.5676   17.3297 C   0  0  0  0  0  0  0  0  0  0  0  0
    0.8388   -5.8417   27.5264 C   0  0  0  0  0  0  0  0  0  0  0  0
   -2.0709   -7.6637   18.7817 C   0  0  0  0  0  0  0  0  0  0  0  0
   -0.5279   -8.2168   17.0717 C   0  0  0  0  0  0  0  0  0  0  0  0
    6.9694   -4.0191   27.8190 C   0  0  0  0  0  0  0  0  0  0  0  0
    5.1733   -4.5469   29.8123 C   0  0  0  0  0  0  0  0  0  0  0  0
   -1.7508  -11.3016   18.6072 C   0  0  0  0  0  0  0  0  0  0  0  0
    1.7497   -5.6771   26.4971 C   0  0  0  0  0  0  0  0  0  0  0  0
   -1.5799   -9.9322   18.3468 C   0  0  0  0  0  0  0  0  0  0  0  0
   -1.0871  -12.2214   17.8851 C   0  0  0  0  0  0  0  0  0  0  0  0
   -2.2706   -8.9669   19.0691 C   0  0  0  0  0  0  0  0  0  0  0  0
    3.0279   -5.3073   26.8197 C   0  0  0  0  0  0  0  0  0  0  0  0
    7.3282   -3.8948   29.1186 C   0  0  0  0  0  0  0  0  0  0  0  0
  1  3  4  0
  1  7  4  0
  2  3  1  0
  2  6  4  0
  2 16  4  0
  3 22  4  0
  4  9  4  0
  4 10  1  0
  4 20  4  0
  5 16  4  0
  5 23  4  0
  6 15  4  0
  7 12  4  0
  8 13  4  0
  8 14  4  0
  9 11  4  0
 11 14  4  0
 11 19  4  0
 12 18  4  0
 13 21  4  0
 15 23  4  0
 17 19  4  0
 17 20  4  0
 18 22  4  0
 19 21  4  0
M  END
$$$$

 Created by Python create_sdf_string function

 23 25  0  0  0  0  0  0  0  0999 V2000
    2.4610   -5.3070   29.1240 C   0  0  0  0  0  0  0  0  0  0  0  0
    4.7710   -4.6952   28.4803 C   0  0  0  0  0  0  0  0  0  0  0  0
    3.4047   -5.1087   28.1314 C   0  0  0  0  0  0  0  0  0  0  0  0
   -0.2234  -11.8615   16.8874 C   0  0  0  0  0  0  0  0  0  0  0  0
    6.4491   -4.1532   30.1213 C   0  0  0  0  0  0  0  0  0  0  0  0
    5.7060   -4.4340   27.4975 C   0  0  0  0  0  0  0  0  0  0  0  0
    1.1818   -5.6612   28.8399 C   0  0  0  0  0  0  0  0  0  0  0  0
   -1.2067   -7.3287   17.7772 C   0  0  0  0  0  0  0  0  0  0  0  0
   -0.0206  -10.5585   16.6210 C   0  0  0  0  0  0  0  0  0  0  0  0
    0.3696  -12.7626   16.2169 O   0  0  0  0  0  0  0  0  0  0  0  0
   -0.6895   -9.5676   17.3297 C   0  0  0  0  0  0  0  0  0  0  0  0
    0.8388   -5.8417   27.5264 C   0  0  0  0  0  0  0  0  0  0  0  0
   -2.0709   -7.6637   18.7817 C   0  0  0  0  0  0  0  0  0  0  0  0
   -0.5279   -8.2168   17.0717 C   0  0  0  0  0  0  0  0  0  0  0  0
    6.9694   -4.0191   27.8190 C   0  0  0  0  0  0  0  0  0  0  0  0
    5.1733   -4.5469   29.8123 C   0  0  0  0  0  0  0  0  0  0  0  0
   -1.7508  -11.3016   18.6072 C   0  0  0  0  0  0  0  0  0  0  0  0
    1.7497   -5.6771   26.4971 C   0  0  0  0  0  0  0  0  0  0  0  0
   -1.5799   -9.9322   18.3468 C   0  0  0  0  0  0  0  0  0  0  0  0
   -1.0871  -12.2214   17.8851 C   0  0  0  0  0  0  0  0  0  0  0  0
   -2.2706   -8.9669   19.0691 C   0  0  0  0  0  0  0  0  0  0  0  0
    3.0279   -5.3073   26.8197 C   0  0  0  0  0  0  0  0  0  0  0  0
    7.3282   -3.8948   29.1186 C   0  0  0  0  0  0  0  0  0  0  0  0
  1  3  4  0
  1  7  4  0
  2  3  1  0
  2  6  4  0
  2 16  4  0
  3 22  4  0
  4  9  4  0
  4 10  1  0
  4 20  4  0
  5 16  4  0
  5 23  4  0
  6 15  4  0
  7 12  4  0
  8 13  4  0
  8 14  4  0
  9 11  4  0
 11 14  4  0
 11 19  4  0
 12 18  4  0
 13 21  4  0
 15 23  4  0
 17 19  4  0
 17 20  4  0
 18 22  4  0
 19 21  4  0
M  END
$$$$

 Created by Python create_sdf_string function

 23 25  0  0  0  0  0  0  0  0999 V2000
    2.4610   -5.3070   29.1240 C   0  0  0  0  0  0  0  0  0  0  0  0
    4.7710   -4.6952   28.4803 C   0  0  0  0  0  0  0  0  0  0  0  0
    3.4047   -5.1087   28.1314 C   0  0  0  0  0  0  0  0  0  0  0  0
   -0.2234  -11.8615   16.8874 C   0  0  0  0  0  0  0  0  0  0  0  0
    6.4491   -4.1532   30.1213 C   0  0  0  0  0  0  0  0  0  0  0  0
    5.7060   -4.4340   27.4975 C   0  0  0  0  0  0  0  0  0  0  0  0
    1.1818   -5.6612   28.8399 C   0  0  0  0  0  0  0  0  0  0  0  0
   -1.2067   -7.3287   17.7772 C   0  0  0  0  0  0  0  0  0  0  0  0
   -0.0206  -10.5585   16.6210 C   0  0  0  0  0  0  0  0  0  0  0  0
    0.3696  -12.7626   16.2169 O   0  0  0  0  0  0  0  0  0  0  0  0
   -0.6895   -9.5676   17.3297 C   0  0  0  0  0  0  0  0  0  0  0  0
    0.8388   -5.8417   27.5264 C   0  0  0  0  0  0  0  0  0  0  0  0
   -2.0709   -7.6637   18.7817 C   0  0  0  0  0  0  0  0  0  0  0  0
   -0.5279   -8.2168   17.0717 C   0  0  0  0  0  0  0  0  0  0  0  0
    6.9694   -4.0191   27.8190 C   0  0  0  0  0  0  0  0  0  0  0  0
    5.1733   -4.5469   29.8123 C   0  0  0  0  0  0  0  0  0  0  0  0
   -1.7508  -11.3016   18.6072 C   0  0  0  0  0  0  0  0  0  0  0  0
    1.7497   -5.6771   26.4971 C   0  0  0  0  0  0  0  0  0  0  0  0
   -1.5799   -9.9322   18.3468 C   0  0  0  0  0  0  0  0  0  0  0  0
   -1.0871  -12.2214   17.8851 C   0  0  0  0  0  0  0  0  0  0  0  0
   -2.2706   -8.9669   19.0691 C   0  0  0  0  0  0  0  0  0  0  0  0
    3.0279   -5.3073   26.8197 C   0  0  0  0  0  0  0  0  0  0  0  0
    7.3282   -3.8948   29.1186 C   0  0  0  0  0  0  0  0  0  0  0  0
  1  3  4  0
  1  7  4  0
  2  3  1  0
  2  6  4  0
  2 16  4  0
  3 22  4  0
  4  9  4  0
  4 10  1  0
  4 20  4  0
  5 16  4  0
  5 23  4  0
  6 15  4  0
  7 12  4  0
  8 13  4  0
  8 14  4  0
  9 11  4  0
 11 14  4  0
 11 19  4  0
 12 18  4  0
 13 21  4  0
 15 23  4  0
 17 19  4  0
 17 20  4  0
 18 22  4  0
 19 21  4  0
M  END
$$$$

 Created by Python create_sdf_string function

 23 25  0  0  0  0  0  0  0  0999 V2000
    2.4610   -5.3070   29.1240 C   0  0  0  0  0  0  0  0  0  0  0  0
    4.7710   -4.6952   28.4803 C   0  0  0  0  0  0  0  0  0  0  0  0
    3.4047   -5.1087   28.1314 C   0  0  0  0  0  0  0  0  0  0  0  0
   -0.2234  -11.8615   16.8874 C   0  0  0  0  0  0  0  0  0  0  0  0
    6.4491   -4.1532   30.1213 C   0  0  0  0  0  0  0  0  0  0  0  0
    5.7060   -4.4340   27.4975 C   0  0  0  0  0  0  0  0  0  0  0  0
    1.1818   -5.6612   28.8399 C   0  0  0  0  0  0  0  0  0  0  0  0
   -1.2067   -7.3287   17.7772 C   0  0  0  0  0  0  0  0  0  0  0  0
   -0.0206  -10.5585   16.6210 C   0  0  0  0  0  0  0  0  0  0  0  0
    0.3696  -12.7626   16.2169 O   0  0  0  0  0  0  0  0  0  0  0  0
   -0.6895   -9.5676   17.3297 C   0  0  0  0  0  0  0  0  0  0  0  0
    0.8388   -5.8417   27.5264 C   0  0  0  0  0  0  0  0  0  0  0  0
   -2.0709   -7.6637   18.7817 C   0  0  0  0  0  0  0  0  0  0  0  0
   -0.5279   -8.2168   17.0717 C   0  0  0  0  0  0  0  0  0  0  0  0
    6.9694   -4.0191   27.8190 C   0  0  0  0  0  0  0  0  0  0  0  0
    5.1733   -4.5469   29.8123 C   0  0  0  0  0  0  0  0  0  0  0  0
   -1.7508  -11.3016   18.6072 C   0  0  0  0  0  0  0  0  0  0  0  0
    1.7497   -5.6771   26.4971 C   0  0  0  0  0  0  0  0  0  0  0  0
   -1.5799   -9.9322   18.3468 C   0  0  0  0  0  0  0  0  0  0  0  0
   -1.0871  -12.2214   17.8851 C   0  0  0  0  0  0  0  0  0  0  0  0
   -2.2706   -8.9669   19.0691 C   0  0  0  0  0  0  0  0  0  0  0  0
    3.0279   -5.3073   26.8197 C   0  0  0  0  0  0  0  0  0  0  0  0
    7.3282   -3.8948   29.1186 C   0  0  0  0  0  0  0  0  0  0  0  0
  1  3  4  0
  1  7  4  0
  2  3  1  0
  2  6  4  0
  2 16  4  0
  3 22  4  0
  4  9  4  0
  4 10  1  0
  4 20  4  0
  5 16  4  0
  5 23  4  0
  6 15  4  0
  7 12  4  0
  8 13  4  0
  8 14  4  0
  9 11  4  0
 11 14  4  0
 11 19  4  0
 12 18  4  0
 13 21  4  0
 15 23  4  0
 17 19  4  0
 17 20  4  0
 18 22  4  0
 19 21  4  0
M  END
$$$$

 Created by Python create_sdf_string function

 23 25  0  0  0  0  0  0  0  0999 V2000
    2.4610   -5.3070   29.1240 C   0  0  0  0  0  0  0  0  0  0  0  0
    4.7710   -4.6952   28.4803 C   0  0  0  0  0  0  0  0  0  0  0  0
    3.4047   -5.1087   28.1314 C   0  0  0  0  0  0  0  0  0  0  0  0
   -0.2234  -11.8615   16.8874 C   0  0  0  0  0  0  0  0  0  0  0  0
    6.4491   -4.1532   30.1213 C   0  0  0  0  0  0  0  0  0  0  0  0
    5.7060   -4.4340   27.4975 C   0  0  0  0  0  0  0  0  0  0  0  0
    1.1818   -5.6612   28.8399 C   0  0  0  0  0  0  0  0  0  0  0  0
   -1.2067   -7.3287   17.7772 C   0  0  0  0  0  0  0  0  0  0  0  0
   -0.0206  -10.5585   16.6210 C   0  0  0  0  0  0  0  0  0  0  0  0
    0.3696  -12.7626   16.2169 O   0  0  0  0  0  0  0  0  0  0  0  0
   -0.6895   -9.5676   17.3297 C   0  0  0  0  0  0  0  0  0  0  0  0
    0.8388   -5.8417   27.5264 C   0  0  0  0  0  0  0  0  0  0  0  0
   -2.0709   -7.6637   18.7817 C   0  0  0  0  0  0  0  0  0  0  0  0
   -0.5279   -8.2168   17.0717 C   0  0  0  0  0  0  0  0  0  0  0  0
    6.9694   -4.0191   27.8190 C   0  0  0  0  0  0  0  0  0  0  0  0
    5.1733   -4.5469   29.8123 C   0  0  0  0  0  0  0  0  0  0  0  0
   -1.7508  -11.3016   18.6072 C   0  0  0  0  0  0  0  0  0  0  0  0
    1.7497   -5.6771   26.4971 C   0  0  0  0  0  0  0  0  0  0  0  0
   -1.5799   -9.9322   18.3468 C   0  0  0  0  0  0  0  0  0  0  0  0
   -1.0871  -12.2214   17.8851 C   0  0  0  0  0  0  0  0  0  0  0  0
   -2.2706   -8.9669   19.0691 C   0  0  0  0  0  0  0  0  0  0  0  0
    3.0279   -5.3073   26.8197 C   0  0  0  0  0  0  0  0  0  0  0  0
    7.3282   -3.8948   29.1186 C   0  0  0  0  0  0  0  0  0  0  0  0
  1  3  4  0
  1  7  4  0
  2  3  1  0
  2  6  4  0
  2 16  4  0
  3 22  4  0
  4  9  4  0
  4 10  1  0
  4 20  4  0
  5 16  4  0
  5 23  4  0
  6 15  4  0
  7 12  4  0
  8 13  4  0
  8 14  4  0
  9 11  4  0
 11 14  4  0
 11 19  4  0
 12 18  4  0
 13 21  4  0
 15 23  4  0
 17 19  4  0
 17 20  4  0
 18 22  4  0
 19 21  4  0
M  END
$$$$

 Created by Python create_sdf_string function

 23 25  0  0  0  0  0  0  0  0999 V2000
    2.4610   -5.3070   29.1240 C   0  0  0  0  0  0  0  0  0  0  0  0
    4.7710   -4.6952   28.4803 C   0  0  0  0  0  0  0  0  0  0  0  0
    3.4047   -5.1087   28.1314 C   0  0  0  0  0  0  0  0  0  0  0  0
   -0.2234  -11.8615   16.8874 C   0  0  0  0  0  0  0  0  0  0  0  0
    6.4491   -4.1532   30.1213 C   0  0  0  0  0  0  0  0  0  0  0  0
    5.7060   -4.4340   27.4975 C   0  0  0  0  0  0  0  0  0  0  0  0
    1.1818   -5.6612   28.8399 C   0  0  0  0  0  0  0  0  0  0  0  0
   -1.2067   -7.3287   17.7772 C   0  0  0  0  0  0  0  0  0  0  0  0
   -0.0206  -10.5585   16.6210 C   0  0  0  0  0  0  0  0  0  0  0  0
    0.3696  -12.7626   16.2169 O   0  0  0  0  0  0  0  0  0  0  0  0
   -0.6895   -9.5676   17.3297 C   0  0  0  0  0  0  0  0  0  0  0  0
    0.8388   -5.8417   27.5264 C   0  0  0  0  0  0  0  0  0  0  0  0
   -2.0709   -7.6637   18.7817 C   0  0  0  0  0  0  0  0  0  0  0  0
   -0.5279   -8.2168   17.0717 C   0  0  0  0  0  0  0  0  0  0  0  0
    6.9694   -4.0191   27.8190 C   0  0  0  0  0  0  0  0  0  0  0  0
    5.1733   -4.5469   29.8123 C   0  0  0  0  0  0  0  0  0  0  0  0
   -1.7508  -11.3016   18.6072 C   0  0  0  0  0  0  0  0  0  0  0  0
    1.7497   -5.6771   26.4971 C   0  0  0  0  0  0  0  0  0  0  0  0
   -1.5799   -9.9322   18.3468 C   0  0  0  0  0  0  0  0  0  0  0  0
   -1.0871  -12.2214   17.8851 C   0  0  0  0  0  0  0  0  0  0  0  0
   -2.2706   -8.9669   19.0691 C   0  0  0  0  0  0  0  0  0  0  0  0
    3.0279   -5.3073   26.8197 C   0  0  0  0  0  0  0  0  0  0  0  0
    7.3282   -3.8948   29.1186 C   0  0  0  0  0  0  0  0  0  0  0  0
  1  3  4  0
  1  7  4  0
  2  3  1  0
  2  6  4  0
  2 16  4  0
  3 22  4  0
  4  9  4  0
  4 10  1  0
  4 20  4  0
  5 16  4  0
  5 23  4  0
  6 15  4  0
  7 12  4  0
  8 13  4  0
  8 14  4  0
  9 11  4  0
 11 14  4  0
 11 19  4  0
 12 18  4  0
 13 21  4  0
 15 23  4  0
 17 19  4  0
 17 20  4  0
 18 22  4  0
 19 21  4  0
M  END
$$$$

 Created by Python create_sdf_string function

 23 25  0  0  0  0  0  0  0  0999 V2000
    2.4610   -5.3070   29.1240 C   0  0  0  0  0  0  0  0  0  0  0  0
    4.7710   -4.6952   28.4803 C   0  0  0  0  0  0  0  0  0  0  0  0
    3.4047   -5.1087   28.1314 C   0  0  0  0  0  0  0  0  0  0  0  0
   -0.2234  -11.8615   16.8874 C   0  0  0  0  0  0  0  0  0  0  0  0
    6.4491   -4.1532   30.1213 C   0  0  0  0  0  0  0  0  0  0  0  0
    5.7060   -4.4340   27.4975 C   0  0  0  0  0  0  0  0  0  0  0  0
    1.1818   -5.6612   28.8399 C   0  0  0  0  0  0  0  0  0  0  0  0
   -1.2067   -7.3287   17.7772 C   0  0  0  0  0  0  0  0  0  0  0  0
   -0.0206  -10.5585   16.6210 C   0  0  0  0  0  0  0  0  0  0  0  0
    0.3696  -12.7626   16.2169 O   0  0  0  0  0  0  0  0  0  0  0  0
   -0.6895   -9.5676   17.3297 C   0  0  0  0  0  0  0  0  0  0  0  0
    0.8388   -5.8417   27.5264 C   0  0  0  0  0  0  0  0  0  0  0  0
   -2.0709   -7.6637   18.7817 C   0  0  0  0  0  0  0  0  0  0  0  0
   -0.5279   -8.2168   17.0717 C   0  0  0  0  0  0  0  0  0  0  0  0
    6.9694   -4.0191   27.8190 C   0  0  0  0  0  0  0  0  0  0  0  0
    5.1733   -4.5469   29.8123 C   0  0  0  0  0  0  0  0  0  0  0  0
   -1.7508  -11.3016   18.6072 C   0  0  0  0  0  0  0  0  0  0  0  0
    1.7497   -5.6771   26.4971 C   0  0  0  0  0  0  0  0  0  0  0  0
   -1.5799   -9.9322   18.3468 C   0  0  0  0  0  0  0  0  0  0  0  0
   -1.0871  -12.2214   17.8851 C   0  0  0  0  0  0  0  0  0  0  0  0
   -2.2706   -8.9669   19.0691 C   0  0  0  0  0  0  0  0  0  0  0  0
    3.0279   -5.3073   26.8197 C   0  0  0  0  0  0  0  0  0  0  0  0
    7.3282   -3.8948   29.1186 C   0  0  0  0  0  0  0  0  0  0  0  0
  1  3  4  0
  1  7  4  0
  2  3  1  0
  2  6  4  0
  2 16  4  0
  3 22  4  0
  4  9  4  0
  4 10  1  0
  4 20  4  0
  5 16  4  0
  5 23  4  0
  6 15  4  0
  7 12  4  0
  8 13  4  0
  8 14  4  0
  9 11  4  0
 11 14  4  0
 11 19  4  0
 12 18  4  0
 13 21  4  0
 15 23  4  0
 17 19  4  0
 17 20  4  0
 18 22  4  0
 19 21  4  0
M  END
$$$$

 Created by Python create_sdf_string function

 23 25  0  0  0  0  0  0  0  0999 V2000
    2.4610   -5.3070   29.1240 C   0  0  0  0  0  0  0  0  0  0  0  0
    4.7710   -4.6952   28.4803 C   0  0  0  0  0  0  0  0  0  0  0  0
    3.4047   -5.1087   28.1314 C   0  0  0  0  0  0  0  0  0  0  0  0
   -0.2234  -11.8615   16.8874 C   0  0  0  0  0  0  0  0  0  0  0  0
    6.4491   -4.1532   30.1213 C   0  0  0  0  0  0  0  0  0  0  0  0
    5.7060   -4.4340   27.4975 C   0  0  0  0  0  0  0  0  0  0  0  0
    1.1818   -5.6612   28.8399 C   0  0  0  0  0  0  0  0  0  0  0  0
   -1.2067   -7.3287   17.7772 C   0  0  0  0  0  0  0  0  0  0  0  0
   -0.0206  -10.5585   16.6210 C   0  0  0  0  0  0  0  0  0  0  0  0
    0.3696  -12.7626   16.2169 O   0  0  0  0  0  0  0  0  0  0  0  0
   -0.6895   -9.5676   17.3297 C   0  0  0  0  0  0  0  0  0  0  0  0
    0.8388   -5.8417   27.5264 C   0  0  0  0  0  0  0  0  0  0  0  0
   -2.0709   -7.6637   18.7817 C   0  0  0  0  0  0  0  0  0  0  0  0
   -0.5279   -8.2168   17.0717 C   0  0  0  0  0  0  0  0  0  0  0  0
    6.9694   -4.0191   27.8190 C   0  0  0  0  0  0  0  0  0  0  0  0
    5.1733   -4.5469   29.8123 C   0  0  0  0  0  0  0  0  0  0  0  0
   -1.7508  -11.3016   18.6072 C   0  0  0  0  0  0  0  0  0  0  0  0
    1.7497   -5.6771   26.4971 C   0  0  0  0  0  0  0  0  0  0  0  0
   -1.5799   -9.9322   18.3468 C   0  0  0  0  0  0  0  0  0  0  0  0
   -1.0871  -12.2214   17.8851 C   0  0  0  0  0  0  0  0  0  0  0  0
   -2.2706   -8.9669   19.0691 C   0  0  0  0  0  0  0  0  0  0  0  0
    3.0279   -5.3073   26.8197 C   0  0  0  0  0  0  0  0  0  0  0  0
    7.3282   -3.8948   29.1186 C   0  0  0  0  0  0  0  0  0  0  0  0
  1  3  4  0
  1  7  4  0
  2  3  1  0
  2  6  4  0
  2 16  4  0
  3 22  4  0
  4  9  4  0
  4 10  1  0
  4 20  4  0
  5 16  4  0
  5 23  4  0
  6 15  4  0
  7 12  4  0
  8 13  4  0
  8 14  4  0
  9 11  4  0
 11 14  4  0
 11 19  4  0
 12 18  4  0
 13 21  4  0
 15 23  4  0
 17 19  4  0
 17 20  4  0
 18 22  4  0
 19 21  4  0
M  END
$$$$

 Created by Python create_sdf_string function

 23 25  0  0  0  0  0  0  0  0999 V2000
    2.4610   -5.3070   29.1240 C   0  0  0  0  0  0  0  0  0  0  0  0
    4.7710   -4.6952   28.4803 C   0  0  0  0  0  0  0  0  0  0  0  0
    3.4047   -5.1087   28.1314 C   0  0  0  0  0  0  0  0  0  0  0  0
   -0.2234  -11.8615   16.8874 C   0  0  0  0  0  0  0  0  0  0  0  0
    6.4491   -4.1532   30.1213 C   0  0  0  0  0  0  0  0  0  0  0  0
    5.7060   -4.4340   27.4975 C   0  0  0  0  0  0  0  0  0  0  0  0
    1.1818   -5.6612   28.8399 C   0  0  0  0  0  0  0  0  0  0  0  0
   -1.2067   -7.3287   17.7772 C   0  0  0  0  0  0  0  0  0  0  0  0
   -0.0206  -10.5585   16.6210 C   0  0  0  0  0  0  0  0  0  0  0  0
    0.3696  -12.7626   16.2169 O   0  0  0  0  0  0  0  0  0  0  0  0
   -0.6895   -9.5676   17.3297 C   0  0  0  0  0  0  0  0  0  0  0  0
    0.8388   -5.8417   27.5264 C   0  0  0  0  0  0  0  0  0  0  0  0
   -2.0709   -7.6637   18.7817 C   0  0  0  0  0  0  0  0  0  0  0  0
   -0.5279   -8.2168   17.0717 C   0  0  0  0  0  0  0  0  0  0  0  0
    6.9694   -4.0191   27.8190 C   0  0  0  0  0  0  0  0  0  0  0  0
    5.1733   -4.5469   29.8123 C   0  0  0  0  0  0  0  0  0  0  0  0
   -1.7508  -11.3016   18.6072 C   0  0  0  0  0  0  0  0  0  0  0  0
    1.7497   -5.6771   26.4971 C   0  0  0  0  0  0  0  0  0  0  0  0
   -1.5799   -9.9322   18.3468 C   0  0  0  0  0  0  0  0  0  0  0  0
   -1.0871  -12.2214   17.8851 C   0  0  0  0  0  0  0  0  0  0  0  0
   -2.2706   -8.9669   19.0691 C   0  0  0  0  0  0  0  0  0  0  0  0
    3.0279   -5.3073   26.8197 C   0  0  0  0  0  0  0  0  0  0  0  0
    7.3282   -3.8948   29.1186 C   0  0  0  0  0  0  0  0  0  0  0  0
  1  3  4  0
  1  7  4  0
  2  3  1  0
  2  6  4  0
  2 16  4  0
  3 22  4  0
  4  9  4  0
  4 10  1  0
  4 20  4  0
  5 16  4  0
  5 23  4  0
  6 15  4  0
  7 12  4  0
  8 13  4  0
  8 14  4  0
  9 11  4  0
 11 14  4  0
 11 19  4  0
 12 18  4  0
 13 21  4  0
 15 23  4  0
 17 19  4  0
 17 20  4  0
 18 22  4  0
 19 21  4  0
M  END
$$$$

 Created by Python create_sdf_string function

 23 25  0  0  0  0  0  0  0  0999 V2000
    2.4610   -5.3070   29.1240 C   0  0  0  0  0  0  0  0  0  0  0  0
    4.7710   -4.6952   28.4803 C   0  0  0  0  0  0  0  0  0  0  0  0
    3.4047   -5.1087   28.1314 C   0  0  0  0  0  0  0  0  0  0  0  0
   -0.2234  -11.8615   16.8874 C   0  0  0  0  0  0  0  0  0  0  0  0
    6.4491   -4.1532   30.1213 C   0  0  0  0  0  0  0  0  0  0  0  0
    5.7060   -4.4340   27.4975 C   0  0  0  0  0  0  0  0  0  0  0  0
    1.1818   -5.6612   28.8399 C   0  0  0  0  0  0  0  0  0  0  0  0
   -1.2067   -7.3287   17.7772 C   0  0  0  0  0  0  0  0  0  0  0  0
   -0.0206  -10.5585   16.6210 C   0  0  0  0  0  0  0  0  0  0  0  0
    0.3696  -12.7626   16.2169 O   0  0  0  0  0  0  0  0  0  0  0  0
   -0.6895   -9.5676   17.3297 C   0  0  0  0  0  0  0  0  0  0  0  0
    0.8388   -5.8417   27.5264 C   0  0  0  0  0  0  0  0  0  0  0  0
   -2.0709   -7.6637   18.7817 C   0  0  0  0  0  0  0  0  0  0  0  0
   -0.5279   -8.2168   17.0717 C   0  0  0  0  0  0  0  0  0  0  0  0
    6.9694   -4.0191   27.8190 C   0  0  0  0  0  0  0  0  0  0  0  0
    5.1733   -4.5469   29.8123 C   0  0  0  0  0  0  0  0  0  0  0  0
   -1.7508  -11.3016   18.6072 C   0  0  0  0  0  0  0  0  0  0  0  0
    1.7497   -5.6771   26.4971 C   0  0  0  0  0  0  0  0  0  0  0  0
   -1.5799   -9.9322   18.3468 C   0  0  0  0  0  0  0  0  0  0  0  0
   -1.0871  -12.2214   17.8851 C   0  0  0  0  0  0  0  0  0  0  0  0
   -2.2706   -8.9669   19.0691 C   0  0  0  0  0  0  0  0  0  0  0  0
    3.0279   -5.3073   26.8197 C   0  0  0  0  0  0  0  0  0  0  0  0
    7.3282   -3.8948   29.1186 C   0  0  0  0  0  0  0  0  0  0  0  0
  1  3  4  0
  1  7  4  0
  2  3  1  0
  2  6  4  0
  2 16  4  0
  3 22  4  0
  4  9  4  0
  4 10  1  0
  4 20  4  0
  5 16  4  0
  5 23  4  0
  6 15  4  0
  7 12  4  0
  8 13  4  0
  8 14  4  0
  9 11  4  0
 11 14  4  0
 11 19  4  0
 12 18  4  0
 13 21  4  0
 15 23  4  0
 17 19  4  0
 17 20  4  0
 18 22  4  0
 19 21  4  0
M  END
$$$$

 Created by Python create_sdf_string function

 23 25  0  0  0  0  0  0  0  0999 V2000
    2.4610   -5.3070   29.1240 C   0  0  0  0  0  0  0  0  0  0  0  0
    4.7710   -4.6952   28.4803 C   0  0  0  0  0  0  0  0  0  0  0  0
    3.4047   -5.1087   28.1314 C   0  0  0  0  0  0  0  0  0  0  0  0
   -0.2234  -11.8615   16.8874 C   0  0  0  0  0  0  0  0  0  0  0  0
    6.4491   -4.1532   30.1213 C   0  0  0  0  0  0  0  0  0  0  0  0
    5.7060   -4.4340   27.4975 C   0  0  0  0  0  0  0  0  0  0  0  0
    1.1818   -5.6612   28.8399 C   0  0  0  0  0  0  0  0  0  0  0  0
   -1.2067   -7.3287   17.7772 C   0  0  0  0  0  0  0  0  0  0  0  0
   -0.0206  -10.5585   16.6210 C   0  0  0  0  0  0  0  0  0  0  0  0
    0.3696  -12.7626   16.2169 O   0  0  0  0  0  0  0  0  0  0  0  0
   -0.6895   -9.5676   17.3297 C   0  0  0  0  0  0  0  0  0  0  0  0
    0.8388   -5.8417   27.5264 C   0  0  0  0  0  0  0  0  0  0  0  0
   -2.0709   -7.6637   18.7817 C   0  0  0  0  0  0  0  0  0  0  0  0
   -0.5279   -8.2168   17.0717 C   0  0  0  0  0  0  0  0  0  0  0  0
    6.9694   -4.0191   27.8190 C   0  0  0  0  0  0  0  0  0  0  0  0
    5.1733   -4.5469   29.8123 C   0  0  0  0  0  0  0  0  0  0  0  0
   -1.7508  -11.3016   18.6072 C   0  0  0  0  0  0  0  0  0  0  0  0
    1.7497   -5.6771   26.4971 C   0  0  0  0  0  0  0  0  0  0  0  0
   -1.5799   -9.9322   18.3468 C   0  0  0  0  0  0  0  0  0  0  0  0
   -1.0871  -12.2214   17.8851 C   0  0  0  0  0  0  0  0  0  0  0  0
   -2.2706   -8.9669   19.0691 C   0  0  0  0  0  0  0  0  0  0  0  0
    3.0279   -5.3073   26.8197 C   0  0  0  0  0  0  0  0  0  0  0  0
    7.3282   -3.8948   29.1186 C   0  0  0  0  0  0  0  0  0  0  0  0
  1  3  4  0
  1  7  4  0
  2  3  1  0
  2  6  4  0
  2 16  4  0
  3 22  4  0
  4  9  4  0
  4 10  1  0
  4 20  4  0
  5 16  4  0
  5 23  4  0
  6 15  4  0
  7 12  4  0
  8 13  4  0
  8 14  4  0
  9 11  4  0
 11 14  4  0
 11 19  4  0
 12 18  4  0
 13 21  4  0
 15 23  4  0
 17 19  4  0
 17 20  4  0
 18 22  4  0
 19 21  4  0
M  END
$$$$

 Created by Python create_sdf_string function

 23 25  0  0  0  0  0  0  0  0999 V2000
    2.4610   -5.3070   29.1240 C   0  0  0  0  0  0  0  0  0  0  0  0
    4.7710   -4.6952   28.4803 C   0  0  0  0  0  0  0  0  0  0  0  0
    3.4047   -5.1087   28.1314 C   0  0  0  0  0  0  0  0  0  0  0  0
   -0.2234  -11.8615   16.8874 C   0  0  0  0  0  0  0  0  0  0  0  0
    6.4491   -4.1532   30.1213 C   0  0  0  0  0  0  0  0  0  0  0  0
    5.7060   -4.4340   27.4975 C   0  0  0  0  0  0  0  0  0  0  0  0
    1.1818   -5.6612   28.8399 C   0  0  0  0  0  0  0  0  0  0  0  0
   -1.2067   -7.3287   17.7772 C   0  0  0  0  0  0  0  0  0  0  0  0
   -0.0206  -10.5585   16.6210 C   0  0  0  0  0  0  0  0  0  0  0  0
    0.3696  -12.7626   16.2169 O   0  0  0  0  0  0  0  0  0  0  0  0
   -0.6895   -9.5676   17.3297 C   0  0  0  0  0  0  0  0  0  0  0  0
    0.8388   -5.8417   27.5264 C   0  0  0  0  0  0  0  0  0  0  0  0
   -2.0709   -7.6637   18.7817 C   0  0  0  0  0  0  0  0  0  0  0  0
   -0.5279   -8.2168   17.0717 C   0  0  0  0  0  0  0  0  0  0  0  0
    6.9694   -4.0191   27.8190 C   0  0  0  0  0  0  0  0  0  0  0  0
    5.1733   -4.5469   29.8123 C   0  0  0  0  0  0  0  0  0  0  0  0
   -1.7508  -11.3016   18.6072 C   0  0  0  0  0  0  0  0  0  0  0  0
    1.7497   -5.6771   26.4971 C   0  0  0  0  0  0  0  0  0  0  0  0
   -1.5799   -9.9322   18.3468 C   0  0  0  0  0  0  0  0  0  0  0  0
   -1.0871  -12.2214   17.8851 C   0  0  0  0  0  0  0  0  0  0  0  0
   -2.2706   -8.9669   19.0691 C   0  0  0  0  0  0  0  0  0  0  0  0
    3.0279   -5.3073   26.8197 C   0  0  0  0  0  0  0  0  0  0  0  0
    7.3282   -3.8948   29.1186 C   0  0  0  0  0  0  0  0  0  0  0  0
  1  3  4  0
  1  7  4  0
  2  3  1  0
  2  6  4  0
  2 16  4  0
  3 22  4  0
  4  9  4  0
  4 10  1  0
  4 20  4  0
  5 16  4  0
  5 23  4  0
  6 15  4  0
  7 12  4  0
  8 13  4  0
  8 14  4  0
  9 11  4  0
 11 14  4  0
 11 19  4  0
 12 18  4  0
 13 21  4  0
 15 23  4  0
 17 19  4  0
 17 20  4  0
 18 22  4  0
 19 21  4  0
M  END
$$$$

 Created by Python create_sdf_string function

 23 25  0  0  0  0  0  0  0  0999 V2000
    2.4610   -5.3070   29.1240 C   0  0  0  0  0  0  0  0  0  0  0  0
    4.7710   -4.6952   28.4803 C   0  0  0  0  0  0  0  0  0  0  0  0
    3.4047   -5.1087   28.1314 C   0  0  0  0  0  0  0  0  0  0  0  0
   -0.2234  -11.8615   16.8874 C   0  0  0  0  0  0  0  0  0  0  0  0
    6.4491   -4.1532   30.1213 C   0  0  0  0  0  0  0  0  0  0  0  0
    5.7060   -4.4340   27.4975 C   0  0  0  0  0  0  0  0  0  0  0  0
    1.1818   -5.6612   28.8399 C   0  0  0  0  0  0  0  0  0  0  0  0
   -1.2067   -7.3287   17.7772 C   0  0  0  0  0  0  0  0  0  0  0  0
   -0.0206  -10.5585   16.6210 C   0  0  0  0  0  0  0  0  0  0  0  0
    0.3696  -12.7626   16.2169 O   0  0  0  0  0  0  0  0  0  0  0  0
   -0.6895   -9.5676   17.3297 C   0  0  0  0  0  0  0  0  0  0  0  0
    0.8388   -5.8417   27.5264 C   0  0  0  0  0  0  0  0  0  0  0  0
   -2.0709   -7.6637   18.7817 C   0  0  0  0  0  0  0  0  0  0  0  0
   -0.5279   -8.2168   17.0717 C   0  0  0  0  0  0  0  0  0  0  0  0
    6.9694   -4.0191   27.8190 C   0  0  0  0  0  0  0  0  0  0  0  0
    5.1733   -4.5469   29.8123 C   0  0  0  0  0  0  0  0  0  0  0  0
   -1.7508  -11.3016   18.6072 C   0  0  0  0  0  0  0  0  0  0  0  0
    1.7497   -5.6771   26.4971 C   0  0  0  0  0  0  0  0  0  0  0  0
   -1.5799   -9.9322   18.3468 C   0  0  0  0  0  0  0  0  0  0  0  0
   -1.0871  -12.2214   17.8851 C   0  0  0  0  0  0  0  0  0  0  0  0
   -2.2706   -8.9669   19.0691 C   0  0  0  0  0  0  0  0  0  0  0  0
    3.0279   -5.3073   26.8197 C   0  0  0  0  0  0  0  0  0  0  0  0
    7.3282   -3.8948   29.1186 C   0  0  0  0  0  0  0  0  0  0  0  0
  1  3  4  0
  1  7  4  0
  2  3  1  0
  2  6  4  0
  2 16  4  0
  3 22  4  0
  4  9  4  0
  4 10  1  0
  4 20  4  0
  5 16  4  0
  5 23  4  0
  6 15  4  0
  7 12  4  0
  8 13  4  0
  8 14  4  0
  9 11  4  0
 11 14  4  0
 11 19  4  0
 12 18  4  0
 13 21  4  0
 15 23  4  0
 17 19  4  0
 17 20  4  0
 18 22  4  0
 19 21  4  0
M  END
$$$$

 Created by Python create_sdf_string function

 23 25  0  0  0  0  0  0  0  0999 V2000
    2.4610   -5.3070   29.1240 C   0  0  0  0  0  0  0  0  0  0  0  0
    4.7710   -4.6952   28.4803 C   0  0  0  0  0  0  0  0  0  0  0  0
    3.4047   -5.1087   28.1314 C   0  0  0  0  0  0  0  0  0  0  0  0
   -0.2234  -11.8615   16.8874 C   0  0  0  0  0  0  0  0  0  0  0  0
    6.4491   -4.1532   30.1213 C   0  0  0  0  0  0  0  0  0  0  0  0
    5.7060   -4.4340   27.4975 C   0  0  0  0  0  0  0  0  0  0  0  0
    1.1818   -5.6612   28.8399 C   0  0  0  0  0  0  0  0  0  0  0  0
   -1.2067   -7.3287   17.7772 C   0  0  0  0  0  0  0  0  0  0  0  0
   -0.0206  -10.5585   16.6210 C   0  0  0  0  0  0  0  0  0  0  0  0
    0.3696  -12.7626   16.2169 O   0  0  0  0  0  0  0  0  0  0  0  0
   -0.6895   -9.5676   17.3297 C   0  0  0  0  0  0  0  0  0  0  0  0
    0.8388   -5.8417   27.5264 C   0  0  0  0  0  0  0  0  0  0  0  0
   -2.0709   -7.6637   18.7817 C   0  0  0  0  0  0  0  0  0  0  0  0
   -0.5279   -8.2168   17.0717 C   0  0  0  0  0  0  0  0  0  0  0  0
    6.9694   -4.0191   27.8190 C   0  0  0  0  0  0  0  0  0  0  0  0
    5.1733   -4.5469   29.8123 C   0  0  0  0  0  0  0  0  0  0  0  0
   -1.7508  -11.3016   18.6072 C   0  0  0  0  0  0  0  0  0  0  0  0
    1.7497   -5.6771   26.4971 C   0  0  0  0  0  0  0  0  0  0  0  0
   -1.5799   -9.9322   18.3468 C   0  0  0  0  0  0  0  0  0  0  0  0
   -1.0871  -12.2214   17.8851 C   0  0  0  0  0  0  0  0  0  0  0  0
   -2.2706   -8.9669   19.0691 C   0  0  0  0  0  0  0  0  0  0  0  0
    3.0279   -5.3073   26.8197 C   0  0  0  0  0  0  0  0  0  0  0  0
    7.3282   -3.8948   29.1186 C   0  0  0  0  0  0  0  0  0  0  0  0
  1  3  4  0
  1  7  4  0
  2  3  1  0
  2  6  4  0
  2 16  4  0
  3 22  4  0
  4  9  4  0
  4 10  1  0
  4 20  4  0
  5 16  4  0
  5 23  4  0
  6 15  4  0
  7 12  4  0
  8 13  4  0
  8 14  4  0
  9 11  4  0
 11 14  4  0
 11 19  4  0
 12 18  4  0
 13 21  4  0
 15 23  4  0
 17 19  4  0
 17 20  4  0
 18 22  4  0
 19 21  4  0
M  END
$$$$

 Created by Python create_sdf_string function

 23 25  0  0  0  0  0  0  0  0999 V2000
    2.4610   -5.3070   29.1240 C   0  0  0  0  0  0  0  0  0  0  0  0
    4.7710   -4.6952   28.4803 C   0  0  0  0  0  0  0  0  0  0  0  0
    3.4047   -5.1087   28.1314 C   0  0  0  0  0  0  0  0  0  0  0  0
   -0.2234  -11.8615   16.8874 C   0  0  0  0  0  0  0  0  0  0  0  0
    6.4491   -4.1532   30.1213 C   0  0  0  0  0  0  0  0  0  0  0  0
    5.7060   -4.4340   27.4975 C   0  0  0  0  0  0  0  0  0  0  0  0
    1.1818   -5.6612   28.8399 C   0  0  0  0  0  0  0  0  0  0  0  0
   -1.2067   -7.3287   17.7772 C   0  0  0  0  0  0  0  0  0  0  0  0
   -0.0206  -10.5585   16.6210 C   0  0  0  0  0  0  0  0  0  0  0  0
    0.3696  -12.7626   16.2169 O   0  0  0  0  0  0  0  0  0  0  0  0
   -0.6895   -9.5676   17.3297 C   0  0  0  0  0  0  0  0  0  0  0  0
    0.8388   -5.8417   27.5264 C   0  0  0  0  0  0  0  0  0  0  0  0
   -2.0709   -7.6637   18.7817 C   0  0  0  0  0  0  0  0  0  0  0  0
   -0.5279   -8.2168   17.0717 C   0  0  0  0  0  0  0  0  0  0  0  0
    6.9694   -4.0191   27.8190 C   0  0  0  0  0  0  0  0  0  0  0  0
    5.1733   -4.5469   29.8123 C   0  0  0  0  0  0  0  0  0  0  0  0
   -1.7508  -11.3016   18.6072 C   0  0  0  0  0  0  0  0  0  0  0  0
    1.7497   -5.6771   26.4971 C   0  0  0  0  0  0  0  0  0  0  0  0
   -1.5799   -9.9322   18.3468 C   0  0  0  0  0  0  0  0  0  0  0  0
   -1.0871  -12.2214   17.8851 C   0  0  0  0  0  0  0  0  0  0  0  0
   -2.2706   -8.9669   19.0691 C   0  0  0  0  0  0  0  0  0  0  0  0
    3.0279   -5.3073   26.8197 C   0  0  0  0  0  0  0  0  0  0  0  0
    7.3282   -3.8948   29.1186 C   0  0  0  0  0  0  0  0  0  0  0  0
  1  3  4  0
  1  7  4  0
  2  3  1  0
  2  6  4  0
  2 16  4  0
  3 22  4  0
  4  9  4  0
  4 10  1  0
  4 20  4  0
  5 16  4  0
  5 23  4  0
  6 15  4  0
  7 12  4  0
  8 13  4  0
  8 14  4  0
  9 11  4  0
 11 14  4  0
 11 19  4  0
 12 18  4  0
 13 21  4  0
 15 23  4  0
 17 19  4  0
 17 20  4  0
 18 22  4  0
 19 21  4  0
M  END
$$$$

 Created by Python create_sdf_string function

 23 25  0  0  0  0  0  0  0  0999 V2000
    2.4610   -5.3070   29.1240 C   0  0  0  0  0  0  0  0  0  0  0  0
    4.7710   -4.6952   28.4803 C   0  0  0  0  0  0  0  0  0  0  0  0
    3.4047   -5.1087   28.1314 C   0  0  0  0  0  0  0  0  0  0  0  0
   -0.2234  -11.8615   16.8874 C   0  0  0  0  0  0  0  0  0  0  0  0
    6.4491   -4.1532   30.1213 C   0  0  0  0  0  0  0  0  0  0  0  0
    5.7060   -4.4340   27.4975 C   0  0  0  0  0  0  0  0  0  0  0  0
    1.1818   -5.6612   28.8399 C   0  0  0  0  0  0  0  0  0  0  0  0
   -1.2067   -7.3287   17.7772 C   0  0  0  0  0  0  0  0  0  0  0  0
   -0.0206  -10.5585   16.6210 C   0  0  0  0  0  0  0  0  0  0  0  0
    0.3696  -12.7626   16.2169 O   0  0  0  0  0  0  0  0  0  0  0  0
   -0.6895   -9.5676   17.3297 C   0  0  0  0  0  0  0  0  0  0  0  0
    0.8388   -5.8417   27.5264 C   0  0  0  0  0  0  0  0  0  0  0  0
   -2.0709   -7.6637   18.7817 C   0  0  0  0  0  0  0  0  0  0  0  0
   -0.5279   -8.2168   17.0717 C   0  0  0  0  0  0  0  0  0  0  0  0
    6.9694   -4.0191   27.8190 C   0  0  0  0  0  0  0  0  0  0  0  0
    5.1733   -4.5469   29.8123 C   0  0  0  0  0  0  0  0  0  0  0  0
   -1.7508  -11.3016   18.6072 C   0  0  0  0  0  0  0  0  0  0  0  0
    1.7497   -5.6771   26.4971 C   0  0  0  0  0  0  0  0  0  0  0  0
   -1.5799   -9.9322   18.3468 C   0  0  0  0  0  0  0  0  0  0  0  0
   -1.0871  -12.2214   17.8851 C   0  0  0  0  0  0  0  0  0  0  0  0
   -2.2706   -8.9669   19.0691 C   0  0  0  0  0  0  0  0  0  0  0  0
    3.0279   -5.3073   26.8197 C   0  0  0  0  0  0  0  0  0  0  0  0
    7.3282   -3.8948   29.1186 C   0  0  0  0  0  0  0  0  0  0  0  0
  1  3  4  0
  1  7  4  0
  2  3  1  0
  2  6  4  0
  2 16  4  0
  3 22  4  0
  4  9  4  0
  4 10  1  0
  4 20  4  0
  5 16  4  0
  5 23  4  0
  6 15  4  0
  7 12  4  0
  8 13  4  0
  8 14  4  0
  9 11  4  0
 11 14  4  0
 11 19  4  0
 12 18  4  0
 13 21  4  0
 15 23  4  0
 17 19  4  0
 17 20  4  0
 18 22  4  0
 19 21  4  0
M  END
$$$$

 Created by Python create_sdf_string function

 23 25  0  0  0  0  0  0  0  0999 V2000
    2.4610   -5.3070   29.1240 C   0  0  0  0  0  0  0  0  0  0  0  0
    4.7710   -4.6952   28.4803 C   0  0  0  0  0  0  0  0  0  0  0  0
    3.4047   -5.1087   28.1314 C   0  0  0  0  0  0  0  0  0  0  0  0
   -0.2234  -11.8615   16.8874 C   0  0  0  0  0  0  0  0  0  0  0  0
    6.4491   -4.1532   30.1213 C   0  0  0  0  0  0  0  0  0  0  0  0
    5.7060   -4.4340   27.4975 C   0  0  0  0  0  0  0  0  0  0  0  0
    1.1818   -5.6612   28.8399 C   0  0  0  0  0  0  0  0  0  0  0  0
   -1.2067   -7.3287   17.7772 C   0  0  0  0  0  0  0  0  0  0  0  0
   -0.0206  -10.5585   16.6210 C   0  0  0  0  0  0  0  0  0  0  0  0
    0.3696  -12.7626   16.2169 O   0  0  0  0  0  0  0  0  0  0  0  0
   -0.6895   -9.5676   17.3297 C   0  0  0  0  0  0  0  0  0  0  0  0
    0.8388   -5.8417   27.5264 C   0  0  0  0  0  0  0  0  0  0  0  0
   -2.0709   -7.6637   18.7817 C   0  0  0  0  0  0  0  0  0  0  0  0
   -0.5279   -8.2168   17.0717 C   0  0  0  0  0  0  0  0  0  0  0  0
    6.9694   -4.0191   27.8190 C   0  0  0  0  0  0  0  0  0  0  0  0
    5.1733   -4.5469   29.8123 C   0  0  0  0  0  0  0  0  0  0  0  0
   -1.7508  -11.3016   18.6072 C   0  0  0  0  0  0  0  0  0  0  0  0
    1.7497   -5.6771   26.4971 C   0  0  0  0  0  0  0  0  0  0  0  0
   -1.5799   -9.9322   18.3468 C   0  0  0  0  0  0  0  0  0  0  0  0
   -1.0871  -12.2214   17.8851 C   0  0  0  0  0  0  0  0  0  0  0  0
   -2.2706   -8.9669   19.0691 C   0  0  0  0  0  0  0  0  0  0  0  0
    3.0279   -5.3073   26.8197 C   0  0  0  0  0  0  0  0  0  0  0  0
    7.3282   -3.8948   29.1186 C   0  0  0  0  0  0  0  0  0  0  0  0
  1  3  4  0
  1  7  4  0
  2  3  1  0
  2  6  4  0
  2 16  4  0
  3 22  4  0
  4  9  4  0
  4 10  1  0
  4 20  4  0
  5 16  4  0
  5 23  4  0
  6 15  4  0
  7 12  4  0
  8 13  4  0
  8 14  4  0
  9 11  4  0
 11 14  4  0
 11 19  4  0
 12 18  4  0
 13 21  4  0
 15 23  4  0
 17 19  4  0
 17 20  4  0
 18 22  4  0
 19 21  4  0
M  END
$$$$

 Created by Python create_sdf_string function

 23 25  0  0  0  0  0  0  0  0999 V2000
    2.4610   -5.3070   29.1240 C   0  0  0  0  0  0  0  0  0  0  0  0
    4.7710   -4.6952   28.4803 C   0  0  0  0  0  0  0  0  0  0  0  0
    3.4047   -5.1087   28.1314 C   0  0  0  0  0  0  0  0  0  0  0  0
   -0.2234  -11.8615   16.8874 C   0  0  0  0  0  0  0  0  0  0  0  0
    6.4491   -4.1532   30.1213 C   0  0  0  0  0  0  0  0  0  0  0  0
    5.7060   -4.4340   27.4975 C   0  0  0  0  0  0  0  0  0  0  0  0
    1.1818   -5.6612   28.8399 C   0  0  0  0  0  0  0  0  0  0  0  0
   -1.2067   -7.3287   17.7772 C   0  0  0  0  0  0  0  0  0  0  0  0
   -0.0206  -10.5585   16.6210 C   0  0  0  0  0  0  0  0  0  0  0  0
    0.3696  -12.7626   16.2169 O   0  0  0  0  0  0  0  0  0  0  0  0
   -0.6895   -9.5676   17.3297 C   0  0  0  0  0  0  0  0  0  0  0  0
    0.8388   -5.8417   27.5264 C   0  0  0  0  0  0  0  0  0  0  0  0
   -2.0709   -7.6637   18.7817 C   0  0  0  0  0  0  0  0  0  0  0  0
   -0.5279   -8.2168   17.0717 C   0  0  0  0  0  0  0  0  0  0  0  0
    6.9694   -4.0191   27.8190 C   0  0  0  0  0  0  0  0  0  0  0  0
    5.1733   -4.5469   29.8123 C   0  0  0  0  0  0  0  0  0  0  0  0
   -1.7508  -11.3016   18.6072 C   0  0  0  0  0  0  0  0  0  0  0  0
    1.7497   -5.6771   26.4971 C   0  0  0  0  0  0  0  0  0  0  0  0
   -1.5799   -9.9322   18.3468 C   0  0  0  0  0  0  0  0  0  0  0  0
   -1.0871  -12.2214   17.8851 C   0  0  0  0  0  0  0  0  0  0  0  0
   -2.2706   -8.9669   19.0691 C   0  0  0  0  0  0  0  0  0  0  0  0
    3.0279   -5.3073   26.8197 C   0  0  0  0  0  0  0  0  0  0  0  0
    7.3282   -3.8948   29.1186 C   0  0  0  0  0  0  0  0  0  0  0  0
  1  3  4  0
  1  7  4  0
  2  3  1  0
  2  6  4  0
  2 16  4  0
  3 22  4  0
  4  9  4  0
  4 10  1  0
  4 20  4  0
  5 16  4  0
  5 23  4  0
  6 15  4  0
  7 12  4  0
  8 13  4  0
  8 14  4  0
  9 11  4  0
 11 14  4  0
 11 19  4  0
 12 18  4  0
 13 21  4  0
 15 23  4  0
 17 19  4  0
 17 20  4  0
 18 22  4  0
 19 21  4  0
M  END
$$$$

 Created by Python create_sdf_string function

 23 25  0  0  0  0  0  0  0  0999 V2000
    2.4610   -5.3070   29.1240 C   0  0  0  0  0  0  0  0  0  0  0  0
    4.7710   -4.6952   28.4803 C   0  0  0  0  0  0  0  0  0  0  0  0
    3.4047   -5.1087   28.1314 C   0  0  0  0  0  0  0  0  0  0  0  0
   -0.2234  -11.8615   16.8874 C   0  0  0  0  0  0  0  0  0  0  0  0
    6.4491   -4.1532   30.1213 C   0  0  0  0  0  0  0  0  0  0  0  0
    5.7060   -4.4340   27.4975 C   0  0  0  0  0  0  0  0  0  0  0  0
    1.1818   -5.6612   28.8399 C   0  0  0  0  0  0  0  0  0  0  0  0
   -1.2067   -7.3287   17.7772 C   0  0  0  0  0  0  0  0  0  0  0  0
   -0.0206  -10.5585   16.6210 C   0  0  0  0  0  0  0  0  0  0  0  0
    0.3696  -12.7626   16.2169 O   0  0  0  0  0  0  0  0  0  0  0  0
   -0.6895   -9.5676   17.3297 C   0  0  0  0  0  0  0  0  0  0  0  0
    0.8388   -5.8417   27.5264 C   0  0  0  0  0  0  0  0  0  0  0  0
   -2.0709   -7.6637   18.7817 C   0  0  0  0  0  0  0  0  0  0  0  0
   -0.5279   -8.2168   17.0717 C   0  0  0  0  0  0  0  0  0  0  0  0
    6.9694   -4.0191   27.8190 C   0  0  0  0  0  0  0  0  0  0  0  0
    5.1733   -4.5469   29.8123 C   0  0  0  0  0  0  0  0  0  0  0  0
   -1.7508  -11.3016   18.6072 C   0  0  0  0  0  0  0  0  0  0  0  0
    1.7497   -5.6771   26.4971 C   0  0  0  0  0  0  0  0  0  0  0  0
   -1.5799   -9.9322   18.3468 C   0  0  0  0  0  0  0  0  0  0  0  0
   -1.0871  -12.2214   17.8851 C   0  0  0  0  0  0  0  0  0  0  0  0
   -2.2706   -8.9669   19.0691 C   0  0  0  0  0  0  0  0  0  0  0  0
    3.0279   -5.3073   26.8197 C   0  0  0  0  0  0  0  0  0  0  0  0
    7.3282   -3.8948   29.1186 C   0  0  0  0  0  0  0  0  0  0  0  0
  1  3  4  0
  1  7  4  0
  2  3  1  0
  2  6  4  0
  2 16  4  0
  3 22  4  0
  4  9  4  0
  4 10  1  0
  4 20  4  0
  5 16  4  0
  5 23  4  0
  6 15  4  0
  7 12  4  0
  8 13  4  0
  8 14  4  0
  9 11  4  0
 11 14  4  0
 11 19  4  0
 12 18  4  0
 13 21  4  0
 15 23  4  0
 17 19  4  0
 17 20  4  0
 18 22  4  0
 19 21  4  0
M  END
$$$$

 Created by Python create_sdf_string function

 23 25  0  0  0  0  0  0  0  0999 V2000
    2.4610   -5.3070   29.1240 C   0  0  0  0  0  0  0  0  0  0  0  0
    4.7710   -4.6952   28.4803 C   0  0  0  0  0  0  0  0  0  0  0  0
    3.4047   -5.1087   28.1314 C   0  0  0  0  0  0  0  0  0  0  0  0
   -0.2234  -11.8615   16.8874 C   0  0  0  0  0  0  0  0  0  0  0  0
    6.4491   -4.1532   30.1213 C   0  0  0  0  0  0  0  0  0  0  0  0
    5.7060   -4.4340   27.4975 C   0  0  0  0  0  0  0  0  0  0  0  0
    1.1818   -5.6612   28.8399 C   0  0  0  0  0  0  0  0  0  0  0  0
   -1.2067   -7.3287   17.7772 C   0  0  0  0  0  0  0  0  0  0  0  0
   -0.0206  -10.5585   16.6210 C   0  0  0  0  0  0  0  0  0  0  0  0
    0.3696  -12.7626   16.2169 O   0  0  0  0  0  0  0  0  0  0  0  0
   -0.6895   -9.5676   17.3297 C   0  0  0  0  0  0  0  0  0  0  0  0
    0.8388   -5.8417   27.5264 C   0  0  0  0  0  0  0  0  0  0  0  0
   -2.0709   -7.6637   18.7817 C   0  0  0  0  0  0  0  0  0  0  0  0
   -0.5279   -8.2168   17.0717 C   0  0  0  0  0  0  0  0  0  0  0  0
    6.9694   -4.0191   27.8190 C   0  0  0  0  0  0  0  0  0  0  0  0
    5.1733   -4.5469   29.8123 C   0  0  0  0  0  0  0  0  0  0  0  0
   -1.7508  -11.3016   18.6072 C   0  0  0  0  0  0  0  0  0  0  0  0
    1.7497   -5.6771   26.4971 C   0  0  0  0  0  0  0  0  0  0  0  0
   -1.5799   -9.9322   18.3468 C   0  0  0  0  0  0  0  0  0  0  0  0
   -1.0871  -12.2214   17.8851 C   0  0  0  0  0  0  0  0  0  0  0  0
   -2.2706   -8.9669   19.0691 C   0  0  0  0  0  0  0  0  0  0  0  0
    3.0279   -5.3073   26.8197 C   0  0  0  0  0  0  0  0  0  0  0  0
    7.3282   -3.8948   29.1186 C   0  0  0  0  0  0  0  0  0  0  0  0
  1  3  4  0
  1  7  4  0
  2  3  1  0
  2  6  4  0
  2 16  4  0
  3 22  4  0
  4  9  4  0
  4 10  1  0
  4 20  4  0
  5 16  4  0
  5 23  4  0
  6 15  4  0
  7 12  4  0
  8 13  4  0
  8 14  4  0
  9 11  4  0
 11 14  4  0
 11 19  4  0
 12 18  4  0
 13 21  4  0
 15 23  4  0
 17 19  4  0
 17 20  4  0
 18 22  4  0
 19 21  4  0
M  END
$$$$

 Created by Python create_sdf_string function

 23 25  0  0  0  0  0  0  0  0999 V2000
    2.4610   -5.3070   29.1240 C   0  0  0  0  0  0  0  0  0  0  0  0
    4.7710   -4.6952   28.4803 C   0  0  0  0  0  0  0  0  0  0  0  0
    3.4047   -5.1087   28.1314 C   0  0  0  0  0  0  0  0  0  0  0  0
   -0.2234  -11.8615   16.8874 C   0  0  0  0  0  0  0  0  0  0  0  0
    6.4491   -4.1532   30.1213 C   0  0  0  0  0  0  0  0  0  0  0  0
    5.7060   -4.4340   27.4975 C   0  0  0  0  0  0  0  0  0  0  0  0
    1.1818   -5.6612   28.8399 C   0  0  0  0  0  0  0  0  0  0  0  0
   -1.2067   -7.3287   17.7772 C   0  0  0  0  0  0  0  0  0  0  0  0
   -0.0206  -10.5585   16.6210 C   0  0  0  0  0  0  0  0  0  0  0  0
    0.3696  -12.7626   16.2169 O   0  0  0  0  0  0  0  0  0  0  0  0
   -0.6895   -9.5676   17.3297 C   0  0  0  0  0  0  0  0  0  0  0  0
    0.8388   -5.8417   27.5264 C   0  0  0  0  0  0  0  0  0  0  0  0
   -2.0709   -7.6637   18.7817 C   0  0  0  0  0  0  0  0  0  0  0  0
   -0.5279   -8.2168   17.0717 C   0  0  0  0  0  0  0  0  0  0  0  0
    6.9694   -4.0191   27.8190 C   0  0  0  0  0  0  0  0  0  0  0  0
    5.1733   -4.5469   29.8123 C   0  0  0  0  0  0  0  0  0  0  0  0
   -1.7508  -11.3016   18.6072 C   0  0  0  0  0  0  0  0  0  0  0  0
    1.7497   -5.6771   26.4971 C   0  0  0  0  0  0  0  0  0  0  0  0
   -1.5799   -9.9322   18.3468 C   0  0  0  0  0  0  0  0  0  0  0  0
   -1.0871  -12.2214   17.8851 C   0  0  0  0  0  0  0  0  0  0  0  0
   -2.2706   -8.9669   19.0691 C   0  0  0  0  0  0  0  0  0  0  0  0
    3.0279   -5.3073   26.8197 C   0  0  0  0  0  0  0  0  0  0  0  0
    7.3282   -3.8948   29.1186 C   0  0  0  0  0  0  0  0  0  0  0  0
  1  3  4  0
  1  7  4  0
  2  3  1  0
  2  6  4  0
  2 16  4  0
  3 22  4  0
  4  9  4  0
  4 10  1  0
  4 20  4  0
  5 16  4  0
  5 23  4  0
  6 15  4  0
  7 12  4  0
  8 13  4  0
  8 14  4  0
  9 11  4  0
 11 14  4  0
 11 19  4  0
 12 18  4  0
 13 21  4  0
 15 23  4  0
 17 19  4  0
 17 20  4  0
 18 22  4  0
 19 21  4  0
M  END
$$$$

 Created by Python create_sdf_string function

 23 25  0  0  0  0  0  0  0  0999 V2000
    2.4610   -5.3070   29.1240 C   0  0  0  0  0  0  0  0  0  0  0  0
    4.7710   -4.6952   28.4803 C   0  0  0  0  0  0  0  0  0  0  0  0
    3.4047   -5.1087   28.1314 C   0  0  0  0  0  0  0  0  0  0  0  0
   -0.2234  -11.8615   16.8874 C   0  0  0  0  0  0  0  0  0  0  0  0
    6.4491   -4.1532   30.1213 C   0  0  0  0  0  0  0  0  0  0  0  0
    5.7060   -4.4340   27.4975 C   0  0  0  0  0  0  0  0  0  0  0  0
    1.1818   -5.6612   28.8399 C   0  0  0  0  0  0  0  0  0  0  0  0
   -1.2067   -7.3287   17.7772 C   0  0  0  0  0  0  0  0  0  0  0  0
   -0.0206  -10.5585   16.6210 C   0  0  0  0  0  0  0  0  0  0  0  0
    0.3696  -12.7626   16.2169 O   0  0  0  0  0  0  0  0  0  0  0  0
   -0.6895   -9.5676   17.3297 C   0  0  0  0  0  0  0  0  0  0  0  0
    0.8388   -5.8417   27.5264 C   0  0  0  0  0  0  0  0  0  0  0  0
   -2.0709   -7.6637   18.7817 C   0  0  0  0  0  0  0  0  0  0  0  0
   -0.5279   -8.2168   17.0717 C   0  0  0  0  0  0  0  0  0  0  0  0
    6.9694   -4.0191   27.8190 C   0  0  0  0  0  0  0  0  0  0  0  0
    5.1733   -4.5469   29.8123 C   0  0  0  0  0  0  0  0  0  0  0  0
   -1.7508  -11.3016   18.6072 C   0  0  0  0  0  0  0  0  0  0  0  0
    1.7497   -5.6771   26.4971 C   0  0  0  0  0  0  0  0  0  0  0  0
   -1.5799   -9.9322   18.3468 C   0  0  0  0  0  0  0  0  0  0  0  0
   -1.0871  -12.2214   17.8851 C   0  0  0  0  0  0  0  0  0  0  0  0
   -2.2706   -8.9669   19.0691 C   0  0  0  0  0  0  0  0  0  0  0  0
    3.0279   -5.3073   26.8197 C   0  0  0  0  0  0  0  0  0  0  0  0
    7.3282   -3.8948   29.1186 C   0  0  0  0  0  0  0  0  0  0  0  0
  1  3  4  0
  1  7  4  0
  2  3  1  0
  2  6  4  0
  2 16  4  0
  3 22  4  0
  4  9  4  0
  4 10  1  0
  4 20  4  0
  5 16  4  0
  5 23  4  0
  6 15  4  0
  7 12  4  0
  8 13  4  0
  8 14  4  0
  9 11  4  0
 11 14  4  0
 11 19  4  0
 12 18  4  0
 13 21  4  0
 15 23  4  0
 17 19  4  0
 17 20  4  0
 18 22  4  0
 19 21  4  0
M  END
$$$$

 Created by Python create_sdf_string function

 23 25  0  0  0  0  0  0  0  0999 V2000
    2.4610   -5.3070   29.1240 C   0  0  0  0  0  0  0  0  0  0  0  0
    4.7710   -4.6952   28.4803 C   0  0  0  0  0  0  0  0  0  0  0  0
    3.4047   -5.1087   28.1314 C   0  0  0  0  0  0  0  0  0  0  0  0
   -0.2234  -11.8615   16.8874 C   0  0  0  0  0  0  0  0  0  0  0  0
    6.4491   -4.1532   30.1213 C   0  0  0  0  0  0  0  0  0  0  0  0
    5.7060   -4.4340   27.4975 C   0  0  0  0  0  0  0  0  0  0  0  0
    1.1818   -5.6612   28.8399 C   0  0  0  0  0  0  0  0  0  0  0  0
   -1.2067   -7.3287   17.7772 C   0  0  0  0  0  0  0  0  0  0  0  0
   -0.0206  -10.5585   16.6210 C   0  0  0  0  0  0  0  0  0  0  0  0
    0.3696  -12.7626   16.2169 O   0  0  0  0  0  0  0  0  0  0  0  0
   -0.6895   -9.5676   17.3297 C   0  0  0  0  0  0  0  0  0  0  0  0
    0.8388   -5.8417   27.5264 C   0  0  0  0  0  0  0  0  0  0  0  0
   -2.0709   -7.6637   18.7817 C   0  0  0  0  0  0  0  0  0  0  0  0
   -0.5279   -8.2168   17.0717 C   0  0  0  0  0  0  0  0  0  0  0  0
    6.9694   -4.0191   27.8190 C   0  0  0  0  0  0  0  0  0  0  0  0
    5.1733   -4.5469   29.8123 C   0  0  0  0  0  0  0  0  0  0  0  0
   -1.7508  -11.3016   18.6072 C   0  0  0  0  0  0  0  0  0  0  0  0
    1.7497   -5.6771   26.4971 C   0  0  0  0  0  0  0  0  0  0  0  0
   -1.5799   -9.9322   18.3468 C   0  0  0  0  0  0  0  0  0  0  0  0
   -1.0871  -12.2214   17.8851 C   0  0  0  0  0  0  0  0  0  0  0  0
   -2.2706   -8.9669   19.0691 C   0  0  0  0  0  0  0  0  0  0  0  0
    3.0279   -5.3073   26.8197 C   0  0  0  0  0  0  0  0  0  0  0  0
    7.3282   -3.8948   29.1186 C   0  0  0  0  0  0  0  0  0  0  0  0
  1  3  4  0
  1  7  4  0
  2  3  1  0
  2  6  4  0
  2 16  4  0
  3 22  4  0
  4  9  4  0
  4 10  1  0
  4 20  4  0
  5 16  4  0
  5 23  4  0
  6 15  4  0
  7 12  4  0
  8 13  4  0
  8 14  4  0
  9 11  4  0
 11 14  4  0
 11 19  4  0
 12 18  4  0
 13 21  4  0
 15 23  4  0
 17 19  4  0
 17 20  4  0
 18 22  4  0
 19 21  4  0
M  END
$$$$

 Created by Python create_sdf_string function

 23 25  0  0  0  0  0  0  0  0999 V2000
    2.4610   -5.3070   29.1240 C   0  0  0  0  0  0  0  0  0  0  0  0
    4.7710   -4.6952   28.4803 C   0  0  0  0  0  0  0  0  0  0  0  0
    3.4047   -5.1087   28.1314 C   0  0  0  0  0  0  0  0  0  0  0  0
   -0.2234  -11.8615   16.8874 C   0  0  0  0  0  0  0  0  0  0  0  0
    6.4491   -4.1532   30.1213 C   0  0  0  0  0  0  0  0  0  0  0  0
    5.7060   -4.4340   27.4975 C   0  0  0  0  0  0  0  0  0  0  0  0
    1.1818   -5.6612   28.8399 C   0  0  0  0  0  0  0  0  0  0  0  0
   -1.2067   -7.3287   17.7772 C   0  0  0  0  0  0  0  0  0  0  0  0
   -0.0206  -10.5585   16.6210 C   0  0  0  0  0  0  0  0  0  0  0  0
    0.3696  -12.7626   16.2169 O   0  0  0  0  0  0  0  0  0  0  0  0
   -0.6895   -9.5676   17.3297 C   0  0  0  0  0  0  0  0  0  0  0  0
    0.8388   -5.8417   27.5264 C   0  0  0  0  0  0  0  0  0  0  0  0
   -2.0709   -7.6637   18.7817 C   0  0  0  0  0  0  0  0  0  0  0  0
   -0.5279   -8.2168   17.0717 C   0  0  0  0  0  0  0  0  0  0  0  0
    6.9694   -4.0191   27.8190 C   0  0  0  0  0  0  0  0  0  0  0  0
    5.1733   -4.5469   29.8123 C   0  0  0  0  0  0  0  0  0  0  0  0
   -1.7508  -11.3016   18.6072 C   0  0  0  0  0  0  0  0  0  0  0  0
    1.7497   -5.6771   26.4971 C   0  0  0  0  0  0  0  0  0  0  0  0
   -1.5799   -9.9322   18.3468 C   0  0  0  0  0  0  0  0  0  0  0  0
   -1.0871  -12.2214   17.8851 C   0  0  0  0  0  0  0  0  0  0  0  0
   -2.2706   -8.9669   19.0691 C   0  0  0  0  0  0  0  0  0  0  0  0
    3.0279   -5.3073   26.8197 C   0  0  0  0  0  0  0  0  0  0  0  0
    7.3282   -3.8948   29.1186 C   0  0  0  0  0  0  0  0  0  0  0  0
  1  3  4  0
  1  7  4  0
  2  3  1  0
  2  6  4  0
  2 16  4  0
  3 22  4  0
  4  9  4  0
  4 10  1  0
  4 20  4  0
  5 16  4  0
  5 23  4  0
  6 15  4  0
  7 12  4  0
  8 13  4  0
  8 14  4  0
  9 11  4  0
 11 14  4  0
 11 19  4  0
 12 18  4  0
 13 21  4  0
 15 23  4  0
 17 19  4  0
 17 20  4  0
 18 22  4  0
 19 21  4  0
M  END
$$$$

 Created by Python create_sdf_string function

 23 25  0  0  0  0  0  0  0  0999 V2000
    2.4610   -5.3070   29.1240 C   0  0  0  0  0  0  0  0  0  0  0  0
    4.7710   -4.6952   28.4803 C   0  0  0  0  0  0  0  0  0  0  0  0
    3.4047   -5.1087   28.1314 C   0  0  0  0  0  0  0  0  0  0  0  0
   -0.2234  -11.8615   16.8874 C   0  0  0  0  0  0  0  0  0  0  0  0
    6.4491   -4.1532   30.1213 C   0  0  0  0  0  0  0  0  0  0  0  0
    5.7060   -4.4340   27.4975 C   0  0  0  0  0  0  0  0  0  0  0  0
    1.1818   -5.6612   28.8399 C   0  0  0  0  0  0  0  0  0  0  0  0
   -1.2067   -7.3287   17.7772 C   0  0  0  0  0  0  0  0  0  0  0  0
   -0.0206  -10.5585   16.6210 C   0  0  0  0  0  0  0  0  0  0  0  0
    0.3696  -12.7626   16.2169 O   0  0  0  0  0  0  0  0  0  0  0  0
   -0.6895   -9.5676   17.3297 C   0  0  0  0  0  0  0  0  0  0  0  0
    0.8388   -5.8417   27.5264 C   0  0  0  0  0  0  0  0  0  0  0  0
   -2.0709   -7.6637   18.7817 C   0  0  0  0  0  0  0  0  0  0  0  0
   -0.5279   -8.2168   17.0717 C   0  0  0  0  0  0  0  0  0  0  0  0
    6.9694   -4.0191   27.8190 C   0  0  0  0  0  0  0  0  0  0  0  0
    5.1733   -4.5469   29.8123 C   0  0  0  0  0  0  0  0  0  0  0  0
   -1.7508  -11.3016   18.6072 C   0  0  0  0  0  0  0  0  0  0  0  0
    1.7497   -5.6771   26.4971 C   0  0  0  0  0  0  0  0  0  0  0  0
   -1.5799   -9.9322   18.3468 C   0  0  0  0  0  0  0  0  0  0  0  0
   -1.0871  -12.2214   17.8851 C   0  0  0  0  0  0  0  0  0  0  0  0
   -2.2706   -8.9669   19.0691 C   0  0  0  0  0  0  0  0  0  0  0  0
    3.0279   -5.3073   26.8197 C   0  0  0  0  0  0  0  0  0  0  0  0
    7.3282   -3.8948   29.1186 C   0  0  0  0  0  0  0  0  0  0  0  0
  1  3  4  0
  1  7  4  0
  2  3  1  0
  2  6  4  0
  2 16  4  0
  3 22  4  0
  4  9  4  0
  4 10  1  0
  4 20  4  0
  5 16  4  0
  5 23  4  0
  6 15  4  0
  7 12  4  0
  8 13  4  0
  8 14  4  0
  9 11  4  0
 11 14  4  0
 11 19  4  0
 12 18  4  0
 13 21  4  0
 15 23  4  0
 17 19  4  0
 17 20  4  0
 18 22  4  0
 19 21  4  0
M  END
$$$$

 Created by Python create_sdf_string function

 23 25  0  0  0  0  0  0  0  0999 V2000
    2.4610   -5.3070   29.1240 C   0  0  0  0  0  0  0  0  0  0  0  0
    4.7710   -4.6952   28.4803 C   0  0  0  0  0  0  0  0  0  0  0  0
    3.4047   -5.1087   28.1314 C   0  0  0  0  0  0  0  0  0  0  0  0
   -0.2234  -11.8615   16.8874 C   0  0  0  0  0  0  0  0  0  0  0  0
    6.4491   -4.1532   30.1213 C   0  0  0  0  0  0  0  0  0  0  0  0
    5.7060   -4.4340   27.4975 C   0  0  0  0  0  0  0  0  0  0  0  0
    1.1818   -5.6612   28.8399 C   0  0  0  0  0  0  0  0  0  0  0  0
   -1.2067   -7.3287   17.7772 C   0  0  0  0  0  0  0  0  0  0  0  0
   -0.0206  -10.5585   16.6210 C   0  0  0  0  0  0  0  0  0  0  0  0
    0.3696  -12.7626   16.2169 O   0  0  0  0  0  0  0  0  0  0  0  0
   -0.6895   -9.5676   17.3297 C   0  0  0  0  0  0  0  0  0  0  0  0
    0.8388   -5.8417   27.5264 C   0  0  0  0  0  0  0  0  0  0  0  0
   -2.0709   -7.6637   18.7817 C   0  0  0  0  0  0  0  0  0  0  0  0
   -0.5279   -8.2168   17.0717 C   0  0  0  0  0  0  0  0  0  0  0  0
    6.9694   -4.0191   27.8190 C   0  0  0  0  0  0  0  0  0  0  0  0
    5.1733   -4.5469   29.8123 C   0  0  0  0  0  0  0  0  0  0  0  0
   -1.7508  -11.3016   18.6072 C   0  0  0  0  0  0  0  0  0  0  0  0
    1.7497   -5.6771   26.4971 C   0  0  0  0  0  0  0  0  0  0  0  0
   -1.5799   -9.9322   18.3468 C   0  0  0  0  0  0  0  0  0  0  0  0
   -1.0871  -12.2214   17.8851 C   0  0  0  0  0  0  0  0  0  0  0  0
   -2.2706   -8.9669   19.0691 C   0  0  0  0  0  0  0  0  0  0  0  0
    3.0279   -5.3073   26.8197 C   0  0  0  0  0  0  0  0  0  0  0  0
    7.3282   -3.8948   29.1186 C   0  0  0  0  0  0  0  0  0  0  0  0
  1  3  4  0
  1  7  4  0
  2  3  1  0
  2  6  4  0
  2 16  4  0
  3 22  4  0
  4  9  4  0
  4 10  1  0
  4 20  4  0
  5 16  4  0
  5 23  4  0
  6 15  4  0
  7 12  4  0
  8 13  4  0
  8 14  4  0
  9 11  4  0
 11 14  4  0
 11 19  4  0
 12 18  4  0
 13 21  4  0
 15 23  4  0
 17 19  4  0
 17 20  4  0
 18 22  4  0
 19 21  4  0
M  END
$$$$

 Created by Python create_sdf_string function

 23 25  0  0  0  0  0  0  0  0999 V2000
    2.4610   -5.3070   29.1240 C   0  0  0  0  0  0  0  0  0  0  0  0
    4.7710   -4.6952   28.4803 C   0  0  0  0  0  0  0  0  0  0  0  0
    3.4047   -5.1087   28.1314 C   0  0  0  0  0  0  0  0  0  0  0  0
   -0.2234  -11.8615   16.8874 C   0  0  0  0  0  0  0  0  0  0  0  0
    6.4491   -4.1532   30.1213 C   0  0  0  0  0  0  0  0  0  0  0  0
    5.7060   -4.4340   27.4975 C   0  0  0  0  0  0  0  0  0  0  0  0
    1.1818   -5.6612   28.8399 C   0  0  0  0  0  0  0  0  0  0  0  0
   -1.2067   -7.3287   17.7772 C   0  0  0  0  0  0  0  0  0  0  0  0
   -0.0206  -10.5585   16.6210 C   0  0  0  0  0  0  0  0  0  0  0  0
    0.3696  -12.7626   16.2169 O   0  0  0  0  0  0  0  0  0  0  0  0
   -0.6895   -9.5676   17.3297 C   0  0  0  0  0  0  0  0  0  0  0  0
    0.8388   -5.8417   27.5264 C   0  0  0  0  0  0  0  0  0  0  0  0
   -2.0709   -7.6637   18.7817 C   0  0  0  0  0  0  0  0  0  0  0  0
   -0.5279   -8.2168   17.0717 C   0  0  0  0  0  0  0  0  0  0  0  0
    6.9694   -4.0191   27.8190 C   0  0  0  0  0  0  0  0  0  0  0  0
    5.1733   -4.5469   29.8123 C   0  0  0  0  0  0  0  0  0  0  0  0
   -1.7508  -11.3016   18.6072 C   0  0  0  0  0  0  0  0  0  0  0  0
    1.7497   -5.6771   26.4971 C   0  0  0  0  0  0  0  0  0  0  0  0
   -1.5799   -9.9322   18.3468 C   0  0  0  0  0  0  0  0  0  0  0  0
   -1.0871  -12.2214   17.8851 C   0  0  0  0  0  0  0  0  0  0  0  0
   -2.2706   -8.9669   19.0691 C   0  0  0  0  0  0  0  0  0  0  0  0
    3.0279   -5.3073   26.8197 C   0  0  0  0  0  0  0  0  0  0  0  0
    7.3282   -3.8948   29.1186 C   0  0  0  0  0  0  0  0  0  0  0  0
  1  3  4  0
  1  7  4  0
  2  3  1  0
  2  6  4  0
  2 16  4  0
  3 22  4  0
  4  9  4  0
  4 10  1  0
  4 20  4  0
  5 16  4  0
  5 23  4  0
  6 15  4  0
  7 12  4  0
  8 13  4  0
  8 14  4  0
  9 11  4  0
 11 14  4  0
 11 19  4  0
 12 18  4  0
 13 21  4  0
 15 23  4  0
 17 19  4  0
 17 20  4  0
 18 22  4  0
 19 21  4  0
M  END
$$$$

 Created by Python create_sdf_string function

 23 25  0  0  0  0  0  0  0  0999 V2000
    2.4610   -5.3070   29.1240 C   0  0  0  0  0  0  0  0  0  0  0  0
    4.7710   -4.6952   28.4803 C   0  0  0  0  0  0  0  0  0  0  0  0
    3.4047   -5.1087   28.1314 C   0  0  0  0  0  0  0  0  0  0  0  0
   -0.2234  -11.8615   16.8874 C   0  0  0  0  0  0  0  0  0  0  0  0
    6.4491   -4.1532   30.1213 C   0  0  0  0  0  0  0  0  0  0  0  0
    5.7060   -4.4340   27.4975 C   0  0  0  0  0  0  0  0  0  0  0  0
    1.1818   -5.6612   28.8399 C   0  0  0  0  0  0  0  0  0  0  0  0
   -1.2067   -7.3287   17.7772 C   0  0  0  0  0  0  0  0  0  0  0  0
   -0.0206  -10.5585   16.6210 C   0  0  0  0  0  0  0  0  0  0  0  0
    0.3696  -12.7626   16.2169 O   0  0  0  0  0  0  0  0  0  0  0  0
   -0.6895   -9.5676   17.3297 C   0  0  0  0  0  0  0  0  0  0  0  0
    0.8388   -5.8417   27.5264 C   0  0  0  0  0  0  0  0  0  0  0  0
   -2.0709   -7.6637   18.7817 C   0  0  0  0  0  0  0  0  0  0  0  0
   -0.5279   -8.2168   17.0717 C   0  0  0  0  0  0  0  0  0  0  0  0
    6.9694   -4.0191   27.8190 C   0  0  0  0  0  0  0  0  0  0  0  0
    5.1733   -4.5469   29.8123 C   0  0  0  0  0  0  0  0  0  0  0  0
   -1.7508  -11.3016   18.6072 C   0  0  0  0  0  0  0  0  0  0  0  0
    1.7497   -5.6771   26.4971 C   0  0  0  0  0  0  0  0  0  0  0  0
   -1.5799   -9.9322   18.3468 C   0  0  0  0  0  0  0  0  0  0  0  0
   -1.0871  -12.2214   17.8851 C   0  0  0  0  0  0  0  0  0  0  0  0
   -2.2706   -8.9669   19.0691 C   0  0  0  0  0  0  0  0  0  0  0  0
    3.0279   -5.3073   26.8197 C   0  0  0  0  0  0  0  0  0  0  0  0
    7.3282   -3.8948   29.1186 C   0  0  0  0  0  0  0  0  0  0  0  0
  1  3  4  0
  1  7  4  0
  2  3  1  0
  2  6  4  0
  2 16  4  0
  3 22  4  0
  4  9  4  0
  4 10  1  0
  4 20  4  0
  5 16  4  0
  5 23  4  0
  6 15  4  0
  7 12  4  0
  8 13  4  0
  8 14  4  0
  9 11  4  0
 11 14  4  0
 11 19  4  0
 12 18  4  0
 13 21  4  0
 15 23  4  0
 17 19  4  0
 17 20  4  0
 18 22  4  0
 19 21  4  0
M  END
$$$$

 Created by Python create_sdf_string function

 23 25  0  0  0  0  0  0  0  0999 V2000
    2.4610   -5.3070   29.1240 C   0  0  0  0  0  0  0  0  0  0  0  0
    4.7710   -4.6952   28.4803 C   0  0  0  0  0  0  0  0  0  0  0  0
    3.4047   -5.1087   28.1314 C   0  0  0  0  0  0  0  0  0  0  0  0
   -0.2234  -11.8615   16.8874 C   0  0  0  0  0  0  0  0  0  0  0  0
    6.4491   -4.1532   30.1213 C   0  0  0  0  0  0  0  0  0  0  0  0
    5.7060   -4.4340   27.4975 C   0  0  0  0  0  0  0  0  0  0  0  0
    1.1818   -5.6612   28.8399 C   0  0  0  0  0  0  0  0  0  0  0  0
   -1.2067   -7.3287   17.7772 C   0  0  0  0  0  0  0  0  0  0  0  0
   -0.0206  -10.5585   16.6210 C   0  0  0  0  0  0  0  0  0  0  0  0
    0.3696  -12.7626   16.2169 O   0  0  0  0  0  0  0  0  0  0  0  0
   -0.6895   -9.5676   17.3297 C   0  0  0  0  0  0  0  0  0  0  0  0
    0.8388   -5.8417   27.5264 C   0  0  0  0  0  0  0  0  0  0  0  0
   -2.0709   -7.6637   18.7817 C   0  0  0  0  0  0  0  0  0  0  0  0
   -0.5279   -8.2168   17.0717 C   0  0  0  0  0  0  0  0  0  0  0  0
    6.9694   -4.0191   27.8190 C   0  0  0  0  0  0  0  0  0  0  0  0
    5.1733   -4.5469   29.8123 C   0  0  0  0  0  0  0  0  0  0  0  0
   -1.7508  -11.3016   18.6072 C   0  0  0  0  0  0  0  0  0  0  0  0
    1.7497   -5.6771   26.4971 C   0  0  0  0  0  0  0  0  0  0  0  0
   -1.5799   -9.9322   18.3468 C   0  0  0  0  0  0  0  0  0  0  0  0
   -1.0871  -12.2214   17.8851 C   0  0  0  0  0  0  0  0  0  0  0  0
   -2.2706   -8.9669   19.0691 C   0  0  0  0  0  0  0  0  0  0  0  0
    3.0279   -5.3073   26.8197 C   0  0  0  0  0  0  0  0  0  0  0  0
    7.3282   -3.8948   29.1186 C   0  0  0  0  0  0  0  0  0  0  0  0
  1  3  4  0
  1  7  4  0
  2  3  1  0
  2  6  4  0
  2 16  4  0
  3 22  4  0
  4  9  4  0
  4 10  1  0
  4 20  4  0
  5 16  4  0
  5 23  4  0
  6 15  4  0
  7 12  4  0
  8 13  4  0
  8 14  4  0
  9 11  4  0
 11 14  4  0
 11 19  4  0
 12 18  4  0
 13 21  4  0
 15 23  4  0
 17 19  4  0
 17 20  4  0
 18 22  4  0
 19 21  4  0
M  END
$$$$

 Created by Python create_sdf_string function

 23 25  0  0  0  0  0  0  0  0999 V2000
    2.4610   -5.3070   29.1240 C   0  0  0  0  0  0  0  0  0  0  0  0
    4.7710   -4.6952   28.4803 C   0  0  0  0  0  0  0  0  0  0  0  0
    3.4047   -5.1087   28.1314 C   0  0  0  0  0  0  0  0  0  0  0  0
   -0.2234  -11.8615   16.8874 C   0  0  0  0  0  0  0  0  0  0  0  0
    6.4491   -4.1532   30.1213 C   0  0  0  0  0  0  0  0  0  0  0  0
    5.7060   -4.4340   27.4975 C   0  0  0  0  0  0  0  0  0  0  0  0
    1.1818   -5.6612   28.8399 C   0  0  0  0  0  0  0  0  0  0  0  0
   -1.2067   -7.3287   17.7772 C   0  0  0  0  0  0  0  0  0  0  0  0
   -0.0206  -10.5585   16.6210 C   0  0  0  0  0  0  0  0  0  0  0  0
    0.3696  -12.7626   16.2169 O   0  0  0  0  0  0  0  0  0  0  0  0
   -0.6895   -9.5676   17.3297 C   0  0  0  0  0  0  0  0  0  0  0  0
    0.8388   -5.8417   27.5264 C   0  0  0  0  0  0  0  0  0  0  0  0
   -2.0709   -7.6637   18.7817 C   0  0  0  0  0  0  0  0  0  0  0  0
   -0.5279   -8.2168   17.0717 C   0  0  0  0  0  0  0  0  0  0  0  0
    6.9694   -4.0191   27.8190 C   0  0  0  0  0  0  0  0  0  0  0  0
    5.1733   -4.5469   29.8123 C   0  0  0  0  0  0  0  0  0  0  0  0
   -1.7508  -11.3016   18.6072 C   0  0  0  0  0  0  0  0  0  0  0  0
    1.7497   -5.6771   26.4971 C   0  0  0  0  0  0  0  0  0  0  0  0
   -1.5799   -9.9322   18.3468 C   0  0  0  0  0  0  0  0  0  0  0  0
   -1.0871  -12.2214   17.8851 C   0  0  0  0  0  0  0  0  0  0  0  0
   -2.2706   -8.9669   19.0691 C   0  0  0  0  0  0  0  0  0  0  0  0
    3.0279   -5.3073   26.8197 C   0  0  0  0  0  0  0  0  0  0  0  0
    7.3282   -3.8948   29.1186 C   0  0  0  0  0  0  0  0  0  0  0  0
  1  3  4  0
  1  7  4  0
  2  3  1  0
  2  6  4  0
  2 16  4  0
  3 22  4  0
  4  9  4  0
  4 10  1  0
  4 20  4  0
  5 16  4  0
  5 23  4  0
  6 15  4  0
  7 12  4  0
  8 13  4  0
  8 14  4  0
  9 11  4  0
 11 14  4  0
 11 19  4  0
 12 18  4  0
 13 21  4  0
 15 23  4  0
 17 19  4  0
 17 20  4  0
 18 22  4  0
 19 21  4  0
M  END
$$$$

 Created by Python create_sdf_string function

 23 25  0  0  0  0  0  0  0  0999 V2000
    2.4610   -5.3070   29.1240 C   0  0  0  0  0  0  0  0  0  0  0  0
    4.7710   -4.6952   28.4803 C   0  0  0  0  0  0  0  0  0  0  0  0
    3.4047   -5.1087   28.1314 C   0  0  0  0  0  0  0  0  0  0  0  0
   -0.2234  -11.8615   16.8874 C   0  0  0  0  0  0  0  0  0  0  0  0
    6.4491   -4.1532   30.1213 C   0  0  0  0  0  0  0  0  0  0  0  0
    5.7060   -4.4340   27.4975 C   0  0  0  0  0  0  0  0  0  0  0  0
    1.1818   -5.6612   28.8399 C   0  0  0  0  0  0  0  0  0  0  0  0
   -1.2067   -7.3287   17.7772 C   0  0  0  0  0  0  0  0  0  0  0  0
   -0.0206  -10.5585   16.6210 C   0  0  0  0  0  0  0  0  0  0  0  0
    0.3696  -12.7626   16.2169 O   0  0  0  0  0  0  0  0  0  0  0  0
   -0.6895   -9.5676   17.3297 C   0  0  0  0  0  0  0  0  0  0  0  0
    0.8388   -5.8417   27.5264 C   0  0  0  0  0  0  0  0  0  0  0  0
   -2.0709   -7.6637   18.7817 C   0  0  0  0  0  0  0  0  0  0  0  0
   -0.5279   -8.2168   17.0717 C   0  0  0  0  0  0  0  0  0  0  0  0
    6.9694   -4.0191   27.8190 C   0  0  0  0  0  0  0  0  0  0  0  0
    5.1733   -4.5469   29.8123 C   0  0  0  0  0  0  0  0  0  0  0  0
   -1.7508  -11.3016   18.6072 C   0  0  0  0  0  0  0  0  0  0  0  0
    1.7497   -5.6771   26.4971 C   0  0  0  0  0  0  0  0  0  0  0  0
   -1.5799   -9.9322   18.3468 C   0  0  0  0  0  0  0  0  0  0  0  0
   -1.0871  -12.2214   17.8851 C   0  0  0  0  0  0  0  0  0  0  0  0
   -2.2706   -8.9669   19.0691 C   0  0  0  0  0  0  0  0  0  0  0  0
    3.0279   -5.3073   26.8197 C   0  0  0  0  0  0  0  0  0  0  0  0
    7.3282   -3.8948   29.1186 C   0  0  0  0  0  0  0  0  0  0  0  0
  1  3  4  0
  1  7  4  0
  2  3  1  0
  2  6  4  0
  2 16  4  0
  3 22  4  0
  4  9  4  0
  4 10  1  0
  4 20  4  0
  5 16  4  0
  5 23  4  0
  6 15  4  0
  7 12  4  0
  8 13  4  0
  8 14  4  0
  9 11  4  0
 11 14  4  0
 11 19  4  0
 12 18  4  0
 13 21  4  0
 15 23  4  0
 17 19  4  0
 17 20  4  0
 18 22  4  0
 19 21  4  0
M  END
$$$$

 Created by Python create_sdf_string function

 23 25  0  0  0  0  0  0  0  0999 V2000
    2.4610   -5.3070   29.1240 C   0  0  0  0  0  0  0  0  0  0  0  0
    4.7710   -4.6952   28.4803 C   0  0  0  0  0  0  0  0  0  0  0  0
    3.4047   -5.1087   28.1314 C   0  0  0  0  0  0  0  0  0  0  0  0
   -0.2234  -11.8615   16.8874 C   0  0  0  0  0  0  0  0  0  0  0  0
    6.4491   -4.1532   30.1213 C   0  0  0  0  0  0  0  0  0  0  0  0
    5.7060   -4.4340   27.4975 C   0  0  0  0  0  0  0  0  0  0  0  0
    1.1818   -5.6612   28.8399 C   0  0  0  0  0  0  0  0  0  0  0  0
   -1.2067   -7.3287   17.7772 C   0  0  0  0  0  0  0  0  0  0  0  0
   -0.0206  -10.5585   16.6210 C   0  0  0  0  0  0  0  0  0  0  0  0
    0.3696  -12.7626   16.2169 O   0  0  0  0  0  0  0  0  0  0  0  0
   -0.6895   -9.5676   17.3297 C   0  0  0  0  0  0  0  0  0  0  0  0
    0.8388   -5.8417   27.5264 C   0  0  0  0  0  0  0  0  0  0  0  0
   -2.0709   -7.6637   18.7817 C   0  0  0  0  0  0  0  0  0  0  0  0
   -0.5279   -8.2168   17.0717 C   0  0  0  0  0  0  0  0  0  0  0  0
    6.9694   -4.0191   27.8190 C   0  0  0  0  0  0  0  0  0  0  0  0
    5.1733   -4.5469   29.8123 C   0  0  0  0  0  0  0  0  0  0  0  0
   -1.7508  -11.3016   18.6072 C   0  0  0  0  0  0  0  0  0  0  0  0
    1.7497   -5.6771   26.4971 C   0  0  0  0  0  0  0  0  0  0  0  0
   -1.5799   -9.9322   18.3468 C   0  0  0  0  0  0  0  0  0  0  0  0
   -1.0871  -12.2214   17.8851 C   0  0  0  0  0  0  0  0  0  0  0  0
   -2.2706   -8.9669   19.0691 C   0  0  0  0  0  0  0  0  0  0  0  0
    3.0279   -5.3073   26.8197 C   0  0  0  0  0  0  0  0  0  0  0  0
    7.3282   -3.8948   29.1186 C   0  0  0  0  0  0  0  0  0  0  0  0
  1  3  4  0
  1  7  4  0
  2  3  1  0
  2  6  4  0
  2 16  4  0
  3 22  4  0
  4  9  4  0
  4 10  1  0
  4 20  4  0
  5 16  4  0
  5 23  4  0
  6 15  4  0
  7 12  4  0
  8 13  4  0
  8 14  4  0
  9 11  4  0
 11 14  4  0
 11 19  4  0
 12 18  4  0
 13 21  4  0
 15 23  4  0
 17 19  4  0
 17 20  4  0
 18 22  4  0
 19 21  4  0
M  END
$$$$

 Created by Python create_sdf_string function

 23 25  0  0  0  0  0  0  0  0999 V2000
    2.4610   -5.3070   29.1240 C   0  0  0  0  0  0  0  0  0  0  0  0
    4.7710   -4.6952   28.4803 C   0  0  0  0  0  0  0  0  0  0  0  0
    3.4047   -5.1087   28.1314 C   0  0  0  0  0  0  0  0  0  0  0  0
   -0.2234  -11.8615   16.8874 C   0  0  0  0  0  0  0  0  0  0  0  0
    6.4491   -4.1532   30.1213 C   0  0  0  0  0  0  0  0  0  0  0  0
    5.7060   -4.4340   27.4975 C   0  0  0  0  0  0  0  0  0  0  0  0
    1.1818   -5.6612   28.8399 C   0  0  0  0  0  0  0  0  0  0  0  0
   -1.2067   -7.3287   17.7772 C   0  0  0  0  0  0  0  0  0  0  0  0
   -0.0206  -10.5585   16.6210 C   0  0  0  0  0  0  0  0  0  0  0  0
    0.3696  -12.7626   16.2169 O   0  0  0  0  0  0  0  0  0  0  0  0
   -0.6895   -9.5676   17.3297 C   0  0  0  0  0  0  0  0  0  0  0  0
    0.8388   -5.8417   27.5264 C   0  0  0  0  0  0  0  0  0  0  0  0
   -2.0709   -7.6637   18.7817 C   0  0  0  0  0  0  0  0  0  0  0  0
   -0.5279   -8.2168   17.0717 C   0  0  0  0  0  0  0  0  0  0  0  0
    6.9694   -4.0191   27.8190 C   0  0  0  0  0  0  0  0  0  0  0  0
    5.1733   -4.5469   29.8123 C   0  0  0  0  0  0  0  0  0  0  0  0
   -1.7508  -11.3016   18.6072 C   0  0  0  0  0  0  0  0  0  0  0  0
    1.7497   -5.6771   26.4971 C   0  0  0  0  0  0  0  0  0  0  0  0
   -1.5799   -9.9322   18.3468 C   0  0  0  0  0  0  0  0  0  0  0  0
   -1.0871  -12.2214   17.8851 C   0  0  0  0  0  0  0  0  0  0  0  0
   -2.2706   -8.9669   19.0691 C   0  0  0  0  0  0  0  0  0  0  0  0
    3.0279   -5.3073   26.8197 C   0  0  0  0  0  0  0  0  0  0  0  0
    7.3282   -3.8948   29.1186 C   0  0  0  0  0  0  0  0  0  0  0  0
  1  3  4  0
  1  7  4  0
  2  3  1  0
  2  6  4  0
  2 16  4  0
  3 22  4  0
  4  9  4  0
  4 10  1  0
  4 20  4  0
  5 16  4  0
  5 23  4  0
  6 15  4  0
  7 12  4  0
  8 13  4  0
  8 14  4  0
  9 11  4  0
 11 14  4  0
 11 19  4  0
 12 18  4  0
 13 21  4  0
 15 23  4  0
 17 19  4  0
 17 20  4  0
 18 22  4  0
 19 21  4  0
M  END
$$$$

 Created by Python create_sdf_string function

 23 25  0  0  0  0  0  0  0  0999 V2000
    2.4610   -5.3070   29.1240 C   0  0  0  0  0  0  0  0  0  0  0  0
    4.7710   -4.6952   28.4803 C   0  0  0  0  0  0  0  0  0  0  0  0
    3.4047   -5.1087   28.1314 C   0  0  0  0  0  0  0  0  0  0  0  0
   -0.2234  -11.8615   16.8874 C   0  0  0  0  0  0  0  0  0  0  0  0
    6.4491   -4.1532   30.1213 C   0  0  0  0  0  0  0  0  0  0  0  0
    5.7060   -4.4340   27.4975 C   0  0  0  0  0  0  0  0  0  0  0  0
    1.1818   -5.6612   28.8399 C   0  0  0  0  0  0  0  0  0  0  0  0
   -1.2067   -7.3287   17.7772 C   0  0  0  0  0  0  0  0  0  0  0  0
   -0.0206  -10.5585   16.6210 C   0  0  0  0  0  0  0  0  0  0  0  0
    0.3696  -12.7626   16.2169 O   0  0  0  0  0  0  0  0  0  0  0  0
   -0.6895   -9.5676   17.3297 C   0  0  0  0  0  0  0  0  0  0  0  0
    0.8388   -5.8417   27.5264 C   0  0  0  0  0  0  0  0  0  0  0  0
   -2.0709   -7.6637   18.7817 C   0  0  0  0  0  0  0  0  0  0  0  0
   -0.5279   -8.2168   17.0717 C   0  0  0  0  0  0  0  0  0  0  0  0
    6.9694   -4.0191   27.8190 C   0  0  0  0  0  0  0  0  0  0  0  0
    5.1733   -4.5469   29.8123 C   0  0  0  0  0  0  0  0  0  0  0  0
   -1.7508  -11.3016   18.6072 C   0  0  0  0  0  0  0  0  0  0  0  0
    1.7497   -5.6771   26.4971 C   0  0  0  0  0  0  0  0  0  0  0  0
   -1.5799   -9.9322   18.3468 C   0  0  0  0  0  0  0  0  0  0  0  0
   -1.0871  -12.2214   17.8851 C   0  0  0  0  0  0  0  0  0  0  0  0
   -2.2706   -8.9669   19.0691 C   0  0  0  0  0  0  0  0  0  0  0  0
    3.0279   -5.3073   26.8197 C   0  0  0  0  0  0  0  0  0  0  0  0
    7.3282   -3.8948   29.1186 C   0  0  0  0  0  0  0  0  0  0  0  0
  1  3  4  0
  1  7  4  0
  2  3  1  0
  2  6  4  0
  2 16  4  0
  3 22  4  0
  4  9  4  0
  4 10  1  0
  4 20  4  0
  5 16  4  0
  5 23  4  0
  6 15  4  0
  7 12  4  0
  8 13  4  0
  8 14  4  0
  9 11  4  0
 11 14  4  0
 11 19  4  0
 12 18  4  0
 13 21  4  0
 15 23  4  0
 17 19  4  0
 17 20  4  0
 18 22  4  0
 19 21  4  0
M  END
$$$$

 Created by Python create_sdf_string function

 23 25  0  0  0  0  0  0  0  0999 V2000
    2.4610   -5.3070   29.1240 C   0  0  0  0  0  0  0  0  0  0  0  0
    4.7710   -4.6952   28.4803 C   0  0  0  0  0  0  0  0  0  0  0  0
    3.4047   -5.1087   28.1314 C   0  0  0  0  0  0  0  0  0  0  0  0
   -0.2234  -11.8615   16.8874 C   0  0  0  0  0  0  0  0  0  0  0  0
    6.4491   -4.1532   30.1213 C   0  0  0  0  0  0  0  0  0  0  0  0
    5.7060   -4.4340   27.4975 C   0  0  0  0  0  0  0  0  0  0  0  0
    1.1818   -5.6612   28.8399 C   0  0  0  0  0  0  0  0  0  0  0  0
   -1.2067   -7.3287   17.7772 C   0  0  0  0  0  0  0  0  0  0  0  0
   -0.0206  -10.5585   16.6210 C   0  0  0  0  0  0  0  0  0  0  0  0
    0.3696  -12.7626   16.2169 O   0  0  0  0  0  0  0  0  0  0  0  0
   -0.6895   -9.5676   17.3297 C   0  0  0  0  0  0  0  0  0  0  0  0
    0.8388   -5.8417   27.5264 C   0  0  0  0  0  0  0  0  0  0  0  0
   -2.0709   -7.6637   18.7817 C   0  0  0  0  0  0  0  0  0  0  0  0
   -0.5279   -8.2168   17.0717 C   0  0  0  0  0  0  0  0  0  0  0  0
    6.9694   -4.0191   27.8190 C   0  0  0  0  0  0  0  0  0  0  0  0
    5.1733   -4.5469   29.8123 C   0  0  0  0  0  0  0  0  0  0  0  0
   -1.7508  -11.3016   18.6072 C   0  0  0  0  0  0  0  0  0  0  0  0
    1.7497   -5.6771   26.4971 C   0  0  0  0  0  0  0  0  0  0  0  0
   -1.5799   -9.9322   18.3468 C   0  0  0  0  0  0  0  0  0  0  0  0
   -1.0871  -12.2214   17.8851 C   0  0  0  0  0  0  0  0  0  0  0  0
   -2.2706   -8.9669   19.0691 C   0  0  0  0  0  0  0  0  0  0  0  0
    3.0279   -5.3073   26.8197 C   0  0  0  0  0  0  0  0  0  0  0  0
    7.3282   -3.8948   29.1186 C   0  0  0  0  0  0  0  0  0  0  0  0
  1  3  4  0
  1  7  4  0
  2  3  1  0
  2  6  4  0
  2 16  4  0
  3 22  4  0
  4  9  4  0
  4 10  1  0
  4 20  4  0
  5 16  4  0
  5 23  4  0
  6 15  4  0
  7 12  4  0
  8 13  4  0
  8 14  4  0
  9 11  4  0
 11 14  4  0
 11 19  4  0
 12 18  4  0
 13 21  4  0
 15 23  4  0
 17 19  4  0
 17 20  4  0
 18 22  4  0
 19 21  4  0
M  END
$$$$

 Created by Python create_sdf_string function

 23 25  0  0  0  0  0  0  0  0999 V2000
    2.4610   -5.3070   29.1240 C   0  0  0  0  0  0  0  0  0  0  0  0
    4.7710   -4.6952   28.4803 C   0  0  0  0  0  0  0  0  0  0  0  0
    3.4047   -5.1087   28.1314 C   0  0  0  0  0  0  0  0  0  0  0  0
   -0.2234  -11.8615   16.8874 C   0  0  0  0  0  0  0  0  0  0  0  0
    6.4491   -4.1532   30.1213 C   0  0  0  0  0  0  0  0  0  0  0  0
    5.7060   -4.4340   27.4975 C   0  0  0  0  0  0  0  0  0  0  0  0
    1.1818   -5.6612   28.8399 C   0  0  0  0  0  0  0  0  0  0  0  0
   -1.2067   -7.3287   17.7772 C   0  0  0  0  0  0  0  0  0  0  0  0
   -0.0206  -10.5585   16.6210 C   0  0  0  0  0  0  0  0  0  0  0  0
    0.3696  -12.7626   16.2169 O   0  0  0  0  0  0  0  0  0  0  0  0
   -0.6895   -9.5676   17.3297 C   0  0  0  0  0  0  0  0  0  0  0  0
    0.8388   -5.8417   27.5264 C   0  0  0  0  0  0  0  0  0  0  0  0
   -2.0709   -7.6637   18.7817 C   0  0  0  0  0  0  0  0  0  0  0  0
   -0.5279   -8.2168   17.0717 C   0  0  0  0  0  0  0  0  0  0  0  0
    6.9694   -4.0191   27.8190 C   0  0  0  0  0  0  0  0  0  0  0  0
    5.1733   -4.5469   29.8123 C   0  0  0  0  0  0  0  0  0  0  0  0
   -1.7508  -11.3016   18.6072 C   0  0  0  0  0  0  0  0  0  0  0  0
    1.7497   -5.6771   26.4971 C   0  0  0  0  0  0  0  0  0  0  0  0
   -1.5799   -9.9322   18.3468 C   0  0  0  0  0  0  0  0  0  0  0  0
   -1.0871  -12.2214   17.8851 C   0  0  0  0  0  0  0  0  0  0  0  0
   -2.2706   -8.9669   19.0691 C   0  0  0  0  0  0  0  0  0  0  0  0
    3.0279   -5.3073   26.8197 C   0  0  0  0  0  0  0  0  0  0  0  0
    7.3282   -3.8948   29.1186 C   0  0  0  0  0  0  0  0  0  0  0  0
  1  3  4  0
  1  7  4  0
  2  3  1  0
  2  6  4  0
  2 16  4  0
  3 22  4  0
  4  9  4  0
  4 10  1  0
  4 20  4  0
  5 16  4  0
  5 23  4  0
  6 15  4  0
  7 12  4  0
  8 13  4  0
  8 14  4  0
  9 11  4  0
 11 14  4  0
 11 19  4  0
 12 18  4  0
 13 21  4  0
 15 23  4  0
 17 19  4  0
 17 20  4  0
 18 22  4  0
 19 21  4  0
M  END
$$$$

 Created by Python create_sdf_string function

 23 25  0  0  0  0  0  0  0  0999 V2000
    2.4610   -5.3070   29.1240 C   0  0  0  0  0  0  0  0  0  0  0  0
    4.7710   -4.6952   28.4803 C   0  0  0  0  0  0  0  0  0  0  0  0
    3.4047   -5.1087   28.1314 C   0  0  0  0  0  0  0  0  0  0  0  0
   -0.2234  -11.8615   16.8874 C   0  0  0  0  0  0  0  0  0  0  0  0
    6.4491   -4.1532   30.1213 C   0  0  0  0  0  0  0  0  0  0  0  0
    5.7060   -4.4340   27.4975 C   0  0  0  0  0  0  0  0  0  0  0  0
    1.1818   -5.6612   28.8399 C   0  0  0  0  0  0  0  0  0  0  0  0
   -1.2067   -7.3287   17.7772 C   0  0  0  0  0  0  0  0  0  0  0  0
   -0.0206  -10.5585   16.6210 C   0  0  0  0  0  0  0  0  0  0  0  0
    0.3696  -12.7626   16.2169 O   0  0  0  0  0  0  0  0  0  0  0  0
   -0.6895   -9.5676   17.3297 C   0  0  0  0  0  0  0  0  0  0  0  0
    0.8388   -5.8417   27.5264 C   0  0  0  0  0  0  0  0  0  0  0  0
   -2.0709   -7.6637   18.7817 C   0  0  0  0  0  0  0  0  0  0  0  0
   -0.5279   -8.2168   17.0717 C   0  0  0  0  0  0  0  0  0  0  0  0
    6.9694   -4.0191   27.8190 C   0  0  0  0  0  0  0  0  0  0  0  0
    5.1733   -4.5469   29.8123 C   0  0  0  0  0  0  0  0  0  0  0  0
   -1.7508  -11.3016   18.6072 C   0  0  0  0  0  0  0  0  0  0  0  0
    1.7497   -5.6771   26.4971 C   0  0  0  0  0  0  0  0  0  0  0  0
   -1.5799   -9.9322   18.3468 C   0  0  0  0  0  0  0  0  0  0  0  0
   -1.0871  -12.2214   17.8851 C   0  0  0  0  0  0  0  0  0  0  0  0
   -2.2706   -8.9669   19.0691 C   0  0  0  0  0  0  0  0  0  0  0  0
    3.0279   -5.3073   26.8197 C   0  0  0  0  0  0  0  0  0  0  0  0
    7.3282   -3.8948   29.1186 C   0  0  0  0  0  0  0  0  0  0  0  0
  1  3  4  0
  1  7  4  0
  2  3  1  0
  2  6  4  0
  2 16  4  0
  3 22  4  0
  4  9  4  0
  4 10  1  0
  4 20  4  0
  5 16  4  0
  5 23  4  0
  6 15  4  0
  7 12  4  0
  8 13  4  0
  8 14  4  0
  9 11  4  0
 11 14  4  0
 11 19  4  0
 12 18  4  0
 13 21  4  0
 15 23  4  0
 17 19  4  0
 17 20  4  0
 18 22  4  0
 19 21  4  0
M  END
$$$$

 Created by Python create_sdf_string function

 23 25  0  0  0  0  0  0  0  0999 V2000
    2.4610   -5.3070   29.1240 C   0  0  0  0  0  0  0  0  0  0  0  0
    4.7710   -4.6952   28.4803 C   0  0  0  0  0  0  0  0  0  0  0  0
    3.4047   -5.1087   28.1314 C   0  0  0  0  0  0  0  0  0  0  0  0
   -0.2234  -11.8615   16.8874 C   0  0  0  0  0  0  0  0  0  0  0  0
    6.4491   -4.1532   30.1213 C   0  0  0  0  0  0  0  0  0  0  0  0
    5.7060   -4.4340   27.4975 C   0  0  0  0  0  0  0  0  0  0  0  0
    1.1818   -5.6612   28.8399 C   0  0  0  0  0  0  0  0  0  0  0  0
   -1.2067   -7.3287   17.7772 C   0  0  0  0  0  0  0  0  0  0  0  0
   -0.0206  -10.5585   16.6210 C   0  0  0  0  0  0  0  0  0  0  0  0
    0.3696  -12.7626   16.2169 O   0  0  0  0  0  0  0  0  0  0  0  0
   -0.6895   -9.5676   17.3297 C   0  0  0  0  0  0  0  0  0  0  0  0
    0.8388   -5.8417   27.5264 C   0  0  0  0  0  0  0  0  0  0  0  0
   -2.0709   -7.6637   18.7817 C   0  0  0  0  0  0  0  0  0  0  0  0
   -0.5279   -8.2168   17.0717 C   0  0  0  0  0  0  0  0  0  0  0  0
    6.9694   -4.0191   27.8190 C   0  0  0  0  0  0  0  0  0  0  0  0
    5.1733   -4.5469   29.8123 C   0  0  0  0  0  0  0  0  0  0  0  0
   -1.7508  -11.3016   18.6072 C   0  0  0  0  0  0  0  0  0  0  0  0
    1.7497   -5.6771   26.4971 C   0  0  0  0  0  0  0  0  0  0  0  0
   -1.5799   -9.9322   18.3468 C   0  0  0  0  0  0  0  0  0  0  0  0
   -1.0871  -12.2214   17.8851 C   0  0  0  0  0  0  0  0  0  0  0  0
   -2.2706   -8.9669   19.0691 C   0  0  0  0  0  0  0  0  0  0  0  0
    3.0279   -5.3073   26.8197 C   0  0  0  0  0  0  0  0  0  0  0  0
    7.3282   -3.8948   29.1186 C   0  0  0  0  0  0  0  0  0  0  0  0
  1  3  4  0
  1  7  4  0
  2  3  1  0
  2  6  4  0
  2 16  4  0
  3 22  4  0
  4  9  4  0
  4 10  1  0
  4 20  4  0
  5 16  4  0
  5 23  4  0
  6 15  4  0
  7 12  4  0
  8 13  4  0
  8 14  4  0
  9 11  4  0
 11 14  4  0
 11 19  4  0
 12 18  4  0
 13 21  4  0
 15 23  4  0
 17 19  4  0
 17 20  4  0
 18 22  4  0
 19 21  4  0
M  END
$$$$

 Created by Python create_sdf_string function

 23 25  0  0  0  0  0  0  0  0999 V2000
    2.4610   -5.3070   29.1240 C   0  0  0  0  0  0  0  0  0  0  0  0
    4.7710   -4.6952   28.4803 C   0  0  0  0  0  0  0  0  0  0  0  0
    3.4047   -5.1087   28.1314 C   0  0  0  0  0  0  0  0  0  0  0  0
   -0.2234  -11.8615   16.8874 C   0  0  0  0  0  0  0  0  0  0  0  0
    6.4491   -4.1532   30.1213 C   0  0  0  0  0  0  0  0  0  0  0  0
    5.7060   -4.4340   27.4975 C   0  0  0  0  0  0  0  0  0  0  0  0
    1.1818   -5.6612   28.8399 C   0  0  0  0  0  0  0  0  0  0  0  0
   -1.2067   -7.3287   17.7772 C   0  0  0  0  0  0  0  0  0  0  0  0
   -0.0206  -10.5585   16.6210 C   0  0  0  0  0  0  0  0  0  0  0  0
    0.3696  -12.7626   16.2169 O   0  0  0  0  0  0  0  0  0  0  0  0
   -0.6895   -9.5676   17.3297 C   0  0  0  0  0  0  0  0  0  0  0  0
    0.8388   -5.8417   27.5264 C   0  0  0  0  0  0  0  0  0  0  0  0
   -2.0709   -7.6637   18.7817 C   0  0  0  0  0  0  0  0  0  0  0  0
   -0.5279   -8.2168   17.0717 C   0  0  0  0  0  0  0  0  0  0  0  0
    6.9694   -4.0191   27.8190 C   0  0  0  0  0  0  0  0  0  0  0  0
    5.1733   -4.5469   29.8123 C   0  0  0  0  0  0  0  0  0  0  0  0
   -1.7508  -11.3016   18.6072 C   0  0  0  0  0  0  0  0  0  0  0  0
    1.7497   -5.6771   26.4971 C   0  0  0  0  0  0  0  0  0  0  0  0
   -1.5799   -9.9322   18.3468 C   0  0  0  0  0  0  0  0  0  0  0  0
   -1.0871  -12.2214   17.8851 C   0  0  0  0  0  0  0  0  0  0  0  0
   -2.2706   -8.9669   19.0691 C   0  0  0  0  0  0  0  0  0  0  0  0
    3.0279   -5.3073   26.8197 C   0  0  0  0  0  0  0  0  0  0  0  0
    7.3282   -3.8948   29.1186 C   0  0  0  0  0  0  0  0  0  0  0  0
  1  3  4  0
  1  7  4  0
  2  3  1  0
  2  6  4  0
  2 16  4  0
  3 22  4  0
  4  9  4  0
  4 10  1  0
  4 20  4  0
  5 16  4  0
  5 23  4  0
  6 15  4  0
  7 12  4  0
  8 13  4  0
  8 14  4  0
  9 11  4  0
 11 14  4  0
 11 19  4  0
 12 18  4  0
 13 21  4  0
 15 23  4  0
 17 19  4  0
 17 20  4  0
 18 22  4  0
 19 21  4  0
M  END
$$$$

 Created by Python create_sdf_string function

 23 25  0  0  0  0  0  0  0  0999 V2000
    2.4610   -5.3070   29.1240 C   0  0  0  0  0  0  0  0  0  0  0  0
    4.7710   -4.6952   28.4803 C   0  0  0  0  0  0  0  0  0  0  0  0
    3.4047   -5.1087   28.1314 C   0  0  0  0  0  0  0  0  0  0  0  0
   -0.2234  -11.8615   16.8874 C   0  0  0  0  0  0  0  0  0  0  0  0
    6.4491   -4.1532   30.1213 C   0  0  0  0  0  0  0  0  0  0  0  0
    5.7060   -4.4340   27.4975 C   0  0  0  0  0  0  0  0  0  0  0  0
    1.1818   -5.6612   28.8399 C   0  0  0  0  0  0  0  0  0  0  0  0
   -1.2067   -7.3287   17.7772 C   0  0  0  0  0  0  0  0  0  0  0  0
   -0.0206  -10.5585   16.6210 C   0  0  0  0  0  0  0  0  0  0  0  0
    0.3696  -12.7626   16.2169 O   0  0  0  0  0  0  0  0  0  0  0  0
   -0.6895   -9.5676   17.3297 C   0  0  0  0  0  0  0  0  0  0  0  0
    0.8388   -5.8417   27.5264 C   0  0  0  0  0  0  0  0  0  0  0  0
   -2.0709   -7.6637   18.7817 C   0  0  0  0  0  0  0  0  0  0  0  0
   -0.5279   -8.2168   17.0717 C   0  0  0  0  0  0  0  0  0  0  0  0
    6.9694   -4.0191   27.8190 C   0  0  0  0  0  0  0  0  0  0  0  0
    5.1733   -4.5469   29.8123 C   0  0  0  0  0  0  0  0  0  0  0  0
   -1.7508  -11.3016   18.6072 C   0  0  0  0  0  0  0  0  0  0  0  0
    1.7497   -5.6771   26.4971 C   0  0  0  0  0  0  0  0  0  0  0  0
   -1.5799   -9.9322   18.3468 C   0  0  0  0  0  0  0  0  0  0  0  0
   -1.0871  -12.2214   17.8851 C   0  0  0  0  0  0  0  0  0  0  0  0
   -2.2706   -8.9669   19.0691 C   0  0  0  0  0  0  0  0  0  0  0  0
    3.0279   -5.3073   26.8197 C   0  0  0  0  0  0  0  0  0  0  0  0
    7.3282   -3.8948   29.1186 C   0  0  0  0  0  0  0  0  0  0  0  0
  1  3  4  0
  1  7  4  0
  2  3  1  0
  2  6  4  0
  2 16  4  0
  3 22  4  0
  4  9  4  0
  4 10  1  0
  4 20  4  0
  5 16  4  0
  5 23  4  0
  6 15  4  0
  7 12  4  0
  8 13  4  0
  8 14  4  0
  9 11  4  0
 11 14  4  0
 11 19  4  0
 12 18  4  0
 13 21  4  0
 15 23  4  0
 17 19  4  0
 17 20  4  0
 18 22  4  0
 19 21  4  0
M  END
$$$$

 Created by Python create_sdf_string function

 23 25  0  0  0  0  0  0  0  0999 V2000
    2.4610   -5.3070   29.1240 C   0  0  0  0  0  0  0  0  0  0  0  0
    4.7710   -4.6952   28.4803 C   0  0  0  0  0  0  0  0  0  0  0  0
    3.4047   -5.1087   28.1314 C   0  0  0  0  0  0  0  0  0  0  0  0
   -0.2234  -11.8615   16.8874 C   0  0  0  0  0  0  0  0  0  0  0  0
    6.4491   -4.1532   30.1213 C   0  0  0  0  0  0  0  0  0  0  0  0
    5.7060   -4.4340   27.4975 C   0  0  0  0  0  0  0  0  0  0  0  0
    1.1818   -5.6612   28.8399 C   0  0  0  0  0  0  0  0  0  0  0  0
   -1.2067   -7.3287   17.7772 C   0  0  0  0  0  0  0  0  0  0  0  0
   -0.0206  -10.5585   16.6210 C   0  0  0  0  0  0  0  0  0  0  0  0
    0.3696  -12.7626   16.2169 O   0  0  0  0  0  0  0  0  0  0  0  0
   -0.6895   -9.5676   17.3297 C   0  0  0  0  0  0  0  0  0  0  0  0
    0.8388   -5.8417   27.5264 C   0  0  0  0  0  0  0  0  0  0  0  0
   -2.0709   -7.6637   18.7817 C   0  0  0  0  0  0  0  0  0  0  0  0
   -0.5279   -8.2168   17.0717 C   0  0  0  0  0  0  0  0  0  0  0  0
    6.9694   -4.0191   27.8190 C   0  0  0  0  0  0  0  0  0  0  0  0
    5.1733   -4.5469   29.8123 C   0  0  0  0  0  0  0  0  0  0  0  0
   -1.7508  -11.3016   18.6072 C   0  0  0  0  0  0  0  0  0  0  0  0
    1.7497   -5.6771   26.4971 C   0  0  0  0  0  0  0  0  0  0  0  0
   -1.5799   -9.9322   18.3468 C   0  0  0  0  0  0  0  0  0  0  0  0
   -1.0871  -12.2214   17.8851 C   0  0  0  0  0  0  0  0  0  0  0  0
   -2.2706   -8.9669   19.0691 C   0  0  0  0  0  0  0  0  0  0  0  0
    3.0279   -5.3073   26.8197 C   0  0  0  0  0  0  0  0  0  0  0  0
    7.3282   -3.8948   29.1186 C   0  0  0  0  0  0  0  0  0  0  0  0
  1  3  4  0
  1  7  4  0
  2  3  1  0
  2  6  4  0
  2 16  4  0
  3 22  4  0
  4  9  4  0
  4 10  1  0
  4 20  4  0
  5 16  4  0
  5 23  4  0
  6 15  4  0
  7 12  4  0
  8 13  4  0
  8 14  4  0
  9 11  4  0
 11 14  4  0
 11 19  4  0
 12 18  4  0
 13 21  4  0
 15 23  4  0
 17 19  4  0
 17 20  4  0
 18 22  4  0
 19 21  4  0
M  END
$$$$

 Created by Python create_sdf_string function

 23 25  0  0  0  0  0  0  0  0999 V2000
    2.4610   -5.3070   29.1240 C   0  0  0  0  0  0  0  0  0  0  0  0
    4.7710   -4.6952   28.4803 C   0  0  0  0  0  0  0  0  0  0  0  0
    3.4047   -5.1087   28.1314 C   0  0  0  0  0  0  0  0  0  0  0  0
   -0.2234  -11.8615   16.8874 C   0  0  0  0  0  0  0  0  0  0  0  0
    6.4491   -4.1532   30.1213 C   0  0  0  0  0  0  0  0  0  0  0  0
    5.7060   -4.4340   27.4975 C   0  0  0  0  0  0  0  0  0  0  0  0
    1.1818   -5.6612   28.8399 C   0  0  0  0  0  0  0  0  0  0  0  0
   -1.2067   -7.3287   17.7772 C   0  0  0  0  0  0  0  0  0  0  0  0
   -0.0206  -10.5585   16.6210 C   0  0  0  0  0  0  0  0  0  0  0  0
    0.3696  -12.7626   16.2169 O   0  0  0  0  0  0  0  0  0  0  0  0
   -0.6895   -9.5676   17.3297 C   0  0  0  0  0  0  0  0  0  0  0  0
    0.8388   -5.8417   27.5264 C   0  0  0  0  0  0  0  0  0  0  0  0
   -2.0709   -7.6637   18.7817 C   0  0  0  0  0  0  0  0  0  0  0  0
   -0.5279   -8.2168   17.0717 C   0  0  0  0  0  0  0  0  0  0  0  0
    6.9694   -4.0191   27.8190 C   0  0  0  0  0  0  0  0  0  0  0  0
    5.1733   -4.5469   29.8123 C   0  0  0  0  0  0  0  0  0  0  0  0
   -1.7508  -11.3016   18.6072 C   0  0  0  0  0  0  0  0  0  0  0  0
    1.7497   -5.6771   26.4971 C   0  0  0  0  0  0  0  0  0  0  0  0
   -1.5799   -9.9322   18.3468 C   0  0  0  0  0  0  0  0  0  0  0  0
   -1.0871  -12.2214   17.8851 C   0  0  0  0  0  0  0  0  0  0  0  0
   -2.2706   -8.9669   19.0691 C   0  0  0  0  0  0  0  0  0  0  0  0
    3.0279   -5.3073   26.8197 C   0  0  0  0  0  0  0  0  0  0  0  0
    7.3282   -3.8948   29.1186 C   0  0  0  0  0  0  0  0  0  0  0  0
  1  3  4  0
  1  7  4  0
  2  3  1  0
  2  6  4  0
  2 16  4  0
  3 22  4  0
  4  9  4  0
  4 10  1  0
  4 20  4  0
  5 16  4  0
  5 23  4  0
  6 15  4  0
  7 12  4  0
  8 13  4  0
  8 14  4  0
  9 11  4  0
 11 14  4  0
 11 19  4  0
 12 18  4  0
 13 21  4  0
 15 23  4  0
 17 19  4  0
 17 20  4  0
 18 22  4  0
 19 21  4  0
M  END
$$$$

 Created by Python create_sdf_string function

 23 25  0  0  0  0  0  0  0  0999 V2000
    2.4610   -5.3070   29.1240 C   0  0  0  0  0  0  0  0  0  0  0  0
    4.7710   -4.6952   28.4803 C   0  0  0  0  0  0  0  0  0  0  0  0
    3.4047   -5.1087   28.1314 C   0  0  0  0  0  0  0  0  0  0  0  0
   -0.2234  -11.8615   16.8874 C   0  0  0  0  0  0  0  0  0  0  0  0
    6.4491   -4.1532   30.1213 C   0  0  0  0  0  0  0  0  0  0  0  0
    5.7060   -4.4340   27.4975 C   0  0  0  0  0  0  0  0  0  0  0  0
    1.1818   -5.6612   28.8399 C   0  0  0  0  0  0  0  0  0  0  0  0
   -1.2067   -7.3287   17.7772 C   0  0  0  0  0  0  0  0  0  0  0  0
   -0.0206  -10.5585   16.6210 C   0  0  0  0  0  0  0  0  0  0  0  0
    0.3696  -12.7626   16.2169 O   0  0  0  0  0  0  0  0  0  0  0  0
   -0.6895   -9.5676   17.3297 C   0  0  0  0  0  0  0  0  0  0  0  0
    0.8388   -5.8417   27.5264 C   0  0  0  0  0  0  0  0  0  0  0  0
   -2.0709   -7.6637   18.7817 C   0  0  0  0  0  0  0  0  0  0  0  0
   -0.5279   -8.2168   17.0717 C   0  0  0  0  0  0  0  0  0  0  0  0
    6.9694   -4.0191   27.8190 C   0  0  0  0  0  0  0  0  0  0  0  0
    5.1733   -4.5469   29.8123 C   0  0  0  0  0  0  0  0  0  0  0  0
   -1.7508  -11.3016   18.6072 C   0  0  0  0  0  0  0  0  0  0  0  0
    1.7497   -5.6771   26.4971 C   0  0  0  0  0  0  0  0  0  0  0  0
   -1.5799   -9.9322   18.3468 C   0  0  0  0  0  0  0  0  0  0  0  0
   -1.0871  -12.2214   17.8851 C   0  0  0  0  0  0  0  0  0  0  0  0
   -2.2706   -8.9669   19.0691 C   0  0  0  0  0  0  0  0  0  0  0  0
    3.0279   -5.3073   26.8197 C   0  0  0  0  0  0  0  0  0  0  0  0
    7.3282   -3.8948   29.1186 C   0  0  0  0  0  0  0  0  0  0  0  0
  1  3  4  0
  1  7  4  0
  2  3  1  0
  2  6  4  0
  2 16  4  0
  3 22  4  0
  4  9  4  0
  4 10  1  0
  4 20  4  0
  5 16  4  0
  5 23  4  0
  6 15  4  0
  7 12  4  0
  8 13  4  0
  8 14  4  0
  9 11  4  0
 11 14  4  0
 11 19  4  0
 12 18  4  0
 13 21  4  0
 15 23  4  0
 17 19  4  0
 17 20  4  0
 18 22  4  0
 19 21  4  0
M  END
$$$$

 Created by Python create_sdf_string function

 23 25  0  0  0  0  0  0  0  0999 V2000
    2.4610   -5.3070   29.1240 C   0  0  0  0  0  0  0  0  0  0  0  0
    4.7710   -4.6952   28.4803 C   0  0  0  0  0  0  0  0  0  0  0  0
    3.4047   -5.1087   28.1314 C   0  0  0  0  0  0  0  0  0  0  0  0
   -0.2234  -11.8615   16.8874 C   0  0  0  0  0  0  0  0  0  0  0  0
    6.4491   -4.1532   30.1213 C   0  0  0  0  0  0  0  0  0  0  0  0
    5.7060   -4.4340   27.4975 C   0  0  0  0  0  0  0  0  0  0  0  0
    1.1818   -5.6612   28.8399 C   0  0  0  0  0  0  0  0  0  0  0  0
   -1.2067   -7.3287   17.7772 C   0  0  0  0  0  0  0  0  0  0  0  0
   -0.0206  -10.5585   16.6210 C   0  0  0  0  0  0  0  0  0  0  0  0
    0.3696  -12.7626   16.2169 O   0  0  0  0  0  0  0  0  0  0  0  0
   -0.6895   -9.5676   17.3297 C   0  0  0  0  0  0  0  0  0  0  0  0
    0.8388   -5.8417   27.5264 C   0  0  0  0  0  0  0  0  0  0  0  0
   -2.0709   -7.6637   18.7817 C   0  0  0  0  0  0  0  0  0  0  0  0
   -0.5279   -8.2168   17.0717 C   0  0  0  0  0  0  0  0  0  0  0  0
    6.9694   -4.0191   27.8190 C   0  0  0  0  0  0  0  0  0  0  0  0
    5.1733   -4.5469   29.8123 C   0  0  0  0  0  0  0  0  0  0  0  0
   -1.7508  -11.3016   18.6072 C   0  0  0  0  0  0  0  0  0  0  0  0
    1.7497   -5.6771   26.4971 C   0  0  0  0  0  0  0  0  0  0  0  0
   -1.5799   -9.9322   18.3468 C   0  0  0  0  0  0  0  0  0  0  0  0
   -1.0871  -12.2214   17.8851 C   0  0  0  0  0  0  0  0  0  0  0  0
   -2.2706   -8.9669   19.0691 C   0  0  0  0  0  0  0  0  0  0  0  0
    3.0279   -5.3073   26.8197 C   0  0  0  0  0  0  0  0  0  0  0  0
    7.3282   -3.8948   29.1186 C   0  0  0  0  0  0  0  0  0  0  0  0
  1  3  4  0
  1  7  4  0
  2  3  1  0
  2  6  4  0
  2 16  4  0
  3 22  4  0
  4  9  4  0
  4 10  1  0
  4 20  4  0
  5 16  4  0
  5 23  4  0
  6 15  4  0
  7 12  4  0
  8 13  4  0
  8 14  4  0
  9 11  4  0
 11 14  4  0
 11 19  4  0
 12 18  4  0
 13 21  4  0
 15 23  4  0
 17 19  4  0
 17 20  4  0
 18 22  4  0
 19 21  4  0
M  END
$$$$

 Created by Python create_sdf_string function

 23 25  0  0  0  0  0  0  0  0999 V2000
    2.4610   -5.3070   29.1240 C   0  0  0  0  0  0  0  0  0  0  0  0
    4.7710   -4.6952   28.4803 C   0  0  0  0  0  0  0  0  0  0  0  0
    3.4047   -5.1087   28.1314 C   0  0  0  0  0  0  0  0  0  0  0  0
   -0.2234  -11.8615   16.8874 C   0  0  0  0  0  0  0  0  0  0  0  0
    6.4491   -4.1532   30.1213 C   0  0  0  0  0  0  0  0  0  0  0  0
    5.7060   -4.4340   27.4975 C   0  0  0  0  0  0  0  0  0  0  0  0
    1.1818   -5.6612   28.8399 C   0  0  0  0  0  0  0  0  0  0  0  0
   -1.2067   -7.3287   17.7772 C   0  0  0  0  0  0  0  0  0  0  0  0
   -0.0206  -10.5585   16.6210 C   0  0  0  0  0  0  0  0  0  0  0  0
    0.3696  -12.7626   16.2169 O   0  0  0  0  0  0  0  0  0  0  0  0
   -0.6895   -9.5676   17.3297 C   0  0  0  0  0  0  0  0  0  0  0  0
    0.8388   -5.8417   27.5264 C   0  0  0  0  0  0  0  0  0  0  0  0
   -2.0709   -7.6637   18.7817 C   0  0  0  0  0  0  0  0  0  0  0  0
   -0.5279   -8.2168   17.0717 C   0  0  0  0  0  0  0  0  0  0  0  0
    6.9694   -4.0191   27.8190 C   0  0  0  0  0  0  0  0  0  0  0  0
    5.1733   -4.5469   29.8123 C   0  0  0  0  0  0  0  0  0  0  0  0
   -1.7508  -11.3016   18.6072 C   0  0  0  0  0  0  0  0  0  0  0  0
    1.7497   -5.6771   26.4971 C   0  0  0  0  0  0  0  0  0  0  0  0
   -1.5799   -9.9322   18.3468 C   0  0  0  0  0  0  0  0  0  0  0  0
   -1.0871  -12.2214   17.8851 C   0  0  0  0  0  0  0  0  0  0  0  0
   -2.2706   -8.9669   19.0691 C   0  0  0  0  0  0  0  0  0  0  0  0
    3.0279   -5.3073   26.8197 C   0  0  0  0  0  0  0  0  0  0  0  0
    7.3282   -3.8948   29.1186 C   0  0  0  0  0  0  0  0  0  0  0  0
  1  3  4  0
  1  7  4  0
  2  3  1  0
  2  6  4  0
  2 16  4  0
  3 22  4  0
  4  9  4  0
  4 10  1  0
  4 20  4  0
  5 16  4  0
  5 23  4  0
  6 15  4  0
  7 12  4  0
  8 13  4  0
  8 14  4  0
  9 11  4  0
 11 14  4  0
 11 19  4  0
 12 18  4  0
 13 21  4  0
 15 23  4  0
 17 19  4  0
 17 20  4  0
 18 22  4  0
 19 21  4  0
M  END
$$$$

 Created by Python create_sdf_string function

 23 25  0  0  0  0  0  0  0  0999 V2000
    2.4610   -5.3070   29.1240 C   0  0  0  0  0  0  0  0  0  0  0  0
    4.7710   -4.6952   28.4803 C   0  0  0  0  0  0  0  0  0  0  0  0
    3.4047   -5.1087   28.1314 C   0  0  0  0  0  0  0  0  0  0  0  0
   -0.2234  -11.8615   16.8874 C   0  0  0  0  0  0  0  0  0  0  0  0
    6.4491   -4.1532   30.1213 C   0  0  0  0  0  0  0  0  0  0  0  0
    5.7060   -4.4340   27.4975 C   0  0  0  0  0  0  0  0  0  0  0  0
    1.1818   -5.6612   28.8399 C   0  0  0  0  0  0  0  0  0  0  0  0
   -1.2067   -7.3287   17.7772 C   0  0  0  0  0  0  0  0  0  0  0  0
   -0.0206  -10.5585   16.6210 C   0  0  0  0  0  0  0  0  0  0  0  0
    0.3696  -12.7626   16.2169 O   0  0  0  0  0  0  0  0  0  0  0  0
   -0.6895   -9.5676   17.3297 C   0  0  0  0  0  0  0  0  0  0  0  0
    0.8388   -5.8417   27.5264 C   0  0  0  0  0  0  0  0  0  0  0  0
   -2.0709   -7.6637   18.7817 C   0  0  0  0  0  0  0  0  0  0  0  0
   -0.5279   -8.2168   17.0717 C   0  0  0  0  0  0  0  0  0  0  0  0
    6.9694   -4.0191   27.8190 C   0  0  0  0  0  0  0  0  0  0  0  0
    5.1733   -4.5469   29.8123 C   0  0  0  0  0  0  0  0  0  0  0  0
   -1.7508  -11.3016   18.6072 C   0  0  0  0  0  0  0  0  0  0  0  0
    1.7497   -5.6771   26.4971 C   0  0  0  0  0  0  0  0  0  0  0  0
   -1.5799   -9.9322   18.3468 C   0  0  0  0  0  0  0  0  0  0  0  0
   -1.0871  -12.2214   17.8851 C   0  0  0  0  0  0  0  0  0  0  0  0
   -2.2706   -8.9669   19.0691 C   0  0  0  0  0  0  0  0  0  0  0  0
    3.0279   -5.3073   26.8197 C   0  0  0  0  0  0  0  0  0  0  0  0
    7.3282   -3.8948   29.1186 C   0  0  0  0  0  0  0  0  0  0  0  0
  1  3  4  0
  1  7  4  0
  2  3  1  0
  2  6  4  0
  2 16  4  0
  3 22  4  0
  4  9  4  0
  4 10  1  0
  4 20  4  0
  5 16  4  0
  5 23  4  0
  6 15  4  0
  7 12  4  0
  8 13  4  0
  8 14  4  0
  9 11  4  0
 11 14  4  0
 11 19  4  0
 12 18  4  0
 13 21  4  0
 15 23  4  0
 17 19  4  0
 17 20  4  0
 18 22  4  0
 19 21  4  0
M  END
$$$$

 Created by Python create_sdf_string function

 23 25  0  0  0  0  0  0  0  0999 V2000
    2.4610   -5.3070   29.1240 C   0  0  0  0  0  0  0  0  0  0  0  0
    4.7710   -4.6952   28.4803 C   0  0  0  0  0  0  0  0  0  0  0  0
    3.4047   -5.1087   28.1314 C   0  0  0  0  0  0  0  0  0  0  0  0
   -0.2234  -11.8615   16.8874 C   0  0  0  0  0  0  0  0  0  0  0  0
    6.4491   -4.1532   30.1213 C   0  0  0  0  0  0  0  0  0  0  0  0
    5.7060   -4.4340   27.4975 C   0  0  0  0  0  0  0  0  0  0  0  0
    1.1818   -5.6612   28.8399 C   0  0  0  0  0  0  0  0  0  0  0  0
   -1.2067   -7.3287   17.7772 C   0  0  0  0  0  0  0  0  0  0  0  0
   -0.0206  -10.5585   16.6210 C   0  0  0  0  0  0  0  0  0  0  0  0
    0.3696  -12.7626   16.2169 O   0  0  0  0  0  0  0  0  0  0  0  0
   -0.6895   -9.5676   17.3297 C   0  0  0  0  0  0  0  0  0  0  0  0
    0.8388   -5.8417   27.5264 C   0  0  0  0  0  0  0  0  0  0  0  0
   -2.0709   -7.6637   18.7817 C   0  0  0  0  0  0  0  0  0  0  0  0
   -0.5279   -8.2168   17.0717 C   0  0  0  0  0  0  0  0  0  0  0  0
    6.9694   -4.0191   27.8190 C   0  0  0  0  0  0  0  0  0  0  0  0
    5.1733   -4.5469   29.8123 C   0  0  0  0  0  0  0  0  0  0  0  0
   -1.7508  -11.3016   18.6072 C   0  0  0  0  0  0  0  0  0  0  0  0
    1.7497   -5.6771   26.4971 C   0  0  0  0  0  0  0  0  0  0  0  0
   -1.5799   -9.9322   18.3468 C   0  0  0  0  0  0  0  0  0  0  0  0
   -1.0871  -12.2214   17.8851 C   0  0  0  0  0  0  0  0  0  0  0  0
   -2.2706   -8.9669   19.0691 C   0  0  0  0  0  0  0  0  0  0  0  0
    3.0279   -5.3073   26.8197 C   0  0  0  0  0  0  0  0  0  0  0  0
    7.3282   -3.8948   29.1186 C   0  0  0  0  0  0  0  0  0  0  0  0
  1  3  4  0
  1  7  4  0
  2  3  1  0
  2  6  4  0
  2 16  4  0
  3 22  4  0
  4  9  4  0
  4 10  1  0
  4 20  4  0
  5 16  4  0
  5 23  4  0
  6 15  4  0
  7 12  4  0
  8 13  4  0
  8 14  4  0
  9 11  4  0
 11 14  4  0
 11 19  4  0
 12 18  4  0
 13 21  4  0
 15 23  4  0
 17 19  4  0
 17 20  4  0
 18 22  4  0
 19 21  4  0
M  END
$$$$

 Created by Python create_sdf_string function

 23 25  0  0  0  0  0  0  0  0999 V2000
    2.4610   -5.3070   29.1240 C   0  0  0  0  0  0  0  0  0  0  0  0
    4.7710   -4.6952   28.4803 C   0  0  0  0  0  0  0  0  0  0  0  0
    3.4047   -5.1087   28.1314 C   0  0  0  0  0  0  0  0  0  0  0  0
   -0.2234  -11.8615   16.8874 C   0  0  0  0  0  0  0  0  0  0  0  0
    6.4491   -4.1532   30.1213 C   0  0  0  0  0  0  0  0  0  0  0  0
    5.7060   -4.4340   27.4975 C   0  0  0  0  0  0  0  0  0  0  0  0
    1.1818   -5.6612   28.8399 C   0  0  0  0  0  0  0  0  0  0  0  0
   -1.2067   -7.3287   17.7772 C   0  0  0  0  0  0  0  0  0  0  0  0
   -0.0206  -10.5585   16.6210 C   0  0  0  0  0  0  0  0  0  0  0  0
    0.3696  -12.7626   16.2169 O   0  0  0  0  0  0  0  0  0  0  0  0
   -0.6895   -9.5676   17.3297 C   0  0  0  0  0  0  0  0  0  0  0  0
    0.8388   -5.8417   27.5264 C   0  0  0  0  0  0  0  0  0  0  0  0
   -2.0709   -7.6637   18.7817 C   0  0  0  0  0  0  0  0  0  0  0  0
   -0.5279   -8.2168   17.0717 C   0  0  0  0  0  0  0  0  0  0  0  0
    6.9694   -4.0191   27.8190 C   0  0  0  0  0  0  0  0  0  0  0  0
    5.1733   -4.5469   29.8123 C   0  0  0  0  0  0  0  0  0  0  0  0
   -1.7508  -11.3016   18.6072 C   0  0  0  0  0  0  0  0  0  0  0  0
    1.7497   -5.6771   26.4971 C   0  0  0  0  0  0  0  0  0  0  0  0
   -1.5799   -9.9322   18.3468 C   0  0  0  0  0  0  0  0  0  0  0  0
   -1.0871  -12.2214   17.8851 C   0  0  0  0  0  0  0  0  0  0  0  0
   -2.2706   -8.9669   19.0691 C   0  0  0  0  0  0  0  0  0  0  0  0
    3.0279   -5.3073   26.8197 C   0  0  0  0  0  0  0  0  0  0  0  0
    7.3282   -3.8948   29.1186 C   0  0  0  0  0  0  0  0  0  0  0  0
  1  3  4  0
  1  7  4  0
  2  3  1  0
  2  6  4  0
  2 16  4  0
  3 22  4  0
  4  9  4  0
  4 10  1  0
  4 20  4  0
  5 16  4  0
  5 23  4  0
  6 15  4  0
  7 12  4  0
  8 13  4  0
  8 14  4  0
  9 11  4  0
 11 14  4  0
 11 19  4  0
 12 18  4  0
 13 21  4  0
 15 23  4  0
 17 19  4  0
 17 20  4  0
 18 22  4  0
 19 21  4  0
M  END
$$$$

 Created by Python create_sdf_string function

 23 25  0  0  0  0  0  0  0  0999 V2000
    2.4610   -5.3070   29.1240 C   0  0  0  0  0  0  0  0  0  0  0  0
    4.7710   -4.6952   28.4803 C   0  0  0  0  0  0  0  0  0  0  0  0
    3.4047   -5.1087   28.1314 C   0  0  0  0  0  0  0  0  0  0  0  0
   -0.2234  -11.8615   16.8874 C   0  0  0  0  0  0  0  0  0  0  0  0
    6.4491   -4.1532   30.1213 C   0  0  0  0  0  0  0  0  0  0  0  0
    5.7060   -4.4340   27.4975 C   0  0  0  0  0  0  0  0  0  0  0  0
    1.1818   -5.6612   28.8399 C   0  0  0  0  0  0  0  0  0  0  0  0
   -1.2067   -7.3287   17.7772 C   0  0  0  0  0  0  0  0  0  0  0  0
   -0.0206  -10.5585   16.6210 C   0  0  0  0  0  0  0  0  0  0  0  0
    0.3696  -12.7626   16.2169 O   0  0  0  0  0  0  0  0  0  0  0  0
   -0.6895   -9.5676   17.3297 C   0  0  0  0  0  0  0  0  0  0  0  0
    0.8388   -5.8417   27.5264 C   0  0  0  0  0  0  0  0  0  0  0  0
   -2.0709   -7.6637   18.7817 C   0  0  0  0  0  0  0  0  0  0  0  0
   -0.5279   -8.2168   17.0717 C   0  0  0  0  0  0  0  0  0  0  0  0
    6.9694   -4.0191   27.8190 C   0  0  0  0  0  0  0  0  0  0  0  0
    5.1733   -4.5469   29.8123 C   0  0  0  0  0  0  0  0  0  0  0  0
   -1.7508  -11.3016   18.6072 C   0  0  0  0  0  0  0  0  0  0  0  0
    1.7497   -5.6771   26.4971 C   0  0  0  0  0  0  0  0  0  0  0  0
   -1.5799   -9.9322   18.3468 C   0  0  0  0  0  0  0  0  0  0  0  0
   -1.0871  -12.2214   17.8851 C   0  0  0  0  0  0  0  0  0  0  0  0
   -2.2706   -8.9669   19.0691 C   0  0  0  0  0  0  0  0  0  0  0  0
    3.0279   -5.3073   26.8197 C   0  0  0  0  0  0  0  0  0  0  0  0
    7.3282   -3.8948   29.1186 C   0  0  0  0  0  0  0  0  0  0  0  0
  1  3  4  0
  1  7  4  0
  2  3  1  0
  2  6  4  0
  2 16  4  0
  3 22  4  0
  4  9  4  0
  4 10  1  0
  4 20  4  0
  5 16  4  0
  5 23  4  0
  6 15  4  0
  7 12  4  0
  8 13  4  0
  8 14  4  0
  9 11  4  0
 11 14  4  0
 11 19  4  0
 12 18  4  0
 13 21  4  0
 15 23  4  0
 17 19  4  0
 17 20  4  0
 18 22  4  0
 19 21  4  0
M  END
$$$$

 Created by Python create_sdf_string function

 23 25  0  0  0  0  0  0  0  0999 V2000
    2.4610   -5.3070   29.1240 C   0  0  0  0  0  0  0  0  0  0  0  0
    4.7710   -4.6952   28.4803 C   0  0  0  0  0  0  0  0  0  0  0  0
    3.4047   -5.1087   28.1314 C   0  0  0  0  0  0  0  0  0  0  0  0
   -0.2234  -11.8615   16.8874 C   0  0  0  0  0  0  0  0  0  0  0  0
    6.4491   -4.1532   30.1213 C   0  0  0  0  0  0  0  0  0  0  0  0
    5.7060   -4.4340   27.4975 C   0  0  0  0  0  0  0  0  0  0  0  0
    1.1818   -5.6612   28.8399 C   0  0  0  0  0  0  0  0  0  0  0  0
   -1.2067   -7.3287   17.7772 C   0  0  0  0  0  0  0  0  0  0  0  0
   -0.0206  -10.5585   16.6210 C   0  0  0  0  0  0  0  0  0  0  0  0
    0.3696  -12.7626   16.2169 O   0  0  0  0  0  0  0  0  0  0  0  0
   -0.6895   -9.5676   17.3297 C   0  0  0  0  0  0  0  0  0  0  0  0
    0.8388   -5.8417   27.5264 C   0  0  0  0  0  0  0  0  0  0  0  0
   -2.0709   -7.6637   18.7817 C   0  0  0  0  0  0  0  0  0  0  0  0
   -0.5279   -8.2168   17.0717 C   0  0  0  0  0  0  0  0  0  0  0  0
    6.9694   -4.0191   27.8190 C   0  0  0  0  0  0  0  0  0  0  0  0
    5.1733   -4.5469   29.8123 C   0  0  0  0  0  0  0  0  0  0  0  0
   -1.7508  -11.3016   18.6072 C   0  0  0  0  0  0  0  0  0  0  0  0
    1.7497   -5.6771   26.4971 C   0  0  0  0  0  0  0  0  0  0  0  0
   -1.5799   -9.9322   18.3468 C   0  0  0  0  0  0  0  0  0  0  0  0
   -1.0871  -12.2214   17.8851 C   0  0  0  0  0  0  0  0  0  0  0  0
   -2.2706   -8.9669   19.0691 C   0  0  0  0  0  0  0  0  0  0  0  0
    3.0279   -5.3073   26.8197 C   0  0  0  0  0  0  0  0  0  0  0  0
    7.3282   -3.8948   29.1186 C   0  0  0  0  0  0  0  0  0  0  0  0
  1  3  4  0
  1  7  4  0
  2  3  1  0
  2  6  4  0
  2 16  4  0
  3 22  4  0
  4  9  4  0
  4 10  1  0
  4 20  4  0
  5 16  4  0
  5 23  4  0
  6 15  4  0
  7 12  4  0
  8 13  4  0
  8 14  4  0
  9 11  4  0
 11 14  4  0
 11 19  4  0
 12 18  4  0
 13 21  4  0
 15 23  4  0
 17 19  4  0
 17 20  4  0
 18 22  4  0
 19 21  4  0
M  END
$$$$

 Created by Python create_sdf_string function

 23 25  0  0  0  0  0  0  0  0999 V2000
    2.4610   -5.3070   29.1240 C   0  0  0  0  0  0  0  0  0  0  0  0
    4.7710   -4.6952   28.4803 C   0  0  0  0  0  0  0  0  0  0  0  0
    3.4047   -5.1087   28.1314 C   0  0  0  0  0  0  0  0  0  0  0  0
   -0.2234  -11.8615   16.8874 C   0  0  0  0  0  0  0  0  0  0  0  0
    6.4491   -4.1532   30.1213 C   0  0  0  0  0  0  0  0  0  0  0  0
    5.7060   -4.4340   27.4975 C   0  0  0  0  0  0  0  0  0  0  0  0
    1.1818   -5.6612   28.8399 C   0  0  0  0  0  0  0  0  0  0  0  0
   -1.2067   -7.3287   17.7772 C   0  0  0  0  0  0  0  0  0  0  0  0
   -0.0206  -10.5585   16.6210 C   0  0  0  0  0  0  0  0  0  0  0  0
    0.3696  -12.7626   16.2169 O   0  0  0  0  0  0  0  0  0  0  0  0
   -0.6895   -9.5676   17.3297 C   0  0  0  0  0  0  0  0  0  0  0  0
    0.8388   -5.8417   27.5264 C   0  0  0  0  0  0  0  0  0  0  0  0
   -2.0709   -7.6637   18.7817 C   0  0  0  0  0  0  0  0  0  0  0  0
   -0.5279   -8.2168   17.0717 C   0  0  0  0  0  0  0  0  0  0  0  0
    6.9694   -4.0191   27.8190 C   0  0  0  0  0  0  0  0  0  0  0  0
    5.1733   -4.5469   29.8123 C   0  0  0  0  0  0  0  0  0  0  0  0
   -1.7508  -11.3016   18.6072 C   0  0  0  0  0  0  0  0  0  0  0  0
    1.7497   -5.6771   26.4971 C   0  0  0  0  0  0  0  0  0  0  0  0
   -1.5799   -9.9322   18.3468 C   0  0  0  0  0  0  0  0  0  0  0  0
   -1.0871  -12.2214   17.8851 C   0  0  0  0  0  0  0  0  0  0  0  0
   -2.2706   -8.9669   19.0691 C   0  0  0  0  0  0  0  0  0  0  0  0
    3.0279   -5.3073   26.8197 C   0  0  0  0  0  0  0  0  0  0  0  0
    7.3282   -3.8948   29.1186 C   0  0  0  0  0  0  0  0  0  0  0  0
  1  3  4  0
  1  7  4  0
  2  3  1  0
  2  6  4  0
  2 16  4  0
  3 22  4  0
  4  9  4  0
  4 10  1  0
  4 20  4  0
  5 16  4  0
  5 23  4  0
  6 15  4  0
  7 12  4  0
  8 13  4  0
  8 14  4  0
  9 11  4  0
 11 14  4  0
 11 19  4  0
 12 18  4  0
 13 21  4  0
 15 23  4  0
 17 19  4  0
 17 20  4  0
 18 22  4  0
 19 21  4  0
M  END
$$$$

 Created by Python create_sdf_string function

 23 25  0  0  0  0  0  0  0  0999 V2000
    2.4610   -5.3070   29.1240 C   0  0  0  0  0  0  0  0  0  0  0  0
    4.7710   -4.6952   28.4803 C   0  0  0  0  0  0  0  0  0  0  0  0
    3.4047   -5.1087   28.1314 C   0  0  0  0  0  0  0  0  0  0  0  0
   -0.2234  -11.8615   16.8874 C   0  0  0  0  0  0  0  0  0  0  0  0
    6.4491   -4.1532   30.1213 C   0  0  0  0  0  0  0  0  0  0  0  0
    5.7060   -4.4340   27.4975 C   0  0  0  0  0  0  0  0  0  0  0  0
    1.1818   -5.6612   28.8399 C   0  0  0  0  0  0  0  0  0  0  0  0
   -1.2067   -7.3287   17.7772 C   0  0  0  0  0  0  0  0  0  0  0  0
   -0.0206  -10.5585   16.6210 C   0  0  0  0  0  0  0  0  0  0  0  0
    0.3696  -12.7626   16.2169 O   0  0  0  0  0  0  0  0  0  0  0  0
   -0.6895   -9.5676   17.3297 C   0  0  0  0  0  0  0  0  0  0  0  0
    0.8388   -5.8417   27.5264 C   0  0  0  0  0  0  0  0  0  0  0  0
   -2.0709   -7.6637   18.7817 C   0  0  0  0  0  0  0  0  0  0  0  0
   -0.5279   -8.2168   17.0717 C   0  0  0  0  0  0  0  0  0  0  0  0
    6.9694   -4.0191   27.8190 C   0  0  0  0  0  0  0  0  0  0  0  0
    5.1733   -4.5469   29.8123 C   0  0  0  0  0  0  0  0  0  0  0  0
   -1.7508  -11.3016   18.6072 C   0  0  0  0  0  0  0  0  0  0  0  0
    1.7497   -5.6771   26.4971 C   0  0  0  0  0  0  0  0  0  0  0  0
   -1.5799   -9.9322   18.3468 C   0  0  0  0  0  0  0  0  0  0  0  0
   -1.0871  -12.2214   17.8851 C   0  0  0  0  0  0  0  0  0  0  0  0
   -2.2706   -8.9669   19.0691 C   0  0  0  0  0  0  0  0  0  0  0  0
    3.0279   -5.3073   26.8197 C   0  0  0  0  0  0  0  0  0  0  0  0
    7.3282   -3.8948   29.1186 C   0  0  0  0  0  0  0  0  0  0  0  0
  1  3  4  0
  1  7  4  0
  2  3  1  0
  2  6  4  0
  2 16  4  0
  3 22  4  0
  4  9  4  0
  4 10  1  0
  4 20  4  0
  5 16  4  0
  5 23  4  0
  6 15  4  0
  7 12  4  0
  8 13  4  0
  8 14  4  0
  9 11  4  0
 11 14  4  0
 11 19  4  0
 12 18  4  0
 13 21  4  0
 15 23  4  0
 17 19  4  0
 17 20  4  0
 18 22  4  0
 19 21  4  0
M  END
$$$$

 Created by Python create_sdf_string function

 23 25  0  0  0  0  0  0  0  0999 V2000
    2.4610   -5.3070   29.1240 C   0  0  0  0  0  0  0  0  0  0  0  0
    4.7710   -4.6952   28.4803 C   0  0  0  0  0  0  0  0  0  0  0  0
    3.4047   -5.1087   28.1314 C   0  0  0  0  0  0  0  0  0  0  0  0
   -0.2234  -11.8615   16.8874 C   0  0  0  0  0  0  0  0  0  0  0  0
    6.4491   -4.1532   30.1213 C   0  0  0  0  0  0  0  0  0  0  0  0
    5.7060   -4.4340   27.4975 C   0  0  0  0  0  0  0  0  0  0  0  0
    1.1818   -5.6612   28.8399 C   0  0  0  0  0  0  0  0  0  0  0  0
   -1.2067   -7.3287   17.7772 C   0  0  0  0  0  0  0  0  0  0  0  0
   -0.0206  -10.5585   16.6210 C   0  0  0  0  0  0  0  0  0  0  0  0
    0.3696  -12.7626   16.2169 O   0  0  0  0  0  0  0  0  0  0  0  0
   -0.6895   -9.5676   17.3297 C   0  0  0  0  0  0  0  0  0  0  0  0
    0.8388   -5.8417   27.5264 C   0  0  0  0  0  0  0  0  0  0  0  0
   -2.0709   -7.6637   18.7817 C   0  0  0  0  0  0  0  0  0  0  0  0
   -0.5279   -8.2168   17.0717 C   0  0  0  0  0  0  0  0  0  0  0  0
    6.9694   -4.0191   27.8190 C   0  0  0  0  0  0  0  0  0  0  0  0
    5.1733   -4.5469   29.8123 C   0  0  0  0  0  0  0  0  0  0  0  0
   -1.7508  -11.3016   18.6072 C   0  0  0  0  0  0  0  0  0  0  0  0
    1.7497   -5.6771   26.4971 C   0  0  0  0  0  0  0  0  0  0  0  0
   -1.5799   -9.9322   18.3468 C   0  0  0  0  0  0  0  0  0  0  0  0
   -1.0871  -12.2214   17.8851 C   0  0  0  0  0  0  0  0  0  0  0  0
   -2.2706   -8.9669   19.0691 C   0  0  0  0  0  0  0  0  0  0  0  0
    3.0279   -5.3073   26.8197 C   0  0  0  0  0  0  0  0  0  0  0  0
    7.3282   -3.8948   29.1186 C   0  0  0  0  0  0  0  0  0  0  0  0
  1  3  4  0
  1  7  4  0
  2  3  1  0
  2  6  4  0
  2 16  4  0
  3 22  4  0
  4  9  4  0
  4 10  1  0
  4 20  4  0
  5 16  4  0
  5 23  4  0
  6 15  4  0
  7 12  4  0
  8 13  4  0
  8 14  4  0
  9 11  4  0
 11 14  4  0
 11 19  4  0
 12 18  4  0
 13 21  4  0
 15 23  4  0
 17 19  4  0
 17 20  4  0
 18 22  4  0
 19 21  4  0
M  END
$$$$

 Created by Python create_sdf_string function

 23 25  0  0  0  0  0  0  0  0999 V2000
    2.4610   -5.3070   29.1240 C   0  0  0  0  0  0  0  0  0  0  0  0
    4.7710   -4.6952   28.4803 C   0  0  0  0  0  0  0  0  0  0  0  0
    3.4047   -5.1087   28.1314 C   0  0  0  0  0  0  0  0  0  0  0  0
   -0.2234  -11.8615   16.8874 C   0  0  0  0  0  0  0  0  0  0  0  0
    6.4491   -4.1532   30.1213 C   0  0  0  0  0  0  0  0  0  0  0  0
    5.7060   -4.4340   27.4975 C   0  0  0  0  0  0  0  0  0  0  0  0
    1.1818   -5.6612   28.8399 C   0  0  0  0  0  0  0  0  0  0  0  0
   -1.2067   -7.3287   17.7772 C   0  0  0  0  0  0  0  0  0  0  0  0
   -0.0206  -10.5585   16.6210 C   0  0  0  0  0  0  0  0  0  0  0  0
    0.3696  -12.7626   16.2169 O   0  0  0  0  0  0  0  0  0  0  0  0
   -0.6895   -9.5676   17.3297 C   0  0  0  0  0  0  0  0  0  0  0  0
    0.8388   -5.8417   27.5264 C   0  0  0  0  0  0  0  0  0  0  0  0
   -2.0709   -7.6637   18.7817 C   0  0  0  0  0  0  0  0  0  0  0  0
   -0.5279   -8.2168   17.0717 C   0  0  0  0  0  0  0  0  0  0  0  0
    6.9694   -4.0191   27.8190 C   0  0  0  0  0  0  0  0  0  0  0  0
    5.1733   -4.5469   29.8123 C   0  0  0  0  0  0  0  0  0  0  0  0
   -1.7508  -11.3016   18.6072 C   0  0  0  0  0  0  0  0  0  0  0  0
    1.7497   -5.6771   26.4971 C   0  0  0  0  0  0  0  0  0  0  0  0
   -1.5799   -9.9322   18.3468 C   0  0  0  0  0  0  0  0  0  0  0  0
   -1.0871  -12.2214   17.8851 C   0  0  0  0  0  0  0  0  0  0  0  0
   -2.2706   -8.9669   19.0691 C   0  0  0  0  0  0  0  0  0  0  0  0
    3.0279   -5.3073   26.8197 C   0  0  0  0  0  0  0  0  0  0  0  0
    7.3282   -3.8948   29.1186 C   0  0  0  0  0  0  0  0  0  0  0  0
  1  3  4  0
  1  7  4  0
  2  3  1  0
  2  6  4  0
  2 16  4  0
  3 22  4  0
  4  9  4  0
  4 10  1  0
  4 20  4  0
  5 16  4  0
  5 23  4  0
  6 15  4  0
  7 12  4  0
  8 13  4  0
  8 14  4  0
  9 11  4  0
 11 14  4  0
 11 19  4  0
 12 18  4  0
 13 21  4  0
 15 23  4  0
 17 19  4  0
 17 20  4  0
 18 22  4  0
 19 21  4  0
M  END
$$$$

 Created by Python create_sdf_string function

 23 25  0  0  0  0  0  0  0  0999 V2000
    2.4610   -5.3070   29.1240 C   0  0  0  0  0  0  0  0  0  0  0  0
    4.7710   -4.6952   28.4803 C   0  0  0  0  0  0  0  0  0  0  0  0
    3.4047   -5.1087   28.1314 C   0  0  0  0  0  0  0  0  0  0  0  0
   -0.2234  -11.8615   16.8874 C   0  0  0  0  0  0  0  0  0  0  0  0
    6.4491   -4.1532   30.1213 C   0  0  0  0  0  0  0  0  0  0  0  0
    5.7060   -4.4340   27.4975 C   0  0  0  0  0  0  0  0  0  0  0  0
    1.1818   -5.6612   28.8399 C   0  0  0  0  0  0  0  0  0  0  0  0
   -1.2067   -7.3287   17.7772 C   0  0  0  0  0  0  0  0  0  0  0  0
   -0.0206  -10.5585   16.6210 C   0  0  0  0  0  0  0  0  0  0  0  0
    0.3696  -12.7626   16.2169 O   0  0  0  0  0  0  0  0  0  0  0  0
   -0.6895   -9.5676   17.3297 C   0  0  0  0  0  0  0  0  0  0  0  0
    0.8388   -5.8417   27.5264 C   0  0  0  0  0  0  0  0  0  0  0  0
   -2.0709   -7.6637   18.7817 C   0  0  0  0  0  0  0  0  0  0  0  0
   -0.5279   -8.2168   17.0717 C   0  0  0  0  0  0  0  0  0  0  0  0
    6.9694   -4.0191   27.8190 C   0  0  0  0  0  0  0  0  0  0  0  0
    5.1733   -4.5469   29.8123 C   0  0  0  0  0  0  0  0  0  0  0  0
   -1.7508  -11.3016   18.6072 C   0  0  0  0  0  0  0  0  0  0  0  0
    1.7497   -5.6771   26.4971 C   0  0  0  0  0  0  0  0  0  0  0  0
   -1.5799   -9.9322   18.3468 C   0  0  0  0  0  0  0  0  0  0  0  0
   -1.0871  -12.2214   17.8851 C   0  0  0  0  0  0  0  0  0  0  0  0
   -2.2706   -8.9669   19.0691 C   0  0  0  0  0  0  0  0  0  0  0  0
    3.0279   -5.3073   26.8197 C   0  0  0  0  0  0  0  0  0  0  0  0
    7.3282   -3.8948   29.1186 C   0  0  0  0  0  0  0  0  0  0  0  0
  1  3  4  0
  1  7  4  0
  2  3  1  0
  2  6  4  0
  2 16  4  0
  3 22  4  0
  4  9  4  0
  4 10  1  0
  4 20  4  0
  5 16  4  0
  5 23  4  0
  6 15  4  0
  7 12  4  0
  8 13  4  0
  8 14  4  0
  9 11  4  0
 11 14  4  0
 11 19  4  0
 12 18  4  0
 13 21  4  0
 15 23  4  0
 17 19  4  0
 17 20  4  0
 18 22  4  0
 19 21  4  0
M  END
$$$$

 Created by Python create_sdf_string function

 23 25  0  0  0  0  0  0  0  0999 V2000
    2.4610   -5.3070   29.1240 C   0  0  0  0  0  0  0  0  0  0  0  0
    4.7710   -4.6952   28.4803 C   0  0  0  0  0  0  0  0  0  0  0  0
    3.4047   -5.1087   28.1314 C   0  0  0  0  0  0  0  0  0  0  0  0
   -0.2234  -11.8615   16.8874 C   0  0  0  0  0  0  0  0  0  0  0  0
    6.4491   -4.1532   30.1213 C   0  0  0  0  0  0  0  0  0  0  0  0
    5.7060   -4.4340   27.4975 C   0  0  0  0  0  0  0  0  0  0  0  0
    1.1818   -5.6612   28.8399 C   0  0  0  0  0  0  0  0  0  0  0  0
   -1.2067   -7.3287   17.7772 C   0  0  0  0  0  0  0  0  0  0  0  0
   -0.0206  -10.5585   16.6210 C   0  0  0  0  0  0  0  0  0  0  0  0
    0.3696  -12.7626   16.2169 O   0  0  0  0  0  0  0  0  0  0  0  0
   -0.6895   -9.5676   17.3297 C   0  0  0  0  0  0  0  0  0  0  0  0
    0.8388   -5.8417   27.5264 C   0  0  0  0  0  0  0  0  0  0  0  0
   -2.0709   -7.6637   18.7817 C   0  0  0  0  0  0  0  0  0  0  0  0
   -0.5279   -8.2168   17.0717 C   0  0  0  0  0  0  0  0  0  0  0  0
    6.9694   -4.0191   27.8190 C   0  0  0  0  0  0  0  0  0  0  0  0
    5.1733   -4.5469   29.8123 C   0  0  0  0  0  0  0  0  0  0  0  0
   -1.7508  -11.3016   18.6072 C   0  0  0  0  0  0  0  0  0  0  0  0
    1.7497   -5.6771   26.4971 C   0  0  0  0  0  0  0  0  0  0  0  0
   -1.5799   -9.9322   18.3468 C   0  0  0  0  0  0  0  0  0  0  0  0
   -1.0871  -12.2214   17.8851 C   0  0  0  0  0  0  0  0  0  0  0  0
   -2.2706   -8.9669   19.0691 C   0  0  0  0  0  0  0  0  0  0  0  0
    3.0279   -5.3073   26.8197 C   0  0  0  0  0  0  0  0  0  0  0  0
    7.3282   -3.8948   29.1186 C   0  0  0  0  0  0  0  0  0  0  0  0
  1  3  4  0
  1  7  4  0
  2  3  1  0
  2  6  4  0
  2 16  4  0
  3 22  4  0
  4  9  4  0
  4 10  1  0
  4 20  4  0
  5 16  4  0
  5 23  4  0
  6 15  4  0
  7 12  4  0
  8 13  4  0
  8 14  4  0
  9 11  4  0
 11 14  4  0
 11 19  4  0
 12 18  4  0
 13 21  4  0
 15 23  4  0
 17 19  4  0
 17 20  4  0
 18 22  4  0
 19 21  4  0
M  END
$$$$

 Created by Python create_sdf_string function

 23 25  0  0  0  0  0  0  0  0999 V2000
    2.4610   -5.3070   29.1240 C   0  0  0  0  0  0  0  0  0  0  0  0
    4.7710   -4.6952   28.4803 C   0  0  0  0  0  0  0  0  0  0  0  0
    3.4047   -5.1087   28.1314 C   0  0  0  0  0  0  0  0  0  0  0  0
   -0.2234  -11.8615   16.8874 C   0  0  0  0  0  0  0  0  0  0  0  0
    6.4491   -4.1532   30.1213 C   0  0  0  0  0  0  0  0  0  0  0  0
    5.7060   -4.4340   27.4975 C   0  0  0  0  0  0  0  0  0  0  0  0
    1.1818   -5.6612   28.8399 C   0  0  0  0  0  0  0  0  0  0  0  0
   -1.2067   -7.3287   17.7772 C   0  0  0  0  0  0  0  0  0  0  0  0
   -0.0206  -10.5585   16.6210 C   0  0  0  0  0  0  0  0  0  0  0  0
    0.3696  -12.7626   16.2169 O   0  0  0  0  0  0  0  0  0  0  0  0
   -0.6895   -9.5676   17.3297 C   0  0  0  0  0  0  0  0  0  0  0  0
    0.8388   -5.8417   27.5264 C   0  0  0  0  0  0  0  0  0  0  0  0
   -2.0709   -7.6637   18.7817 C   0  0  0  0  0  0  0  0  0  0  0  0
   -0.5279   -8.2168   17.0717 C   0  0  0  0  0  0  0  0  0  0  0  0
    6.9694   -4.0191   27.8190 C   0  0  0  0  0  0  0  0  0  0  0  0
    5.1733   -4.5469   29.8123 C   0  0  0  0  0  0  0  0  0  0  0  0
   -1.7508  -11.3016   18.6072 C   0  0  0  0  0  0  0  0  0  0  0  0
    1.7497   -5.6771   26.4971 C   0  0  0  0  0  0  0  0  0  0  0  0
   -1.5799   -9.9322   18.3468 C   0  0  0  0  0  0  0  0  0  0  0  0
   -1.0871  -12.2214   17.8851 C   0  0  0  0  0  0  0  0  0  0  0  0
   -2.2706   -8.9669   19.0691 C   0  0  0  0  0  0  0  0  0  0  0  0
    3.0279   -5.3073   26.8197 C   0  0  0  0  0  0  0  0  0  0  0  0
    7.3282   -3.8948   29.1186 C   0  0  0  0  0  0  0  0  0  0  0  0
  1  3  4  0
  1  7  4  0
  2  3  1  0
  2  6  4  0
  2 16  4  0
  3 22  4  0
  4  9  4  0
  4 10  1  0
  4 20  4  0
  5 16  4  0
  5 23  4  0
  6 15  4  0
  7 12  4  0
  8 13  4  0
  8 14  4  0
  9 11  4  0
 11 14  4  0
 11 19  4  0
 12 18  4  0
 13 21  4  0
 15 23  4  0
 17 19  4  0
 17 20  4  0
 18 22  4  0
 19 21  4  0
M  END
$$$$

 Created by Python create_sdf_string function

 23 25  0  0  0  0  0  0  0  0999 V2000
    2.4610   -5.3070   29.1240 C   0  0  0  0  0  0  0  0  0  0  0  0
    4.7710   -4.6952   28.4803 C   0  0  0  0  0  0  0  0  0  0  0  0
    3.4047   -5.1087   28.1314 C   0  0  0  0  0  0  0  0  0  0  0  0
   -0.2234  -11.8615   16.8874 C   0  0  0  0  0  0  0  0  0  0  0  0
    6.4491   -4.1532   30.1213 C   0  0  0  0  0  0  0  0  0  0  0  0
    5.7060   -4.4340   27.4975 C   0  0  0  0  0  0  0  0  0  0  0  0
    1.1818   -5.6612   28.8399 C   0  0  0  0  0  0  0  0  0  0  0  0
   -1.2067   -7.3287   17.7772 C   0  0  0  0  0  0  0  0  0  0  0  0
   -0.0206  -10.5585   16.6210 C   0  0  0  0  0  0  0  0  0  0  0  0
    0.3696  -12.7626   16.2169 O   0  0  0  0  0  0  0  0  0  0  0  0
   -0.6895   -9.5676   17.3297 C   0  0  0  0  0  0  0  0  0  0  0  0
    0.8388   -5.8417   27.5264 C   0  0  0  0  0  0  0  0  0  0  0  0
   -2.0709   -7.6637   18.7817 C   0  0  0  0  0  0  0  0  0  0  0  0
   -0.5279   -8.2168   17.0717 C   0  0  0  0  0  0  0  0  0  0  0  0
    6.9694   -4.0191   27.8190 C   0  0  0  0  0  0  0  0  0  0  0  0
    5.1733   -4.5469   29.8123 C   0  0  0  0  0  0  0  0  0  0  0  0
   -1.7508  -11.3016   18.6072 C   0  0  0  0  0  0  0  0  0  0  0  0
    1.7497   -5.6771   26.4971 C   0  0  0  0  0  0  0  0  0  0  0  0
   -1.5799   -9.9322   18.3468 C   0  0  0  0  0  0  0  0  0  0  0  0
   -1.0871  -12.2214   17.8851 C   0  0  0  0  0  0  0  0  0  0  0  0
   -2.2706   -8.9669   19.0691 C   0  0  0  0  0  0  0  0  0  0  0  0
    3.0279   -5.3073   26.8197 C   0  0  0  0  0  0  0  0  0  0  0  0
    7.3282   -3.8948   29.1186 C   0  0  0  0  0  0  0  0  0  0  0  0
  1  3  4  0
  1  7  4  0
  2  3  1  0
  2  6  4  0
  2 16  4  0
  3 22  4  0
  4  9  4  0
  4 10  1  0
  4 20  4  0
  5 16  4  0
  5 23  4  0
  6 15  4  0
  7 12  4  0
  8 13  4  0
  8 14  4  0
  9 11  4  0
 11 14  4  0
 11 19  4  0
 12 18  4  0
 13 21  4  0
 15 23  4  0
 17 19  4  0
 17 20  4  0
 18 22  4  0
 19 21  4  0
M  END
$$$$

 Created by Python create_sdf_string function

 23 25  0  0  0  0  0  0  0  0999 V2000
    2.4610   -5.3070   29.1240 C   0  0  0  0  0  0  0  0  0  0  0  0
    4.7710   -4.6952   28.4803 C   0  0  0  0  0  0  0  0  0  0  0  0
    3.4047   -5.1087   28.1314 C   0  0  0  0  0  0  0  0  0  0  0  0
   -0.2234  -11.8615   16.8874 C   0  0  0  0  0  0  0  0  0  0  0  0
    6.4491   -4.1532   30.1213 C   0  0  0  0  0  0  0  0  0  0  0  0
    5.7060   -4.4340   27.4975 C   0  0  0  0  0  0  0  0  0  0  0  0
    1.1818   -5.6612   28.8399 C   0  0  0  0  0  0  0  0  0  0  0  0
   -1.2067   -7.3287   17.7772 C   0  0  0  0  0  0  0  0  0  0  0  0
   -0.0206  -10.5585   16.6210 C   0  0  0  0  0  0  0  0  0  0  0  0
    0.3696  -12.7626   16.2169 O   0  0  0  0  0  0  0  0  0  0  0  0
   -0.6895   -9.5676   17.3297 C   0  0  0  0  0  0  0  0  0  0  0  0
    0.8388   -5.8417   27.5264 C   0  0  0  0  0  0  0  0  0  0  0  0
   -2.0709   -7.6637   18.7817 C   0  0  0  0  0  0  0  0  0  0  0  0
   -0.5279   -8.2168   17.0717 C   0  0  0  0  0  0  0  0  0  0  0  0
    6.9694   -4.0191   27.8190 C   0  0  0  0  0  0  0  0  0  0  0  0
    5.1733   -4.5469   29.8123 C   0  0  0  0  0  0  0  0  0  0  0  0
   -1.7508  -11.3016   18.6072 C   0  0  0  0  0  0  0  0  0  0  0  0
    1.7497   -5.6771   26.4971 C   0  0  0  0  0  0  0  0  0  0  0  0
   -1.5799   -9.9322   18.3468 C   0  0  0  0  0  0  0  0  0  0  0  0
   -1.0871  -12.2214   17.8851 C   0  0  0  0  0  0  0  0  0  0  0  0
   -2.2706   -8.9669   19.0691 C   0  0  0  0  0  0  0  0  0  0  0  0
    3.0279   -5.3073   26.8197 C   0  0  0  0  0  0  0  0  0  0  0  0
    7.3282   -3.8948   29.1186 C   0  0  0  0  0  0  0  0  0  0  0  0
  1  3  4  0
  1  7  4  0
  2  3  1  0
  2  6  4  0
  2 16  4  0
  3 22  4  0
  4  9  4  0
  4 10  1  0
  4 20  4  0
  5 16  4  0
  5 23  4  0
  6 15  4  0
  7 12  4  0
  8 13  4  0
  8 14  4  0
  9 11  4  0
 11 14  4  0
 11 19  4  0
 12 18  4  0
 13 21  4  0
 15 23  4  0
 17 19  4  0
 17 20  4  0
 18 22  4  0
 19 21  4  0
M  END
$$$$

 Created by Python create_sdf_string function

 23 25  0  0  0  0  0  0  0  0999 V2000
    2.4610   -5.3070   29.1240 C   0  0  0  0  0  0  0  0  0  0  0  0
    4.7710   -4.6952   28.4803 C   0  0  0  0  0  0  0  0  0  0  0  0
    3.4047   -5.1087   28.1314 C   0  0  0  0  0  0  0  0  0  0  0  0
   -0.2234  -11.8615   16.8874 C   0  0  0  0  0  0  0  0  0  0  0  0
    6.4491   -4.1532   30.1213 C   0  0  0  0  0  0  0  0  0  0  0  0
    5.7060   -4.4340   27.4975 C   0  0  0  0  0  0  0  0  0  0  0  0
    1.1818   -5.6612   28.8399 C   0  0  0  0  0  0  0  0  0  0  0  0
   -1.2067   -7.3287   17.7772 C   0  0  0  0  0  0  0  0  0  0  0  0
   -0.0206  -10.5585   16.6210 C   0  0  0  0  0  0  0  0  0  0  0  0
    0.3696  -12.7626   16.2169 O   0  0  0  0  0  0  0  0  0  0  0  0
   -0.6895   -9.5676   17.3297 C   0  0  0  0  0  0  0  0  0  0  0  0
    0.8388   -5.8417   27.5264 C   0  0  0  0  0  0  0  0  0  0  0  0
   -2.0709   -7.6637   18.7817 C   0  0  0  0  0  0  0  0  0  0  0  0
   -0.5279   -8.2168   17.0717 C   0  0  0  0  0  0  0  0  0  0  0  0
    6.9694   -4.0191   27.8190 C   0  0  0  0  0  0  0  0  0  0  0  0
    5.1733   -4.5469   29.8123 C   0  0  0  0  0  0  0  0  0  0  0  0
   -1.7508  -11.3016   18.6072 C   0  0  0  0  0  0  0  0  0  0  0  0
    1.7497   -5.6771   26.4971 C   0  0  0  0  0  0  0  0  0  0  0  0
   -1.5799   -9.9322   18.3468 C   0  0  0  0  0  0  0  0  0  0  0  0
   -1.0871  -12.2214   17.8851 C   0  0  0  0  0  0  0  0  0  0  0  0
   -2.2706   -8.9669   19.0691 C   0  0  0  0  0  0  0  0  0  0  0  0
    3.0279   -5.3073   26.8197 C   0  0  0  0  0  0  0  0  0  0  0  0
    7.3282   -3.8948   29.1186 C   0  0  0  0  0  0  0  0  0  0  0  0
  1  3  4  0
  1  7  4  0
  2  3  1  0
  2  6  4  0
  2 16  4  0
  3 22  4  0
  4  9  4  0
  4 10  1  0
  4 20  4  0
  5 16  4  0
  5 23  4  0
  6 15  4  0
  7 12  4  0
  8 13  4  0
  8 14  4  0
  9 11  4  0
 11 14  4  0
 11 19  4  0
 12 18  4  0
 13 21  4  0
 15 23  4  0
 17 19  4  0
 17 20  4  0
 18 22  4  0
 19 21  4  0
M  END
$$$$

 Created by Python create_sdf_string function

 23 25  0  0  0  0  0  0  0  0999 V2000
    2.4610   -5.3070   29.1240 C   0  0  0  0  0  0  0  0  0  0  0  0
    4.7710   -4.6952   28.4803 C   0  0  0  0  0  0  0  0  0  0  0  0
    3.4047   -5.1087   28.1314 C   0  0  0  0  0  0  0  0  0  0  0  0
   -0.2234  -11.8615   16.8874 C   0  0  0  0  0  0  0  0  0  0  0  0
    6.4491   -4.1532   30.1213 C   0  0  0  0  0  0  0  0  0  0  0  0
    5.7060   -4.4340   27.4975 C   0  0  0  0  0  0  0  0  0  0  0  0
    1.1818   -5.6612   28.8399 C   0  0  0  0  0  0  0  0  0  0  0  0
   -1.2067   -7.3287   17.7772 C   0  0  0  0  0  0  0  0  0  0  0  0
   -0.0206  -10.5585   16.6210 C   0  0  0  0  0  0  0  0  0  0  0  0
    0.3696  -12.7626   16.2169 O   0  0  0  0  0  0  0  0  0  0  0  0
   -0.6895   -9.5676   17.3297 C   0  0  0  0  0  0  0  0  0  0  0  0
    0.8388   -5.8417   27.5264 C   0  0  0  0  0  0  0  0  0  0  0  0
   -2.0709   -7.6637   18.7817 C   0  0  0  0  0  0  0  0  0  0  0  0
   -0.5279   -8.2168   17.0717 C   0  0  0  0  0  0  0  0  0  0  0  0
    6.9694   -4.0191   27.8190 C   0  0  0  0  0  0  0  0  0  0  0  0
    5.1733   -4.5469   29.8123 C   0  0  0  0  0  0  0  0  0  0  0  0
   -1.7508  -11.3016   18.6072 C   0  0  0  0  0  0  0  0  0  0  0  0
    1.7497   -5.6771   26.4971 C   0  0  0  0  0  0  0  0  0  0  0  0
   -1.5799   -9.9322   18.3468 C   0  0  0  0  0  0  0  0  0  0  0  0
   -1.0871  -12.2214   17.8851 C   0  0  0  0  0  0  0  0  0  0  0  0
   -2.2706   -8.9669   19.0691 C   0  0  0  0  0  0  0  0  0  0  0  0
    3.0279   -5.3073   26.8197 C   0  0  0  0  0  0  0  0  0  0  0  0
    7.3282   -3.8948   29.1186 C   0  0  0  0  0  0  0  0  0  0  0  0
  1  3  4  0
  1  7  4  0
  2  3  1  0
  2  6  4  0
  2 16  4  0
  3 22  4  0
  4  9  4  0
  4 10  1  0
  4 20  4  0
  5 16  4  0
  5 23  4  0
  6 15  4  0
  7 12  4  0
  8 13  4  0
  8 14  4  0
  9 11  4  0
 11 14  4  0
 11 19  4  0
 12 18  4  0
 13 21  4  0
 15 23  4  0
 17 19  4  0
 17 20  4  0
 18 22  4  0
 19 21  4  0
M  END
$$$$

 Created by Python create_sdf_string function

 23 25  0  0  0  0  0  0  0  0999 V2000
    2.4610   -5.3070   29.1240 C   0  0  0  0  0  0  0  0  0  0  0  0
    4.7710   -4.6952   28.4803 C   0  0  0  0  0  0  0  0  0  0  0  0
    3.4047   -5.1087   28.1314 C   0  0  0  0  0  0  0  0  0  0  0  0
   -0.2234  -11.8615   16.8874 C   0  0  0  0  0  0  0  0  0  0  0  0
    6.4491   -4.1532   30.1213 C   0  0  0  0  0  0  0  0  0  0  0  0
    5.7060   -4.4340   27.4975 C   0  0  0  0  0  0  0  0  0  0  0  0
    1.1818   -5.6612   28.8399 C   0  0  0  0  0  0  0  0  0  0  0  0
   -1.2067   -7.3287   17.7772 C   0  0  0  0  0  0  0  0  0  0  0  0
   -0.0206  -10.5585   16.6210 C   0  0  0  0  0  0  0  0  0  0  0  0
    0.3696  -12.7626   16.2169 O   0  0  0  0  0  0  0  0  0  0  0  0
   -0.6895   -9.5676   17.3297 C   0  0  0  0  0  0  0  0  0  0  0  0
    0.8388   -5.8417   27.5264 C   0  0  0  0  0  0  0  0  0  0  0  0
   -2.0709   -7.6637   18.7817 C   0  0  0  0  0  0  0  0  0  0  0  0
   -0.5279   -8.2168   17.0717 C   0  0  0  0  0  0  0  0  0  0  0  0
    6.9694   -4.0191   27.8190 C   0  0  0  0  0  0  0  0  0  0  0  0
    5.1733   -4.5469   29.8123 C   0  0  0  0  0  0  0  0  0  0  0  0
   -1.7508  -11.3016   18.6072 C   0  0  0  0  0  0  0  0  0  0  0  0
    1.7497   -5.6771   26.4971 C   0  0  0  0  0  0  0  0  0  0  0  0
   -1.5799   -9.9322   18.3468 C   0  0  0  0  0  0  0  0  0  0  0  0
   -1.0871  -12.2214   17.8851 C   0  0  0  0  0  0  0  0  0  0  0  0
   -2.2706   -8.9669   19.0691 C   0  0  0  0  0  0  0  0  0  0  0  0
    3.0279   -5.3073   26.8197 C   0  0  0  0  0  0  0  0  0  0  0  0
    7.3282   -3.8948   29.1186 C   0  0  0  0  0  0  0  0  0  0  0  0
  1  3  4  0
  1  7  4  0
  2  3  1  0
  2  6  4  0
  2 16  4  0
  3 22  4  0
  4  9  4  0
  4 10  1  0
  4 20  4  0
  5 16  4  0
  5 23  4  0
  6 15  4  0
  7 12  4  0
  8 13  4  0
  8 14  4  0
  9 11  4  0
 11 14  4  0
 11 19  4  0
 12 18  4  0
 13 21  4  0
 15 23  4  0
 17 19  4  0
 17 20  4  0
 18 22  4  0
 19 21  4  0
M  END
$$$$

 Created by Python create_sdf_string function

 23 25  0  0  0  0  0  0  0  0999 V2000
    2.4610   -5.3070   29.1240 C   0  0  0  0  0  0  0  0  0  0  0  0
    4.7710   -4.6952   28.4803 C   0  0  0  0  0  0  0  0  0  0  0  0
    3.4047   -5.1087   28.1314 C   0  0  0  0  0  0  0  0  0  0  0  0
   -0.2234  -11.8615   16.8874 C   0  0  0  0  0  0  0  0  0  0  0  0
    6.4491   -4.1532   30.1213 C   0  0  0  0  0  0  0  0  0  0  0  0
    5.7060   -4.4340   27.4975 C   0  0  0  0  0  0  0  0  0  0  0  0
    1.1818   -5.6612   28.8399 C   0  0  0  0  0  0  0  0  0  0  0  0
   -1.2067   -7.3287   17.7772 C   0  0  0  0  0  0  0  0  0  0  0  0
   -0.0206  -10.5585   16.6210 C   0  0  0  0  0  0  0  0  0  0  0  0
    0.3696  -12.7626   16.2169 O   0  0  0  0  0  0  0  0  0  0  0  0
   -0.6895   -9.5676   17.3297 C   0  0  0  0  0  0  0  0  0  0  0  0
    0.8388   -5.8417   27.5264 C   0  0  0  0  0  0  0  0  0  0  0  0
   -2.0709   -7.6637   18.7817 C   0  0  0  0  0  0  0  0  0  0  0  0
   -0.5279   -8.2168   17.0717 C   0  0  0  0  0  0  0  0  0  0  0  0
    6.9694   -4.0191   27.8190 C   0  0  0  0  0  0  0  0  0  0  0  0
    5.1733   -4.5469   29.8123 C   0  0  0  0  0  0  0  0  0  0  0  0
   -1.7508  -11.3016   18.6072 C   0  0  0  0  0  0  0  0  0  0  0  0
    1.7497   -5.6771   26.4971 C   0  0  0  0  0  0  0  0  0  0  0  0
   -1.5799   -9.9322   18.3468 C   0  0  0  0  0  0  0  0  0  0  0  0
   -1.0871  -12.2214   17.8851 C   0  0  0  0  0  0  0  0  0  0  0  0
   -2.2706   -8.9669   19.0691 C   0  0  0  0  0  0  0  0  0  0  0  0
    3.0279   -5.3073   26.8197 C   0  0  0  0  0  0  0  0  0  0  0  0
    7.3282   -3.8948   29.1186 C   0  0  0  0  0  0  0  0  0  0  0  0
  1  3  4  0
  1  7  4  0
  2  3  1  0
  2  6  4  0
  2 16  4  0
  3 22  4  0
  4  9  4  0
  4 10  1  0
  4 20  4  0
  5 16  4  0
  5 23  4  0
  6 15  4  0
  7 12  4  0
  8 13  4  0
  8 14  4  0
  9 11  4  0
 11 14  4  0
 11 19  4  0
 12 18  4  0
 13 21  4  0
 15 23  4  0
 17 19  4  0
 17 20  4  0
 18 22  4  0
 19 21  4  0
M  END
$$$$

 Created by Python create_sdf_string function

 23 25  0  0  0  0  0  0  0  0999 V2000
    2.4610   -5.3070   29.1240 C   0  0  0  0  0  0  0  0  0  0  0  0
    4.7710   -4.6952   28.4803 C   0  0  0  0  0  0  0  0  0  0  0  0
    3.4047   -5.1087   28.1314 C   0  0  0  0  0  0  0  0  0  0  0  0
   -0.2234  -11.8615   16.8874 C   0  0  0  0  0  0  0  0  0  0  0  0
    6.4491   -4.1532   30.1213 C   0  0  0  0  0  0  0  0  0  0  0  0
    5.7060   -4.4340   27.4975 C   0  0  0  0  0  0  0  0  0  0  0  0
    1.1818   -5.6612   28.8399 C   0  0  0  0  0  0  0  0  0  0  0  0
   -1.2067   -7.3287   17.7772 C   0  0  0  0  0  0  0  0  0  0  0  0
   -0.0206  -10.5585   16.6210 C   0  0  0  0  0  0  0  0  0  0  0  0
    0.3696  -12.7626   16.2169 O   0  0  0  0  0  0  0  0  0  0  0  0
   -0.6895   -9.5676   17.3297 C   0  0  0  0  0  0  0  0  0  0  0  0
    0.8388   -5.8417   27.5264 C   0  0  0  0  0  0  0  0  0  0  0  0
   -2.0709   -7.6637   18.7817 C   0  0  0  0  0  0  0  0  0  0  0  0
   -0.5279   -8.2168   17.0717 C   0  0  0  0  0  0  0  0  0  0  0  0
    6.9694   -4.0191   27.8190 C   0  0  0  0  0  0  0  0  0  0  0  0
    5.1733   -4.5469   29.8123 C   0  0  0  0  0  0  0  0  0  0  0  0
   -1.7508  -11.3016   18.6072 C   0  0  0  0  0  0  0  0  0  0  0  0
    1.7497   -5.6771   26.4971 C   0  0  0  0  0  0  0  0  0  0  0  0
   -1.5799   -9.9322   18.3468 C   0  0  0  0  0  0  0  0  0  0  0  0
   -1.0871  -12.2214   17.8851 C   0  0  0  0  0  0  0  0  0  0  0  0
   -2.2706   -8.9669   19.0691 C   0  0  0  0  0  0  0  0  0  0  0  0
    3.0279   -5.3073   26.8197 C   0  0  0  0  0  0  0  0  0  0  0  0
    7.3282   -3.8948   29.1186 C   0  0  0  0  0  0  0  0  0  0  0  0
  1  3  4  0
  1  7  4  0
  2  3  1  0
  2  6  4  0
  2 16  4  0
  3 22  4  0
  4  9  4  0
  4 10  1  0
  4 20  4  0
  5 16  4  0
  5 23  4  0
  6 15  4  0
  7 12  4  0
  8 13  4  0
  8 14  4  0
  9 11  4  0
 11 14  4  0
 11 19  4  0
 12 18  4  0
 13 21  4  0
 15 23  4  0
 17 19  4  0
 17 20  4  0
 18 22  4  0
 19 21  4  0
M  END
$$$$

 Created by Python create_sdf_string function

 23 25  0  0  0  0  0  0  0  0999 V2000
    2.4610   -5.3070   29.1240 C   0  0  0  0  0  0  0  0  0  0  0  0
    4.7710   -4.6952   28.4803 C   0  0  0  0  0  0  0  0  0  0  0  0
    3.4047   -5.1087   28.1314 C   0  0  0  0  0  0  0  0  0  0  0  0
   -0.2234  -11.8615   16.8874 C   0  0  0  0  0  0  0  0  0  0  0  0
    6.4491   -4.1532   30.1213 C   0  0  0  0  0  0  0  0  0  0  0  0
    5.7060   -4.4340   27.4975 C   0  0  0  0  0  0  0  0  0  0  0  0
    1.1818   -5.6612   28.8399 C   0  0  0  0  0  0  0  0  0  0  0  0
   -1.2067   -7.3287   17.7772 C   0  0  0  0  0  0  0  0  0  0  0  0
   -0.0206  -10.5585   16.6210 C   0  0  0  0  0  0  0  0  0  0  0  0
    0.3696  -12.7626   16.2169 O   0  0  0  0  0  0  0  0  0  0  0  0
   -0.6895   -9.5676   17.3297 C   0  0  0  0  0  0  0  0  0  0  0  0
    0.8388   -5.8417   27.5264 C   0  0  0  0  0  0  0  0  0  0  0  0
   -2.0709   -7.6637   18.7817 C   0  0  0  0  0  0  0  0  0  0  0  0
   -0.5279   -8.2168   17.0717 C   0  0  0  0  0  0  0  0  0  0  0  0
    6.9694   -4.0191   27.8190 C   0  0  0  0  0  0  0  0  0  0  0  0
    5.1733   -4.5469   29.8123 C   0  0  0  0  0  0  0  0  0  0  0  0
   -1.7508  -11.3016   18.6072 C   0  0  0  0  0  0  0  0  0  0  0  0
    1.7497   -5.6771   26.4971 C   0  0  0  0  0  0  0  0  0  0  0  0
   -1.5799   -9.9322   18.3468 C   0  0  0  0  0  0  0  0  0  0  0  0
   -1.0871  -12.2214   17.8851 C   0  0  0  0  0  0  0  0  0  0  0  0
   -2.2706   -8.9669   19.0691 C   0  0  0  0  0  0  0  0  0  0  0  0
    3.0279   -5.3073   26.8197 C   0  0  0  0  0  0  0  0  0  0  0  0
    7.3282   -3.8948   29.1186 C   0  0  0  0  0  0  0  0  0  0  0  0
  1  3  4  0
  1  7  4  0
  2  3  1  0
  2  6  4  0
  2 16  4  0
  3 22  4  0
  4  9  4  0
  4 10  1  0
  4 20  4  0
  5 16  4  0
  5 23  4  0
  6 15  4  0
  7 12  4  0
  8 13  4  0
  8 14  4  0
  9 11  4  0
 11 14  4  0
 11 19  4  0
 12 18  4  0
 13 21  4  0
 15 23  4  0
 17 19  4  0
 17 20  4  0
 18 22  4  0
 19 21  4  0
M  END
$$$$

 Created by Python create_sdf_string function

 23 25  0  0  0  0  0  0  0  0999 V2000
    2.4610   -5.3070   29.1240 C   0  0  0  0  0  0  0  0  0  0  0  0
    4.7710   -4.6952   28.4803 C   0  0  0  0  0  0  0  0  0  0  0  0
    3.4047   -5.1087   28.1314 C   0  0  0  0  0  0  0  0  0  0  0  0
   -0.2234  -11.8615   16.8874 C   0  0  0  0  0  0  0  0  0  0  0  0
    6.4491   -4.1532   30.1213 C   0  0  0  0  0  0  0  0  0  0  0  0
    5.7060   -4.4340   27.4975 C   0  0  0  0  0  0  0  0  0  0  0  0
    1.1818   -5.6612   28.8399 C   0  0  0  0  0  0  0  0  0  0  0  0
   -1.2067   -7.3287   17.7772 C   0  0  0  0  0  0  0  0  0  0  0  0
   -0.0206  -10.5585   16.6210 C   0  0  0  0  0  0  0  0  0  0  0  0
    0.3696  -12.7626   16.2169 O   0  0  0  0  0  0  0  0  0  0  0  0
   -0.6895   -9.5676   17.3297 C   0  0  0  0  0  0  0  0  0  0  0  0
    0.8388   -5.8417   27.5264 C   0  0  0  0  0  0  0  0  0  0  0  0
   -2.0709   -7.6637   18.7817 C   0  0  0  0  0  0  0  0  0  0  0  0
   -0.5279   -8.2168   17.0717 C   0  0  0  0  0  0  0  0  0  0  0  0
    6.9694   -4.0191   27.8190 C   0  0  0  0  0  0  0  0  0  0  0  0
    5.1733   -4.5469   29.8123 C   0  0  0  0  0  0  0  0  0  0  0  0
   -1.7508  -11.3016   18.6072 C   0  0  0  0  0  0  0  0  0  0  0  0
    1.7497   -5.6771   26.4971 C   0  0  0  0  0  0  0  0  0  0  0  0
   -1.5799   -9.9322   18.3468 C   0  0  0  0  0  0  0  0  0  0  0  0
   -1.0871  -12.2214   17.8851 C   0  0  0  0  0  0  0  0  0  0  0  0
   -2.2706   -8.9669   19.0691 C   0  0  0  0  0  0  0  0  0  0  0  0
    3.0279   -5.3073   26.8197 C   0  0  0  0  0  0  0  0  0  0  0  0
    7.3282   -3.8948   29.1186 C   0  0  0  0  0  0  0  0  0  0  0  0
  1  3  4  0
  1  7  4  0
  2  3  1  0
  2  6  4  0
  2 16  4  0
  3 22  4  0
  4  9  4  0
  4 10  1  0
  4 20  4  0
  5 16  4  0
  5 23  4  0
  6 15  4  0
  7 12  4  0
  8 13  4  0
  8 14  4  0
  9 11  4  0
 11 14  4  0
 11 19  4  0
 12 18  4  0
 13 21  4  0
 15 23  4  0
 17 19  4  0
 17 20  4  0
 18 22  4  0
 19 21  4  0
M  END
$$$$

 Created by Python create_sdf_string function

 23 25  0  0  0  0  0  0  0  0999 V2000
    2.4610   -5.3070   29.1240 C   0  0  0  0  0  0  0  0  0  0  0  0
    4.7710   -4.6952   28.4803 C   0  0  0  0  0  0  0  0  0  0  0  0
    3.4047   -5.1087   28.1314 C   0  0  0  0  0  0  0  0  0  0  0  0
   -0.2234  -11.8615   16.8874 C   0  0  0  0  0  0  0  0  0  0  0  0
    6.4491   -4.1532   30.1213 C   0  0  0  0  0  0  0  0  0  0  0  0
    5.7060   -4.4340   27.4975 C   0  0  0  0  0  0  0  0  0  0  0  0
    1.1818   -5.6612   28.8399 C   0  0  0  0  0  0  0  0  0  0  0  0
   -1.2067   -7.3287   17.7772 C   0  0  0  0  0  0  0  0  0  0  0  0
   -0.0206  -10.5585   16.6210 C   0  0  0  0  0  0  0  0  0  0  0  0
    0.3696  -12.7626   16.2169 O   0  0  0  0  0  0  0  0  0  0  0  0
   -0.6895   -9.5676   17.3297 C   0  0  0  0  0  0  0  0  0  0  0  0
    0.8388   -5.8417   27.5264 C   0  0  0  0  0  0  0  0  0  0  0  0
   -2.0709   -7.6637   18.7817 C   0  0  0  0  0  0  0  0  0  0  0  0
   -0.5279   -8.2168   17.0717 C   0  0  0  0  0  0  0  0  0  0  0  0
    6.9694   -4.0191   27.8190 C   0  0  0  0  0  0  0  0  0  0  0  0
    5.1733   -4.5469   29.8123 C   0  0  0  0  0  0  0  0  0  0  0  0
   -1.7508  -11.3016   18.6072 C   0  0  0  0  0  0  0  0  0  0  0  0
    1.7497   -5.6771   26.4971 C   0  0  0  0  0  0  0  0  0  0  0  0
   -1.5799   -9.9322   18.3468 C   0  0  0  0  0  0  0  0  0  0  0  0
   -1.0871  -12.2214   17.8851 C   0  0  0  0  0  0  0  0  0  0  0  0
   -2.2706   -8.9669   19.0691 C   0  0  0  0  0  0  0  0  0  0  0  0
    3.0279   -5.3073   26.8197 C   0  0  0  0  0  0  0  0  0  0  0  0
    7.3282   -3.8948   29.1186 C   0  0  0  0  0  0  0  0  0  0  0  0
  1  3  4  0
  1  7  4  0
  2  3  1  0
  2  6  4  0
  2 16  4  0
  3 22  4  0
  4  9  4  0
  4 10  1  0
  4 20  4  0
  5 16  4  0
  5 23  4  0
  6 15  4  0
  7 12  4  0
  8 13  4  0
  8 14  4  0
  9 11  4  0
 11 14  4  0
 11 19  4  0
 12 18  4  0
 13 21  4  0
 15 23  4  0
 17 19  4  0
 17 20  4  0
 18 22  4  0
 19 21  4  0
M  END
$$$$

 Created by Python create_sdf_string function

 23 25  0  0  0  0  0  0  0  0999 V2000
    2.4610   -5.3070   29.1240 C   0  0  0  0  0  0  0  0  0  0  0  0
    4.7710   -4.6952   28.4803 C   0  0  0  0  0  0  0  0  0  0  0  0
    3.4047   -5.1087   28.1314 C   0  0  0  0  0  0  0  0  0  0  0  0
   -0.2234  -11.8615   16.8874 C   0  0  0  0  0  0  0  0  0  0  0  0
    6.4491   -4.1532   30.1213 C   0  0  0  0  0  0  0  0  0  0  0  0
    5.7060   -4.4340   27.4975 C   0  0  0  0  0  0  0  0  0  0  0  0
    1.1818   -5.6612   28.8399 C   0  0  0  0  0  0  0  0  0  0  0  0
   -1.2067   -7.3287   17.7772 C   0  0  0  0  0  0  0  0  0  0  0  0
   -0.0206  -10.5585   16.6210 C   0  0  0  0  0  0  0  0  0  0  0  0
    0.3696  -12.7626   16.2169 O   0  0  0  0  0  0  0  0  0  0  0  0
   -0.6895   -9.5676   17.3297 C   0  0  0  0  0  0  0  0  0  0  0  0
    0.8388   -5.8417   27.5264 C   0  0  0  0  0  0  0  0  0  0  0  0
   -2.0709   -7.6637   18.7817 C   0  0  0  0  0  0  0  0  0  0  0  0
   -0.5279   -8.2168   17.0717 C   0  0  0  0  0  0  0  0  0  0  0  0
    6.9694   -4.0191   27.8190 C   0  0  0  0  0  0  0  0  0  0  0  0
    5.1733   -4.5469   29.8123 C   0  0  0  0  0  0  0  0  0  0  0  0
   -1.7508  -11.3016   18.6072 C   0  0  0  0  0  0  0  0  0  0  0  0
    1.7497   -5.6771   26.4971 C   0  0  0  0  0  0  0  0  0  0  0  0
   -1.5799   -9.9322   18.3468 C   0  0  0  0  0  0  0  0  0  0  0  0
   -1.0871  -12.2214   17.8851 C   0  0  0  0  0  0  0  0  0  0  0  0
   -2.2706   -8.9669   19.0691 C   0  0  0  0  0  0  0  0  0  0  0  0
    3.0279   -5.3073   26.8197 C   0  0  0  0  0  0  0  0  0  0  0  0
    7.3282   -3.8948   29.1186 C   0  0  0  0  0  0  0  0  0  0  0  0
  1  3  4  0
  1  7  4  0
  2  3  1  0
  2  6  4  0
  2 16  4  0
  3 22  4  0
  4  9  4  0
  4 10  1  0
  4 20  4  0
  5 16  4  0
  5 23  4  0
  6 15  4  0
  7 12  4  0
  8 13  4  0
  8 14  4  0
  9 11  4  0
 11 14  4  0
 11 19  4  0
 12 18  4  0
 13 21  4  0
 15 23  4  0
 17 19  4  0
 17 20  4  0
 18 22  4  0
 19 21  4  0
M  END
$$$$

 Created by Python create_sdf_string function

 23 25  0  0  0  0  0  0  0  0999 V2000
    2.4610   -5.3070   29.1240 C   0  0  0  0  0  0  0  0  0  0  0  0
    4.7710   -4.6952   28.4803 C   0  0  0  0  0  0  0  0  0  0  0  0
    3.4047   -5.1087   28.1314 C   0  0  0  0  0  0  0  0  0  0  0  0
   -0.2234  -11.8615   16.8874 C   0  0  0  0  0  0  0  0  0  0  0  0
    6.4491   -4.1532   30.1213 C   0  0  0  0  0  0  0  0  0  0  0  0
    5.7060   -4.4340   27.4975 C   0  0  0  0  0  0  0  0  0  0  0  0
    1.1818   -5.6612   28.8399 C   0  0  0  0  0  0  0  0  0  0  0  0
   -1.2067   -7.3287   17.7772 C   0  0  0  0  0  0  0  0  0  0  0  0
   -0.0206  -10.5585   16.6210 C   0  0  0  0  0  0  0  0  0  0  0  0
    0.3696  -12.7626   16.2169 O   0  0  0  0  0  0  0  0  0  0  0  0
   -0.6895   -9.5676   17.3297 C   0  0  0  0  0  0  0  0  0  0  0  0
    0.8388   -5.8417   27.5264 C   0  0  0  0  0  0  0  0  0  0  0  0
   -2.0709   -7.6637   18.7817 C   0  0  0  0  0  0  0  0  0  0  0  0
   -0.5279   -8.2168   17.0717 C   0  0  0  0  0  0  0  0  0  0  0  0
    6.9694   -4.0191   27.8190 C   0  0  0  0  0  0  0  0  0  0  0  0
    5.1733   -4.5469   29.8123 C   0  0  0  0  0  0  0  0  0  0  0  0
   -1.7508  -11.3016   18.6072 C   0  0  0  0  0  0  0  0  0  0  0  0
    1.7497   -5.6771   26.4971 C   0  0  0  0  0  0  0  0  0  0  0  0
   -1.5799   -9.9322   18.3468 C   0  0  0  0  0  0  0  0  0  0  0  0
   -1.0871  -12.2214   17.8851 C   0  0  0  0  0  0  0  0  0  0  0  0
   -2.2706   -8.9669   19.0691 C   0  0  0  0  0  0  0  0  0  0  0  0
    3.0279   -5.3073   26.8197 C   0  0  0  0  0  0  0  0  0  0  0  0
    7.3282   -3.8948   29.1186 C   0  0  0  0  0  0  0  0  0  0  0  0
  1  3  4  0
  1  7  4  0
  2  3  1  0
  2  6  4  0
  2 16  4  0
  3 22  4  0
  4  9  4  0
  4 10  1  0
  4 20  4  0
  5 16  4  0
  5 23  4  0
  6 15  4  0
  7 12  4  0
  8 13  4  0
  8 14  4  0
  9 11  4  0
 11 14  4  0
 11 19  4  0
 12 18  4  0
 13 21  4  0
 15 23  4  0
 17 19  4  0
 17 20  4  0
 18 22  4  0
 19 21  4  0
M  END
$$$$

 Created by Python create_sdf_string function

 23 25  0  0  0  0  0  0  0  0999 V2000
    2.4610   -5.3070   29.1240 C   0  0  0  0  0  0  0  0  0  0  0  0
    4.7710   -4.6952   28.4803 C   0  0  0  0  0  0  0  0  0  0  0  0
    3.4047   -5.1087   28.1314 C   0  0  0  0  0  0  0  0  0  0  0  0
   -0.2234  -11.8615   16.8874 C   0  0  0  0  0  0  0  0  0  0  0  0
    6.4491   -4.1532   30.1213 C   0  0  0  0  0  0  0  0  0  0  0  0
    5.7060   -4.4340   27.4975 C   0  0  0  0  0  0  0  0  0  0  0  0
    1.1818   -5.6612   28.8399 C   0  0  0  0  0  0  0  0  0  0  0  0
   -1.2067   -7.3287   17.7772 C   0  0  0  0  0  0  0  0  0  0  0  0
   -0.0206  -10.5585   16.6210 C   0  0  0  0  0  0  0  0  0  0  0  0
    0.3696  -12.7626   16.2169 O   0  0  0  0  0  0  0  0  0  0  0  0
   -0.6895   -9.5676   17.3297 C   0  0  0  0  0  0  0  0  0  0  0  0
    0.8388   -5.8417   27.5264 C   0  0  0  0  0  0  0  0  0  0  0  0
   -2.0709   -7.6637   18.7817 C   0  0  0  0  0  0  0  0  0  0  0  0
   -0.5279   -8.2168   17.0717 C   0  0  0  0  0  0  0  0  0  0  0  0
    6.9694   -4.0191   27.8190 C   0  0  0  0  0  0  0  0  0  0  0  0
    5.1733   -4.5469   29.8123 C   0  0  0  0  0  0  0  0  0  0  0  0
   -1.7508  -11.3016   18.6072 C   0  0  0  0  0  0  0  0  0  0  0  0
    1.7497   -5.6771   26.4971 C   0  0  0  0  0  0  0  0  0  0  0  0
   -1.5799   -9.9322   18.3468 C   0  0  0  0  0  0  0  0  0  0  0  0
   -1.0871  -12.2214   17.8851 C   0  0  0  0  0  0  0  0  0  0  0  0
   -2.2706   -8.9669   19.0691 C   0  0  0  0  0  0  0  0  0  0  0  0
    3.0279   -5.3073   26.8197 C   0  0  0  0  0  0  0  0  0  0  0  0
    7.3282   -3.8948   29.1186 C   0  0  0  0  0  0  0  0  0  0  0  0
  1  3  4  0
  1  7  4  0
  2  3  1  0
  2  6  4  0
  2 16  4  0
  3 22  4  0
  4  9  4  0
  4 10  1  0
  4 20  4  0
  5 16  4  0
  5 23  4  0
  6 15  4  0
  7 12  4  0
  8 13  4  0
  8 14  4  0
  9 11  4  0
 11 14  4  0
 11 19  4  0
 12 18  4  0
 13 21  4  0
 15 23  4  0
 17 19  4  0
 17 20  4  0
 18 22  4  0
 19 21  4  0
M  END
$$$$

 Created by Python create_sdf_string function

 23 25  0  0  0  0  0  0  0  0999 V2000
    2.4610   -5.3070   29.1240 C   0  0  0  0  0  0  0  0  0  0  0  0
    4.7710   -4.6952   28.4803 C   0  0  0  0  0  0  0  0  0  0  0  0
    3.4047   -5.1087   28.1314 C   0  0  0  0  0  0  0  0  0  0  0  0
   -0.2234  -11.8615   16.8874 C   0  0  0  0  0  0  0  0  0  0  0  0
    6.4491   -4.1532   30.1213 C   0  0  0  0  0  0  0  0  0  0  0  0
    5.7060   -4.4340   27.4975 C   0  0  0  0  0  0  0  0  0  0  0  0
    1.1818   -5.6612   28.8399 C   0  0  0  0  0  0  0  0  0  0  0  0
   -1.2067   -7.3287   17.7772 C   0  0  0  0  0  0  0  0  0  0  0  0
   -0.0206  -10.5585   16.6210 C   0  0  0  0  0  0  0  0  0  0  0  0
    0.3696  -12.7626   16.2169 O   0  0  0  0  0  0  0  0  0  0  0  0
   -0.6895   -9.5676   17.3297 C   0  0  0  0  0  0  0  0  0  0  0  0
    0.8388   -5.8417   27.5264 C   0  0  0  0  0  0  0  0  0  0  0  0
   -2.0709   -7.6637   18.7817 C   0  0  0  0  0  0  0  0  0  0  0  0
   -0.5279   -8.2168   17.0717 C   0  0  0  0  0  0  0  0  0  0  0  0
    6.9694   -4.0191   27.8190 C   0  0  0  0  0  0  0  0  0  0  0  0
    5.1733   -4.5469   29.8123 C   0  0  0  0  0  0  0  0  0  0  0  0
   -1.7508  -11.3016   18.6072 C   0  0  0  0  0  0  0  0  0  0  0  0
    1.7497   -5.6771   26.4971 C   0  0  0  0  0  0  0  0  0  0  0  0
   -1.5799   -9.9322   18.3468 C   0  0  0  0  0  0  0  0  0  0  0  0
   -1.0871  -12.2214   17.8851 C   0  0  0  0  0  0  0  0  0  0  0  0
   -2.2706   -8.9669   19.0691 C   0  0  0  0  0  0  0  0  0  0  0  0
    3.0279   -5.3073   26.8197 C   0  0  0  0  0  0  0  0  0  0  0  0
    7.3282   -3.8948   29.1186 C   0  0  0  0  0  0  0  0  0  0  0  0
  1  3  4  0
  1  7  4  0
  2  3  1  0
  2  6  4  0
  2 16  4  0
  3 22  4  0
  4  9  4  0
  4 10  1  0
  4 20  4  0
  5 16  4  0
  5 23  4  0
  6 15  4  0
  7 12  4  0
  8 13  4  0
  8 14  4  0
  9 11  4  0
 11 14  4  0
 11 19  4  0
 12 18  4  0
 13 21  4  0
 15 23  4  0
 17 19  4  0
 17 20  4  0
 18 22  4  0
 19 21  4  0
M  END
$$$$

 Created by Python create_sdf_string function

 23 25  0  0  0  0  0  0  0  0999 V2000
    2.4610   -5.3070   29.1240 C   0  0  0  0  0  0  0  0  0  0  0  0
    4.7710   -4.6952   28.4803 C   0  0  0  0  0  0  0  0  0  0  0  0
    3.4047   -5.1087   28.1314 C   0  0  0  0  0  0  0  0  0  0  0  0
   -0.2234  -11.8615   16.8874 C   0  0  0  0  0  0  0  0  0  0  0  0
    6.4491   -4.1532   30.1213 C   0  0  0  0  0  0  0  0  0  0  0  0
    5.7060   -4.4340   27.4975 C   0  0  0  0  0  0  0  0  0  0  0  0
    1.1818   -5.6612   28.8399 C   0  0  0  0  0  0  0  0  0  0  0  0
   -1.2067   -7.3287   17.7772 C   0  0  0  0  0  0  0  0  0  0  0  0
   -0.0206  -10.5585   16.6210 C   0  0  0  0  0  0  0  0  0  0  0  0
    0.3696  -12.7626   16.2169 O   0  0  0  0  0  0  0  0  0  0  0  0
   -0.6895   -9.5676   17.3297 C   0  0  0  0  0  0  0  0  0  0  0  0
    0.8388   -5.8417   27.5264 C   0  0  0  0  0  0  0  0  0  0  0  0
   -2.0709   -7.6637   18.7817 C   0  0  0  0  0  0  0  0  0  0  0  0
   -0.5279   -8.2168   17.0717 C   0  0  0  0  0  0  0  0  0  0  0  0
    6.9694   -4.0191   27.8190 C   0  0  0  0  0  0  0  0  0  0  0  0
    5.1733   -4.5469   29.8123 C   0  0  0  0  0  0  0  0  0  0  0  0
   -1.7508  -11.3016   18.6072 C   0  0  0  0  0  0  0  0  0  0  0  0
    1.7497   -5.6771   26.4971 C   0  0  0  0  0  0  0  0  0  0  0  0
   -1.5799   -9.9322   18.3468 C   0  0  0  0  0  0  0  0  0  0  0  0
   -1.0871  -12.2214   17.8851 C   0  0  0  0  0  0  0  0  0  0  0  0
   -2.2706   -8.9669   19.0691 C   0  0  0  0  0  0  0  0  0  0  0  0
    3.0279   -5.3073   26.8197 C   0  0  0  0  0  0  0  0  0  0  0  0
    7.3282   -3.8948   29.1186 C   0  0  0  0  0  0  0  0  0  0  0  0
  1  3  4  0
  1  7  4  0
  2  3  1  0
  2  6  4  0
  2 16  4  0
  3 22  4  0
  4  9  4  0
  4 10  1  0
  4 20  4  0
  5 16  4  0
  5 23  4  0
  6 15  4  0
  7 12  4  0
  8 13  4  0
  8 14  4  0
  9 11  4  0
 11 14  4  0
 11 19  4  0
 12 18  4  0
 13 21  4  0
 15 23  4  0
 17 19  4  0
 17 20  4  0
 18 22  4  0
 19 21  4  0
M  END
$$$$

 Created by Python create_sdf_string function

 23 25  0  0  0  0  0  0  0  0999 V2000
    2.4610   -5.3070   29.1240 C   0  0  0  0  0  0  0  0  0  0  0  0
    4.7710   -4.6952   28.4803 C   0  0  0  0  0  0  0  0  0  0  0  0
    3.4047   -5.1087   28.1314 C   0  0  0  0  0  0  0  0  0  0  0  0
   -0.2234  -11.8615   16.8874 C   0  0  0  0  0  0  0  0  0  0  0  0
    6.4491   -4.1532   30.1213 C   0  0  0  0  0  0  0  0  0  0  0  0
    5.7060   -4.4340   27.4975 C   0  0  0  0  0  0  0  0  0  0  0  0
    1.1818   -5.6612   28.8399 C   0  0  0  0  0  0  0  0  0  0  0  0
   -1.2067   -7.3287   17.7772 C   0  0  0  0  0  0  0  0  0  0  0  0
   -0.0206  -10.5585   16.6210 C   0  0  0  0  0  0  0  0  0  0  0  0
    0.3696  -12.7626   16.2169 O   0  0  0  0  0  0  0  0  0  0  0  0
   -0.6895   -9.5676   17.3297 C   0  0  0  0  0  0  0  0  0  0  0  0
    0.8388   -5.8417   27.5264 C   0  0  0  0  0  0  0  0  0  0  0  0
   -2.0709   -7.6637   18.7817 C   0  0  0  0  0  0  0  0  0  0  0  0
   -0.5279   -8.2168   17.0717 C   0  0  0  0  0  0  0  0  0  0  0  0
    6.9694   -4.0191   27.8190 C   0  0  0  0  0  0  0  0  0  0  0  0
    5.1733   -4.5469   29.8123 C   0  0  0  0  0  0  0  0  0  0  0  0
   -1.7508  -11.3016   18.6072 C   0  0  0  0  0  0  0  0  0  0  0  0
    1.7497   -5.6771   26.4971 C   0  0  0  0  0  0  0  0  0  0  0  0
   -1.5799   -9.9322   18.3468 C   0  0  0  0  0  0  0  0  0  0  0  0
   -1.0871  -12.2214   17.8851 C   0  0  0  0  0  0  0  0  0  0  0  0
   -2.2706   -8.9669   19.0691 C   0  0  0  0  0  0  0  0  0  0  0  0
    3.0279   -5.3073   26.8197 C   0  0  0  0  0  0  0  0  0  0  0  0
    7.3282   -3.8948   29.1186 C   0  0  0  0  0  0  0  0  0  0  0  0
  1  3  4  0
  1  7  4  0
  2  3  1  0
  2  6  4  0
  2 16  4  0
  3 22  4  0
  4  9  4  0
  4 10  1  0
  4 20  4  0
  5 16  4  0
  5 23  4  0
  6 15  4  0
  7 12  4  0
  8 13  4  0
  8 14  4  0
  9 11  4  0
 11 14  4  0
 11 19  4  0
 12 18  4  0
 13 21  4  0
 15 23  4  0
 17 19  4  0
 17 20  4  0
 18 22  4  0
 19 21  4  0
M  END
$$$$

 Created by Python create_sdf_string function

 23 25  0  0  0  0  0  0  0  0999 V2000
    2.4610   -5.3070   29.1240 C   0  0  0  0  0  0  0  0  0  0  0  0
    4.7710   -4.6952   28.4803 C   0  0  0  0  0  0  0  0  0  0  0  0
    3.4047   -5.1087   28.1314 C   0  0  0  0  0  0  0  0  0  0  0  0
   -0.2234  -11.8615   16.8874 C   0  0  0  0  0  0  0  0  0  0  0  0
    6.4491   -4.1532   30.1213 C   0  0  0  0  0  0  0  0  0  0  0  0
    5.7060   -4.4340   27.4975 C   0  0  0  0  0  0  0  0  0  0  0  0
    1.1818   -5.6612   28.8399 C   0  0  0  0  0  0  0  0  0  0  0  0
   -1.2067   -7.3287   17.7772 C   0  0  0  0  0  0  0  0  0  0  0  0
   -0.0206  -10.5585   16.6210 C   0  0  0  0  0  0  0  0  0  0  0  0
    0.3696  -12.7626   16.2169 O   0  0  0  0  0  0  0  0  0  0  0  0
   -0.6895   -9.5676   17.3297 C   0  0  0  0  0  0  0  0  0  0  0  0
    0.8388   -5.8417   27.5264 C   0  0  0  0  0  0  0  0  0  0  0  0
   -2.0709   -7.6637   18.7817 C   0  0  0  0  0  0  0  0  0  0  0  0
   -0.5279   -8.2168   17.0717 C   0  0  0  0  0  0  0  0  0  0  0  0
    6.9694   -4.0191   27.8190 C   0  0  0  0  0  0  0  0  0  0  0  0
    5.1733   -4.5469   29.8123 C   0  0  0  0  0  0  0  0  0  0  0  0
   -1.7508  -11.3016   18.6072 C   0  0  0  0  0  0  0  0  0  0  0  0
    1.7497   -5.6771   26.4971 C   0  0  0  0  0  0  0  0  0  0  0  0
   -1.5799   -9.9322   18.3468 C   0  0  0  0  0  0  0  0  0  0  0  0
   -1.0871  -12.2214   17.8851 C   0  0  0  0  0  0  0  0  0  0  0  0
   -2.2706   -8.9669   19.0691 C   0  0  0  0  0  0  0  0  0  0  0  0
    3.0279   -5.3073   26.8197 C   0  0  0  0  0  0  0  0  0  0  0  0
    7.3282   -3.8948   29.1186 C   0  0  0  0  0  0  0  0  0  0  0  0
  1  3  4  0
  1  7  4  0
  2  3  1  0
  2  6  4  0
  2 16  4  0
  3 22  4  0
  4  9  4  0
  4 10  1  0
  4 20  4  0
  5 16  4  0
  5 23  4  0
  6 15  4  0
  7 12  4  0
  8 13  4  0
  8 14  4  0
  9 11  4  0
 11 14  4  0
 11 19  4  0
 12 18  4  0
 13 21  4  0
 15 23  4  0
 17 19  4  0
 17 20  4  0
 18 22  4  0
 19 21  4  0
M  END
$$$$

 Created by Python create_sdf_string function

 23 25  0  0  0  0  0  0  0  0999 V2000
    2.4610   -5.3070   29.1240 C   0  0  0  0  0  0  0  0  0  0  0  0
    4.7710   -4.6952   28.4803 C   0  0  0  0  0  0  0  0  0  0  0  0
    3.4047   -5.1087   28.1314 C   0  0  0  0  0  0  0  0  0  0  0  0
   -0.2234  -11.8615   16.8874 C   0  0  0  0  0  0  0  0  0  0  0  0
    6.4491   -4.1532   30.1213 C   0  0  0  0  0  0  0  0  0  0  0  0
    5.7060   -4.4340   27.4975 C   0  0  0  0  0  0  0  0  0  0  0  0
    1.1818   -5.6612   28.8399 C   0  0  0  0  0  0  0  0  0  0  0  0
   -1.2067   -7.3287   17.7772 C   0  0  0  0  0  0  0  0  0  0  0  0
   -0.0206  -10.5585   16.6210 C   0  0  0  0  0  0  0  0  0  0  0  0
    0.3696  -12.7626   16.2169 O   0  0  0  0  0  0  0  0  0  0  0  0
   -0.6895   -9.5676   17.3297 C   0  0  0  0  0  0  0  0  0  0  0  0
    0.8388   -5.8417   27.5264 C   0  0  0  0  0  0  0  0  0  0  0  0
   -2.0709   -7.6637   18.7817 C   0  0  0  0  0  0  0  0  0  0  0  0
   -0.5279   -8.2168   17.0717 C   0  0  0  0  0  0  0  0  0  0  0  0
    6.9694   -4.0191   27.8190 C   0  0  0  0  0  0  0  0  0  0  0  0
    5.1733   -4.5469   29.8123 C   0  0  0  0  0  0  0  0  0  0  0  0
   -1.7508  -11.3016   18.6072 C   0  0  0  0  0  0  0  0  0  0  0  0
    1.7497   -5.6771   26.4971 C   0  0  0  0  0  0  0  0  0  0  0  0
   -1.5799   -9.9322   18.3468 C   0  0  0  0  0  0  0  0  0  0  0  0
   -1.0871  -12.2214   17.8851 C   0  0  0  0  0  0  0  0  0  0  0  0
   -2.2706   -8.9669   19.0691 C   0  0  0  0  0  0  0  0  0  0  0  0
    3.0279   -5.3073   26.8197 C   0  0  0  0  0  0  0  0  0  0  0  0
    7.3282   -3.8948   29.1186 C   0  0  0  0  0  0  0  0  0  0  0  0
  1  3  4  0
  1  7  4  0
  2  3  1  0
  2  6  4  0
  2 16  4  0
  3 22  4  0
  4  9  4  0
  4 10  1  0
  4 20  4  0
  5 16  4  0
  5 23  4  0
  6 15  4  0
  7 12  4  0
  8 13  4  0
  8 14  4  0
  9 11  4  0
 11 14  4  0
 11 19  4  0
 12 18  4  0
 13 21  4  0
 15 23  4  0
 17 19  4  0
 17 20  4  0
 18 22  4  0
 19 21  4  0
M  END
$$$$

 Created by Python create_sdf_string function

 23 25  0  0  0  0  0  0  0  0999 V2000
    2.4610   -5.3070   29.1240 C   0  0  0  0  0  0  0  0  0  0  0  0
    4.7710   -4.6952   28.4803 C   0  0  0  0  0  0  0  0  0  0  0  0
    3.4047   -5.1087   28.1314 C   0  0  0  0  0  0  0  0  0  0  0  0
   -0.2234  -11.8615   16.8874 C   0  0  0  0  0  0  0  0  0  0  0  0
    6.4491   -4.1532   30.1213 C   0  0  0  0  0  0  0  0  0  0  0  0
    5.7060   -4.4340   27.4975 C   0  0  0  0  0  0  0  0  0  0  0  0
    1.1818   -5.6612   28.8399 C   0  0  0  0  0  0  0  0  0  0  0  0
   -1.2067   -7.3287   17.7772 C   0  0  0  0  0  0  0  0  0  0  0  0
   -0.0206  -10.5585   16.6210 C   0  0  0  0  0  0  0  0  0  0  0  0
    0.3696  -12.7626   16.2169 O   0  0  0  0  0  0  0  0  0  0  0  0
   -0.6895   -9.5676   17.3297 C   0  0  0  0  0  0  0  0  0  0  0  0
    0.8388   -5.8417   27.5264 C   0  0  0  0  0  0  0  0  0  0  0  0
   -2.0709   -7.6637   18.7817 C   0  0  0  0  0  0  0  0  0  0  0  0
   -0.5279   -8.2168   17.0717 C   0  0  0  0  0  0  0  0  0  0  0  0
    6.9694   -4.0191   27.8190 C   0  0  0  0  0  0  0  0  0  0  0  0
    5.1733   -4.5469   29.8123 C   0  0  0  0  0  0  0  0  0  0  0  0
   -1.7508  -11.3016   18.6072 C   0  0  0  0  0  0  0  0  0  0  0  0
    1.7497   -5.6771   26.4971 C   0  0  0  0  0  0  0  0  0  0  0  0
   -1.5799   -9.9322   18.3468 C   0  0  0  0  0  0  0  0  0  0  0  0
   -1.0871  -12.2214   17.8851 C   0  0  0  0  0  0  0  0  0  0  0  0
   -2.2706   -8.9669   19.0691 C   0  0  0  0  0  0  0  0  0  0  0  0
    3.0279   -5.3073   26.8197 C   0  0  0  0  0  0  0  0  0  0  0  0
    7.3282   -3.8948   29.1186 C   0  0  0  0  0  0  0  0  0  0  0  0
  1  3  4  0
  1  7  4  0
  2  3  1  0
  2  6  4  0
  2 16  4  0
  3 22  4  0
  4  9  4  0
  4 10  1  0
  4 20  4  0
  5 16  4  0
  5 23  4  0
  6 15  4  0
  7 12  4  0
  8 13  4  0
  8 14  4  0
  9 11  4  0
 11 14  4  0
 11 19  4  0
 12 18  4  0
 13 21  4  0
 15 23  4  0
 17 19  4  0
 17 20  4  0
 18 22  4  0
 19 21  4  0
M  END
$$$$

 Created by Python create_sdf_string function

 23 25  0  0  0  0  0  0  0  0999 V2000
    2.4610   -5.3070   29.1240 C   0  0  0  0  0  0  0  0  0  0  0  0
    4.7710   -4.6952   28.4803 C   0  0  0  0  0  0  0  0  0  0  0  0
    3.4047   -5.1087   28.1314 C   0  0  0  0  0  0  0  0  0  0  0  0
   -0.2234  -11.8615   16.8874 C   0  0  0  0  0  0  0  0  0  0  0  0
    6.4491   -4.1532   30.1213 C   0  0  0  0  0  0  0  0  0  0  0  0
    5.7060   -4.4340   27.4975 C   0  0  0  0  0  0  0  0  0  0  0  0
    1.1818   -5.6612   28.8399 C   0  0  0  0  0  0  0  0  0  0  0  0
   -1.2067   -7.3287   17.7772 C   0  0  0  0  0  0  0  0  0  0  0  0
   -0.0206  -10.5585   16.6210 C   0  0  0  0  0  0  0  0  0  0  0  0
    0.3696  -12.7626   16.2169 O   0  0  0  0  0  0  0  0  0  0  0  0
   -0.6895   -9.5676   17.3297 C   0  0  0  0  0  0  0  0  0  0  0  0
    0.8388   -5.8417   27.5264 C   0  0  0  0  0  0  0  0  0  0  0  0
   -2.0709   -7.6637   18.7817 C   0  0  0  0  0  0  0  0  0  0  0  0
   -0.5279   -8.2168   17.0717 C   0  0  0  0  0  0  0  0  0  0  0  0
    6.9694   -4.0191   27.8190 C   0  0  0  0  0  0  0  0  0  0  0  0
    5.1733   -4.5469   29.8123 C   0  0  0  0  0  0  0  0  0  0  0  0
   -1.7508  -11.3016   18.6072 C   0  0  0  0  0  0  0  0  0  0  0  0
    1.7497   -5.6771   26.4971 C   0  0  0  0  0  0  0  0  0  0  0  0
   -1.5799   -9.9322   18.3468 C   0  0  0  0  0  0  0  0  0  0  0  0
   -1.0871  -12.2214   17.8851 C   0  0  0  0  0  0  0  0  0  0  0  0
   -2.2706   -8.9669   19.0691 C   0  0  0  0  0  0  0  0  0  0  0  0
    3.0279   -5.3073   26.8197 C   0  0  0  0  0  0  0  0  0  0  0  0
    7.3282   -3.8948   29.1186 C   0  0  0  0  0  0  0  0  0  0  0  0
  1  3  4  0
  1  7  4  0
  2  3  1  0
  2  6  4  0
  2 16  4  0
  3 22  4  0
  4  9  4  0
  4 10  1  0
  4 20  4  0
  5 16  4  0
  5 23  4  0
  6 15  4  0
  7 12  4  0
  8 13  4  0
  8 14  4  0
  9 11  4  0
 11 14  4  0
 11 19  4  0
 12 18  4  0
 13 21  4  0
 15 23  4  0
 17 19  4  0
 17 20  4  0
 18 22  4  0
 19 21  4  0
M  END
$$$$

 Created by Python create_sdf_string function

 23 25  0  0  0  0  0  0  0  0999 V2000
    2.4610   -5.3070   29.1240 C   0  0  0  0  0  0  0  0  0  0  0  0
    4.7710   -4.6952   28.4803 C   0  0  0  0  0  0  0  0  0  0  0  0
    3.4047   -5.1087   28.1314 C   0  0  0  0  0  0  0  0  0  0  0  0
   -0.2234  -11.8615   16.8874 C   0  0  0  0  0  0  0  0  0  0  0  0
    6.4491   -4.1532   30.1213 C   0  0  0  0  0  0  0  0  0  0  0  0
    5.7060   -4.4340   27.4975 C   0  0  0  0  0  0  0  0  0  0  0  0
    1.1818   -5.6612   28.8399 C   0  0  0  0  0  0  0  0  0  0  0  0
   -1.2067   -7.3287   17.7772 C   0  0  0  0  0  0  0  0  0  0  0  0
   -0.0206  -10.5585   16.6210 C   0  0  0  0  0  0  0  0  0  0  0  0
    0.3696  -12.7626   16.2169 O   0  0  0  0  0  0  0  0  0  0  0  0
   -0.6895   -9.5676   17.3297 C   0  0  0  0  0  0  0  0  0  0  0  0
    0.8388   -5.8417   27.5264 C   0  0  0  0  0  0  0  0  0  0  0  0
   -2.0709   -7.6637   18.7817 C   0  0  0  0  0  0  0  0  0  0  0  0
   -0.5279   -8.2168   17.0717 C   0  0  0  0  0  0  0  0  0  0  0  0
    6.9694   -4.0191   27.8190 C   0  0  0  0  0  0  0  0  0  0  0  0
    5.1733   -4.5469   29.8123 C   0  0  0  0  0  0  0  0  0  0  0  0
   -1.7508  -11.3016   18.6072 C   0  0  0  0  0  0  0  0  0  0  0  0
    1.7497   -5.6771   26.4971 C   0  0  0  0  0  0  0  0  0  0  0  0
   -1.5799   -9.9322   18.3468 C   0  0  0  0  0  0  0  0  0  0  0  0
   -1.0871  -12.2214   17.8851 C   0  0  0  0  0  0  0  0  0  0  0  0
   -2.2706   -8.9669   19.0691 C   0  0  0  0  0  0  0  0  0  0  0  0
    3.0279   -5.3073   26.8197 C   0  0  0  0  0  0  0  0  0  0  0  0
    7.3282   -3.8948   29.1186 C   0  0  0  0  0  0  0  0  0  0  0  0
  1  3  4  0
  1  7  4  0
  2  3  1  0
  2  6  4  0
  2 16  4  0
  3 22  4  0
  4  9  4  0
  4 10  1  0
  4 20  4  0
  5 16  4  0
  5 23  4  0
  6 15  4  0
  7 12  4  0
  8 13  4  0
  8 14  4  0
  9 11  4  0
 11 14  4  0
 11 19  4  0
 12 18  4  0
 13 21  4  0
 15 23  4  0
 17 19  4  0
 17 20  4  0
 18 22  4  0
 19 21  4  0
M  END
$$$$

 Created by Python create_sdf_string function

 23 25  0  0  0  0  0  0  0  0999 V2000
    2.4610   -5.3070   29.1240 C   0  0  0  0  0  0  0  0  0  0  0  0
    4.7710   -4.6952   28.4803 C   0  0  0  0  0  0  0  0  0  0  0  0
    3.4047   -5.1087   28.1314 C   0  0  0  0  0  0  0  0  0  0  0  0
   -0.2234  -11.8615   16.8874 C   0  0  0  0  0  0  0  0  0  0  0  0
    6.4491   -4.1532   30.1213 C   0  0  0  0  0  0  0  0  0  0  0  0
    5.7060   -4.4340   27.4975 C   0  0  0  0  0  0  0  0  0  0  0  0
    1.1818   -5.6612   28.8399 C   0  0  0  0  0  0  0  0  0  0  0  0
   -1.2067   -7.3287   17.7772 C   0  0  0  0  0  0  0  0  0  0  0  0
   -0.0206  -10.5585   16.6210 C   0  0  0  0  0  0  0  0  0  0  0  0
    0.3696  -12.7626   16.2169 O   0  0  0  0  0  0  0  0  0  0  0  0
   -0.6895   -9.5676   17.3297 C   0  0  0  0  0  0  0  0  0  0  0  0
    0.8388   -5.8417   27.5264 C   0  0  0  0  0  0  0  0  0  0  0  0
   -2.0709   -7.6637   18.7817 C   0  0  0  0  0  0  0  0  0  0  0  0
   -0.5279   -8.2168   17.0717 C   0  0  0  0  0  0  0  0  0  0  0  0
    6.9694   -4.0191   27.8190 C   0  0  0  0  0  0  0  0  0  0  0  0
    5.1733   -4.5469   29.8123 C   0  0  0  0  0  0  0  0  0  0  0  0
   -1.7508  -11.3016   18.6072 C   0  0  0  0  0  0  0  0  0  0  0  0
    1.7497   -5.6771   26.4971 C   0  0  0  0  0  0  0  0  0  0  0  0
   -1.5799   -9.9322   18.3468 C   0  0  0  0  0  0  0  0  0  0  0  0
   -1.0871  -12.2214   17.8851 C   0  0  0  0  0  0  0  0  0  0  0  0
   -2.2706   -8.9669   19.0691 C   0  0  0  0  0  0  0  0  0  0  0  0
    3.0279   -5.3073   26.8197 C   0  0  0  0  0  0  0  0  0  0  0  0
    7.3282   -3.8948   29.1186 C   0  0  0  0  0  0  0  0  0  0  0  0
  1  3  4  0
  1  7  4  0
  2  3  1  0
  2  6  4  0
  2 16  4  0
  3 22  4  0
  4  9  4  0
  4 10  1  0
  4 20  4  0
  5 16  4  0
  5 23  4  0
  6 15  4  0
  7 12  4  0
  8 13  4  0
  8 14  4  0
  9 11  4  0
 11 14  4  0
 11 19  4  0
 12 18  4  0
 13 21  4  0
 15 23  4  0
 17 19  4  0
 17 20  4  0
 18 22  4  0
 19 21  4  0
M  END
$$$$

 Created by Python create_sdf_string function

 23 25  0  0  0  0  0  0  0  0999 V2000
    2.4610   -5.3070   29.1240 C   0  0  0  0  0  0  0  0  0  0  0  0
    4.7710   -4.6952   28.4803 C   0  0  0  0  0  0  0  0  0  0  0  0
    3.4047   -5.1087   28.1314 C   0  0  0  0  0  0  0  0  0  0  0  0
   -0.2234  -11.8615   16.8874 C   0  0  0  0  0  0  0  0  0  0  0  0
    6.4491   -4.1532   30.1213 C   0  0  0  0  0  0  0  0  0  0  0  0
    5.7060   -4.4340   27.4975 C   0  0  0  0  0  0  0  0  0  0  0  0
    1.1818   -5.6612   28.8399 C   0  0  0  0  0  0  0  0  0  0  0  0
   -1.2067   -7.3287   17.7772 C   0  0  0  0  0  0  0  0  0  0  0  0
   -0.0206  -10.5585   16.6210 C   0  0  0  0  0  0  0  0  0  0  0  0
    0.3696  -12.7626   16.2169 O   0  0  0  0  0  0  0  0  0  0  0  0
   -0.6895   -9.5676   17.3297 C   0  0  0  0  0  0  0  0  0  0  0  0
    0.8388   -5.8417   27.5264 C   0  0  0  0  0  0  0  0  0  0  0  0
   -2.0709   -7.6637   18.7817 C   0  0  0  0  0  0  0  0  0  0  0  0
   -0.5279   -8.2168   17.0717 C   0  0  0  0  0  0  0  0  0  0  0  0
    6.9694   -4.0191   27.8190 C   0  0  0  0  0  0  0  0  0  0  0  0
    5.1733   -4.5469   29.8123 C   0  0  0  0  0  0  0  0  0  0  0  0
   -1.7508  -11.3016   18.6072 C   0  0  0  0  0  0  0  0  0  0  0  0
    1.7497   -5.6771   26.4971 C   0  0  0  0  0  0  0  0  0  0  0  0
   -1.5799   -9.9322   18.3468 C   0  0  0  0  0  0  0  0  0  0  0  0
   -1.0871  -12.2214   17.8851 C   0  0  0  0  0  0  0  0  0  0  0  0
   -2.2706   -8.9669   19.0691 C   0  0  0  0  0  0  0  0  0  0  0  0
    3.0279   -5.3073   26.8197 C   0  0  0  0  0  0  0  0  0  0  0  0
    7.3282   -3.8948   29.1186 C   0  0  0  0  0  0  0  0  0  0  0  0
  1  3  4  0
  1  7  4  0
  2  3  1  0
  2  6  4  0
  2 16  4  0
  3 22  4  0
  4  9  4  0
  4 10  1  0
  4 20  4  0
  5 16  4  0
  5 23  4  0
  6 15  4  0
  7 12  4  0
  8 13  4  0
  8 14  4  0
  9 11  4  0
 11 14  4  0
 11 19  4  0
 12 18  4  0
 13 21  4  0
 15 23  4  0
 17 19  4  0
 17 20  4  0
 18 22  4  0
 19 21  4  0
M  END
$$$$

 Created by Python create_sdf_string function

 23 25  0  0  0  0  0  0  0  0999 V2000
    2.4610   -5.3070   29.1240 C   0  0  0  0  0  0  0  0  0  0  0  0
    4.7710   -4.6952   28.4803 C   0  0  0  0  0  0  0  0  0  0  0  0
    3.4047   -5.1087   28.1314 C   0  0  0  0  0  0  0  0  0  0  0  0
   -0.2234  -11.8615   16.8874 C   0  0  0  0  0  0  0  0  0  0  0  0
    6.4491   -4.1532   30.1213 C   0  0  0  0  0  0  0  0  0  0  0  0
    5.7060   -4.4340   27.4975 C   0  0  0  0  0  0  0  0  0  0  0  0
    1.1818   -5.6612   28.8399 C   0  0  0  0  0  0  0  0  0  0  0  0
   -1.2067   -7.3287   17.7772 C   0  0  0  0  0  0  0  0  0  0  0  0
   -0.0206  -10.5585   16.6210 C   0  0  0  0  0  0  0  0  0  0  0  0
    0.3696  -12.7626   16.2169 O   0  0  0  0  0  0  0  0  0  0  0  0
   -0.6895   -9.5676   17.3297 C   0  0  0  0  0  0  0  0  0  0  0  0
    0.8388   -5.8417   27.5264 C   0  0  0  0  0  0  0  0  0  0  0  0
   -2.0709   -7.6637   18.7817 C   0  0  0  0  0  0  0  0  0  0  0  0
   -0.5279   -8.2168   17.0717 C   0  0  0  0  0  0  0  0  0  0  0  0
    6.9694   -4.0191   27.8190 C   0  0  0  0  0  0  0  0  0  0  0  0
    5.1733   -4.5469   29.8123 C   0  0  0  0  0  0  0  0  0  0  0  0
   -1.7508  -11.3016   18.6072 C   0  0  0  0  0  0  0  0  0  0  0  0
    1.7497   -5.6771   26.4971 C   0  0  0  0  0  0  0  0  0  0  0  0
   -1.5799   -9.9322   18.3468 C   0  0  0  0  0  0  0  0  0  0  0  0
   -1.0871  -12.2214   17.8851 C   0  0  0  0  0  0  0  0  0  0  0  0
   -2.2706   -8.9669   19.0691 C   0  0  0  0  0  0  0  0  0  0  0  0
    3.0279   -5.3073   26.8197 C   0  0  0  0  0  0  0  0  0  0  0  0
    7.3282   -3.8948   29.1186 C   0  0  0  0  0  0  0  0  0  0  0  0
  1  3  4  0
  1  7  4  0
  2  3  1  0
  2  6  4  0
  2 16  4  0
  3 22  4  0
  4  9  4  0
  4 10  1  0
  4 20  4  0
  5 16  4  0
  5 23  4  0
  6 15  4  0
  7 12  4  0
  8 13  4  0
  8 14  4  0
  9 11  4  0
 11 14  4  0
 11 19  4  0
 12 18  4  0
 13 21  4  0
 15 23  4  0
 17 19  4  0
 17 20  4  0
 18 22  4  0
 19 21  4  0
M  END
$$$$

 Created by Python create_sdf_string function

 23 25  0  0  0  0  0  0  0  0999 V2000
    2.4610   -5.3070   29.1240 C   0  0  0  0  0  0  0  0  0  0  0  0
    4.7710   -4.6952   28.4803 C   0  0  0  0  0  0  0  0  0  0  0  0
    3.4047   -5.1087   28.1314 C   0  0  0  0  0  0  0  0  0  0  0  0
   -0.2234  -11.8615   16.8874 C   0  0  0  0  0  0  0  0  0  0  0  0
    6.4491   -4.1532   30.1213 C   0  0  0  0  0  0  0  0  0  0  0  0
    5.7060   -4.4340   27.4975 C   0  0  0  0  0  0  0  0  0  0  0  0
    1.1818   -5.6612   28.8399 C   0  0  0  0  0  0  0  0  0  0  0  0
   -1.2067   -7.3287   17.7772 C   0  0  0  0  0  0  0  0  0  0  0  0
   -0.0206  -10.5585   16.6210 C   0  0  0  0  0  0  0  0  0  0  0  0
    0.3696  -12.7626   16.2169 O   0  0  0  0  0  0  0  0  0  0  0  0
   -0.6895   -9.5676   17.3297 C   0  0  0  0  0  0  0  0  0  0  0  0
    0.8388   -5.8417   27.5264 C   0  0  0  0  0  0  0  0  0  0  0  0
   -2.0709   -7.6637   18.7817 C   0  0  0  0  0  0  0  0  0  0  0  0
   -0.5279   -8.2168   17.0717 C   0  0  0  0  0  0  0  0  0  0  0  0
    6.9694   -4.0191   27.8190 C   0  0  0  0  0  0  0  0  0  0  0  0
    5.1733   -4.5469   29.8123 C   0  0  0  0  0  0  0  0  0  0  0  0
   -1.7508  -11.3016   18.6072 C   0  0  0  0  0  0  0  0  0  0  0  0
    1.7497   -5.6771   26.4971 C   0  0  0  0  0  0  0  0  0  0  0  0
   -1.5799   -9.9322   18.3468 C   0  0  0  0  0  0  0  0  0  0  0  0
   -1.0871  -12.2214   17.8851 C   0  0  0  0  0  0  0  0  0  0  0  0
   -2.2706   -8.9669   19.0691 C   0  0  0  0  0  0  0  0  0  0  0  0
    3.0279   -5.3073   26.8197 C   0  0  0  0  0  0  0  0  0  0  0  0
    7.3282   -3.8948   29.1186 C   0  0  0  0  0  0  0  0  0  0  0  0
  1  3  4  0
  1  7  4  0
  2  3  1  0
  2  6  4  0
  2 16  4  0
  3 22  4  0
  4  9  4  0
  4 10  1  0
  4 20  4  0
  5 16  4  0
  5 23  4  0
  6 15  4  0
  7 12  4  0
  8 13  4  0
  8 14  4  0
  9 11  4  0
 11 14  4  0
 11 19  4  0
 12 18  4  0
 13 21  4  0
 15 23  4  0
 17 19  4  0
 17 20  4  0
 18 22  4  0
 19 21  4  0
M  END
$$$$

 Created by Python create_sdf_string function

 23 25  0  0  0  0  0  0  0  0999 V2000
    2.4610   -5.3070   29.1240 C   0  0  0  0  0  0  0  0  0  0  0  0
    4.7710   -4.6952   28.4803 C   0  0  0  0  0  0  0  0  0  0  0  0
    3.4047   -5.1087   28.1314 C   0  0  0  0  0  0  0  0  0  0  0  0
   -0.2234  -11.8615   16.8874 C   0  0  0  0  0  0  0  0  0  0  0  0
    6.4491   -4.1532   30.1213 C   0  0  0  0  0  0  0  0  0  0  0  0
    5.7060   -4.4340   27.4975 C   0  0  0  0  0  0  0  0  0  0  0  0
    1.1818   -5.6612   28.8399 C   0  0  0  0  0  0  0  0  0  0  0  0
   -1.2067   -7.3287   17.7772 C   0  0  0  0  0  0  0  0  0  0  0  0
   -0.0206  -10.5585   16.6210 C   0  0  0  0  0  0  0  0  0  0  0  0
    0.3696  -12.7626   16.2169 O   0  0  0  0  0  0  0  0  0  0  0  0
   -0.6895   -9.5676   17.3297 C   0  0  0  0  0  0  0  0  0  0  0  0
    0.8388   -5.8417   27.5264 C   0  0  0  0  0  0  0  0  0  0  0  0
   -2.0709   -7.6637   18.7817 C   0  0  0  0  0  0  0  0  0  0  0  0
   -0.5279   -8.2168   17.0717 C   0  0  0  0  0  0  0  0  0  0  0  0
    6.9694   -4.0191   27.8190 C   0  0  0  0  0  0  0  0  0  0  0  0
    5.1733   -4.5469   29.8123 C   0  0  0  0  0  0  0  0  0  0  0  0
   -1.7508  -11.3016   18.6072 C   0  0  0  0  0  0  0  0  0  0  0  0
    1.7497   -5.6771   26.4971 C   0  0  0  0  0  0  0  0  0  0  0  0
   -1.5799   -9.9322   18.3468 C   0  0  0  0  0  0  0  0  0  0  0  0
   -1.0871  -12.2214   17.8851 C   0  0  0  0  0  0  0  0  0  0  0  0
   -2.2706   -8.9669   19.0691 C   0  0  0  0  0  0  0  0  0  0  0  0
    3.0279   -5.3073   26.8197 C   0  0  0  0  0  0  0  0  0  0  0  0
    7.3282   -3.8948   29.1186 C   0  0  0  0  0  0  0  0  0  0  0  0
  1  3  4  0
  1  7  4  0
  2  3  1  0
  2  6  4  0
  2 16  4  0
  3 22  4  0
  4  9  4  0
  4 10  1  0
  4 20  4  0
  5 16  4  0
  5 23  4  0
  6 15  4  0
  7 12  4  0
  8 13  4  0
  8 14  4  0
  9 11  4  0
 11 14  4  0
 11 19  4  0
 12 18  4  0
 13 21  4  0
 15 23  4  0
 17 19  4  0
 17 20  4  0
 18 22  4  0
 19 21  4  0
M  END
$$$$

 Created by Python create_sdf_string function

 23 25  0  0  0  0  0  0  0  0999 V2000
    2.4610   -5.3070   29.1240 C   0  0  0  0  0  0  0  0  0  0  0  0
    4.7710   -4.6952   28.4803 C   0  0  0  0  0  0  0  0  0  0  0  0
    3.4047   -5.1087   28.1314 C   0  0  0  0  0  0  0  0  0  0  0  0
   -0.2234  -11.8615   16.8874 C   0  0  0  0  0  0  0  0  0  0  0  0
    6.4491   -4.1532   30.1213 C   0  0  0  0  0  0  0  0  0  0  0  0
    5.7060   -4.4340   27.4975 C   0  0  0  0  0  0  0  0  0  0  0  0
    1.1818   -5.6612   28.8399 C   0  0  0  0  0  0  0  0  0  0  0  0
   -1.2067   -7.3287   17.7772 C   0  0  0  0  0  0  0  0  0  0  0  0
   -0.0206  -10.5585   16.6210 C   0  0  0  0  0  0  0  0  0  0  0  0
    0.3696  -12.7626   16.2169 O   0  0  0  0  0  0  0  0  0  0  0  0
   -0.6895   -9.5676   17.3297 C   0  0  0  0  0  0  0  0  0  0  0  0
    0.8388   -5.8417   27.5264 C   0  0  0  0  0  0  0  0  0  0  0  0
   -2.0709   -7.6637   18.7817 C   0  0  0  0  0  0  0  0  0  0  0  0
   -0.5279   -8.2168   17.0717 C   0  0  0  0  0  0  0  0  0  0  0  0
    6.9694   -4.0191   27.8190 C   0  0  0  0  0  0  0  0  0  0  0  0
    5.1733   -4.5469   29.8123 C   0  0  0  0  0  0  0  0  0  0  0  0
   -1.7508  -11.3016   18.6072 C   0  0  0  0  0  0  0  0  0  0  0  0
    1.7497   -5.6771   26.4971 C   0  0  0  0  0  0  0  0  0  0  0  0
   -1.5799   -9.9322   18.3468 C   0  0  0  0  0  0  0  0  0  0  0  0
   -1.0871  -12.2214   17.8851 C   0  0  0  0  0  0  0  0  0  0  0  0
   -2.2706   -8.9669   19.0691 C   0  0  0  0  0  0  0  0  0  0  0  0
    3.0279   -5.3073   26.8197 C   0  0  0  0  0  0  0  0  0  0  0  0
    7.3282   -3.8948   29.1186 C   0  0  0  0  0  0  0  0  0  0  0  0
  1  3  4  0
  1  7  4  0
  2  3  1  0
  2  6  4  0
  2 16  4  0
  3 22  4  0
  4  9  4  0
  4 10  1  0
  4 20  4  0
  5 16  4  0
  5 23  4  0
  6 15  4  0
  7 12  4  0
  8 13  4  0
  8 14  4  0
  9 11  4  0
 11 14  4  0
 11 19  4  0
 12 18  4  0
 13 21  4  0
 15 23  4  0
 17 19  4  0
 17 20  4  0
 18 22  4  0
 19 21  4  0
M  END
$$$$

 Created by Python create_sdf_string function

 23 25  0  0  0  0  0  0  0  0999 V2000
    2.4610   -5.3070   29.1240 C   0  0  0  0  0  0  0  0  0  0  0  0
    4.7710   -4.6952   28.4803 C   0  0  0  0  0  0  0  0  0  0  0  0
    3.4047   -5.1087   28.1314 C   0  0  0  0  0  0  0  0  0  0  0  0
   -0.2234  -11.8615   16.8874 C   0  0  0  0  0  0  0  0  0  0  0  0
    6.4491   -4.1532   30.1213 C   0  0  0  0  0  0  0  0  0  0  0  0
    5.7060   -4.4340   27.4975 C   0  0  0  0  0  0  0  0  0  0  0  0
    1.1818   -5.6612   28.8399 C   0  0  0  0  0  0  0  0  0  0  0  0
   -1.2067   -7.3287   17.7772 C   0  0  0  0  0  0  0  0  0  0  0  0
   -0.0206  -10.5585   16.6210 C   0  0  0  0  0  0  0  0  0  0  0  0
    0.3696  -12.7626   16.2169 O   0  0  0  0  0  0  0  0  0  0  0  0
   -0.6895   -9.5676   17.3297 C   0  0  0  0  0  0  0  0  0  0  0  0
    0.8388   -5.8417   27.5264 C   0  0  0  0  0  0  0  0  0  0  0  0
   -2.0709   -7.6637   18.7817 C   0  0  0  0  0  0  0  0  0  0  0  0
   -0.5279   -8.2168   17.0717 C   0  0  0  0  0  0  0  0  0  0  0  0
    6.9694   -4.0191   27.8190 C   0  0  0  0  0  0  0  0  0  0  0  0
    5.1733   -4.5469   29.8123 C   0  0  0  0  0  0  0  0  0  0  0  0
   -1.7508  -11.3016   18.6072 C   0  0  0  0  0  0  0  0  0  0  0  0
    1.7497   -5.6771   26.4971 C   0  0  0  0  0  0  0  0  0  0  0  0
   -1.5799   -9.9322   18.3468 C   0  0  0  0  0  0  0  0  0  0  0  0
   -1.0871  -12.2214   17.8851 C   0  0  0  0  0  0  0  0  0  0  0  0
   -2.2706   -8.9669   19.0691 C   0  0  0  0  0  0  0  0  0  0  0  0
    3.0279   -5.3073   26.8197 C   0  0  0  0  0  0  0  0  0  0  0  0
    7.3282   -3.8948   29.1186 C   0  0  0  0  0  0  0  0  0  0  0  0
  1  3  4  0
  1  7  4  0
  2  3  1  0
  2  6  4  0
  2 16  4  0
  3 22  4  0
  4  9  4  0
  4 10  1  0
  4 20  4  0
  5 16  4  0
  5 23  4  0
  6 15  4  0
  7 12  4  0
  8 13  4  0
  8 14  4  0
  9 11  4  0
 11 14  4  0
 11 19  4  0
 12 18  4  0
 13 21  4  0
 15 23  4  0
 17 19  4  0
 17 20  4  0
 18 22  4  0
 19 21  4  0
M  END
$$$$

 Created by Python create_sdf_string function

 23 25  0  0  0  0  0  0  0  0999 V2000
    2.4610   -5.3070   29.1240 C   0  0  0  0  0  0  0  0  0  0  0  0
    4.7710   -4.6952   28.4803 C   0  0  0  0  0  0  0  0  0  0  0  0
    3.4047   -5.1087   28.1314 C   0  0  0  0  0  0  0  0  0  0  0  0
   -0.2234  -11.8615   16.8874 C   0  0  0  0  0  0  0  0  0  0  0  0
    6.4491   -4.1532   30.1213 C   0  0  0  0  0  0  0  0  0  0  0  0
    5.7060   -4.4340   27.4975 C   0  0  0  0  0  0  0  0  0  0  0  0
    1.1818   -5.6612   28.8399 C   0  0  0  0  0  0  0  0  0  0  0  0
   -1.2067   -7.3287   17.7772 C   0  0  0  0  0  0  0  0  0  0  0  0
   -0.0206  -10.5585   16.6210 C   0  0  0  0  0  0  0  0  0  0  0  0
    0.3696  -12.7626   16.2169 O   0  0  0  0  0  0  0  0  0  0  0  0
   -0.6895   -9.5676   17.3297 C   0  0  0  0  0  0  0  0  0  0  0  0
    0.8388   -5.8417   27.5264 C   0  0  0  0  0  0  0  0  0  0  0  0
   -2.0709   -7.6637   18.7817 C   0  0  0  0  0  0  0  0  0  0  0  0
   -0.5279   -8.2168   17.0717 C   0  0  0  0  0  0  0  0  0  0  0  0
    6.9694   -4.0191   27.8190 C   0  0  0  0  0  0  0  0  0  0  0  0
    5.1733   -4.5469   29.8123 C   0  0  0  0  0  0  0  0  0  0  0  0
   -1.7508  -11.3016   18.6072 C   0  0  0  0  0  0  0  0  0  0  0  0
    1.7497   -5.6771   26.4971 C   0  0  0  0  0  0  0  0  0  0  0  0
   -1.5799   -9.9322   18.3468 C   0  0  0  0  0  0  0  0  0  0  0  0
   -1.0871  -12.2214   17.8851 C   0  0  0  0  0  0  0  0  0  0  0  0
   -2.2706   -8.9669   19.0691 C   0  0  0  0  0  0  0  0  0  0  0  0
    3.0279   -5.3073   26.8197 C   0  0  0  0  0  0  0  0  0  0  0  0
    7.3282   -3.8948   29.1186 C   0  0  0  0  0  0  0  0  0  0  0  0
  1  3  4  0
  1  7  4  0
  2  3  1  0
  2  6  4  0
  2 16  4  0
  3 22  4  0
  4  9  4  0
  4 10  1  0
  4 20  4  0
  5 16  4  0
  5 23  4  0
  6 15  4  0
  7 12  4  0
  8 13  4  0
  8 14  4  0
  9 11  4  0
 11 14  4  0
 11 19  4  0
 12 18  4  0
 13 21  4  0
 15 23  4  0
 17 19  4  0
 17 20  4  0
 18 22  4  0
 19 21  4  0
M  END
$$$$

 Created by Python create_sdf_string function

 23 25  0  0  0  0  0  0  0  0999 V2000
    2.4610   -5.3070   29.1240 C   0  0  0  0  0  0  0  0  0  0  0  0
    4.7710   -4.6952   28.4803 C   0  0  0  0  0  0  0  0  0  0  0  0
    3.4047   -5.1087   28.1314 C   0  0  0  0  0  0  0  0  0  0  0  0
   -0.2234  -11.8615   16.8874 C   0  0  0  0  0  0  0  0  0  0  0  0
    6.4491   -4.1532   30.1213 C   0  0  0  0  0  0  0  0  0  0  0  0
    5.7060   -4.4340   27.4975 C   0  0  0  0  0  0  0  0  0  0  0  0
    1.1818   -5.6612   28.8399 C   0  0  0  0  0  0  0  0  0  0  0  0
   -1.2067   -7.3287   17.7772 C   0  0  0  0  0  0  0  0  0  0  0  0
   -0.0206  -10.5585   16.6210 C   0  0  0  0  0  0  0  0  0  0  0  0
    0.3696  -12.7626   16.2169 O   0  0  0  0  0  0  0  0  0  0  0  0
   -0.6895   -9.5676   17.3297 C   0  0  0  0  0  0  0  0  0  0  0  0
    0.8388   -5.8417   27.5264 C   0  0  0  0  0  0  0  0  0  0  0  0
   -2.0709   -7.6637   18.7817 C   0  0  0  0  0  0  0  0  0  0  0  0
   -0.5279   -8.2168   17.0717 C   0  0  0  0  0  0  0  0  0  0  0  0
    6.9694   -4.0191   27.8190 C   0  0  0  0  0  0  0  0  0  0  0  0
    5.1733   -4.5469   29.8123 C   0  0  0  0  0  0  0  0  0  0  0  0
   -1.7508  -11.3016   18.6072 C   0  0  0  0  0  0  0  0  0  0  0  0
    1.7497   -5.6771   26.4971 C   0  0  0  0  0  0  0  0  0  0  0  0
   -1.5799   -9.9322   18.3468 C   0  0  0  0  0  0  0  0  0  0  0  0
   -1.0871  -12.2214   17.8851 C   0  0  0  0  0  0  0  0  0  0  0  0
   -2.2706   -8.9669   19.0691 C   0  0  0  0  0  0  0  0  0  0  0  0
    3.0279   -5.3073   26.8197 C   0  0  0  0  0  0  0  0  0  0  0  0
    7.3282   -3.8948   29.1186 C   0  0  0  0  0  0  0  0  0  0  0  0
  1  3  4  0
  1  7  4  0
  2  3  1  0
  2  6  4  0
  2 16  4  0
  3 22  4  0
  4  9  4  0
  4 10  1  0
  4 20  4  0
  5 16  4  0
  5 23  4  0
  6 15  4  0
  7 12  4  0
  8 13  4  0
  8 14  4  0
  9 11  4  0
 11 14  4  0
 11 19  4  0
 12 18  4  0
 13 21  4  0
 15 23  4  0
 17 19  4  0
 17 20  4  0
 18 22  4  0
 19 21  4  0
M  END
$$$$

 Created by Python create_sdf_string function

 23 25  0  0  0  0  0  0  0  0999 V2000
    2.4610   -5.3070   29.1240 C   0  0  0  0  0  0  0  0  0  0  0  0
    4.7710   -4.6952   28.4803 C   0  0  0  0  0  0  0  0  0  0  0  0
    3.4047   -5.1087   28.1314 C   0  0  0  0  0  0  0  0  0  0  0  0
   -0.2234  -11.8615   16.8874 C   0  0  0  0  0  0  0  0  0  0  0  0
    6.4491   -4.1532   30.1213 C   0  0  0  0  0  0  0  0  0  0  0  0
    5.7060   -4.4340   27.4975 C   0  0  0  0  0  0  0  0  0  0  0  0
    1.1818   -5.6612   28.8399 C   0  0  0  0  0  0  0  0  0  0  0  0
   -1.2067   -7.3287   17.7772 C   0  0  0  0  0  0  0  0  0  0  0  0
   -0.0206  -10.5585   16.6210 C   0  0  0  0  0  0  0  0  0  0  0  0
    0.3696  -12.7626   16.2169 O   0  0  0  0  0  0  0  0  0  0  0  0
   -0.6895   -9.5676   17.3297 C   0  0  0  0  0  0  0  0  0  0  0  0
    0.8388   -5.8417   27.5264 C   0  0  0  0  0  0  0  0  0  0  0  0
   -2.0709   -7.6637   18.7817 C   0  0  0  0  0  0  0  0  0  0  0  0
   -0.5279   -8.2168   17.0717 C   0  0  0  0  0  0  0  0  0  0  0  0
    6.9694   -4.0191   27.8190 C   0  0  0  0  0  0  0  0  0  0  0  0
    5.1733   -4.5469   29.8123 C   0  0  0  0  0  0  0  0  0  0  0  0
   -1.7508  -11.3016   18.6072 C   0  0  0  0  0  0  0  0  0  0  0  0
    1.7497   -5.6771   26.4971 C   0  0  0  0  0  0  0  0  0  0  0  0
   -1.5799   -9.9322   18.3468 C   0  0  0  0  0  0  0  0  0  0  0  0
   -1.0871  -12.2214   17.8851 C   0  0  0  0  0  0  0  0  0  0  0  0
   -2.2706   -8.9669   19.0691 C   0  0  0  0  0  0  0  0  0  0  0  0
    3.0279   -5.3073   26.8197 C   0  0  0  0  0  0  0  0  0  0  0  0
    7.3282   -3.8948   29.1186 C   0  0  0  0  0  0  0  0  0  0  0  0
  1  3  4  0
  1  7  4  0
  2  3  1  0
  2  6  4  0
  2 16  4  0
  3 22  4  0
  4  9  4  0
  4 10  1  0
  4 20  4  0
  5 16  4  0
  5 23  4  0
  6 15  4  0
  7 12  4  0
  8 13  4  0
  8 14  4  0
  9 11  4  0
 11 14  4  0
 11 19  4  0
 12 18  4  0
 13 21  4  0
 15 23  4  0
 17 19  4  0
 17 20  4  0
 18 22  4  0
 19 21  4  0
M  END
$$$$

 Created by Python create_sdf_string function

 23 25  0  0  0  0  0  0  0  0999 V2000
    2.4610   -5.3070   29.1240 C   0  0  0  0  0  0  0  0  0  0  0  0
    4.7710   -4.6952   28.4803 C   0  0  0  0  0  0  0  0  0  0  0  0
    3.4047   -5.1087   28.1314 C   0  0  0  0  0  0  0  0  0  0  0  0
   -0.2234  -11.8615   16.8874 C   0  0  0  0  0  0  0  0  0  0  0  0
    6.4491   -4.1532   30.1213 C   0  0  0  0  0  0  0  0  0  0  0  0
    5.7060   -4.4340   27.4975 C   0  0  0  0  0  0  0  0  0  0  0  0
    1.1818   -5.6612   28.8399 C   0  0  0  0  0  0  0  0  0  0  0  0
   -1.2067   -7.3287   17.7772 C   0  0  0  0  0  0  0  0  0  0  0  0
   -0.0206  -10.5585   16.6210 C   0  0  0  0  0  0  0  0  0  0  0  0
    0.3696  -12.7626   16.2169 O   0  0  0  0  0  0  0  0  0  0  0  0
   -0.6895   -9.5676   17.3297 C   0  0  0  0  0  0  0  0  0  0  0  0
    0.8388   -5.8417   27.5264 C   0  0  0  0  0  0  0  0  0  0  0  0
   -2.0709   -7.6637   18.7817 C   0  0  0  0  0  0  0  0  0  0  0  0
   -0.5279   -8.2168   17.0717 C   0  0  0  0  0  0  0  0  0  0  0  0
    6.9694   -4.0191   27.8190 C   0  0  0  0  0  0  0  0  0  0  0  0
    5.1733   -4.5469   29.8123 C   0  0  0  0  0  0  0  0  0  0  0  0
   -1.7508  -11.3016   18.6072 C   0  0  0  0  0  0  0  0  0  0  0  0
    1.7497   -5.6771   26.4971 C   0  0  0  0  0  0  0  0  0  0  0  0
   -1.5799   -9.9322   18.3468 C   0  0  0  0  0  0  0  0  0  0  0  0
   -1.0871  -12.2214   17.8851 C   0  0  0  0  0  0  0  0  0  0  0  0
   -2.2706   -8.9669   19.0691 C   0  0  0  0  0  0  0  0  0  0  0  0
    3.0279   -5.3073   26.8197 C   0  0  0  0  0  0  0  0  0  0  0  0
    7.3282   -3.8948   29.1186 C   0  0  0  0  0  0  0  0  0  0  0  0
  1  3  4  0
  1  7  4  0
  2  3  1  0
  2  6  4  0
  2 16  4  0
  3 22  4  0
  4  9  4  0
  4 10  1  0
  4 20  4  0
  5 16  4  0
  5 23  4  0
  6 15  4  0
  7 12  4  0
  8 13  4  0
  8 14  4  0
  9 11  4  0
 11 14  4  0
 11 19  4  0
 12 18  4  0
 13 21  4  0
 15 23  4  0
 17 19  4  0
 17 20  4  0
 18 22  4  0
 19 21  4  0
M  END
$$$$

 Created by Python create_sdf_string function

 23 25  0  0  0  0  0  0  0  0999 V2000
    2.4610   -5.3070   29.1240 C   0  0  0  0  0  0  0  0  0  0  0  0
    4.7710   -4.6952   28.4803 C   0  0  0  0  0  0  0  0  0  0  0  0
    3.4047   -5.1087   28.1314 C   0  0  0  0  0  0  0  0  0  0  0  0
   -0.2234  -11.8615   16.8874 C   0  0  0  0  0  0  0  0  0  0  0  0
    6.4491   -4.1532   30.1213 C   0  0  0  0  0  0  0  0  0  0  0  0
    5.7060   -4.4340   27.4975 C   0  0  0  0  0  0  0  0  0  0  0  0
    1.1818   -5.6612   28.8399 C   0  0  0  0  0  0  0  0  0  0  0  0
   -1.2067   -7.3287   17.7772 C   0  0  0  0  0  0  0  0  0  0  0  0
   -0.0206  -10.5585   16.6210 C   0  0  0  0  0  0  0  0  0  0  0  0
    0.3696  -12.7626   16.2169 O   0  0  0  0  0  0  0  0  0  0  0  0
   -0.6895   -9.5676   17.3297 C   0  0  0  0  0  0  0  0  0  0  0  0
    0.8388   -5.8417   27.5264 C   0  0  0  0  0  0  0  0  0  0  0  0
   -2.0709   -7.6637   18.7817 C   0  0  0  0  0  0  0  0  0  0  0  0
   -0.5279   -8.2168   17.0717 C   0  0  0  0  0  0  0  0  0  0  0  0
    6.9694   -4.0191   27.8190 C   0  0  0  0  0  0  0  0  0  0  0  0
    5.1733   -4.5469   29.8123 C   0  0  0  0  0  0  0  0  0  0  0  0
   -1.7508  -11.3016   18.6072 C   0  0  0  0  0  0  0  0  0  0  0  0
    1.7497   -5.6771   26.4971 C   0  0  0  0  0  0  0  0  0  0  0  0
   -1.5799   -9.9322   18.3468 C   0  0  0  0  0  0  0  0  0  0  0  0
   -1.0871  -12.2214   17.8851 C   0  0  0  0  0  0  0  0  0  0  0  0
   -2.2706   -8.9669   19.0691 C   0  0  0  0  0  0  0  0  0  0  0  0
    3.0279   -5.3073   26.8197 C   0  0  0  0  0  0  0  0  0  0  0  0
    7.3282   -3.8948   29.1186 C   0  0  0  0  0  0  0  0  0  0  0  0
  1  3  4  0
  1  7  4  0
  2  3  1  0
  2  6  4  0
  2 16  4  0
  3 22  4  0
  4  9  4  0
  4 10  1  0
  4 20  4  0
  5 16  4  0
  5 23  4  0
  6 15  4  0
  7 12  4  0
  8 13  4  0
  8 14  4  0
  9 11  4  0
 11 14  4  0
 11 19  4  0
 12 18  4  0
 13 21  4  0
 15 23  4  0
 17 19  4  0
 17 20  4  0
 18 22  4  0
 19 21  4  0
M  END
$$$$

 Created by Python create_sdf_string function

 23 25  0  0  0  0  0  0  0  0999 V2000
    2.4610   -5.3070   29.1240 C   0  0  0  0  0  0  0  0  0  0  0  0
    4.7710   -4.6952   28.4803 C   0  0  0  0  0  0  0  0  0  0  0  0
    3.4047   -5.1087   28.1314 C   0  0  0  0  0  0  0  0  0  0  0  0
   -0.2234  -11.8615   16.8874 C   0  0  0  0  0  0  0  0  0  0  0  0
    6.4491   -4.1532   30.1213 C   0  0  0  0  0  0  0  0  0  0  0  0
    5.7060   -4.4340   27.4975 C   0  0  0  0  0  0  0  0  0  0  0  0
    1.1818   -5.6612   28.8399 C   0  0  0  0  0  0  0  0  0  0  0  0
   -1.2067   -7.3287   17.7772 C   0  0  0  0  0  0  0  0  0  0  0  0
   -0.0206  -10.5585   16.6210 C   0  0  0  0  0  0  0  0  0  0  0  0
    0.3696  -12.7626   16.2169 O   0  0  0  0  0  0  0  0  0  0  0  0
   -0.6895   -9.5676   17.3297 C   0  0  0  0  0  0  0  0  0  0  0  0
    0.8388   -5.8417   27.5264 C   0  0  0  0  0  0  0  0  0  0  0  0
   -2.0709   -7.6637   18.7817 C   0  0  0  0  0  0  0  0  0  0  0  0
   -0.5279   -8.2168   17.0717 C   0  0  0  0  0  0  0  0  0  0  0  0
    6.9694   -4.0191   27.8190 C   0  0  0  0  0  0  0  0  0  0  0  0
    5.1733   -4.5469   29.8123 C   0  0  0  0  0  0  0  0  0  0  0  0
   -1.7508  -11.3016   18.6072 C   0  0  0  0  0  0  0  0  0  0  0  0
    1.7497   -5.6771   26.4971 C   0  0  0  0  0  0  0  0  0  0  0  0
   -1.5799   -9.9322   18.3468 C   0  0  0  0  0  0  0  0  0  0  0  0
   -1.0871  -12.2214   17.8851 C   0  0  0  0  0  0  0  0  0  0  0  0
   -2.2706   -8.9669   19.0691 C   0  0  0  0  0  0  0  0  0  0  0  0
    3.0279   -5.3073   26.8197 C   0  0  0  0  0  0  0  0  0  0  0  0
    7.3282   -3.8948   29.1186 C   0  0  0  0  0  0  0  0  0  0  0  0
  1  3  4  0
  1  7  4  0
  2  3  1  0
  2  6  4  0
  2 16  4  0
  3 22  4  0
  4  9  4  0
  4 10  1  0
  4 20  4  0
  5 16  4  0
  5 23  4  0
  6 15  4  0
  7 12  4  0
  8 13  4  0
  8 14  4  0
  9 11  4  0
 11 14  4  0
 11 19  4  0
 12 18  4  0
 13 21  4  0
 15 23  4  0
 17 19  4  0
 17 20  4  0
 18 22  4  0
 19 21  4  0
M  END
$$$$

 Created by Python create_sdf_string function

 23 25  0  0  0  0  0  0  0  0999 V2000
    2.4610   -5.3070   29.1240 C   0  0  0  0  0  0  0  0  0  0  0  0
    4.7710   -4.6952   28.4803 C   0  0  0  0  0  0  0  0  0  0  0  0
    3.4047   -5.1087   28.1314 C   0  0  0  0  0  0  0  0  0  0  0  0
   -0.2234  -11.8615   16.8874 C   0  0  0  0  0  0  0  0  0  0  0  0
    6.4491   -4.1532   30.1213 C   0  0  0  0  0  0  0  0  0  0  0  0
    5.7060   -4.4340   27.4975 C   0  0  0  0  0  0  0  0  0  0  0  0
    1.1818   -5.6612   28.8399 C   0  0  0  0  0  0  0  0  0  0  0  0
   -1.2067   -7.3287   17.7772 C   0  0  0  0  0  0  0  0  0  0  0  0
   -0.0206  -10.5585   16.6210 C   0  0  0  0  0  0  0  0  0  0  0  0
    0.3696  -12.7626   16.2169 O   0  0  0  0  0  0  0  0  0  0  0  0
   -0.6895   -9.5676   17.3297 C   0  0  0  0  0  0  0  0  0  0  0  0
    0.8388   -5.8417   27.5264 C   0  0  0  0  0  0  0  0  0  0  0  0
   -2.0709   -7.6637   18.7817 C   0  0  0  0  0  0  0  0  0  0  0  0
   -0.5279   -8.2168   17.0717 C   0  0  0  0  0  0  0  0  0  0  0  0
    6.9694   -4.0191   27.8190 C   0  0  0  0  0  0  0  0  0  0  0  0
    5.1733   -4.5469   29.8123 C   0  0  0  0  0  0  0  0  0  0  0  0
   -1.7508  -11.3016   18.6072 C   0  0  0  0  0  0  0  0  0  0  0  0
    1.7497   -5.6771   26.4971 C   0  0  0  0  0  0  0  0  0  0  0  0
   -1.5799   -9.9322   18.3468 C   0  0  0  0  0  0  0  0  0  0  0  0
   -1.0871  -12.2214   17.8851 C   0  0  0  0  0  0  0  0  0  0  0  0
   -2.2706   -8.9669   19.0691 C   0  0  0  0  0  0  0  0  0  0  0  0
    3.0279   -5.3073   26.8197 C   0  0  0  0  0  0  0  0  0  0  0  0
    7.3282   -3.8948   29.1186 C   0  0  0  0  0  0  0  0  0  0  0  0
  1  3  4  0
  1  7  4  0
  2  3  1  0
  2  6  4  0
  2 16  4  0
  3 22  4  0
  4  9  4  0
  4 10  1  0
  4 20  4  0
  5 16  4  0
  5 23  4  0
  6 15  4  0
  7 12  4  0
  8 13  4  0
  8 14  4  0
  9 11  4  0
 11 14  4  0
 11 19  4  0
 12 18  4  0
 13 21  4  0
 15 23  4  0
 17 19  4  0
 17 20  4  0
 18 22  4  0
 19 21  4  0
M  END
$$$$

 Created by Python create_sdf_string function

 23 25  0  0  0  0  0  0  0  0999 V2000
    2.4610   -5.3070   29.1240 C   0  0  0  0  0  0  0  0  0  0  0  0
    4.7710   -4.6952   28.4803 C   0  0  0  0  0  0  0  0  0  0  0  0
    3.4047   -5.1087   28.1314 C   0  0  0  0  0  0  0  0  0  0  0  0
   -0.2234  -11.8615   16.8874 C   0  0  0  0  0  0  0  0  0  0  0  0
    6.4491   -4.1532   30.1213 C   0  0  0  0  0  0  0  0  0  0  0  0
    5.7060   -4.4340   27.4975 C   0  0  0  0  0  0  0  0  0  0  0  0
    1.1818   -5.6612   28.8399 C   0  0  0  0  0  0  0  0  0  0  0  0
   -1.2067   -7.3287   17.7772 C   0  0  0  0  0  0  0  0  0  0  0  0
   -0.0206  -10.5585   16.6210 C   0  0  0  0  0  0  0  0  0  0  0  0
    0.3696  -12.7626   16.2169 O   0  0  0  0  0  0  0  0  0  0  0  0
   -0.6895   -9.5676   17.3297 C   0  0  0  0  0  0  0  0  0  0  0  0
    0.8388   -5.8417   27.5264 C   0  0  0  0  0  0  0  0  0  0  0  0
   -2.0709   -7.6637   18.7817 C   0  0  0  0  0  0  0  0  0  0  0  0
   -0.5279   -8.2168   17.0717 C   0  0  0  0  0  0  0  0  0  0  0  0
    6.9694   -4.0191   27.8190 C   0  0  0  0  0  0  0  0  0  0  0  0
    5.1733   -4.5469   29.8123 C   0  0  0  0  0  0  0  0  0  0  0  0
   -1.7508  -11.3016   18.6072 C   0  0  0  0  0  0  0  0  0  0  0  0
    1.7497   -5.6771   26.4971 C   0  0  0  0  0  0  0  0  0  0  0  0
   -1.5799   -9.9322   18.3468 C   0  0  0  0  0  0  0  0  0  0  0  0
   -1.0871  -12.2214   17.8851 C   0  0  0  0  0  0  0  0  0  0  0  0
   -2.2706   -8.9669   19.0691 C   0  0  0  0  0  0  0  0  0  0  0  0
    3.0279   -5.3073   26.8197 C   0  0  0  0  0  0  0  0  0  0  0  0
    7.3282   -3.8948   29.1186 C   0  0  0  0  0  0  0  0  0  0  0  0
  1  3  4  0
  1  7  4  0
  2  3  1  0
  2  6  4  0
  2 16  4  0
  3 22  4  0
  4  9  4  0
  4 10  1  0
  4 20  4  0
  5 16  4  0
  5 23  4  0
  6 15  4  0
  7 12  4  0
  8 13  4  0
  8 14  4  0
  9 11  4  0
 11 14  4  0
 11 19  4  0
 12 18  4  0
 13 21  4  0
 15 23  4  0
 17 19  4  0
 17 20  4  0
 18 22  4  0
 19 21  4  0
M  END
$$$$

 Created by Python create_sdf_string function

 23 25  0  0  0  0  0  0  0  0999 V2000
    2.4610   -5.3070   29.1240 C   0  0  0  0  0  0  0  0  0  0  0  0
    4.7710   -4.6952   28.4803 C   0  0  0  0  0  0  0  0  0  0  0  0
    3.4047   -5.1087   28.1314 C   0  0  0  0  0  0  0  0  0  0  0  0
   -0.2234  -11.8615   16.8874 C   0  0  0  0  0  0  0  0  0  0  0  0
    6.4491   -4.1532   30.1213 C   0  0  0  0  0  0  0  0  0  0  0  0
    5.7060   -4.4340   27.4975 C   0  0  0  0  0  0  0  0  0  0  0  0
    1.1818   -5.6612   28.8399 C   0  0  0  0  0  0  0  0  0  0  0  0
   -1.2067   -7.3287   17.7772 C   0  0  0  0  0  0  0  0  0  0  0  0
   -0.0206  -10.5585   16.6210 C   0  0  0  0  0  0  0  0  0  0  0  0
    0.3696  -12.7626   16.2169 O   0  0  0  0  0  0  0  0  0  0  0  0
   -0.6895   -9.5676   17.3297 C   0  0  0  0  0  0  0  0  0  0  0  0
    0.8388   -5.8417   27.5264 C   0  0  0  0  0  0  0  0  0  0  0  0
   -2.0709   -7.6637   18.7817 C   0  0  0  0  0  0  0  0  0  0  0  0
   -0.5279   -8.2168   17.0717 C   0  0  0  0  0  0  0  0  0  0  0  0
    6.9694   -4.0191   27.8190 C   0  0  0  0  0  0  0  0  0  0  0  0
    5.1733   -4.5469   29.8123 C   0  0  0  0  0  0  0  0  0  0  0  0
   -1.7508  -11.3016   18.6072 C   0  0  0  0  0  0  0  0  0  0  0  0
    1.7497   -5.6771   26.4971 C   0  0  0  0  0  0  0  0  0  0  0  0
   -1.5799   -9.9322   18.3468 C   0  0  0  0  0  0  0  0  0  0  0  0
   -1.0871  -12.2214   17.8851 C   0  0  0  0  0  0  0  0  0  0  0  0
   -2.2706   -8.9669   19.0691 C   0  0  0  0  0  0  0  0  0  0  0  0
    3.0279   -5.3073   26.8197 C   0  0  0  0  0  0  0  0  0  0  0  0
    7.3282   -3.8948   29.1186 C   0  0  0  0  0  0  0  0  0  0  0  0
  1  3  4  0
  1  7  4  0
  2  3  1  0
  2  6  4  0
  2 16  4  0
  3 22  4  0
  4  9  4  0
  4 10  1  0
  4 20  4  0
  5 16  4  0
  5 23  4  0
  6 15  4  0
  7 12  4  0
  8 13  4  0
  8 14  4  0
  9 11  4  0
 11 14  4  0
 11 19  4  0
 12 18  4  0
 13 21  4  0
 15 23  4  0
 17 19  4  0
 17 20  4  0
 18 22  4  0
 19 21  4  0
M  END
$$$$

 Created by Python create_sdf_string function

 23 25  0  0  0  0  0  0  0  0999 V2000
    2.4610   -5.3070   29.1240 C   0  0  0  0  0  0  0  0  0  0  0  0
    4.7710   -4.6952   28.4803 C   0  0  0  0  0  0  0  0  0  0  0  0
    3.4047   -5.1087   28.1314 C   0  0  0  0  0  0  0  0  0  0  0  0
   -0.2234  -11.8615   16.8874 C   0  0  0  0  0  0  0  0  0  0  0  0
    6.4491   -4.1532   30.1213 C   0  0  0  0  0  0  0  0  0  0  0  0
    5.7060   -4.4340   27.4975 C   0  0  0  0  0  0  0  0  0  0  0  0
    1.1818   -5.6612   28.8399 C   0  0  0  0  0  0  0  0  0  0  0  0
   -1.2067   -7.3287   17.7772 C   0  0  0  0  0  0  0  0  0  0  0  0
   -0.0206  -10.5585   16.6210 C   0  0  0  0  0  0  0  0  0  0  0  0
    0.3696  -12.7626   16.2169 O   0  0  0  0  0  0  0  0  0  0  0  0
   -0.6895   -9.5676   17.3297 C   0  0  0  0  0  0  0  0  0  0  0  0
    0.8388   -5.8417   27.5264 C   0  0  0  0  0  0  0  0  0  0  0  0
   -2.0709   -7.6637   18.7817 C   0  0  0  0  0  0  0  0  0  0  0  0
   -0.5279   -8.2168   17.0717 C   0  0  0  0  0  0  0  0  0  0  0  0
    6.9694   -4.0191   27.8190 C   0  0  0  0  0  0  0  0  0  0  0  0
    5.1733   -4.5469   29.8123 C   0  0  0  0  0  0  0  0  0  0  0  0
   -1.7508  -11.3016   18.6072 C   0  0  0  0  0  0  0  0  0  0  0  0
    1.7497   -5.6771   26.4971 C   0  0  0  0  0  0  0  0  0  0  0  0
   -1.5799   -9.9322   18.3468 C   0  0  0  0  0  0  0  0  0  0  0  0
   -1.0871  -12.2214   17.8851 C   0  0  0  0  0  0  0  0  0  0  0  0
   -2.2706   -8.9669   19.0691 C   0  0  0  0  0  0  0  0  0  0  0  0
    3.0279   -5.3073   26.8197 C   0  0  0  0  0  0  0  0  0  0  0  0
    7.3282   -3.8948   29.1186 C   0  0  0  0  0  0  0  0  0  0  0  0
  1  3  4  0
  1  7  4  0
  2  3  1  0
  2  6  4  0
  2 16  4  0
  3 22  4  0
  4  9  4  0
  4 10  1  0
  4 20  4  0
  5 16  4  0
  5 23  4  0
  6 15  4  0
  7 12  4  0
  8 13  4  0
  8 14  4  0
  9 11  4  0
 11 14  4  0
 11 19  4  0
 12 18  4  0
 13 21  4  0
 15 23  4  0
 17 19  4  0
 17 20  4  0
 18 22  4  0
 19 21  4  0
M  END
$$$$

 Created by Python create_sdf_string function

 23 25  0  0  0  0  0  0  0  0999 V2000
    2.4610   -5.3070   29.1240 C   0  0  0  0  0  0  0  0  0  0  0  0
    4.7710   -4.6952   28.4803 C   0  0  0  0  0  0  0  0  0  0  0  0
    3.4047   -5.1087   28.1314 C   0  0  0  0  0  0  0  0  0  0  0  0
   -0.2234  -11.8615   16.8874 C   0  0  0  0  0  0  0  0  0  0  0  0
    6.4491   -4.1532   30.1213 C   0  0  0  0  0  0  0  0  0  0  0  0
    5.7060   -4.4340   27.4975 C   0  0  0  0  0  0  0  0  0  0  0  0
    1.1818   -5.6612   28.8399 C   0  0  0  0  0  0  0  0  0  0  0  0
   -1.2067   -7.3287   17.7772 C   0  0  0  0  0  0  0  0  0  0  0  0
   -0.0206  -10.5585   16.6210 C   0  0  0  0  0  0  0  0  0  0  0  0
    0.3696  -12.7626   16.2169 O   0  0  0  0  0  0  0  0  0  0  0  0
   -0.6895   -9.5676   17.3297 C   0  0  0  0  0  0  0  0  0  0  0  0
    0.8388   -5.8417   27.5264 C   0  0  0  0  0  0  0  0  0  0  0  0
   -2.0709   -7.6637   18.7817 C   0  0  0  0  0  0  0  0  0  0  0  0
   -0.5279   -8.2168   17.0717 C   0  0  0  0  0  0  0  0  0  0  0  0
    6.9694   -4.0191   27.8190 C   0  0  0  0  0  0  0  0  0  0  0  0
    5.1733   -4.5469   29.8123 C   0  0  0  0  0  0  0  0  0  0  0  0
   -1.7508  -11.3016   18.6072 C   0  0  0  0  0  0  0  0  0  0  0  0
    1.7497   -5.6771   26.4971 C   0  0  0  0  0  0  0  0  0  0  0  0
   -1.5799   -9.9322   18.3468 C   0  0  0  0  0  0  0  0  0  0  0  0
   -1.0871  -12.2214   17.8851 C   0  0  0  0  0  0  0  0  0  0  0  0
   -2.2706   -8.9669   19.0691 C   0  0  0  0  0  0  0  0  0  0  0  0
    3.0279   -5.3073   26.8197 C   0  0  0  0  0  0  0  0  0  0  0  0
    7.3282   -3.8948   29.1186 C   0  0  0  0  0  0  0  0  0  0  0  0
  1  3  4  0
  1  7  4  0
  2  3  1  0
  2  6  4  0
  2 16  4  0
  3 22  4  0
  4  9  4  0
  4 10  1  0
  4 20  4  0
  5 16  4  0
  5 23  4  0
  6 15  4  0
  7 12  4  0
  8 13  4  0
  8 14  4  0
  9 11  4  0
 11 14  4  0
 11 19  4  0
 12 18  4  0
 13 21  4  0
 15 23  4  0
 17 19  4  0
 17 20  4  0
 18 22  4  0
 19 21  4  0
M  END
$$$$

 Created by Python create_sdf_string function

 23 25  0  0  0  0  0  0  0  0999 V2000
    2.4610   -5.3070   29.1240 C   0  0  0  0  0  0  0  0  0  0  0  0
    4.7710   -4.6952   28.4803 C   0  0  0  0  0  0  0  0  0  0  0  0
    3.4047   -5.1087   28.1314 C   0  0  0  0  0  0  0  0  0  0  0  0
   -0.2234  -11.8615   16.8874 C   0  0  0  0  0  0  0  0  0  0  0  0
    6.4491   -4.1532   30.1213 C   0  0  0  0  0  0  0  0  0  0  0  0
    5.7060   -4.4340   27.4975 C   0  0  0  0  0  0  0  0  0  0  0  0
    1.1818   -5.6612   28.8399 C   0  0  0  0  0  0  0  0  0  0  0  0
   -1.2067   -7.3287   17.7772 C   0  0  0  0  0  0  0  0  0  0  0  0
   -0.0206  -10.5585   16.6210 C   0  0  0  0  0  0  0  0  0  0  0  0
    0.3696  -12.7626   16.2169 O   0  0  0  0  0  0  0  0  0  0  0  0
   -0.6895   -9.5676   17.3297 C   0  0  0  0  0  0  0  0  0  0  0  0
    0.8388   -5.8417   27.5264 C   0  0  0  0  0  0  0  0  0  0  0  0
   -2.0709   -7.6637   18.7817 C   0  0  0  0  0  0  0  0  0  0  0  0
   -0.5279   -8.2168   17.0717 C   0  0  0  0  0  0  0  0  0  0  0  0
    6.9694   -4.0191   27.8190 C   0  0  0  0  0  0  0  0  0  0  0  0
    5.1733   -4.5469   29.8123 C   0  0  0  0  0  0  0  0  0  0  0  0
   -1.7508  -11.3016   18.6072 C   0  0  0  0  0  0  0  0  0  0  0  0
    1.7497   -5.6771   26.4971 C   0  0  0  0  0  0  0  0  0  0  0  0
   -1.5799   -9.9322   18.3468 C   0  0  0  0  0  0  0  0  0  0  0  0
   -1.0871  -12.2214   17.8851 C   0  0  0  0  0  0  0  0  0  0  0  0
   -2.2706   -8.9669   19.0691 C   0  0  0  0  0  0  0  0  0  0  0  0
    3.0279   -5.3073   26.8197 C   0  0  0  0  0  0  0  0  0  0  0  0
    7.3282   -3.8948   29.1186 C   0  0  0  0  0  0  0  0  0  0  0  0
  1  3  4  0
  1  7  4  0
  2  3  1  0
  2  6  4  0
  2 16  4  0
  3 22  4  0
  4  9  4  0
  4 10  1  0
  4 20  4  0
  5 16  4  0
  5 23  4  0
  6 15  4  0
  7 12  4  0
  8 13  4  0
  8 14  4  0
  9 11  4  0
 11 14  4  0
 11 19  4  0
 12 18  4  0
 13 21  4  0
 15 23  4  0
 17 19  4  0
 17 20  4  0
 18 22  4  0
 19 21  4  0
M  END
$$$$

 Created by Python create_sdf_string function

 23 25  0  0  0  0  0  0  0  0999 V2000
    2.4610   -5.3070   29.1240 C   0  0  0  0  0  0  0  0  0  0  0  0
    4.7710   -4.6952   28.4803 C   0  0  0  0  0  0  0  0  0  0  0  0
    3.4047   -5.1087   28.1314 C   0  0  0  0  0  0  0  0  0  0  0  0
   -0.2234  -11.8615   16.8874 C   0  0  0  0  0  0  0  0  0  0  0  0
    6.4491   -4.1532   30.1213 C   0  0  0  0  0  0  0  0  0  0  0  0
    5.7060   -4.4340   27.4975 C   0  0  0  0  0  0  0  0  0  0  0  0
    1.1818   -5.6612   28.8399 C   0  0  0  0  0  0  0  0  0  0  0  0
   -1.2067   -7.3287   17.7772 C   0  0  0  0  0  0  0  0  0  0  0  0
   -0.0206  -10.5585   16.6210 C   0  0  0  0  0  0  0  0  0  0  0  0
    0.3696  -12.7626   16.2169 O   0  0  0  0  0  0  0  0  0  0  0  0
   -0.6895   -9.5676   17.3297 C   0  0  0  0  0  0  0  0  0  0  0  0
    0.8388   -5.8417   27.5264 C   0  0  0  0  0  0  0  0  0  0  0  0
   -2.0709   -7.6637   18.7817 C   0  0  0  0  0  0  0  0  0  0  0  0
   -0.5279   -8.2168   17.0717 C   0  0  0  0  0  0  0  0  0  0  0  0
    6.9694   -4.0191   27.8190 C   0  0  0  0  0  0  0  0  0  0  0  0
    5.1733   -4.5469   29.8123 C   0  0  0  0  0  0  0  0  0  0  0  0
   -1.7508  -11.3016   18.6072 C   0  0  0  0  0  0  0  0  0  0  0  0
    1.7497   -5.6771   26.4971 C   0  0  0  0  0  0  0  0  0  0  0  0
   -1.5799   -9.9322   18.3468 C   0  0  0  0  0  0  0  0  0  0  0  0
   -1.0871  -12.2214   17.8851 C   0  0  0  0  0  0  0  0  0  0  0  0
   -2.2706   -8.9669   19.0691 C   0  0  0  0  0  0  0  0  0  0  0  0
    3.0279   -5.3073   26.8197 C   0  0  0  0  0  0  0  0  0  0  0  0
    7.3282   -3.8948   29.1186 C   0  0  0  0  0  0  0  0  0  0  0  0
  1  3  4  0
  1  7  4  0
  2  3  1  0
  2  6  4  0
  2 16  4  0
  3 22  4  0
  4  9  4  0
  4 10  1  0
  4 20  4  0
  5 16  4  0
  5 23  4  0
  6 15  4  0
  7 12  4  0
  8 13  4  0
  8 14  4  0
  9 11  4  0
 11 14  4  0
 11 19  4  0
 12 18  4  0
 13 21  4  0
 15 23  4  0
 17 19  4  0
 17 20  4  0
 18 22  4  0
 19 21  4  0
M  END
$$$$

 Created by Python create_sdf_string function

 23 25  0  0  0  0  0  0  0  0999 V2000
    2.4610   -5.3070   29.1240 C   0  0  0  0  0  0  0  0  0  0  0  0
    4.7710   -4.6952   28.4803 C   0  0  0  0  0  0  0  0  0  0  0  0
    3.4047   -5.1087   28.1314 C   0  0  0  0  0  0  0  0  0  0  0  0
   -0.2234  -11.8615   16.8874 C   0  0  0  0  0  0  0  0  0  0  0  0
    6.4491   -4.1532   30.1213 C   0  0  0  0  0  0  0  0  0  0  0  0
    5.7060   -4.4340   27.4975 C   0  0  0  0  0  0  0  0  0  0  0  0
    1.1818   -5.6612   28.8399 C   0  0  0  0  0  0  0  0  0  0  0  0
   -1.2067   -7.3287   17.7772 C   0  0  0  0  0  0  0  0  0  0  0  0
   -0.0206  -10.5585   16.6210 C   0  0  0  0  0  0  0  0  0  0  0  0
    0.3696  -12.7626   16.2169 O   0  0  0  0  0  0  0  0  0  0  0  0
   -0.6895   -9.5676   17.3297 C   0  0  0  0  0  0  0  0  0  0  0  0
    0.8388   -5.8417   27.5264 C   0  0  0  0  0  0  0  0  0  0  0  0
   -2.0709   -7.6637   18.7817 C   0  0  0  0  0  0  0  0  0  0  0  0
   -0.5279   -8.2168   17.0717 C   0  0  0  0  0  0  0  0  0  0  0  0
    6.9694   -4.0191   27.8190 C   0  0  0  0  0  0  0  0  0  0  0  0
    5.1733   -4.5469   29.8123 C   0  0  0  0  0  0  0  0  0  0  0  0
   -1.7508  -11.3016   18.6072 C   0  0  0  0  0  0  0  0  0  0  0  0
    1.7497   -5.6771   26.4971 C   0  0  0  0  0  0  0  0  0  0  0  0
   -1.5799   -9.9322   18.3468 C   0  0  0  0  0  0  0  0  0  0  0  0
   -1.0871  -12.2214   17.8851 C   0  0  0  0  0  0  0  0  0  0  0  0
   -2.2706   -8.9669   19.0691 C   0  0  0  0  0  0  0  0  0  0  0  0
    3.0279   -5.3073   26.8197 C   0  0  0  0  0  0  0  0  0  0  0  0
    7.3282   -3.8948   29.1186 C   0  0  0  0  0  0  0  0  0  0  0  0
  1  3  4  0
  1  7  4  0
  2  3  1  0
  2  6  4  0
  2 16  4  0
  3 22  4  0
  4  9  4  0
  4 10  1  0
  4 20  4  0
  5 16  4  0
  5 23  4  0
  6 15  4  0
  7 12  4  0
  8 13  4  0
  8 14  4  0
  9 11  4  0
 11 14  4  0
 11 19  4  0
 12 18  4  0
 13 21  4  0
 15 23  4  0
 17 19  4  0
 17 20  4  0
 18 22  4  0
 19 21  4  0
M  END
$$$$

 Created by Python create_sdf_string function

 23 25  0  0  0  0  0  0  0  0999 V2000
    2.4610   -5.3070   29.1240 C   0  0  0  0  0  0  0  0  0  0  0  0
    4.7710   -4.6952   28.4803 C   0  0  0  0  0  0  0  0  0  0  0  0
    3.4047   -5.1087   28.1314 C   0  0  0  0  0  0  0  0  0  0  0  0
   -0.2234  -11.8615   16.8874 C   0  0  0  0  0  0  0  0  0  0  0  0
    6.4491   -4.1532   30.1213 C   0  0  0  0  0  0  0  0  0  0  0  0
    5.7060   -4.4340   27.4975 C   0  0  0  0  0  0  0  0  0  0  0  0
    1.1818   -5.6612   28.8399 C   0  0  0  0  0  0  0  0  0  0  0  0
   -1.2067   -7.3287   17.7772 C   0  0  0  0  0  0  0  0  0  0  0  0
   -0.0206  -10.5585   16.6210 C   0  0  0  0  0  0  0  0  0  0  0  0
    0.3696  -12.7626   16.2169 O   0  0  0  0  0  0  0  0  0  0  0  0
   -0.6895   -9.5676   17.3297 C   0  0  0  0  0  0  0  0  0  0  0  0
    0.8388   -5.8417   27.5264 C   0  0  0  0  0  0  0  0  0  0  0  0
   -2.0709   -7.6637   18.7817 C   0  0  0  0  0  0  0  0  0  0  0  0
   -0.5279   -8.2168   17.0717 C   0  0  0  0  0  0  0  0  0  0  0  0
    6.9694   -4.0191   27.8190 C   0  0  0  0  0  0  0  0  0  0  0  0
    5.1733   -4.5469   29.8123 C   0  0  0  0  0  0  0  0  0  0  0  0
   -1.7508  -11.3016   18.6072 C   0  0  0  0  0  0  0  0  0  0  0  0
    1.7497   -5.6771   26.4971 C   0  0  0  0  0  0  0  0  0  0  0  0
   -1.5799   -9.9322   18.3468 C   0  0  0  0  0  0  0  0  0  0  0  0
   -1.0871  -12.2214   17.8851 C   0  0  0  0  0  0  0  0  0  0  0  0
   -2.2706   -8.9669   19.0691 C   0  0  0  0  0  0  0  0  0  0  0  0
    3.0279   -5.3073   26.8197 C   0  0  0  0  0  0  0  0  0  0  0  0
    7.3282   -3.8948   29.1186 C   0  0  0  0  0  0  0  0  0  0  0  0
  1  3  4  0
  1  7  4  0
  2  3  1  0
  2  6  4  0
  2 16  4  0
  3 22  4  0
  4  9  4  0
  4 10  1  0
  4 20  4  0
  5 16  4  0
  5 23  4  0
  6 15  4  0
  7 12  4  0
  8 13  4  0
  8 14  4  0
  9 11  4  0
 11 14  4  0
 11 19  4  0
 12 18  4  0
 13 21  4  0
 15 23  4  0
 17 19  4  0
 17 20  4  0
 18 22  4  0
 19 21  4  0
M  END
$$$$

 Created by Python create_sdf_string function

 23 25  0  0  0  0  0  0  0  0999 V2000
    2.4610   -5.3070   29.1240 C   0  0  0  0  0  0  0  0  0  0  0  0
    4.7710   -4.6952   28.4803 C   0  0  0  0  0  0  0  0  0  0  0  0
    3.4047   -5.1087   28.1314 C   0  0  0  0  0  0  0  0  0  0  0  0
   -0.2234  -11.8615   16.8874 C   0  0  0  0  0  0  0  0  0  0  0  0
    6.4491   -4.1532   30.1213 C   0  0  0  0  0  0  0  0  0  0  0  0
    5.7060   -4.4340   27.4975 C   0  0  0  0  0  0  0  0  0  0  0  0
    1.1818   -5.6612   28.8399 C   0  0  0  0  0  0  0  0  0  0  0  0
   -1.2067   -7.3287   17.7772 C   0  0  0  0  0  0  0  0  0  0  0  0
   -0.0206  -10.5585   16.6210 C   0  0  0  0  0  0  0  0  0  0  0  0
    0.3696  -12.7626   16.2169 O   0  0  0  0  0  0  0  0  0  0  0  0
   -0.6895   -9.5676   17.3297 C   0  0  0  0  0  0  0  0  0  0  0  0
    0.8388   -5.8417   27.5264 C   0  0  0  0  0  0  0  0  0  0  0  0
   -2.0709   -7.6637   18.7817 C   0  0  0  0  0  0  0  0  0  0  0  0
   -0.5279   -8.2168   17.0717 C   0  0  0  0  0  0  0  0  0  0  0  0
    6.9694   -4.0191   27.8190 C   0  0  0  0  0  0  0  0  0  0  0  0
    5.1733   -4.5469   29.8123 C   0  0  0  0  0  0  0  0  0  0  0  0
   -1.7508  -11.3016   18.6072 C   0  0  0  0  0  0  0  0  0  0  0  0
    1.7497   -5.6771   26.4971 C   0  0  0  0  0  0  0  0  0  0  0  0
   -1.5799   -9.9322   18.3468 C   0  0  0  0  0  0  0  0  0  0  0  0
   -1.0871  -12.2214   17.8851 C   0  0  0  0  0  0  0  0  0  0  0  0
   -2.2706   -8.9669   19.0691 C   0  0  0  0  0  0  0  0  0  0  0  0
    3.0279   -5.3073   26.8197 C   0  0  0  0  0  0  0  0  0  0  0  0
    7.3282   -3.8948   29.1186 C   0  0  0  0  0  0  0  0  0  0  0  0
  1  3  4  0
  1  7  4  0
  2  3  1  0
  2  6  4  0
  2 16  4  0
  3 22  4  0
  4  9  4  0
  4 10  1  0
  4 20  4  0
  5 16  4  0
  5 23  4  0
  6 15  4  0
  7 12  4  0
  8 13  4  0
  8 14  4  0
  9 11  4  0
 11 14  4  0
 11 19  4  0
 12 18  4  0
 13 21  4  0
 15 23  4  0
 17 19  4  0
 17 20  4  0
 18 22  4  0
 19 21  4  0
M  END
$$$$

 Created by Python create_sdf_string function

 23 25  0  0  0  0  0  0  0  0999 V2000
    2.4610   -5.3070   29.1240 C   0  0  0  0  0  0  0  0  0  0  0  0
    4.7710   -4.6952   28.4803 C   0  0  0  0  0  0  0  0  0  0  0  0
    3.4047   -5.1087   28.1314 C   0  0  0  0  0  0  0  0  0  0  0  0
   -0.2234  -11.8615   16.8874 C   0  0  0  0  0  0  0  0  0  0  0  0
    6.4491   -4.1532   30.1213 C   0  0  0  0  0  0  0  0  0  0  0  0
    5.7060   -4.4340   27.4975 C   0  0  0  0  0  0  0  0  0  0  0  0
    1.1818   -5.6612   28.8399 C   0  0  0  0  0  0  0  0  0  0  0  0
   -1.2067   -7.3287   17.7772 C   0  0  0  0  0  0  0  0  0  0  0  0
   -0.0206  -10.5585   16.6210 C   0  0  0  0  0  0  0  0  0  0  0  0
    0.3696  -12.7626   16.2169 O   0  0  0  0  0  0  0  0  0  0  0  0
   -0.6895   -9.5676   17.3297 C   0  0  0  0  0  0  0  0  0  0  0  0
    0.8388   -5.8417   27.5264 C   0  0  0  0  0  0  0  0  0  0  0  0
   -2.0709   -7.6637   18.7817 C   0  0  0  0  0  0  0  0  0  0  0  0
   -0.5279   -8.2168   17.0717 C   0  0  0  0  0  0  0  0  0  0  0  0
    6.9694   -4.0191   27.8190 C   0  0  0  0  0  0  0  0  0  0  0  0
    5.1733   -4.5469   29.8123 C   0  0  0  0  0  0  0  0  0  0  0  0
   -1.7508  -11.3016   18.6072 C   0  0  0  0  0  0  0  0  0  0  0  0
    1.7497   -5.6771   26.4971 C   0  0  0  0  0  0  0  0  0  0  0  0
   -1.5799   -9.9322   18.3468 C   0  0  0  0  0  0  0  0  0  0  0  0
   -1.0871  -12.2214   17.8851 C   0  0  0  0  0  0  0  0  0  0  0  0
   -2.2706   -8.9669   19.0691 C   0  0  0  0  0  0  0  0  0  0  0  0
    3.0279   -5.3073   26.8197 C   0  0  0  0  0  0  0  0  0  0  0  0
    7.3282   -3.8948   29.1186 C   0  0  0  0  0  0  0  0  0  0  0  0
  1  3  4  0
  1  7  4  0
  2  3  1  0
  2  6  4  0
  2 16  4  0
  3 22  4  0
  4  9  4  0
  4 10  1  0
  4 20  4  0
  5 16  4  0
  5 23  4  0
  6 15  4  0
  7 12  4  0
  8 13  4  0
  8 14  4  0
  9 11  4  0
 11 14  4  0
 11 19  4  0
 12 18  4  0
 13 21  4  0
 15 23  4  0
 17 19  4  0
 17 20  4  0
 18 22  4  0
 19 21  4  0
M  END
$$$$

 Created by Python create_sdf_string function

 23 25  0  0  0  0  0  0  0  0999 V2000
    2.4610   -5.3070   29.1240 C   0  0  0  0  0  0  0  0  0  0  0  0
    4.7710   -4.6952   28.4803 C   0  0  0  0  0  0  0  0  0  0  0  0
    3.4047   -5.1087   28.1314 C   0  0  0  0  0  0  0  0  0  0  0  0
   -0.2234  -11.8615   16.8874 C   0  0  0  0  0  0  0  0  0  0  0  0
    6.4491   -4.1532   30.1213 C   0  0  0  0  0  0  0  0  0  0  0  0
    5.7060   -4.4340   27.4975 C   0  0  0  0  0  0  0  0  0  0  0  0
    1.1818   -5.6612   28.8399 C   0  0  0  0  0  0  0  0  0  0  0  0
   -1.2067   -7.3287   17.7772 C   0  0  0  0  0  0  0  0  0  0  0  0
   -0.0206  -10.5585   16.6210 C   0  0  0  0  0  0  0  0  0  0  0  0
    0.3696  -12.7626   16.2169 O   0  0  0  0  0  0  0  0  0  0  0  0
   -0.6895   -9.5676   17.3297 C   0  0  0  0  0  0  0  0  0  0  0  0
    0.8388   -5.8417   27.5264 C   0  0  0  0  0  0  0  0  0  0  0  0
   -2.0709   -7.6637   18.7817 C   0  0  0  0  0  0  0  0  0  0  0  0
   -0.5279   -8.2168   17.0717 C   0  0  0  0  0  0  0  0  0  0  0  0
    6.9694   -4.0191   27.8190 C   0  0  0  0  0  0  0  0  0  0  0  0
    5.1733   -4.5469   29.8123 C   0  0  0  0  0  0  0  0  0  0  0  0
   -1.7508  -11.3016   18.6072 C   0  0  0  0  0  0  0  0  0  0  0  0
    1.7497   -5.6771   26.4971 C   0  0  0  0  0  0  0  0  0  0  0  0
   -1.5799   -9.9322   18.3468 C   0  0  0  0  0  0  0  0  0  0  0  0
   -1.0871  -12.2214   17.8851 C   0  0  0  0  0  0  0  0  0  0  0  0
   -2.2706   -8.9669   19.0691 C   0  0  0  0  0  0  0  0  0  0  0  0
    3.0279   -5.3073   26.8197 C   0  0  0  0  0  0  0  0  0  0  0  0
    7.3282   -3.8948   29.1186 C   0  0  0  0  0  0  0  0  0  0  0  0
  1  3  4  0
  1  7  4  0
  2  3  1  0
  2  6  4  0
  2 16  4  0
  3 22  4  0
  4  9  4  0
  4 10  1  0
  4 20  4  0
  5 16  4  0
  5 23  4  0
  6 15  4  0
  7 12  4  0
  8 13  4  0
  8 14  4  0
  9 11  4  0
 11 14  4  0
 11 19  4  0
 12 18  4  0
 13 21  4  0
 15 23  4  0
 17 19  4  0
 17 20  4  0
 18 22  4  0
 19 21  4  0
M  END
$$$$

 Created by Python create_sdf_string function

 23 25  0  0  0  0  0  0  0  0999 V2000
    2.4610   -5.3070   29.1240 C   0  0  0  0  0  0  0  0  0  0  0  0
    4.7710   -4.6952   28.4803 C   0  0  0  0  0  0  0  0  0  0  0  0
    3.4047   -5.1087   28.1314 C   0  0  0  0  0  0  0  0  0  0  0  0
   -0.2234  -11.8615   16.8874 C   0  0  0  0  0  0  0  0  0  0  0  0
    6.4491   -4.1532   30.1213 C   0  0  0  0  0  0  0  0  0  0  0  0
    5.7060   -4.4340   27.4975 C   0  0  0  0  0  0  0  0  0  0  0  0
    1.1818   -5.6612   28.8399 C   0  0  0  0  0  0  0  0  0  0  0  0
   -1.2067   -7.3287   17.7772 C   0  0  0  0  0  0  0  0  0  0  0  0
   -0.0206  -10.5585   16.6210 C   0  0  0  0  0  0  0  0  0  0  0  0
    0.3696  -12.7626   16.2169 O   0  0  0  0  0  0  0  0  0  0  0  0
   -0.6895   -9.5676   17.3297 C   0  0  0  0  0  0  0  0  0  0  0  0
    0.8388   -5.8417   27.5264 C   0  0  0  0  0  0  0  0  0  0  0  0
   -2.0709   -7.6637   18.7817 C   0  0  0  0  0  0  0  0  0  0  0  0
   -0.5279   -8.2168   17.0717 C   0  0  0  0  0  0  0  0  0  0  0  0
    6.9694   -4.0191   27.8190 C   0  0  0  0  0  0  0  0  0  0  0  0
    5.1733   -4.5469   29.8123 C   0  0  0  0  0  0  0  0  0  0  0  0
   -1.7508  -11.3016   18.6072 C   0  0  0  0  0  0  0  0  0  0  0  0
    1.7497   -5.6771   26.4971 C   0  0  0  0  0  0  0  0  0  0  0  0
   -1.5799   -9.9322   18.3468 C   0  0  0  0  0  0  0  0  0  0  0  0
   -1.0871  -12.2214   17.8851 C   0  0  0  0  0  0  0  0  0  0  0  0
   -2.2706   -8.9669   19.0691 C   0  0  0  0  0  0  0  0  0  0  0  0
    3.0279   -5.3073   26.8197 C   0  0  0  0  0  0  0  0  0  0  0  0
    7.3282   -3.8948   29.1186 C   0  0  0  0  0  0  0  0  0  0  0  0
  1  3  4  0
  1  7  4  0
  2  3  1  0
  2  6  4  0
  2 16  4  0
  3 22  4  0
  4  9  4  0
  4 10  1  0
  4 20  4  0
  5 16  4  0
  5 23  4  0
  6 15  4  0
  7 12  4  0
  8 13  4  0
  8 14  4  0
  9 11  4  0
 11 14  4  0
 11 19  4  0
 12 18  4  0
 13 21  4  0
 15 23  4  0
 17 19  4  0
 17 20  4  0
 18 22  4  0
 19 21  4  0
M  END
$$$$

 Created by Python create_sdf_string function

 23 25  0  0  0  0  0  0  0  0999 V2000
    2.4610   -5.3070   29.1240 C   0  0  0  0  0  0  0  0  0  0  0  0
    4.7710   -4.6952   28.4803 C   0  0  0  0  0  0  0  0  0  0  0  0
    3.4047   -5.1087   28.1314 C   0  0  0  0  0  0  0  0  0  0  0  0
   -0.2234  -11.8615   16.8874 C   0  0  0  0  0  0  0  0  0  0  0  0
    6.4491   -4.1532   30.1213 C   0  0  0  0  0  0  0  0  0  0  0  0
    5.7060   -4.4340   27.4975 C   0  0  0  0  0  0  0  0  0  0  0  0
    1.1818   -5.6612   28.8399 C   0  0  0  0  0  0  0  0  0  0  0  0
   -1.2067   -7.3287   17.7772 C   0  0  0  0  0  0  0  0  0  0  0  0
   -0.0206  -10.5585   16.6210 C   0  0  0  0  0  0  0  0  0  0  0  0
    0.3696  -12.7626   16.2169 O   0  0  0  0  0  0  0  0  0  0  0  0
   -0.6895   -9.5676   17.3297 C   0  0  0  0  0  0  0  0  0  0  0  0
    0.8388   -5.8417   27.5264 C   0  0  0  0  0  0  0  0  0  0  0  0
   -2.0709   -7.6637   18.7817 C   0  0  0  0  0  0  0  0  0  0  0  0
   -0.5279   -8.2168   17.0717 C   0  0  0  0  0  0  0  0  0  0  0  0
    6.9694   -4.0191   27.8190 C   0  0  0  0  0  0  0  0  0  0  0  0
    5.1733   -4.5469   29.8123 C   0  0  0  0  0  0  0  0  0  0  0  0
   -1.7508  -11.3016   18.6072 C   0  0  0  0  0  0  0  0  0  0  0  0
    1.7497   -5.6771   26.4971 C   0  0  0  0  0  0  0  0  0  0  0  0
   -1.5799   -9.9322   18.3468 C   0  0  0  0  0  0  0  0  0  0  0  0
   -1.0871  -12.2214   17.8851 C   0  0  0  0  0  0  0  0  0  0  0  0
   -2.2706   -8.9669   19.0691 C   0  0  0  0  0  0  0  0  0  0  0  0
    3.0279   -5.3073   26.8197 C   0  0  0  0  0  0  0  0  0  0  0  0
    7.3282   -3.8948   29.1186 C   0  0  0  0  0  0  0  0  0  0  0  0
  1  3  4  0
  1  7  4  0
  2  3  1  0
  2  6  4  0
  2 16  4  0
  3 22  4  0
  4  9  4  0
  4 10  1  0
  4 20  4  0
  5 16  4  0
  5 23  4  0
  6 15  4  0
  7 12  4  0
  8 13  4  0
  8 14  4  0
  9 11  4  0
 11 14  4  0
 11 19  4  0
 12 18  4  0
 13 21  4  0
 15 23  4  0
 17 19  4  0
 17 20  4  0
 18 22  4  0
 19 21  4  0
M  END
$$$$

 Created by Python create_sdf_string function

 23 25  0  0  0  0  0  0  0  0999 V2000
    2.4610   -5.3070   29.1240 C   0  0  0  0  0  0  0  0  0  0  0  0
    4.7710   -4.6952   28.4803 C   0  0  0  0  0  0  0  0  0  0  0  0
    3.4047   -5.1087   28.1314 C   0  0  0  0  0  0  0  0  0  0  0  0
   -0.2234  -11.8615   16.8874 C   0  0  0  0  0  0  0  0  0  0  0  0
    6.4491   -4.1532   30.1213 C   0  0  0  0  0  0  0  0  0  0  0  0
    5.7060   -4.4340   27.4975 C   0  0  0  0  0  0  0  0  0  0  0  0
    1.1818   -5.6612   28.8399 C   0  0  0  0  0  0  0  0  0  0  0  0
   -1.2067   -7.3287   17.7772 C   0  0  0  0  0  0  0  0  0  0  0  0
   -0.0206  -10.5585   16.6210 C   0  0  0  0  0  0  0  0  0  0  0  0
    0.3696  -12.7626   16.2169 O   0  0  0  0  0  0  0  0  0  0  0  0
   -0.6895   -9.5676   17.3297 C   0  0  0  0  0  0  0  0  0  0  0  0
    0.8388   -5.8417   27.5264 C   0  0  0  0  0  0  0  0  0  0  0  0
   -2.0709   -7.6637   18.7817 C   0  0  0  0  0  0  0  0  0  0  0  0
   -0.5279   -8.2168   17.0717 C   0  0  0  0  0  0  0  0  0  0  0  0
    6.9694   -4.0191   27.8190 C   0  0  0  0  0  0  0  0  0  0  0  0
    5.1733   -4.5469   29.8123 C   0  0  0  0  0  0  0  0  0  0  0  0
   -1.7508  -11.3016   18.6072 C   0  0  0  0  0  0  0  0  0  0  0  0
    1.7497   -5.6771   26.4971 C   0  0  0  0  0  0  0  0  0  0  0  0
   -1.5799   -9.9322   18.3468 C   0  0  0  0  0  0  0  0  0  0  0  0
   -1.0871  -12.2214   17.8851 C   0  0  0  0  0  0  0  0  0  0  0  0
   -2.2706   -8.9669   19.0691 C   0  0  0  0  0  0  0  0  0  0  0  0
    3.0279   -5.3073   26.8197 C   0  0  0  0  0  0  0  0  0  0  0  0
    7.3282   -3.8948   29.1186 C   0  0  0  0  0  0  0  0  0  0  0  0
  1  3  4  0
  1  7  4  0
  2  3  1  0
  2  6  4  0
  2 16  4  0
  3 22  4  0
  4  9  4  0
  4 10  1  0
  4 20  4  0
  5 16  4  0
  5 23  4  0
  6 15  4  0
  7 12  4  0
  8 13  4  0
  8 14  4  0
  9 11  4  0
 11 14  4  0
 11 19  4  0
 12 18  4  0
 13 21  4  0
 15 23  4  0
 17 19  4  0
 17 20  4  0
 18 22  4  0
 19 21  4  0
M  END
$$$$

 Created by Python create_sdf_string function

 23 25  0  0  0  0  0  0  0  0999 V2000
    2.4610   -5.3070   29.1240 C   0  0  0  0  0  0  0  0  0  0  0  0
    4.7710   -4.6952   28.4803 C   0  0  0  0  0  0  0  0  0  0  0  0
    3.4047   -5.1087   28.1314 C   0  0  0  0  0  0  0  0  0  0  0  0
   -0.2234  -11.8615   16.8874 C   0  0  0  0  0  0  0  0  0  0  0  0
    6.4491   -4.1532   30.1213 C   0  0  0  0  0  0  0  0  0  0  0  0
    5.7060   -4.4340   27.4975 C   0  0  0  0  0  0  0  0  0  0  0  0
    1.1818   -5.6612   28.8399 C   0  0  0  0  0  0  0  0  0  0  0  0
   -1.2067   -7.3287   17.7772 C   0  0  0  0  0  0  0  0  0  0  0  0
   -0.0206  -10.5585   16.6210 C   0  0  0  0  0  0  0  0  0  0  0  0
    0.3696  -12.7626   16.2169 O   0  0  0  0  0  0  0  0  0  0  0  0
   -0.6895   -9.5676   17.3297 C   0  0  0  0  0  0  0  0  0  0  0  0
    0.8388   -5.8417   27.5264 C   0  0  0  0  0  0  0  0  0  0  0  0
   -2.0709   -7.6637   18.7817 C   0  0  0  0  0  0  0  0  0  0  0  0
   -0.5279   -8.2168   17.0717 C   0  0  0  0  0  0  0  0  0  0  0  0
    6.9694   -4.0191   27.8190 C   0  0  0  0  0  0  0  0  0  0  0  0
    5.1733   -4.5469   29.8123 C   0  0  0  0  0  0  0  0  0  0  0  0
   -1.7508  -11.3016   18.6072 C   0  0  0  0  0  0  0  0  0  0  0  0
    1.7497   -5.6771   26.4971 C   0  0  0  0  0  0  0  0  0  0  0  0
   -1.5799   -9.9322   18.3468 C   0  0  0  0  0  0  0  0  0  0  0  0
   -1.0871  -12.2214   17.8851 C   0  0  0  0  0  0  0  0  0  0  0  0
   -2.2706   -8.9669   19.0691 C   0  0  0  0  0  0  0  0  0  0  0  0
    3.0279   -5.3073   26.8197 C   0  0  0  0  0  0  0  0  0  0  0  0
    7.3282   -3.8948   29.1186 C   0  0  0  0  0  0  0  0  0  0  0  0
  1  3  4  0
  1  7  4  0
  2  3  1  0
  2  6  4  0
  2 16  4  0
  3 22  4  0
  4  9  4  0
  4 10  1  0
  4 20  4  0
  5 16  4  0
  5 23  4  0
  6 15  4  0
  7 12  4  0
  8 13  4  0
  8 14  4  0
  9 11  4  0
 11 14  4  0
 11 19  4  0
 12 18  4  0
 13 21  4  0
 15 23  4  0
 17 19  4  0
 17 20  4  0
 18 22  4  0
 19 21  4  0
M  END
$$$$

 Created by Python create_sdf_string function

 23 25  0  0  0  0  0  0  0  0999 V2000
    2.4610   -5.3070   29.1240 C   0  0  0  0  0  0  0  0  0  0  0  0
    4.7710   -4.6952   28.4803 C   0  0  0  0  0  0  0  0  0  0  0  0
    3.4047   -5.1087   28.1314 C   0  0  0  0  0  0  0  0  0  0  0  0
   -0.2234  -11.8615   16.8874 C   0  0  0  0  0  0  0  0  0  0  0  0
    6.4491   -4.1532   30.1213 C   0  0  0  0  0  0  0  0  0  0  0  0
    5.7060   -4.4340   27.4975 C   0  0  0  0  0  0  0  0  0  0  0  0
    1.1818   -5.6612   28.8399 C   0  0  0  0  0  0  0  0  0  0  0  0
   -1.2067   -7.3287   17.7772 C   0  0  0  0  0  0  0  0  0  0  0  0
   -0.0206  -10.5585   16.6210 C   0  0  0  0  0  0  0  0  0  0  0  0
    0.3696  -12.7626   16.2169 O   0  0  0  0  0  0  0  0  0  0  0  0
   -0.6895   -9.5676   17.3297 C   0  0  0  0  0  0  0  0  0  0  0  0
    0.8388   -5.8417   27.5264 C   0  0  0  0  0  0  0  0  0  0  0  0
   -2.0709   -7.6637   18.7817 C   0  0  0  0  0  0  0  0  0  0  0  0
   -0.5279   -8.2168   17.0717 C   0  0  0  0  0  0  0  0  0  0  0  0
    6.9694   -4.0191   27.8190 C   0  0  0  0  0  0  0  0  0  0  0  0
    5.1733   -4.5469   29.8123 C   0  0  0  0  0  0  0  0  0  0  0  0
   -1.7508  -11.3016   18.6072 C   0  0  0  0  0  0  0  0  0  0  0  0
    1.7497   -5.6771   26.4971 C   0  0  0  0  0  0  0  0  0  0  0  0
   -1.5799   -9.9322   18.3468 C   0  0  0  0  0  0  0  0  0  0  0  0
   -1.0871  -12.2214   17.8851 C   0  0  0  0  0  0  0  0  0  0  0  0
   -2.2706   -8.9669   19.0691 C   0  0  0  0  0  0  0  0  0  0  0  0
    3.0279   -5.3073   26.8197 C   0  0  0  0  0  0  0  0  0  0  0  0
    7.3282   -3.8948   29.1186 C   0  0  0  0  0  0  0  0  0  0  0  0
  1  3  4  0
  1  7  4  0
  2  3  1  0
  2  6  4  0
  2 16  4  0
  3 22  4  0
  4  9  4  0
  4 10  1  0
  4 20  4  0
  5 16  4  0
  5 23  4  0
  6 15  4  0
  7 12  4  0
  8 13  4  0
  8 14  4  0
  9 11  4  0
 11 14  4  0
 11 19  4  0
 12 18  4  0
 13 21  4  0
 15 23  4  0
 17 19  4  0
 17 20  4  0
 18 22  4  0
 19 21  4  0
M  END
$$$$

 Created by Python create_sdf_string function

 23 25  0  0  0  0  0  0  0  0999 V2000
    2.4610   -5.3070   29.1240 C   0  0  0  0  0  0  0  0  0  0  0  0
    4.7710   -4.6952   28.4803 C   0  0  0  0  0  0  0  0  0  0  0  0
    3.4047   -5.1087   28.1314 C   0  0  0  0  0  0  0  0  0  0  0  0
   -0.2234  -11.8615   16.8874 C   0  0  0  0  0  0  0  0  0  0  0  0
    6.4491   -4.1532   30.1213 C   0  0  0  0  0  0  0  0  0  0  0  0
    5.7060   -4.4340   27.4975 C   0  0  0  0  0  0  0  0  0  0  0  0
    1.1818   -5.6612   28.8399 C   0  0  0  0  0  0  0  0  0  0  0  0
   -1.2067   -7.3287   17.7772 C   0  0  0  0  0  0  0  0  0  0  0  0
   -0.0206  -10.5585   16.6210 C   0  0  0  0  0  0  0  0  0  0  0  0
    0.3696  -12.7626   16.2169 O   0  0  0  0  0  0  0  0  0  0  0  0
   -0.6895   -9.5676   17.3297 C   0  0  0  0  0  0  0  0  0  0  0  0
    0.8388   -5.8417   27.5264 C   0  0  0  0  0  0  0  0  0  0  0  0
   -2.0709   -7.6637   18.7817 C   0  0  0  0  0  0  0  0  0  0  0  0
   -0.5279   -8.2168   17.0717 C   0  0  0  0  0  0  0  0  0  0  0  0
    6.9694   -4.0191   27.8190 C   0  0  0  0  0  0  0  0  0  0  0  0
    5.1733   -4.5469   29.8123 C   0  0  0  0  0  0  0  0  0  0  0  0
   -1.7508  -11.3016   18.6072 C   0  0  0  0  0  0  0  0  0  0  0  0
    1.7497   -5.6771   26.4971 C   0  0  0  0  0  0  0  0  0  0  0  0
   -1.5799   -9.9322   18.3468 C   0  0  0  0  0  0  0  0  0  0  0  0
   -1.0871  -12.2214   17.8851 C   0  0  0  0  0  0  0  0  0  0  0  0
   -2.2706   -8.9669   19.0691 C   0  0  0  0  0  0  0  0  0  0  0  0
    3.0279   -5.3073   26.8197 C   0  0  0  0  0  0  0  0  0  0  0  0
    7.3282   -3.8948   29.1186 C   0  0  0  0  0  0  0  0  0  0  0  0
  1  3  4  0
  1  7  4  0
  2  3  1  0
  2  6  4  0
  2 16  4  0
  3 22  4  0
  4  9  4  0
  4 10  1  0
  4 20  4  0
  5 16  4  0
  5 23  4  0
  6 15  4  0
  7 12  4  0
  8 13  4  0
  8 14  4  0
  9 11  4  0
 11 14  4  0
 11 19  4  0
 12 18  4  0
 13 21  4  0
 15 23  4  0
 17 19  4  0
 17 20  4  0
 18 22  4  0
 19 21  4  0
M  END
$$$$

 Created by Python create_sdf_string function

 23 25  0  0  0  0  0  0  0  0999 V2000
    2.4610   -5.3070   29.1240 C   0  0  0  0  0  0  0  0  0  0  0  0
    4.7710   -4.6952   28.4803 C   0  0  0  0  0  0  0  0  0  0  0  0
    3.4047   -5.1087   28.1314 C   0  0  0  0  0  0  0  0  0  0  0  0
   -0.2234  -11.8615   16.8874 C   0  0  0  0  0  0  0  0  0  0  0  0
    6.4491   -4.1532   30.1213 C   0  0  0  0  0  0  0  0  0  0  0  0
    5.7060   -4.4340   27.4975 C   0  0  0  0  0  0  0  0  0  0  0  0
    1.1818   -5.6612   28.8399 C   0  0  0  0  0  0  0  0  0  0  0  0
   -1.2067   -7.3287   17.7772 C   0  0  0  0  0  0  0  0  0  0  0  0
   -0.0206  -10.5585   16.6210 C   0  0  0  0  0  0  0  0  0  0  0  0
    0.3696  -12.7626   16.2169 O   0  0  0  0  0  0  0  0  0  0  0  0
   -0.6895   -9.5676   17.3297 C   0  0  0  0  0  0  0  0  0  0  0  0
    0.8388   -5.8417   27.5264 C   0  0  0  0  0  0  0  0  0  0  0  0
   -2.0709   -7.6637   18.7817 C   0  0  0  0  0  0  0  0  0  0  0  0
   -0.5279   -8.2168   17.0717 C   0  0  0  0  0  0  0  0  0  0  0  0
    6.9694   -4.0191   27.8190 C   0  0  0  0  0  0  0  0  0  0  0  0
    5.1733   -4.5469   29.8123 C   0  0  0  0  0  0  0  0  0  0  0  0
   -1.7508  -11.3016   18.6072 C   0  0  0  0  0  0  0  0  0  0  0  0
    1.7497   -5.6771   26.4971 C   0  0  0  0  0  0  0  0  0  0  0  0
   -1.5799   -9.9322   18.3468 C   0  0  0  0  0  0  0  0  0  0  0  0
   -1.0871  -12.2214   17.8851 C   0  0  0  0  0  0  0  0  0  0  0  0
   -2.2706   -8.9669   19.0691 C   0  0  0  0  0  0  0  0  0  0  0  0
    3.0279   -5.3073   26.8197 C   0  0  0  0  0  0  0  0  0  0  0  0
    7.3282   -3.8948   29.1186 C   0  0  0  0  0  0  0  0  0  0  0  0
  1  3  4  0
  1  7  4  0
  2  3  1  0
  2  6  4  0
  2 16  4  0
  3 22  4  0
  4  9  4  0
  4 10  1  0
  4 20  4  0
  5 16  4  0
  5 23  4  0
  6 15  4  0
  7 12  4  0
  8 13  4  0
  8 14  4  0
  9 11  4  0
 11 14  4  0
 11 19  4  0
 12 18  4  0
 13 21  4  0
 15 23  4  0
 17 19  4  0
 17 20  4  0
 18 22  4  0
 19 21  4  0
M  END
$$$$

 Created by Python create_sdf_string function

 23 25  0  0  0  0  0  0  0  0999 V2000
    2.4610   -5.3070   29.1240 C   0  0  0  0  0  0  0  0  0  0  0  0
    4.7710   -4.6952   28.4803 C   0  0  0  0  0  0  0  0  0  0  0  0
    3.4047   -5.1087   28.1314 C   0  0  0  0  0  0  0  0  0  0  0  0
   -0.2234  -11.8615   16.8874 C   0  0  0  0  0  0  0  0  0  0  0  0
    6.4491   -4.1532   30.1213 C   0  0  0  0  0  0  0  0  0  0  0  0
    5.7060   -4.4340   27.4975 C   0  0  0  0  0  0  0  0  0  0  0  0
    1.1818   -5.6612   28.8399 C   0  0  0  0  0  0  0  0  0  0  0  0
   -1.2067   -7.3287   17.7772 C   0  0  0  0  0  0  0  0  0  0  0  0
   -0.0206  -10.5585   16.6210 C   0  0  0  0  0  0  0  0  0  0  0  0
    0.3696  -12.7626   16.2169 O   0  0  0  0  0  0  0  0  0  0  0  0
   -0.6895   -9.5676   17.3297 C   0  0  0  0  0  0  0  0  0  0  0  0
    0.8388   -5.8417   27.5264 C   0  0  0  0  0  0  0  0  0  0  0  0
   -2.0709   -7.6637   18.7817 C   0  0  0  0  0  0  0  0  0  0  0  0
   -0.5279   -8.2168   17.0717 C   0  0  0  0  0  0  0  0  0  0  0  0
    6.9694   -4.0191   27.8190 C   0  0  0  0  0  0  0  0  0  0  0  0
    5.1733   -4.5469   29.8123 C   0  0  0  0  0  0  0  0  0  0  0  0
   -1.7508  -11.3016   18.6072 C   0  0  0  0  0  0  0  0  0  0  0  0
    1.7497   -5.6771   26.4971 C   0  0  0  0  0  0  0  0  0  0  0  0
   -1.5799   -9.9322   18.3468 C   0  0  0  0  0  0  0  0  0  0  0  0
   -1.0871  -12.2214   17.8851 C   0  0  0  0  0  0  0  0  0  0  0  0
   -2.2706   -8.9669   19.0691 C   0  0  0  0  0  0  0  0  0  0  0  0
    3.0279   -5.3073   26.8197 C   0  0  0  0  0  0  0  0  0  0  0  0
    7.3282   -3.8948   29.1186 C   0  0  0  0  0  0  0  0  0  0  0  0
  1  3  4  0
  1  7  4  0
  2  3  1  0
  2  6  4  0
  2 16  4  0
  3 22  4  0
  4  9  4  0
  4 10  1  0
  4 20  4  0
  5 16  4  0
  5 23  4  0
  6 15  4  0
  7 12  4  0
  8 13  4  0
  8 14  4  0
  9 11  4  0
 11 14  4  0
 11 19  4  0
 12 18  4  0
 13 21  4  0
 15 23  4  0
 17 19  4  0
 17 20  4  0
 18 22  4  0
 19 21  4  0
M  END
$$$$

 Created by Python create_sdf_string function

 23 25  0  0  0  0  0  0  0  0999 V2000
    2.4610   -5.3070   29.1240 C   0  0  0  0  0  0  0  0  0  0  0  0
    4.7710   -4.6952   28.4803 C   0  0  0  0  0  0  0  0  0  0  0  0
    3.4047   -5.1087   28.1314 C   0  0  0  0  0  0  0  0  0  0  0  0
   -0.2234  -11.8615   16.8874 C   0  0  0  0  0  0  0  0  0  0  0  0
    6.4491   -4.1532   30.1213 C   0  0  0  0  0  0  0  0  0  0  0  0
    5.7060   -4.4340   27.4975 C   0  0  0  0  0  0  0  0  0  0  0  0
    1.1818   -5.6612   28.8399 C   0  0  0  0  0  0  0  0  0  0  0  0
   -1.2067   -7.3287   17.7772 C   0  0  0  0  0  0  0  0  0  0  0  0
   -0.0206  -10.5585   16.6210 C   0  0  0  0  0  0  0  0  0  0  0  0
    0.3696  -12.7626   16.2169 O   0  0  0  0  0  0  0  0  0  0  0  0
   -0.6895   -9.5676   17.3297 C   0  0  0  0  0  0  0  0  0  0  0  0
    0.8388   -5.8417   27.5264 C   0  0  0  0  0  0  0  0  0  0  0  0
   -2.0709   -7.6637   18.7817 C   0  0  0  0  0  0  0  0  0  0  0  0
   -0.5279   -8.2168   17.0717 C   0  0  0  0  0  0  0  0  0  0  0  0
    6.9694   -4.0191   27.8190 C   0  0  0  0  0  0  0  0  0  0  0  0
    5.1733   -4.5469   29.8123 C   0  0  0  0  0  0  0  0  0  0  0  0
   -1.7508  -11.3016   18.6072 C   0  0  0  0  0  0  0  0  0  0  0  0
    1.7497   -5.6771   26.4971 C   0  0  0  0  0  0  0  0  0  0  0  0
   -1.5799   -9.9322   18.3468 C   0  0  0  0  0  0  0  0  0  0  0  0
   -1.0871  -12.2214   17.8851 C   0  0  0  0  0  0  0  0  0  0  0  0
   -2.2706   -8.9669   19.0691 C   0  0  0  0  0  0  0  0  0  0  0  0
    3.0279   -5.3073   26.8197 C   0  0  0  0  0  0  0  0  0  0  0  0
    7.3282   -3.8948   29.1186 C   0  0  0  0  0  0  0  0  0  0  0  0
  1  3  4  0
  1  7  4  0
  2  3  1  0
  2  6  4  0
  2 16  4  0
  3 22  4  0
  4  9  4  0
  4 10  1  0
  4 20  4  0
  5 16  4  0
  5 23  4  0
  6 15  4  0
  7 12  4  0
  8 13  4  0
  8 14  4  0
  9 11  4  0
 11 14  4  0
 11 19  4  0
 12 18  4  0
 13 21  4  0
 15 23  4  0
 17 19  4  0
 17 20  4  0
 18 22  4  0
 19 21  4  0
M  END
$$$$

 Created by Python create_sdf_string function

 23 25  0  0  0  0  0  0  0  0999 V2000
    2.4610   -5.3070   29.1240 C   0  0  0  0  0  0  0  0  0  0  0  0
    4.7710   -4.6952   28.4803 C   0  0  0  0  0  0  0  0  0  0  0  0
    3.4047   -5.1087   28.1314 C   0  0  0  0  0  0  0  0  0  0  0  0
   -0.2234  -11.8615   16.8874 C   0  0  0  0  0  0  0  0  0  0  0  0
    6.4491   -4.1532   30.1213 C   0  0  0  0  0  0  0  0  0  0  0  0
    5.7060   -4.4340   27.4975 C   0  0  0  0  0  0  0  0  0  0  0  0
    1.1818   -5.6612   28.8399 C   0  0  0  0  0  0  0  0  0  0  0  0
   -1.2067   -7.3287   17.7772 C   0  0  0  0  0  0  0  0  0  0  0  0
   -0.0206  -10.5585   16.6210 C   0  0  0  0  0  0  0  0  0  0  0  0
    0.3696  -12.7626   16.2169 O   0  0  0  0  0  0  0  0  0  0  0  0
   -0.6895   -9.5676   17.3297 C   0  0  0  0  0  0  0  0  0  0  0  0
    0.8388   -5.8417   27.5264 C   0  0  0  0  0  0  0  0  0  0  0  0
   -2.0709   -7.6637   18.7817 C   0  0  0  0  0  0  0  0  0  0  0  0
   -0.5279   -8.2168   17.0717 C   0  0  0  0  0  0  0  0  0  0  0  0
    6.9694   -4.0191   27.8190 C   0  0  0  0  0  0  0  0  0  0  0  0
    5.1733   -4.5469   29.8123 C   0  0  0  0  0  0  0  0  0  0  0  0
   -1.7508  -11.3016   18.6072 C   0  0  0  0  0  0  0  0  0  0  0  0
    1.7497   -5.6771   26.4971 C   0  0  0  0  0  0  0  0  0  0  0  0
   -1.5799   -9.9322   18.3468 C   0  0  0  0  0  0  0  0  0  0  0  0
   -1.0871  -12.2214   17.8851 C   0  0  0  0  0  0  0  0  0  0  0  0
   -2.2706   -8.9669   19.0691 C   0  0  0  0  0  0  0  0  0  0  0  0
    3.0279   -5.3073   26.8197 C   0  0  0  0  0  0  0  0  0  0  0  0
    7.3282   -3.8948   29.1186 C   0  0  0  0  0  0  0  0  0  0  0  0
  1  3  4  0
  1  7  4  0
  2  3  1  0
  2  6  4  0
  2 16  4  0
  3 22  4  0
  4  9  4  0
  4 10  1  0
  4 20  4  0
  5 16  4  0
  5 23  4  0
  6 15  4  0
  7 12  4  0
  8 13  4  0
  8 14  4  0
  9 11  4  0
 11 14  4  0
 11 19  4  0
 12 18  4  0
 13 21  4  0
 15 23  4  0
 17 19  4  0
 17 20  4  0
 18 22  4  0
 19 21  4  0
M  END
$$$$

 Created by Python create_sdf_string function

 23 25  0  0  0  0  0  0  0  0999 V2000
    2.4610   -5.3070   29.1240 C   0  0  0  0  0  0  0  0  0  0  0  0
    4.7710   -4.6952   28.4803 C   0  0  0  0  0  0  0  0  0  0  0  0
    3.4047   -5.1087   28.1314 C   0  0  0  0  0  0  0  0  0  0  0  0
   -0.2234  -11.8615   16.8874 C   0  0  0  0  0  0  0  0  0  0  0  0
    6.4491   -4.1532   30.1213 C   0  0  0  0  0  0  0  0  0  0  0  0
    5.7060   -4.4340   27.4975 C   0  0  0  0  0  0  0  0  0  0  0  0
    1.1818   -5.6612   28.8399 C   0  0  0  0  0  0  0  0  0  0  0  0
   -1.2067   -7.3287   17.7772 C   0  0  0  0  0  0  0  0  0  0  0  0
   -0.0206  -10.5585   16.6210 C   0  0  0  0  0  0  0  0  0  0  0  0
    0.3696  -12.7626   16.2169 O   0  0  0  0  0  0  0  0  0  0  0  0
   -0.6895   -9.5676   17.3297 C   0  0  0  0  0  0  0  0  0  0  0  0
    0.8388   -5.8417   27.5264 C   0  0  0  0  0  0  0  0  0  0  0  0
   -2.0709   -7.6637   18.7817 C   0  0  0  0  0  0  0  0  0  0  0  0
   -0.5279   -8.2168   17.0717 C   0  0  0  0  0  0  0  0  0  0  0  0
    6.9694   -4.0191   27.8190 C   0  0  0  0  0  0  0  0  0  0  0  0
    5.1733   -4.5469   29.8123 C   0  0  0  0  0  0  0  0  0  0  0  0
   -1.7508  -11.3016   18.6072 C   0  0  0  0  0  0  0  0  0  0  0  0
    1.7497   -5.6771   26.4971 C   0  0  0  0  0  0  0  0  0  0  0  0
   -1.5799   -9.9322   18.3468 C   0  0  0  0  0  0  0  0  0  0  0  0
   -1.0871  -12.2214   17.8851 C   0  0  0  0  0  0  0  0  0  0  0  0
   -2.2706   -8.9669   19.0691 C   0  0  0  0  0  0  0  0  0  0  0  0
    3.0279   -5.3073   26.8197 C   0  0  0  0  0  0  0  0  0  0  0  0
    7.3282   -3.8948   29.1186 C   0  0  0  0  0  0  0  0  0  0  0  0
  1  3  4  0
  1  7  4  0
  2  3  1  0
  2  6  4  0
  2 16  4  0
  3 22  4  0
  4  9  4  0
  4 10  1  0
  4 20  4  0
  5 16  4  0
  5 23  4  0
  6 15  4  0
  7 12  4  0
  8 13  4  0
  8 14  4  0
  9 11  4  0
 11 14  4  0
 11 19  4  0
 12 18  4  0
 13 21  4  0
 15 23  4  0
 17 19  4  0
 17 20  4  0
 18 22  4  0
 19 21  4  0
M  END
$$$$

 Created by Python create_sdf_string function

 23 25  0  0  0  0  0  0  0  0999 V2000
    2.4610   -5.3070   29.1240 C   0  0  0  0  0  0  0  0  0  0  0  0
    4.7710   -4.6952   28.4803 C   0  0  0  0  0  0  0  0  0  0  0  0
    3.4047   -5.1087   28.1314 C   0  0  0  0  0  0  0  0  0  0  0  0
   -0.2234  -11.8615   16.8874 C   0  0  0  0  0  0  0  0  0  0  0  0
    6.4491   -4.1532   30.1213 C   0  0  0  0  0  0  0  0  0  0  0  0
    5.7060   -4.4340   27.4975 C   0  0  0  0  0  0  0  0  0  0  0  0
    1.1818   -5.6612   28.8399 C   0  0  0  0  0  0  0  0  0  0  0  0
   -1.2067   -7.3287   17.7772 C   0  0  0  0  0  0  0  0  0  0  0  0
   -0.0206  -10.5585   16.6210 C   0  0  0  0  0  0  0  0  0  0  0  0
    0.3696  -12.7626   16.2169 O   0  0  0  0  0  0  0  0  0  0  0  0
   -0.6895   -9.5676   17.3297 C   0  0  0  0  0  0  0  0  0  0  0  0
    0.8388   -5.8417   27.5264 C   0  0  0  0  0  0  0  0  0  0  0  0
   -2.0709   -7.6637   18.7817 C   0  0  0  0  0  0  0  0  0  0  0  0
   -0.5279   -8.2168   17.0717 C   0  0  0  0  0  0  0  0  0  0  0  0
    6.9694   -4.0191   27.8190 C   0  0  0  0  0  0  0  0  0  0  0  0
    5.1733   -4.5469   29.8123 C   0  0  0  0  0  0  0  0  0  0  0  0
   -1.7508  -11.3016   18.6072 C   0  0  0  0  0  0  0  0  0  0  0  0
    1.7497   -5.6771   26.4971 C   0  0  0  0  0  0  0  0  0  0  0  0
   -1.5799   -9.9322   18.3468 C   0  0  0  0  0  0  0  0  0  0  0  0
   -1.0871  -12.2214   17.8851 C   0  0  0  0  0  0  0  0  0  0  0  0
   -2.2706   -8.9669   19.0691 C   0  0  0  0  0  0  0  0  0  0  0  0
    3.0279   -5.3073   26.8197 C   0  0  0  0  0  0  0  0  0  0  0  0
    7.3282   -3.8948   29.1186 C   0  0  0  0  0  0  0  0  0  0  0  0
  1  3  4  0
  1  7  4  0
  2  3  1  0
  2  6  4  0
  2 16  4  0
  3 22  4  0
  4  9  4  0
  4 10  1  0
  4 20  4  0
  5 16  4  0
  5 23  4  0
  6 15  4  0
  7 12  4  0
  8 13  4  0
  8 14  4  0
  9 11  4  0
 11 14  4  0
 11 19  4  0
 12 18  4  0
 13 21  4  0
 15 23  4  0
 17 19  4  0
 17 20  4  0
 18 22  4  0
 19 21  4  0
M  END
$$$$

 Created by Python create_sdf_string function

 23 25  0  0  0  0  0  0  0  0999 V2000
    2.4610   -5.3070   29.1240 C   0  0  0  0  0  0  0  0  0  0  0  0
    4.7710   -4.6952   28.4803 C   0  0  0  0  0  0  0  0  0  0  0  0
    3.4047   -5.1087   28.1314 C   0  0  0  0  0  0  0  0  0  0  0  0
   -0.2234  -11.8615   16.8874 C   0  0  0  0  0  0  0  0  0  0  0  0
    6.4491   -4.1532   30.1213 C   0  0  0  0  0  0  0  0  0  0  0  0
    5.7060   -4.4340   27.4975 C   0  0  0  0  0  0  0  0  0  0  0  0
    1.1818   -5.6612   28.8399 C   0  0  0  0  0  0  0  0  0  0  0  0
   -1.2067   -7.3287   17.7772 C   0  0  0  0  0  0  0  0  0  0  0  0
   -0.0206  -10.5585   16.6210 C   0  0  0  0  0  0  0  0  0  0  0  0
    0.3696  -12.7626   16.2169 O   0  0  0  0  0  0  0  0  0  0  0  0
   -0.6895   -9.5676   17.3297 C   0  0  0  0  0  0  0  0  0  0  0  0
    0.8388   -5.8417   27.5264 C   0  0  0  0  0  0  0  0  0  0  0  0
   -2.0709   -7.6637   18.7817 C   0  0  0  0  0  0  0  0  0  0  0  0
   -0.5279   -8.2168   17.0717 C   0  0  0  0  0  0  0  0  0  0  0  0
    6.9694   -4.0191   27.8190 C   0  0  0  0  0  0  0  0  0  0  0  0
    5.1733   -4.5469   29.8123 C   0  0  0  0  0  0  0  0  0  0  0  0
   -1.7508  -11.3016   18.6072 C   0  0  0  0  0  0  0  0  0  0  0  0
    1.7497   -5.6771   26.4971 C   0  0  0  0  0  0  0  0  0  0  0  0
   -1.5799   -9.9322   18.3468 C   0  0  0  0  0  0  0  0  0  0  0  0
   -1.0871  -12.2214   17.8851 C   0  0  0  0  0  0  0  0  0  0  0  0
   -2.2706   -8.9669   19.0691 C   0  0  0  0  0  0  0  0  0  0  0  0
    3.0279   -5.3073   26.8197 C   0  0  0  0  0  0  0  0  0  0  0  0
    7.3282   -3.8948   29.1186 C   0  0  0  0  0  0  0  0  0  0  0  0
  1  3  4  0
  1  7  4  0
  2  3  1  0
  2  6  4  0
  2 16  4  0
  3 22  4  0
  4  9  4  0
  4 10  1  0
  4 20  4  0
  5 16  4  0
  5 23  4  0
  6 15  4  0
  7 12  4  0
  8 13  4  0
  8 14  4  0
  9 11  4  0
 11 14  4  0
 11 19  4  0
 12 18  4  0
 13 21  4  0
 15 23  4  0
 17 19  4  0
 17 20  4  0
 18 22  4  0
 19 21  4  0
M  END
$$$$

 Created by Python create_sdf_string function

 23 25  0  0  0  0  0  0  0  0999 V2000
    2.4610   -5.3070   29.1240 C   0  0  0  0  0  0  0  0  0  0  0  0
    4.7710   -4.6952   28.4803 C   0  0  0  0  0  0  0  0  0  0  0  0
    3.4047   -5.1087   28.1314 C   0  0  0  0  0  0  0  0  0  0  0  0
   -0.2234  -11.8615   16.8874 C   0  0  0  0  0  0  0  0  0  0  0  0
    6.4491   -4.1532   30.1213 C   0  0  0  0  0  0  0  0  0  0  0  0
    5.7060   -4.4340   27.4975 C   0  0  0  0  0  0  0  0  0  0  0  0
    1.1818   -5.6612   28.8399 C   0  0  0  0  0  0  0  0  0  0  0  0
   -1.2067   -7.3287   17.7772 C   0  0  0  0  0  0  0  0  0  0  0  0
   -0.0206  -10.5585   16.6210 C   0  0  0  0  0  0  0  0  0  0  0  0
    0.3696  -12.7626   16.2169 O   0  0  0  0  0  0  0  0  0  0  0  0
   -0.6895   -9.5676   17.3297 C   0  0  0  0  0  0  0  0  0  0  0  0
    0.8388   -5.8417   27.5264 C   0  0  0  0  0  0  0  0  0  0  0  0
   -2.0709   -7.6637   18.7817 C   0  0  0  0  0  0  0  0  0  0  0  0
   -0.5279   -8.2168   17.0717 C   0  0  0  0  0  0  0  0  0  0  0  0
    6.9694   -4.0191   27.8190 C   0  0  0  0  0  0  0  0  0  0  0  0
    5.1733   -4.5469   29.8123 C   0  0  0  0  0  0  0  0  0  0  0  0
   -1.7508  -11.3016   18.6072 C   0  0  0  0  0  0  0  0  0  0  0  0
    1.7497   -5.6771   26.4971 C   0  0  0  0  0  0  0  0  0  0  0  0
   -1.5799   -9.9322   18.3468 C   0  0  0  0  0  0  0  0  0  0  0  0
   -1.0871  -12.2214   17.8851 C   0  0  0  0  0  0  0  0  0  0  0  0
   -2.2706   -8.9669   19.0691 C   0  0  0  0  0  0  0  0  0  0  0  0
    3.0279   -5.3073   26.8197 C   0  0  0  0  0  0  0  0  0  0  0  0
    7.3282   -3.8948   29.1186 C   0  0  0  0  0  0  0  0  0  0  0  0
  1  3  4  0
  1  7  4  0
  2  3  1  0
  2  6  4  0
  2 16  4  0
  3 22  4  0
  4  9  4  0
  4 10  1  0
  4 20  4  0
  5 16  4  0
  5 23  4  0
  6 15  4  0
  7 12  4  0
  8 13  4  0
  8 14  4  0
  9 11  4  0
 11 14  4  0
 11 19  4  0
 12 18  4  0
 13 21  4  0
 15 23  4  0
 17 19  4  0
 17 20  4  0
 18 22  4  0
 19 21  4  0
M  END
$$$$

 Created by Python create_sdf_string function

 23 25  0  0  0  0  0  0  0  0999 V2000
    2.4610   -5.3070   29.1240 C   0  0  0  0  0  0  0  0  0  0  0  0
    4.7710   -4.6952   28.4803 C   0  0  0  0  0  0  0  0  0  0  0  0
    3.4047   -5.1087   28.1314 C   0  0  0  0  0  0  0  0  0  0  0  0
   -0.2234  -11.8615   16.8874 C   0  0  0  0  0  0  0  0  0  0  0  0
    6.4491   -4.1532   30.1213 C   0  0  0  0  0  0  0  0  0  0  0  0
    5.7060   -4.4340   27.4975 C   0  0  0  0  0  0  0  0  0  0  0  0
    1.1818   -5.6612   28.8399 C   0  0  0  0  0  0  0  0  0  0  0  0
   -1.2067   -7.3287   17.7772 C   0  0  0  0  0  0  0  0  0  0  0  0
   -0.0206  -10.5585   16.6210 C   0  0  0  0  0  0  0  0  0  0  0  0
    0.3696  -12.7626   16.2169 O   0  0  0  0  0  0  0  0  0  0  0  0
   -0.6895   -9.5676   17.3297 C   0  0  0  0  0  0  0  0  0  0  0  0
    0.8388   -5.8417   27.5264 C   0  0  0  0  0  0  0  0  0  0  0  0
   -2.0709   -7.6637   18.7817 C   0  0  0  0  0  0  0  0  0  0  0  0
   -0.5279   -8.2168   17.0717 C   0  0  0  0  0  0  0  0  0  0  0  0
    6.9694   -4.0191   27.8190 C   0  0  0  0  0  0  0  0  0  0  0  0
    5.1733   -4.5469   29.8123 C   0  0  0  0  0  0  0  0  0  0  0  0
   -1.7508  -11.3016   18.6072 C   0  0  0  0  0  0  0  0  0  0  0  0
    1.7497   -5.6771   26.4971 C   0  0  0  0  0  0  0  0  0  0  0  0
   -1.5799   -9.9322   18.3468 C   0  0  0  0  0  0  0  0  0  0  0  0
   -1.0871  -12.2214   17.8851 C   0  0  0  0  0  0  0  0  0  0  0  0
   -2.2706   -8.9669   19.0691 C   0  0  0  0  0  0  0  0  0  0  0  0
    3.0279   -5.3073   26.8197 C   0  0  0  0  0  0  0  0  0  0  0  0
    7.3282   -3.8948   29.1186 C   0  0  0  0  0  0  0  0  0  0  0  0
  1  3  4  0
  1  7  4  0
  2  3  1  0
  2  6  4  0
  2 16  4  0
  3 22  4  0
  4  9  4  0
  4 10  1  0
  4 20  4  0
  5 16  4  0
  5 23  4  0
  6 15  4  0
  7 12  4  0
  8 13  4  0
  8 14  4  0
  9 11  4  0
 11 14  4  0
 11 19  4  0
 12 18  4  0
 13 21  4  0
 15 23  4  0
 17 19  4  0
 17 20  4  0
 18 22  4  0
 19 21  4  0
M  END
$$$$

 Created by Python create_sdf_string function

 23 25  0  0  0  0  0  0  0  0999 V2000
    2.4610   -5.3070   29.1240 C   0  0  0  0  0  0  0  0  0  0  0  0
    4.7710   -4.6952   28.4803 C   0  0  0  0  0  0  0  0  0  0  0  0
    3.4047   -5.1087   28.1314 C   0  0  0  0  0  0  0  0  0  0  0  0
   -0.2234  -11.8615   16.8874 C   0  0  0  0  0  0  0  0  0  0  0  0
    6.4491   -4.1532   30.1213 C   0  0  0  0  0  0  0  0  0  0  0  0
    5.7060   -4.4340   27.4975 C   0  0  0  0  0  0  0  0  0  0  0  0
    1.1818   -5.6612   28.8399 C   0  0  0  0  0  0  0  0  0  0  0  0
   -1.2067   -7.3287   17.7772 C   0  0  0  0  0  0  0  0  0  0  0  0
   -0.0206  -10.5585   16.6210 C   0  0  0  0  0  0  0  0  0  0  0  0
    0.3696  -12.7626   16.2169 O   0  0  0  0  0  0  0  0  0  0  0  0
   -0.6895   -9.5676   17.3297 C   0  0  0  0  0  0  0  0  0  0  0  0
    0.8388   -5.8417   27.5264 C   0  0  0  0  0  0  0  0  0  0  0  0
   -2.0709   -7.6637   18.7817 C   0  0  0  0  0  0  0  0  0  0  0  0
   -0.5279   -8.2168   17.0717 C   0  0  0  0  0  0  0  0  0  0  0  0
    6.9694   -4.0191   27.8190 C   0  0  0  0  0  0  0  0  0  0  0  0
    5.1733   -4.5469   29.8123 C   0  0  0  0  0  0  0  0  0  0  0  0
   -1.7508  -11.3016   18.6072 C   0  0  0  0  0  0  0  0  0  0  0  0
    1.7497   -5.6771   26.4971 C   0  0  0  0  0  0  0  0  0  0  0  0
   -1.5799   -9.9322   18.3468 C   0  0  0  0  0  0  0  0  0  0  0  0
   -1.0871  -12.2214   17.8851 C   0  0  0  0  0  0  0  0  0  0  0  0
   -2.2706   -8.9669   19.0691 C   0  0  0  0  0  0  0  0  0  0  0  0
    3.0279   -5.3073   26.8197 C   0  0  0  0  0  0  0  0  0  0  0  0
    7.3282   -3.8948   29.1186 C   0  0  0  0  0  0  0  0  0  0  0  0
  1  3  4  0
  1  7  4  0
  2  3  1  0
  2  6  4  0
  2 16  4  0
  3 22  4  0
  4  9  4  0
  4 10  1  0
  4 20  4  0
  5 16  4  0
  5 23  4  0
  6 15  4  0
  7 12  4  0
  8 13  4  0
  8 14  4  0
  9 11  4  0
 11 14  4  0
 11 19  4  0
 12 18  4  0
 13 21  4  0
 15 23  4  0
 17 19  4  0
 17 20  4  0
 18 22  4  0
 19 21  4  0
M  END
$$$$

 Created by Python create_sdf_string function

 23 25  0  0  0  0  0  0  0  0999 V2000
    2.4610   -5.3070   29.1240 C   0  0  0  0  0  0  0  0  0  0  0  0
    4.7710   -4.6952   28.4803 C   0  0  0  0  0  0  0  0  0  0  0  0
    3.4047   -5.1087   28.1314 C   0  0  0  0  0  0  0  0  0  0  0  0
   -0.2234  -11.8615   16.8874 C   0  0  0  0  0  0  0  0  0  0  0  0
    6.4491   -4.1532   30.1213 C   0  0  0  0  0  0  0  0  0  0  0  0
    5.7060   -4.4340   27.4975 C   0  0  0  0  0  0  0  0  0  0  0  0
    1.1818   -5.6612   28.8399 C   0  0  0  0  0  0  0  0  0  0  0  0
   -1.2067   -7.3287   17.7772 C   0  0  0  0  0  0  0  0  0  0  0  0
   -0.0206  -10.5585   16.6210 C   0  0  0  0  0  0  0  0  0  0  0  0
    0.3696  -12.7626   16.2169 O   0  0  0  0  0  0  0  0  0  0  0  0
   -0.6895   -9.5676   17.3297 C   0  0  0  0  0  0  0  0  0  0  0  0
    0.8388   -5.8417   27.5264 C   0  0  0  0  0  0  0  0  0  0  0  0
   -2.0709   -7.6637   18.7817 C   0  0  0  0  0  0  0  0  0  0  0  0
   -0.5279   -8.2168   17.0717 C   0  0  0  0  0  0  0  0  0  0  0  0
    6.9694   -4.0191   27.8190 C   0  0  0  0  0  0  0  0  0  0  0  0
    5.1733   -4.5469   29.8123 C   0  0  0  0  0  0  0  0  0  0  0  0
   -1.7508  -11.3016   18.6072 C   0  0  0  0  0  0  0  0  0  0  0  0
    1.7497   -5.6771   26.4971 C   0  0  0  0  0  0  0  0  0  0  0  0
   -1.5799   -9.9322   18.3468 C   0  0  0  0  0  0  0  0  0  0  0  0
   -1.0871  -12.2214   17.8851 C   0  0  0  0  0  0  0  0  0  0  0  0
   -2.2706   -8.9669   19.0691 C   0  0  0  0  0  0  0  0  0  0  0  0
    3.0279   -5.3073   26.8197 C   0  0  0  0  0  0  0  0  0  0  0  0
    7.3282   -3.8948   29.1186 C   0  0  0  0  0  0  0  0  0  0  0  0
  1  3  4  0
  1  7  4  0
  2  3  1  0
  2  6  4  0
  2 16  4  0
  3 22  4  0
  4  9  4  0
  4 10  1  0
  4 20  4  0
  5 16  4  0
  5 23  4  0
  6 15  4  0
  7 12  4  0
  8 13  4  0
  8 14  4  0
  9 11  4  0
 11 14  4  0
 11 19  4  0
 12 18  4  0
 13 21  4  0
 15 23  4  0
 17 19  4  0
 17 20  4  0
 18 22  4  0
 19 21  4  0
M  END
$$$$

 Created by Python create_sdf_string function

 23 25  0  0  0  0  0  0  0  0999 V2000
    2.4610   -5.3070   29.1240 C   0  0  0  0  0  0  0  0  0  0  0  0
    4.7710   -4.6952   28.4803 C   0  0  0  0  0  0  0  0  0  0  0  0
    3.4047   -5.1087   28.1314 C   0  0  0  0  0  0  0  0  0  0  0  0
   -0.2234  -11.8615   16.8874 C   0  0  0  0  0  0  0  0  0  0  0  0
    6.4491   -4.1532   30.1213 C   0  0  0  0  0  0  0  0  0  0  0  0
    5.7060   -4.4340   27.4975 C   0  0  0  0  0  0  0  0  0  0  0  0
    1.1818   -5.6612   28.8399 C   0  0  0  0  0  0  0  0  0  0  0  0
   -1.2067   -7.3287   17.7772 C   0  0  0  0  0  0  0  0  0  0  0  0
   -0.0206  -10.5585   16.6210 C   0  0  0  0  0  0  0  0  0  0  0  0
    0.3696  -12.7626   16.2169 O   0  0  0  0  0  0  0  0  0  0  0  0
   -0.6895   -9.5676   17.3297 C   0  0  0  0  0  0  0  0  0  0  0  0
    0.8388   -5.8417   27.5264 C   0  0  0  0  0  0  0  0  0  0  0  0
   -2.0709   -7.6637   18.7817 C   0  0  0  0  0  0  0  0  0  0  0  0
   -0.5279   -8.2168   17.0717 C   0  0  0  0  0  0  0  0  0  0  0  0
    6.9694   -4.0191   27.8190 C   0  0  0  0  0  0  0  0  0  0  0  0
    5.1733   -4.5469   29.8123 C   0  0  0  0  0  0  0  0  0  0  0  0
   -1.7508  -11.3016   18.6072 C   0  0  0  0  0  0  0  0  0  0  0  0
    1.7497   -5.6771   26.4971 C   0  0  0  0  0  0  0  0  0  0  0  0
   -1.5799   -9.9322   18.3468 C   0  0  0  0  0  0  0  0  0  0  0  0
   -1.0871  -12.2214   17.8851 C   0  0  0  0  0  0  0  0  0  0  0  0
   -2.2706   -8.9669   19.0691 C   0  0  0  0  0  0  0  0  0  0  0  0
    3.0279   -5.3073   26.8197 C   0  0  0  0  0  0  0  0  0  0  0  0
    7.3282   -3.8948   29.1186 C   0  0  0  0  0  0  0  0  0  0  0  0
  1  3  4  0
  1  7  4  0
  2  3  1  0
  2  6  4  0
  2 16  4  0
  3 22  4  0
  4  9  4  0
  4 10  1  0
  4 20  4  0
  5 16  4  0
  5 23  4  0
  6 15  4  0
  7 12  4  0
  8 13  4  0
  8 14  4  0
  9 11  4  0
 11 14  4  0
 11 19  4  0
 12 18  4  0
 13 21  4  0
 15 23  4  0
 17 19  4  0
 17 20  4  0
 18 22  4  0
 19 21  4  0
M  END
$$$$

 Created by Python create_sdf_string function

 23 25  0  0  0  0  0  0  0  0999 V2000
    2.4610   -5.3070   29.1240 C   0  0  0  0  0  0  0  0  0  0  0  0
    4.7710   -4.6952   28.4803 C   0  0  0  0  0  0  0  0  0  0  0  0
    3.4047   -5.1087   28.1314 C   0  0  0  0  0  0  0  0  0  0  0  0
   -0.2234  -11.8615   16.8874 C   0  0  0  0  0  0  0  0  0  0  0  0
    6.4491   -4.1532   30.1213 C   0  0  0  0  0  0  0  0  0  0  0  0
    5.7060   -4.4340   27.4975 C   0  0  0  0  0  0  0  0  0  0  0  0
    1.1818   -5.6612   28.8399 C   0  0  0  0  0  0  0  0  0  0  0  0
   -1.2067   -7.3287   17.7772 C   0  0  0  0  0  0  0  0  0  0  0  0
   -0.0206  -10.5585   16.6210 C   0  0  0  0  0  0  0  0  0  0  0  0
    0.3696  -12.7626   16.2169 O   0  0  0  0  0  0  0  0  0  0  0  0
   -0.6895   -9.5676   17.3297 C   0  0  0  0  0  0  0  0  0  0  0  0
    0.8388   -5.8417   27.5264 C   0  0  0  0  0  0  0  0  0  0  0  0
   -2.0709   -7.6637   18.7817 C   0  0  0  0  0  0  0  0  0  0  0  0
   -0.5279   -8.2168   17.0717 C   0  0  0  0  0  0  0  0  0  0  0  0
    6.9694   -4.0191   27.8190 C   0  0  0  0  0  0  0  0  0  0  0  0
    5.1733   -4.5469   29.8123 C   0  0  0  0  0  0  0  0  0  0  0  0
   -1.7508  -11.3016   18.6072 C   0  0  0  0  0  0  0  0  0  0  0  0
    1.7497   -5.6771   26.4971 C   0  0  0  0  0  0  0  0  0  0  0  0
   -1.5799   -9.9322   18.3468 C   0  0  0  0  0  0  0  0  0  0  0  0
   -1.0871  -12.2214   17.8851 C   0  0  0  0  0  0  0  0  0  0  0  0
   -2.2706   -8.9669   19.0691 C   0  0  0  0  0  0  0  0  0  0  0  0
    3.0279   -5.3073   26.8197 C   0  0  0  0  0  0  0  0  0  0  0  0
    7.3282   -3.8948   29.1186 C   0  0  0  0  0  0  0  0  0  0  0  0
  1  3  4  0
  1  7  4  0
  2  3  1  0
  2  6  4  0
  2 16  4  0
  3 22  4  0
  4  9  4  0
  4 10  1  0
  4 20  4  0
  5 16  4  0
  5 23  4  0
  6 15  4  0
  7 12  4  0
  8 13  4  0
  8 14  4  0
  9 11  4  0
 11 14  4  0
 11 19  4  0
 12 18  4  0
 13 21  4  0
 15 23  4  0
 17 19  4  0
 17 20  4  0
 18 22  4  0
 19 21  4  0
M  END
$$$$

 Created by Python create_sdf_string function

 23 25  0  0  0  0  0  0  0  0999 V2000
    2.4610   -5.3070   29.1240 C   0  0  0  0  0  0  0  0  0  0  0  0
    4.7710   -4.6952   28.4803 C   0  0  0  0  0  0  0  0  0  0  0  0
    3.4047   -5.1087   28.1314 C   0  0  0  0  0  0  0  0  0  0  0  0
   -0.2234  -11.8615   16.8874 C   0  0  0  0  0  0  0  0  0  0  0  0
    6.4491   -4.1532   30.1213 C   0  0  0  0  0  0  0  0  0  0  0  0
    5.7060   -4.4340   27.4975 C   0  0  0  0  0  0  0  0  0  0  0  0
    1.1818   -5.6612   28.8399 C   0  0  0  0  0  0  0  0  0  0  0  0
   -1.2067   -7.3287   17.7772 C   0  0  0  0  0  0  0  0  0  0  0  0
   -0.0206  -10.5585   16.6210 C   0  0  0  0  0  0  0  0  0  0  0  0
    0.3696  -12.7626   16.2169 O   0  0  0  0  0  0  0  0  0  0  0  0
   -0.6895   -9.5676   17.3297 C   0  0  0  0  0  0  0  0  0  0  0  0
    0.8388   -5.8417   27.5264 C   0  0  0  0  0  0  0  0  0  0  0  0
   -2.0709   -7.6637   18.7817 C   0  0  0  0  0  0  0  0  0  0  0  0
   -0.5279   -8.2168   17.0717 C   0  0  0  0  0  0  0  0  0  0  0  0
    6.9694   -4.0191   27.8190 C   0  0  0  0  0  0  0  0  0  0  0  0
    5.1733   -4.5469   29.8123 C   0  0  0  0  0  0  0  0  0  0  0  0
   -1.7508  -11.3016   18.6072 C   0  0  0  0  0  0  0  0  0  0  0  0
    1.7497   -5.6771   26.4971 C   0  0  0  0  0  0  0  0  0  0  0  0
   -1.5799   -9.9322   18.3468 C   0  0  0  0  0  0  0  0  0  0  0  0
   -1.0871  -12.2214   17.8851 C   0  0  0  0  0  0  0  0  0  0  0  0
   -2.2706   -8.9669   19.0691 C   0  0  0  0  0  0  0  0  0  0  0  0
    3.0279   -5.3073   26.8197 C   0  0  0  0  0  0  0  0  0  0  0  0
    7.3282   -3.8948   29.1186 C   0  0  0  0  0  0  0  0  0  0  0  0
  1  3  4  0
  1  7  4  0
  2  3  1  0
  2  6  4  0
  2 16  4  0
  3 22  4  0
  4  9  4  0
  4 10  1  0
  4 20  4  0
  5 16  4  0
  5 23  4  0
  6 15  4  0
  7 12  4  0
  8 13  4  0
  8 14  4  0
  9 11  4  0
 11 14  4  0
 11 19  4  0
 12 18  4  0
 13 21  4  0
 15 23  4  0
 17 19  4  0
 17 20  4  0
 18 22  4  0
 19 21  4  0
M  END
$$$$

 Created by Python create_sdf_string function

 23 25  0  0  0  0  0  0  0  0999 V2000
    2.4610   -5.3070   29.1240 C   0  0  0  0  0  0  0  0  0  0  0  0
    4.7710   -4.6952   28.4803 C   0  0  0  0  0  0  0  0  0  0  0  0
    3.4047   -5.1087   28.1314 C   0  0  0  0  0  0  0  0  0  0  0  0
   -0.2234  -11.8615   16.8874 C   0  0  0  0  0  0  0  0  0  0  0  0
    6.4491   -4.1532   30.1213 C   0  0  0  0  0  0  0  0  0  0  0  0
    5.7060   -4.4340   27.4975 C   0  0  0  0  0  0  0  0  0  0  0  0
    1.1818   -5.6612   28.8399 C   0  0  0  0  0  0  0  0  0  0  0  0
   -1.2067   -7.3287   17.7772 C   0  0  0  0  0  0  0  0  0  0  0  0
   -0.0206  -10.5585   16.6210 C   0  0  0  0  0  0  0  0  0  0  0  0
    0.3696  -12.7626   16.2169 O   0  0  0  0  0  0  0  0  0  0  0  0
   -0.6895   -9.5676   17.3297 C   0  0  0  0  0  0  0  0  0  0  0  0
    0.8388   -5.8417   27.5264 C   0  0  0  0  0  0  0  0  0  0  0  0
   -2.0709   -7.6637   18.7817 C   0  0  0  0  0  0  0  0  0  0  0  0
   -0.5279   -8.2168   17.0717 C   0  0  0  0  0  0  0  0  0  0  0  0
    6.9694   -4.0191   27.8190 C   0  0  0  0  0  0  0  0  0  0  0  0
    5.1733   -4.5469   29.8123 C   0  0  0  0  0  0  0  0  0  0  0  0
   -1.7508  -11.3016   18.6072 C   0  0  0  0  0  0  0  0  0  0  0  0
    1.7497   -5.6771   26.4971 C   0  0  0  0  0  0  0  0  0  0  0  0
   -1.5799   -9.9322   18.3468 C   0  0  0  0  0  0  0  0  0  0  0  0
   -1.0871  -12.2214   17.8851 C   0  0  0  0  0  0  0  0  0  0  0  0
   -2.2706   -8.9669   19.0691 C   0  0  0  0  0  0  0  0  0  0  0  0
    3.0279   -5.3073   26.8197 C   0  0  0  0  0  0  0  0  0  0  0  0
    7.3282   -3.8948   29.1186 C   0  0  0  0  0  0  0  0  0  0  0  0
  1  3  4  0
  1  7  4  0
  2  3  1  0
  2  6  4  0
  2 16  4  0
  3 22  4  0
  4  9  4  0
  4 10  1  0
  4 20  4  0
  5 16  4  0
  5 23  4  0
  6 15  4  0
  7 12  4  0
  8 13  4  0
  8 14  4  0
  9 11  4  0
 11 14  4  0
 11 19  4  0
 12 18  4  0
 13 21  4  0
 15 23  4  0
 17 19  4  0
 17 20  4  0
 18 22  4  0
 19 21  4  0
M  END
$$$$

 Created by Python create_sdf_string function

 23 25  0  0  0  0  0  0  0  0999 V2000
    2.4610   -5.3070   29.1240 C   0  0  0  0  0  0  0  0  0  0  0  0
    4.7710   -4.6952   28.4803 C   0  0  0  0  0  0  0  0  0  0  0  0
    3.4047   -5.1087   28.1314 C   0  0  0  0  0  0  0  0  0  0  0  0
   -0.2234  -11.8615   16.8874 C   0  0  0  0  0  0  0  0  0  0  0  0
    6.4491   -4.1532   30.1213 C   0  0  0  0  0  0  0  0  0  0  0  0
    5.7060   -4.4340   27.4975 C   0  0  0  0  0  0  0  0  0  0  0  0
    1.1818   -5.6612   28.8399 C   0  0  0  0  0  0  0  0  0  0  0  0
   -1.2067   -7.3287   17.7772 C   0  0  0  0  0  0  0  0  0  0  0  0
   -0.0206  -10.5585   16.6210 C   0  0  0  0  0  0  0  0  0  0  0  0
    0.3696  -12.7626   16.2169 O   0  0  0  0  0  0  0  0  0  0  0  0
   -0.6895   -9.5676   17.3297 C   0  0  0  0  0  0  0  0  0  0  0  0
    0.8388   -5.8417   27.5264 C   0  0  0  0  0  0  0  0  0  0  0  0
   -2.0709   -7.6637   18.7817 C   0  0  0  0  0  0  0  0  0  0  0  0
   -0.5279   -8.2168   17.0717 C   0  0  0  0  0  0  0  0  0  0  0  0
    6.9694   -4.0191   27.8190 C   0  0  0  0  0  0  0  0  0  0  0  0
    5.1733   -4.5469   29.8123 C   0  0  0  0  0  0  0  0  0  0  0  0
   -1.7508  -11.3016   18.6072 C   0  0  0  0  0  0  0  0  0  0  0  0
    1.7497   -5.6771   26.4971 C   0  0  0  0  0  0  0  0  0  0  0  0
   -1.5799   -9.9322   18.3468 C   0  0  0  0  0  0  0  0  0  0  0  0
   -1.0871  -12.2214   17.8851 C   0  0  0  0  0  0  0  0  0  0  0  0
   -2.2706   -8.9669   19.0691 C   0  0  0  0  0  0  0  0  0  0  0  0
    3.0279   -5.3073   26.8197 C   0  0  0  0  0  0  0  0  0  0  0  0
    7.3282   -3.8948   29.1186 C   0  0  0  0  0  0  0  0  0  0  0  0
  1  3  4  0
  1  7  4  0
  2  3  1  0
  2  6  4  0
  2 16  4  0
  3 22  4  0
  4  9  4  0
  4 10  1  0
  4 20  4  0
  5 16  4  0
  5 23  4  0
  6 15  4  0
  7 12  4  0
  8 13  4  0
  8 14  4  0
  9 11  4  0
 11 14  4  0
 11 19  4  0
 12 18  4  0
 13 21  4  0
 15 23  4  0
 17 19  4  0
 17 20  4  0
 18 22  4  0
 19 21  4  0
M  END
$$$$

 Created by Python create_sdf_string function

 23 25  0  0  0  0  0  0  0  0999 V2000
    2.4610   -5.3070   29.1240 C   0  0  0  0  0  0  0  0  0  0  0  0
    4.7710   -4.6952   28.4803 C   0  0  0  0  0  0  0  0  0  0  0  0
    3.4047   -5.1087   28.1314 C   0  0  0  0  0  0  0  0  0  0  0  0
   -0.2234  -11.8615   16.8874 C   0  0  0  0  0  0  0  0  0  0  0  0
    6.4491   -4.1532   30.1213 C   0  0  0  0  0  0  0  0  0  0  0  0
    5.7060   -4.4340   27.4975 C   0  0  0  0  0  0  0  0  0  0  0  0
    1.1818   -5.6612   28.8399 C   0  0  0  0  0  0  0  0  0  0  0  0
   -1.2067   -7.3287   17.7772 C   0  0  0  0  0  0  0  0  0  0  0  0
   -0.0206  -10.5585   16.6210 C   0  0  0  0  0  0  0  0  0  0  0  0
    0.3696  -12.7626   16.2169 O   0  0  0  0  0  0  0  0  0  0  0  0
   -0.6895   -9.5676   17.3297 C   0  0  0  0  0  0  0  0  0  0  0  0
    0.8388   -5.8417   27.5264 C   0  0  0  0  0  0  0  0  0  0  0  0
   -2.0709   -7.6637   18.7817 C   0  0  0  0  0  0  0  0  0  0  0  0
   -0.5279   -8.2168   17.0717 C   0  0  0  0  0  0  0  0  0  0  0  0
    6.9694   -4.0191   27.8190 C   0  0  0  0  0  0  0  0  0  0  0  0
    5.1733   -4.5469   29.8123 C   0  0  0  0  0  0  0  0  0  0  0  0
   -1.7508  -11.3016   18.6072 C   0  0  0  0  0  0  0  0  0  0  0  0
    1.7497   -5.6771   26.4971 C   0  0  0  0  0  0  0  0  0  0  0  0
   -1.5799   -9.9322   18.3468 C   0  0  0  0  0  0  0  0  0  0  0  0
   -1.0871  -12.2214   17.8851 C   0  0  0  0  0  0  0  0  0  0  0  0
   -2.2706   -8.9669   19.0691 C   0  0  0  0  0  0  0  0  0  0  0  0
    3.0279   -5.3073   26.8197 C   0  0  0  0  0  0  0  0  0  0  0  0
    7.3282   -3.8948   29.1186 C   0  0  0  0  0  0  0  0  0  0  0  0
  1  3  4  0
  1  7  4  0
  2  3  1  0
  2  6  4  0
  2 16  4  0
  3 22  4  0
  4  9  4  0
  4 10  1  0
  4 20  4  0
  5 16  4  0
  5 23  4  0
  6 15  4  0
  7 12  4  0
  8 13  4  0
  8 14  4  0
  9 11  4  0
 11 14  4  0
 11 19  4  0
 12 18  4  0
 13 21  4  0
 15 23  4  0
 17 19  4  0
 17 20  4  0
 18 22  4  0
 19 21  4  0
M  END
$$$$

 Created by Python create_sdf_string function

 23 25  0  0  0  0  0  0  0  0999 V2000
    2.4610   -5.3070   29.1240 C   0  0  0  0  0  0  0  0  0  0  0  0
    4.7710   -4.6952   28.4803 C   0  0  0  0  0  0  0  0  0  0  0  0
    3.4047   -5.1087   28.1314 C   0  0  0  0  0  0  0  0  0  0  0  0
   -0.2234  -11.8615   16.8874 C   0  0  0  0  0  0  0  0  0  0  0  0
    6.4491   -4.1532   30.1213 C   0  0  0  0  0  0  0  0  0  0  0  0
    5.7060   -4.4340   27.4975 C   0  0  0  0  0  0  0  0  0  0  0  0
    1.1818   -5.6612   28.8399 C   0  0  0  0  0  0  0  0  0  0  0  0
   -1.2067   -7.3287   17.7772 C   0  0  0  0  0  0  0  0  0  0  0  0
   -0.0206  -10.5585   16.6210 C   0  0  0  0  0  0  0  0  0  0  0  0
    0.3696  -12.7626   16.2169 O   0  0  0  0  0  0  0  0  0  0  0  0
   -0.6895   -9.5676   17.3297 C   0  0  0  0  0  0  0  0  0  0  0  0
    0.8388   -5.8417   27.5264 C   0  0  0  0  0  0  0  0  0  0  0  0
   -2.0709   -7.6637   18.7817 C   0  0  0  0  0  0  0  0  0  0  0  0
   -0.5279   -8.2168   17.0717 C   0  0  0  0  0  0  0  0  0  0  0  0
    6.9694   -4.0191   27.8190 C   0  0  0  0  0  0  0  0  0  0  0  0
    5.1733   -4.5469   29.8123 C   0  0  0  0  0  0  0  0  0  0  0  0
   -1.7508  -11.3016   18.6072 C   0  0  0  0  0  0  0  0  0  0  0  0
    1.7497   -5.6771   26.4971 C   0  0  0  0  0  0  0  0  0  0  0  0
   -1.5799   -9.9322   18.3468 C   0  0  0  0  0  0  0  0  0  0  0  0
   -1.0871  -12.2214   17.8851 C   0  0  0  0  0  0  0  0  0  0  0  0
   -2.2706   -8.9669   19.0691 C   0  0  0  0  0  0  0  0  0  0  0  0
    3.0279   -5.3073   26.8197 C   0  0  0  0  0  0  0  0  0  0  0  0
    7.3282   -3.8948   29.1186 C   0  0  0  0  0  0  0  0  0  0  0  0
  1  3  4  0
  1  7  4  0
  2  3  1  0
  2  6  4  0
  2 16  4  0
  3 22  4  0
  4  9  4  0
  4 10  1  0
  4 20  4  0
  5 16  4  0
  5 23  4  0
  6 15  4  0
  7 12  4  0
  8 13  4  0
  8 14  4  0
  9 11  4  0
 11 14  4  0
 11 19  4  0
 12 18  4  0
 13 21  4  0
 15 23  4  0
 17 19  4  0
 17 20  4  0
 18 22  4  0
 19 21  4  0
M  END
$$$$

 Created by Python create_sdf_string function

 23 25  0  0  0  0  0  0  0  0999 V2000
    2.4610   -5.3070   29.1240 C   0  0  0  0  0  0  0  0  0  0  0  0
    4.7710   -4.6952   28.4803 C   0  0  0  0  0  0  0  0  0  0  0  0
    3.4047   -5.1087   28.1314 C   0  0  0  0  0  0  0  0  0  0  0  0
   -0.2234  -11.8615   16.8874 C   0  0  0  0  0  0  0  0  0  0  0  0
    6.4491   -4.1532   30.1213 C   0  0  0  0  0  0  0  0  0  0  0  0
    5.7060   -4.4340   27.4975 C   0  0  0  0  0  0  0  0  0  0  0  0
    1.1818   -5.6612   28.8399 C   0  0  0  0  0  0  0  0  0  0  0  0
   -1.2067   -7.3287   17.7772 C   0  0  0  0  0  0  0  0  0  0  0  0
   -0.0206  -10.5585   16.6210 C   0  0  0  0  0  0  0  0  0  0  0  0
    0.3696  -12.7626   16.2169 O   0  0  0  0  0  0  0  0  0  0  0  0
   -0.6895   -9.5676   17.3297 C   0  0  0  0  0  0  0  0  0  0  0  0
    0.8388   -5.8417   27.5264 C   0  0  0  0  0  0  0  0  0  0  0  0
   -2.0709   -7.6637   18.7817 C   0  0  0  0  0  0  0  0  0  0  0  0
   -0.5279   -8.2168   17.0717 C   0  0  0  0  0  0  0  0  0  0  0  0
    6.9694   -4.0191   27.8190 C   0  0  0  0  0  0  0  0  0  0  0  0
    5.1733   -4.5469   29.8123 C   0  0  0  0  0  0  0  0  0  0  0  0
   -1.7508  -11.3016   18.6072 C   0  0  0  0  0  0  0  0  0  0  0  0
    1.7497   -5.6771   26.4971 C   0  0  0  0  0  0  0  0  0  0  0  0
   -1.5799   -9.9322   18.3468 C   0  0  0  0  0  0  0  0  0  0  0  0
   -1.0871  -12.2214   17.8851 C   0  0  0  0  0  0  0  0  0  0  0  0
   -2.2706   -8.9669   19.0691 C   0  0  0  0  0  0  0  0  0  0  0  0
    3.0279   -5.3073   26.8197 C   0  0  0  0  0  0  0  0  0  0  0  0
    7.3282   -3.8948   29.1186 C   0  0  0  0  0  0  0  0  0  0  0  0
  1  3  4  0
  1  7  4  0
  2  3  1  0
  2  6  4  0
  2 16  4  0
  3 22  4  0
  4  9  4  0
  4 10  1  0
  4 20  4  0
  5 16  4  0
  5 23  4  0
  6 15  4  0
  7 12  4  0
  8 13  4  0
  8 14  4  0
  9 11  4  0
 11 14  4  0
 11 19  4  0
 12 18  4  0
 13 21  4  0
 15 23  4  0
 17 19  4  0
 17 20  4  0
 18 22  4  0
 19 21  4  0
M  END
$$$$

 Created by Python create_sdf_string function

 23 25  0  0  0  0  0  0  0  0999 V2000
    2.4610   -5.3070   29.1240 C   0  0  0  0  0  0  0  0  0  0  0  0
    4.7710   -4.6952   28.4803 C   0  0  0  0  0  0  0  0  0  0  0  0
    3.4047   -5.1087   28.1314 C   0  0  0  0  0  0  0  0  0  0  0  0
   -0.2234  -11.8615   16.8874 C   0  0  0  0  0  0  0  0  0  0  0  0
    6.4491   -4.1532   30.1213 C   0  0  0  0  0  0  0  0  0  0  0  0
    5.7060   -4.4340   27.4975 C   0  0  0  0  0  0  0  0  0  0  0  0
    1.1818   -5.6612   28.8399 C   0  0  0  0  0  0  0  0  0  0  0  0
   -1.2067   -7.3287   17.7772 C   0  0  0  0  0  0  0  0  0  0  0  0
   -0.0206  -10.5585   16.6210 C   0  0  0  0  0  0  0  0  0  0  0  0
    0.3696  -12.7626   16.2169 O   0  0  0  0  0  0  0  0  0  0  0  0
   -0.6895   -9.5676   17.3297 C   0  0  0  0  0  0  0  0  0  0  0  0
    0.8388   -5.8417   27.5264 C   0  0  0  0  0  0  0  0  0  0  0  0
   -2.0709   -7.6637   18.7817 C   0  0  0  0  0  0  0  0  0  0  0  0
   -0.5279   -8.2168   17.0717 C   0  0  0  0  0  0  0  0  0  0  0  0
    6.9694   -4.0191   27.8190 C   0  0  0  0  0  0  0  0  0  0  0  0
    5.1733   -4.5469   29.8123 C   0  0  0  0  0  0  0  0  0  0  0  0
   -1.7508  -11.3016   18.6072 C   0  0  0  0  0  0  0  0  0  0  0  0
    1.7497   -5.6771   26.4971 C   0  0  0  0  0  0  0  0  0  0  0  0
   -1.5799   -9.9322   18.3468 C   0  0  0  0  0  0  0  0  0  0  0  0
   -1.0871  -12.2214   17.8851 C   0  0  0  0  0  0  0  0  0  0  0  0
   -2.2706   -8.9669   19.0691 C   0  0  0  0  0  0  0  0  0  0  0  0
    3.0279   -5.3073   26.8197 C   0  0  0  0  0  0  0  0  0  0  0  0
    7.3282   -3.8948   29.1186 C   0  0  0  0  0  0  0  0  0  0  0  0
  1  3  4  0
  1  7  4  0
  2  3  1  0
  2  6  4  0
  2 16  4  0
  3 22  4  0
  4  9  4  0
  4 10  1  0
  4 20  4  0
  5 16  4  0
  5 23  4  0
  6 15  4  0
  7 12  4  0
  8 13  4  0
  8 14  4  0
  9 11  4  0
 11 14  4  0
 11 19  4  0
 12 18  4  0
 13 21  4  0
 15 23  4  0
 17 19  4  0
 17 20  4  0
 18 22  4  0
 19 21  4  0
M  END
$$$$

 Created by Python create_sdf_string function

 23 25  0  0  0  0  0  0  0  0999 V2000
    2.4610   -5.3070   29.1240 C   0  0  0  0  0  0  0  0  0  0  0  0
    4.7710   -4.6952   28.4803 C   0  0  0  0  0  0  0  0  0  0  0  0
    3.4047   -5.1087   28.1314 C   0  0  0  0  0  0  0  0  0  0  0  0
   -0.2234  -11.8615   16.8874 C   0  0  0  0  0  0  0  0  0  0  0  0
    6.4491   -4.1532   30.1213 C   0  0  0  0  0  0  0  0  0  0  0  0
    5.7060   -4.4340   27.4975 C   0  0  0  0  0  0  0  0  0  0  0  0
    1.1818   -5.6612   28.8399 C   0  0  0  0  0  0  0  0  0  0  0  0
   -1.2067   -7.3287   17.7772 C   0  0  0  0  0  0  0  0  0  0  0  0
   -0.0206  -10.5585   16.6210 C   0  0  0  0  0  0  0  0  0  0  0  0
    0.3696  -12.7626   16.2169 O   0  0  0  0  0  0  0  0  0  0  0  0
   -0.6895   -9.5676   17.3297 C   0  0  0  0  0  0  0  0  0  0  0  0
    0.8388   -5.8417   27.5264 C   0  0  0  0  0  0  0  0  0  0  0  0
   -2.0709   -7.6637   18.7817 C   0  0  0  0  0  0  0  0  0  0  0  0
   -0.5279   -8.2168   17.0717 C   0  0  0  0  0  0  0  0  0  0  0  0
    6.9694   -4.0191   27.8190 C   0  0  0  0  0  0  0  0  0  0  0  0
    5.1733   -4.5469   29.8123 C   0  0  0  0  0  0  0  0  0  0  0  0
   -1.7508  -11.3016   18.6072 C   0  0  0  0  0  0  0  0  0  0  0  0
    1.7497   -5.6771   26.4971 C   0  0  0  0  0  0  0  0  0  0  0  0
   -1.5799   -9.9322   18.3468 C   0  0  0  0  0  0  0  0  0  0  0  0
   -1.0871  -12.2214   17.8851 C   0  0  0  0  0  0  0  0  0  0  0  0
   -2.2706   -8.9669   19.0691 C   0  0  0  0  0  0  0  0  0  0  0  0
    3.0279   -5.3073   26.8197 C   0  0  0  0  0  0  0  0  0  0  0  0
    7.3282   -3.8948   29.1186 C   0  0  0  0  0  0  0  0  0  0  0  0
  1  3  4  0
  1  7  4  0
  2  3  1  0
  2  6  4  0
  2 16  4  0
  3 22  4  0
  4  9  4  0
  4 10  1  0
  4 20  4  0
  5 16  4  0
  5 23  4  0
  6 15  4  0
  7 12  4  0
  8 13  4  0
  8 14  4  0
  9 11  4  0
 11 14  4  0
 11 19  4  0
 12 18  4  0
 13 21  4  0
 15 23  4  0
 17 19  4  0
 17 20  4  0
 18 22  4  0
 19 21  4  0
M  END
$$$$

 Created by Python create_sdf_string function

 23 25  0  0  0  0  0  0  0  0999 V2000
    2.4610   -5.3070   29.1240 C   0  0  0  0  0  0  0  0  0  0  0  0
    4.7710   -4.6952   28.4803 C   0  0  0  0  0  0  0  0  0  0  0  0
    3.4047   -5.1087   28.1314 C   0  0  0  0  0  0  0  0  0  0  0  0
   -0.2234  -11.8615   16.8874 C   0  0  0  0  0  0  0  0  0  0  0  0
    6.4491   -4.1532   30.1213 C   0  0  0  0  0  0  0  0  0  0  0  0
    5.7060   -4.4340   27.4975 C   0  0  0  0  0  0  0  0  0  0  0  0
    1.1818   -5.6612   28.8399 C   0  0  0  0  0  0  0  0  0  0  0  0
   -1.2067   -7.3287   17.7772 C   0  0  0  0  0  0  0  0  0  0  0  0
   -0.0206  -10.5585   16.6210 C   0  0  0  0  0  0  0  0  0  0  0  0
    0.3696  -12.7626   16.2169 O   0  0  0  0  0  0  0  0  0  0  0  0
   -0.6895   -9.5676   17.3297 C   0  0  0  0  0  0  0  0  0  0  0  0
    0.8388   -5.8417   27.5264 C   0  0  0  0  0  0  0  0  0  0  0  0
   -2.0709   -7.6637   18.7817 C   0  0  0  0  0  0  0  0  0  0  0  0
   -0.5279   -8.2168   17.0717 C   0  0  0  0  0  0  0  0  0  0  0  0
    6.9694   -4.0191   27.8190 C   0  0  0  0  0  0  0  0  0  0  0  0
    5.1733   -4.5469   29.8123 C   0  0  0  0  0  0  0  0  0  0  0  0
   -1.7508  -11.3016   18.6072 C   0  0  0  0  0  0  0  0  0  0  0  0
    1.7497   -5.6771   26.4971 C   0  0  0  0  0  0  0  0  0  0  0  0
   -1.5799   -9.9322   18.3468 C   0  0  0  0  0  0  0  0  0  0  0  0
   -1.0871  -12.2214   17.8851 C   0  0  0  0  0  0  0  0  0  0  0  0
   -2.2706   -8.9669   19.0691 C   0  0  0  0  0  0  0  0  0  0  0  0
    3.0279   -5.3073   26.8197 C   0  0  0  0  0  0  0  0  0  0  0  0
    7.3282   -3.8948   29.1186 C   0  0  0  0  0  0  0  0  0  0  0  0
  1  3  4  0
  1  7  4  0
  2  3  1  0
  2  6  4  0
  2 16  4  0
  3 22  4  0
  4  9  4  0
  4 10  1  0
  4 20  4  0
  5 16  4  0
  5 23  4  0
  6 15  4  0
  7 12  4  0
  8 13  4  0
  8 14  4  0
  9 11  4  0
 11 14  4  0
 11 19  4  0
 12 18  4  0
 13 21  4  0
 15 23  4  0
 17 19  4  0
 17 20  4  0
 18 22  4  0
 19 21  4  0
M  END
$$$$

 Created by Python create_sdf_string function

 23 25  0  0  0  0  0  0  0  0999 V2000
    2.4610   -5.3070   29.1240 C   0  0  0  0  0  0  0  0  0  0  0  0
    4.7710   -4.6952   28.4803 C   0  0  0  0  0  0  0  0  0  0  0  0
    3.4047   -5.1087   28.1314 C   0  0  0  0  0  0  0  0  0  0  0  0
   -0.2234  -11.8615   16.8874 C   0  0  0  0  0  0  0  0  0  0  0  0
    6.4491   -4.1532   30.1213 C   0  0  0  0  0  0  0  0  0  0  0  0
    5.7060   -4.4340   27.4975 C   0  0  0  0  0  0  0  0  0  0  0  0
    1.1818   -5.6612   28.8399 C   0  0  0  0  0  0  0  0  0  0  0  0
   -1.2067   -7.3287   17.7772 C   0  0  0  0  0  0  0  0  0  0  0  0
   -0.0206  -10.5585   16.6210 C   0  0  0  0  0  0  0  0  0  0  0  0
    0.3696  -12.7626   16.2169 O   0  0  0  0  0  0  0  0  0  0  0  0
   -0.6895   -9.5676   17.3297 C   0  0  0  0  0  0  0  0  0  0  0  0
    0.8388   -5.8417   27.5264 C   0  0  0  0  0  0  0  0  0  0  0  0
   -2.0709   -7.6637   18.7817 C   0  0  0  0  0  0  0  0  0  0  0  0
   -0.5279   -8.2168   17.0717 C   0  0  0  0  0  0  0  0  0  0  0  0
    6.9694   -4.0191   27.8190 C   0  0  0  0  0  0  0  0  0  0  0  0
    5.1733   -4.5469   29.8123 C   0  0  0  0  0  0  0  0  0  0  0  0
   -1.7508  -11.3016   18.6072 C   0  0  0  0  0  0  0  0  0  0  0  0
    1.7497   -5.6771   26.4971 C   0  0  0  0  0  0  0  0  0  0  0  0
   -1.5799   -9.9322   18.3468 C   0  0  0  0  0  0  0  0  0  0  0  0
   -1.0871  -12.2214   17.8851 C   0  0  0  0  0  0  0  0  0  0  0  0
   -2.2706   -8.9669   19.0691 C   0  0  0  0  0  0  0  0  0  0  0  0
    3.0279   -5.3073   26.8197 C   0  0  0  0  0  0  0  0  0  0  0  0
    7.3282   -3.8948   29.1186 C   0  0  0  0  0  0  0  0  0  0  0  0
  1  3  4  0
  1  7  4  0
  2  3  1  0
  2  6  4  0
  2 16  4  0
  3 22  4  0
  4  9  4  0
  4 10  1  0
  4 20  4  0
  5 16  4  0
  5 23  4  0
  6 15  4  0
  7 12  4  0
  8 13  4  0
  8 14  4  0
  9 11  4  0
 11 14  4  0
 11 19  4  0
 12 18  4  0
 13 21  4  0
 15 23  4  0
 17 19  4  0
 17 20  4  0
 18 22  4  0
 19 21  4  0
M  END
$$$$

 Created by Python create_sdf_string function

 23 25  0  0  0  0  0  0  0  0999 V2000
    2.4610   -5.3070   29.1240 C   0  0  0  0  0  0  0  0  0  0  0  0
    4.7710   -4.6952   28.4803 C   0  0  0  0  0  0  0  0  0  0  0  0
    3.4047   -5.1087   28.1314 C   0  0  0  0  0  0  0  0  0  0  0  0
   -0.2234  -11.8615   16.8874 C   0  0  0  0  0  0  0  0  0  0  0  0
    6.4491   -4.1532   30.1213 C   0  0  0  0  0  0  0  0  0  0  0  0
    5.7060   -4.4340   27.4975 C   0  0  0  0  0  0  0  0  0  0  0  0
    1.1818   -5.6612   28.8399 C   0  0  0  0  0  0  0  0  0  0  0  0
   -1.2067   -7.3287   17.7772 C   0  0  0  0  0  0  0  0  0  0  0  0
   -0.0206  -10.5585   16.6210 C   0  0  0  0  0  0  0  0  0  0  0  0
    0.3696  -12.7626   16.2169 O   0  0  0  0  0  0  0  0  0  0  0  0
   -0.6895   -9.5676   17.3297 C   0  0  0  0  0  0  0  0  0  0  0  0
    0.8388   -5.8417   27.5264 C   0  0  0  0  0  0  0  0  0  0  0  0
   -2.0709   -7.6637   18.7817 C   0  0  0  0  0  0  0  0  0  0  0  0
   -0.5279   -8.2168   17.0717 C   0  0  0  0  0  0  0  0  0  0  0  0
    6.9694   -4.0191   27.8190 C   0  0  0  0  0  0  0  0  0  0  0  0
    5.1733   -4.5469   29.8123 C   0  0  0  0  0  0  0  0  0  0  0  0
   -1.7508  -11.3016   18.6072 C   0  0  0  0  0  0  0  0  0  0  0  0
    1.7497   -5.6771   26.4971 C   0  0  0  0  0  0  0  0  0  0  0  0
   -1.5799   -9.9322   18.3468 C   0  0  0  0  0  0  0  0  0  0  0  0
   -1.0871  -12.2214   17.8851 C   0  0  0  0  0  0  0  0  0  0  0  0
   -2.2706   -8.9669   19.0691 C   0  0  0  0  0  0  0  0  0  0  0  0
    3.0279   -5.3073   26.8197 C   0  0  0  0  0  0  0  0  0  0  0  0
    7.3282   -3.8948   29.1186 C   0  0  0  0  0  0  0  0  0  0  0  0
  1  3  4  0
  1  7  4  0
  2  3  1  0
  2  6  4  0
  2 16  4  0
  3 22  4  0
  4  9  4  0
  4 10  1  0
  4 20  4  0
  5 16  4  0
  5 23  4  0
  6 15  4  0
  7 12  4  0
  8 13  4  0
  8 14  4  0
  9 11  4  0
 11 14  4  0
 11 19  4  0
 12 18  4  0
 13 21  4  0
 15 23  4  0
 17 19  4  0
 17 20  4  0
 18 22  4  0
 19 21  4  0
M  END
$$$$

 Created by Python create_sdf_string function

 23 25  0  0  0  0  0  0  0  0999 V2000
    2.4610   -5.3070   29.1240 C   0  0  0  0  0  0  0  0  0  0  0  0
    4.7710   -4.6952   28.4803 C   0  0  0  0  0  0  0  0  0  0  0  0
    3.4047   -5.1087   28.1314 C   0  0  0  0  0  0  0  0  0  0  0  0
   -0.2234  -11.8615   16.8874 C   0  0  0  0  0  0  0  0  0  0  0  0
    6.4491   -4.1532   30.1213 C   0  0  0  0  0  0  0  0  0  0  0  0
    5.7060   -4.4340   27.4975 C   0  0  0  0  0  0  0  0  0  0  0  0
    1.1818   -5.6612   28.8399 C   0  0  0  0  0  0  0  0  0  0  0  0
   -1.2067   -7.3287   17.7772 C   0  0  0  0  0  0  0  0  0  0  0  0
   -0.0206  -10.5585   16.6210 C   0  0  0  0  0  0  0  0  0  0  0  0
    0.3696  -12.7626   16.2169 O   0  0  0  0  0  0  0  0  0  0  0  0
   -0.6895   -9.5676   17.3297 C   0  0  0  0  0  0  0  0  0  0  0  0
    0.8388   -5.8417   27.5264 C   0  0  0  0  0  0  0  0  0  0  0  0
   -2.0709   -7.6637   18.7817 C   0  0  0  0  0  0  0  0  0  0  0  0
   -0.5279   -8.2168   17.0717 C   0  0  0  0  0  0  0  0  0  0  0  0
    6.9694   -4.0191   27.8190 C   0  0  0  0  0  0  0  0  0  0  0  0
    5.1733   -4.5469   29.8123 C   0  0  0  0  0  0  0  0  0  0  0  0
   -1.7508  -11.3016   18.6072 C   0  0  0  0  0  0  0  0  0  0  0  0
    1.7497   -5.6771   26.4971 C   0  0  0  0  0  0  0  0  0  0  0  0
   -1.5799   -9.9322   18.3468 C   0  0  0  0  0  0  0  0  0  0  0  0
   -1.0871  -12.2214   17.8851 C   0  0  0  0  0  0  0  0  0  0  0  0
   -2.2706   -8.9669   19.0691 C   0  0  0  0  0  0  0  0  0  0  0  0
    3.0279   -5.3073   26.8197 C   0  0  0  0  0  0  0  0  0  0  0  0
    7.3282   -3.8948   29.1186 C   0  0  0  0  0  0  0  0  0  0  0  0
  1  3  4  0
  1  7  4  0
  2  3  1  0
  2  6  4  0
  2 16  4  0
  3 22  4  0
  4  9  4  0
  4 10  1  0
  4 20  4  0
  5 16  4  0
  5 23  4  0
  6 15  4  0
  7 12  4  0
  8 13  4  0
  8 14  4  0
  9 11  4  0
 11 14  4  0
 11 19  4  0
 12 18  4  0
 13 21  4  0
 15 23  4  0
 17 19  4  0
 17 20  4  0
 18 22  4  0
 19 21  4  0
M  END
$$$$

 Created by Python create_sdf_string function

 23 25  0  0  0  0  0  0  0  0999 V2000
    2.4610   -5.3070   29.1240 C   0  0  0  0  0  0  0  0  0  0  0  0
    4.7710   -4.6952   28.4803 C   0  0  0  0  0  0  0  0  0  0  0  0
    3.4047   -5.1087   28.1314 C   0  0  0  0  0  0  0  0  0  0  0  0
   -0.2234  -11.8615   16.8874 C   0  0  0  0  0  0  0  0  0  0  0  0
    6.4491   -4.1532   30.1213 C   0  0  0  0  0  0  0  0  0  0  0  0
    5.7060   -4.4340   27.4975 C   0  0  0  0  0  0  0  0  0  0  0  0
    1.1818   -5.6612   28.8399 C   0  0  0  0  0  0  0  0  0  0  0  0
   -1.2067   -7.3287   17.7772 C   0  0  0  0  0  0  0  0  0  0  0  0
   -0.0206  -10.5585   16.6210 C   0  0  0  0  0  0  0  0  0  0  0  0
    0.3696  -12.7626   16.2169 O   0  0  0  0  0  0  0  0  0  0  0  0
   -0.6895   -9.5676   17.3297 C   0  0  0  0  0  0  0  0  0  0  0  0
    0.8388   -5.8417   27.5264 C   0  0  0  0  0  0  0  0  0  0  0  0
   -2.0709   -7.6637   18.7817 C   0  0  0  0  0  0  0  0  0  0  0  0
   -0.5279   -8.2168   17.0717 C   0  0  0  0  0  0  0  0  0  0  0  0
    6.9694   -4.0191   27.8190 C   0  0  0  0  0  0  0  0  0  0  0  0
    5.1733   -4.5469   29.8123 C   0  0  0  0  0  0  0  0  0  0  0  0
   -1.7508  -11.3016   18.6072 C   0  0  0  0  0  0  0  0  0  0  0  0
    1.7497   -5.6771   26.4971 C   0  0  0  0  0  0  0  0  0  0  0  0
   -1.5799   -9.9322   18.3468 C   0  0  0  0  0  0  0  0  0  0  0  0
   -1.0871  -12.2214   17.8851 C   0  0  0  0  0  0  0  0  0  0  0  0
   -2.2706   -8.9669   19.0691 C   0  0  0  0  0  0  0  0  0  0  0  0
    3.0279   -5.3073   26.8197 C   0  0  0  0  0  0  0  0  0  0  0  0
    7.3282   -3.8948   29.1186 C   0  0  0  0  0  0  0  0  0  0  0  0
  1  3  4  0
  1  7  4  0
  2  3  1  0
  2  6  4  0
  2 16  4  0
  3 22  4  0
  4  9  4  0
  4 10  1  0
  4 20  4  0
  5 16  4  0
  5 23  4  0
  6 15  4  0
  7 12  4  0
  8 13  4  0
  8 14  4  0
  9 11  4  0
 11 14  4  0
 11 19  4  0
 12 18  4  0
 13 21  4  0
 15 23  4  0
 17 19  4  0
 17 20  4  0
 18 22  4  0
 19 21  4  0
M  END
$$$$

 Created by Python create_sdf_string function

 23 25  0  0  0  0  0  0  0  0999 V2000
    2.4610   -5.3070   29.1240 C   0  0  0  0  0  0  0  0  0  0  0  0
    4.7710   -4.6952   28.4803 C   0  0  0  0  0  0  0  0  0  0  0  0
    3.4047   -5.1087   28.1314 C   0  0  0  0  0  0  0  0  0  0  0  0
   -0.2234  -11.8615   16.8874 C   0  0  0  0  0  0  0  0  0  0  0  0
    6.4491   -4.1532   30.1213 C   0  0  0  0  0  0  0  0  0  0  0  0
    5.7060   -4.4340   27.4975 C   0  0  0  0  0  0  0  0  0  0  0  0
    1.1818   -5.6612   28.8399 C   0  0  0  0  0  0  0  0  0  0  0  0
   -1.2067   -7.3287   17.7772 C   0  0  0  0  0  0  0  0  0  0  0  0
   -0.0206  -10.5585   16.6210 C   0  0  0  0  0  0  0  0  0  0  0  0
    0.3696  -12.7626   16.2169 O   0  0  0  0  0  0  0  0  0  0  0  0
   -0.6895   -9.5676   17.3297 C   0  0  0  0  0  0  0  0  0  0  0  0
    0.8388   -5.8417   27.5264 C   0  0  0  0  0  0  0  0  0  0  0  0
   -2.0709   -7.6637   18.7817 C   0  0  0  0  0  0  0  0  0  0  0  0
   -0.5279   -8.2168   17.0717 C   0  0  0  0  0  0  0  0  0  0  0  0
    6.9694   -4.0191   27.8190 C   0  0  0  0  0  0  0  0  0  0  0  0
    5.1733   -4.5469   29.8123 C   0  0  0  0  0  0  0  0  0  0  0  0
   -1.7508  -11.3016   18.6072 C   0  0  0  0  0  0  0  0  0  0  0  0
    1.7497   -5.6771   26.4971 C   0  0  0  0  0  0  0  0  0  0  0  0
   -1.5799   -9.9322   18.3468 C   0  0  0  0  0  0  0  0  0  0  0  0
   -1.0871  -12.2214   17.8851 C   0  0  0  0  0  0  0  0  0  0  0  0
   -2.2706   -8.9669   19.0691 C   0  0  0  0  0  0  0  0  0  0  0  0
    3.0279   -5.3073   26.8197 C   0  0  0  0  0  0  0  0  0  0  0  0
    7.3282   -3.8948   29.1186 C   0  0  0  0  0  0  0  0  0  0  0  0
  1  3  4  0
  1  7  4  0
  2  3  1  0
  2  6  4  0
  2 16  4  0
  3 22  4  0
  4  9  4  0
  4 10  1  0
  4 20  4  0
  5 16  4  0
  5 23  4  0
  6 15  4  0
  7 12  4  0
  8 13  4  0
  8 14  4  0
  9 11  4  0
 11 14  4  0
 11 19  4  0
 12 18  4  0
 13 21  4  0
 15 23  4  0
 17 19  4  0
 17 20  4  0
 18 22  4  0
 19 21  4  0
M  END
$$$$

 Created by Python create_sdf_string function

 23 25  0  0  0  0  0  0  0  0999 V2000
    2.4610   -5.3070   29.1240 C   0  0  0  0  0  0  0  0  0  0  0  0
    4.7710   -4.6952   28.4803 C   0  0  0  0  0  0  0  0  0  0  0  0
    3.4047   -5.1087   28.1314 C   0  0  0  0  0  0  0  0  0  0  0  0
   -0.2234  -11.8615   16.8874 C   0  0  0  0  0  0  0  0  0  0  0  0
    6.4491   -4.1532   30.1213 C   0  0  0  0  0  0  0  0  0  0  0  0
    5.7060   -4.4340   27.4975 C   0  0  0  0  0  0  0  0  0  0  0  0
    1.1818   -5.6612   28.8399 C   0  0  0  0  0  0  0  0  0  0  0  0
   -1.2067   -7.3287   17.7772 C   0  0  0  0  0  0  0  0  0  0  0  0
   -0.0206  -10.5585   16.6210 C   0  0  0  0  0  0  0  0  0  0  0  0
    0.3696  -12.7626   16.2169 O   0  0  0  0  0  0  0  0  0  0  0  0
   -0.6895   -9.5676   17.3297 C   0  0  0  0  0  0  0  0  0  0  0  0
    0.8388   -5.8417   27.5264 C   0  0  0  0  0  0  0  0  0  0  0  0
   -2.0709   -7.6637   18.7817 C   0  0  0  0  0  0  0  0  0  0  0  0
   -0.5279   -8.2168   17.0717 C   0  0  0  0  0  0  0  0  0  0  0  0
    6.9694   -4.0191   27.8190 C   0  0  0  0  0  0  0  0  0  0  0  0
    5.1733   -4.5469   29.8123 C   0  0  0  0  0  0  0  0  0  0  0  0
   -1.7508  -11.3016   18.6072 C   0  0  0  0  0  0  0  0  0  0  0  0
    1.7497   -5.6771   26.4971 C   0  0  0  0  0  0  0  0  0  0  0  0
   -1.5799   -9.9322   18.3468 C   0  0  0  0  0  0  0  0  0  0  0  0
   -1.0871  -12.2214   17.8851 C   0  0  0  0  0  0  0  0  0  0  0  0
   -2.2706   -8.9669   19.0691 C   0  0  0  0  0  0  0  0  0  0  0  0
    3.0279   -5.3073   26.8197 C   0  0  0  0  0  0  0  0  0  0  0  0
    7.3282   -3.8948   29.1186 C   0  0  0  0  0  0  0  0  0  0  0  0
  1  3  4  0
  1  7  4  0
  2  3  1  0
  2  6  4  0
  2 16  4  0
  3 22  4  0
  4  9  4  0
  4 10  1  0
  4 20  4  0
  5 16  4  0
  5 23  4  0
  6 15  4  0
  7 12  4  0
  8 13  4  0
  8 14  4  0
  9 11  4  0
 11 14  4  0
 11 19  4  0
 12 18  4  0
 13 21  4  0
 15 23  4  0
 17 19  4  0
 17 20  4  0
 18 22  4  0
 19 21  4  0
M  END
$$$$

 Created by Python create_sdf_string function

 23 25  0  0  0  0  0  0  0  0999 V2000
    2.4610   -5.3070   29.1240 C   0  0  0  0  0  0  0  0  0  0  0  0
    4.7710   -4.6952   28.4803 C   0  0  0  0  0  0  0  0  0  0  0  0
    3.4047   -5.1087   28.1314 C   0  0  0  0  0  0  0  0  0  0  0  0
   -0.2234  -11.8615   16.8874 C   0  0  0  0  0  0  0  0  0  0  0  0
    6.4491   -4.1532   30.1213 C   0  0  0  0  0  0  0  0  0  0  0  0
    5.7060   -4.4340   27.4975 C   0  0  0  0  0  0  0  0  0  0  0  0
    1.1818   -5.6612   28.8399 C   0  0  0  0  0  0  0  0  0  0  0  0
   -1.2067   -7.3287   17.7772 C   0  0  0  0  0  0  0  0  0  0  0  0
   -0.0206  -10.5585   16.6210 C   0  0  0  0  0  0  0  0  0  0  0  0
    0.3696  -12.7626   16.2169 O   0  0  0  0  0  0  0  0  0  0  0  0
   -0.6895   -9.5676   17.3297 C   0  0  0  0  0  0  0  0  0  0  0  0
    0.8388   -5.8417   27.5264 C   0  0  0  0  0  0  0  0  0  0  0  0
   -2.0709   -7.6637   18.7817 C   0  0  0  0  0  0  0  0  0  0  0  0
   -0.5279   -8.2168   17.0717 C   0  0  0  0  0  0  0  0  0  0  0  0
    6.9694   -4.0191   27.8190 C   0  0  0  0  0  0  0  0  0  0  0  0
    5.1733   -4.5469   29.8123 C   0  0  0  0  0  0  0  0  0  0  0  0
   -1.7508  -11.3016   18.6072 C   0  0  0  0  0  0  0  0  0  0  0  0
    1.7497   -5.6771   26.4971 C   0  0  0  0  0  0  0  0  0  0  0  0
   -1.5799   -9.9322   18.3468 C   0  0  0  0  0  0  0  0  0  0  0  0
   -1.0871  -12.2214   17.8851 C   0  0  0  0  0  0  0  0  0  0  0  0
   -2.2706   -8.9669   19.0691 C   0  0  0  0  0  0  0  0  0  0  0  0
    3.0279   -5.3073   26.8197 C   0  0  0  0  0  0  0  0  0  0  0  0
    7.3282   -3.8948   29.1186 C   0  0  0  0  0  0  0  0  0  0  0  0
  1  3  4  0
  1  7  4  0
  2  3  1  0
  2  6  4  0
  2 16  4  0
  3 22  4  0
  4  9  4  0
  4 10  1  0
  4 20  4  0
  5 16  4  0
  5 23  4  0
  6 15  4  0
  7 12  4  0
  8 13  4  0
  8 14  4  0
  9 11  4  0
 11 14  4  0
 11 19  4  0
 12 18  4  0
 13 21  4  0
 15 23  4  0
 17 19  4  0
 17 20  4  0
 18 22  4  0
 19 21  4  0
M  END
$$$$

 Created by Python create_sdf_string function

 23 25  0  0  0  0  0  0  0  0999 V2000
    2.4610   -5.3070   29.1240 C   0  0  0  0  0  0  0  0  0  0  0  0
    4.7710   -4.6952   28.4803 C   0  0  0  0  0  0  0  0  0  0  0  0
    3.4047   -5.1087   28.1314 C   0  0  0  0  0  0  0  0  0  0  0  0
   -0.2234  -11.8615   16.8874 C   0  0  0  0  0  0  0  0  0  0  0  0
    6.4491   -4.1532   30.1213 C   0  0  0  0  0  0  0  0  0  0  0  0
    5.7060   -4.4340   27.4975 C   0  0  0  0  0  0  0  0  0  0  0  0
    1.1818   -5.6612   28.8399 C   0  0  0  0  0  0  0  0  0  0  0  0
   -1.2067   -7.3287   17.7772 C   0  0  0  0  0  0  0  0  0  0  0  0
   -0.0206  -10.5585   16.6210 C   0  0  0  0  0  0  0  0  0  0  0  0
    0.3696  -12.7626   16.2169 O   0  0  0  0  0  0  0  0  0  0  0  0
   -0.6895   -9.5676   17.3297 C   0  0  0  0  0  0  0  0  0  0  0  0
    0.8388   -5.8417   27.5264 C   0  0  0  0  0  0  0  0  0  0  0  0
   -2.0709   -7.6637   18.7817 C   0  0  0  0  0  0  0  0  0  0  0  0
   -0.5279   -8.2168   17.0717 C   0  0  0  0  0  0  0  0  0  0  0  0
    6.9694   -4.0191   27.8190 C   0  0  0  0  0  0  0  0  0  0  0  0
    5.1733   -4.5469   29.8123 C   0  0  0  0  0  0  0  0  0  0  0  0
   -1.7508  -11.3016   18.6072 C   0  0  0  0  0  0  0  0  0  0  0  0
    1.7497   -5.6771   26.4971 C   0  0  0  0  0  0  0  0  0  0  0  0
   -1.5799   -9.9322   18.3468 C   0  0  0  0  0  0  0  0  0  0  0  0
   -1.0871  -12.2214   17.8851 C   0  0  0  0  0  0  0  0  0  0  0  0
   -2.2706   -8.9669   19.0691 C   0  0  0  0  0  0  0  0  0  0  0  0
    3.0279   -5.3073   26.8197 C   0  0  0  0  0  0  0  0  0  0  0  0
    7.3282   -3.8948   29.1186 C   0  0  0  0  0  0  0  0  0  0  0  0
  1  3  4  0
  1  7  4  0
  2  3  1  0
  2  6  4  0
  2 16  4  0
  3 22  4  0
  4  9  4  0
  4 10  1  0
  4 20  4  0
  5 16  4  0
  5 23  4  0
  6 15  4  0
  7 12  4  0
  8 13  4  0
  8 14  4  0
  9 11  4  0
 11 14  4  0
 11 19  4  0
 12 18  4  0
 13 21  4  0
 15 23  4  0
 17 19  4  0
 17 20  4  0
 18 22  4  0
 19 21  4  0
M  END
$$$$

 Created by Python create_sdf_string function

 23 25  0  0  0  0  0  0  0  0999 V2000
    2.4610   -5.3070   29.1240 C   0  0  0  0  0  0  0  0  0  0  0  0
    4.7710   -4.6952   28.4803 C   0  0  0  0  0  0  0  0  0  0  0  0
    3.4047   -5.1087   28.1314 C   0  0  0  0  0  0  0  0  0  0  0  0
   -0.2234  -11.8615   16.8874 C   0  0  0  0  0  0  0  0  0  0  0  0
    6.4491   -4.1532   30.1213 C   0  0  0  0  0  0  0  0  0  0  0  0
    5.7060   -4.4340   27.4975 C   0  0  0  0  0  0  0  0  0  0  0  0
    1.1818   -5.6612   28.8399 C   0  0  0  0  0  0  0  0  0  0  0  0
   -1.2067   -7.3287   17.7772 C   0  0  0  0  0  0  0  0  0  0  0  0
   -0.0206  -10.5585   16.6210 C   0  0  0  0  0  0  0  0  0  0  0  0
    0.3696  -12.7626   16.2169 O   0  0  0  0  0  0  0  0  0  0  0  0
   -0.6895   -9.5676   17.3297 C   0  0  0  0  0  0  0  0  0  0  0  0
    0.8388   -5.8417   27.5264 C   0  0  0  0  0  0  0  0  0  0  0  0
   -2.0709   -7.6637   18.7817 C   0  0  0  0  0  0  0  0  0  0  0  0
   -0.5279   -8.2168   17.0717 C   0  0  0  0  0  0  0  0  0  0  0  0
    6.9694   -4.0191   27.8190 C   0  0  0  0  0  0  0  0  0  0  0  0
    5.1733   -4.5469   29.8123 C   0  0  0  0  0  0  0  0  0  0  0  0
   -1.7508  -11.3016   18.6072 C   0  0  0  0  0  0  0  0  0  0  0  0
    1.7497   -5.6771   26.4971 C   0  0  0  0  0  0  0  0  0  0  0  0
   -1.5799   -9.9322   18.3468 C   0  0  0  0  0  0  0  0  0  0  0  0
   -1.0871  -12.2214   17.8851 C   0  0  0  0  0  0  0  0  0  0  0  0
   -2.2706   -8.9669   19.0691 C   0  0  0  0  0  0  0  0  0  0  0  0
    3.0279   -5.3073   26.8197 C   0  0  0  0  0  0  0  0  0  0  0  0
    7.3282   -3.8948   29.1186 C   0  0  0  0  0  0  0  0  0  0  0  0
  1  3  4  0
  1  7  4  0
  2  3  1  0
  2  6  4  0
  2 16  4  0
  3 22  4  0
  4  9  4  0
  4 10  1  0
  4 20  4  0
  5 16  4  0
  5 23  4  0
  6 15  4  0
  7 12  4  0
  8 13  4  0
  8 14  4  0
  9 11  4  0
 11 14  4  0
 11 19  4  0
 12 18  4  0
 13 21  4  0
 15 23  4  0
 17 19  4  0
 17 20  4  0
 18 22  4  0
 19 21  4  0
M  END
$$$$

 Created by Python create_sdf_string function

 23 25  0  0  0  0  0  0  0  0999 V2000
    2.4610   -5.3070   29.1240 C   0  0  0  0  0  0  0  0  0  0  0  0
    4.7710   -4.6952   28.4803 C   0  0  0  0  0  0  0  0  0  0  0  0
    3.4047   -5.1087   28.1314 C   0  0  0  0  0  0  0  0  0  0  0  0
   -0.2234  -11.8615   16.8874 C   0  0  0  0  0  0  0  0  0  0  0  0
    6.4491   -4.1532   30.1213 C   0  0  0  0  0  0  0  0  0  0  0  0
    5.7060   -4.4340   27.4975 C   0  0  0  0  0  0  0  0  0  0  0  0
    1.1818   -5.6612   28.8399 C   0  0  0  0  0  0  0  0  0  0  0  0
   -1.2067   -7.3287   17.7772 C   0  0  0  0  0  0  0  0  0  0  0  0
   -0.0206  -10.5585   16.6210 C   0  0  0  0  0  0  0  0  0  0  0  0
    0.3696  -12.7626   16.2169 O   0  0  0  0  0  0  0  0  0  0  0  0
   -0.6895   -9.5676   17.3297 C   0  0  0  0  0  0  0  0  0  0  0  0
    0.8388   -5.8417   27.5264 C   0  0  0  0  0  0  0  0  0  0  0  0
   -2.0709   -7.6637   18.7817 C   0  0  0  0  0  0  0  0  0  0  0  0
   -0.5279   -8.2168   17.0717 C   0  0  0  0  0  0  0  0  0  0  0  0
    6.9694   -4.0191   27.8190 C   0  0  0  0  0  0  0  0  0  0  0  0
    5.1733   -4.5469   29.8123 C   0  0  0  0  0  0  0  0  0  0  0  0
   -1.7508  -11.3016   18.6072 C   0  0  0  0  0  0  0  0  0  0  0  0
    1.7497   -5.6771   26.4971 C   0  0  0  0  0  0  0  0  0  0  0  0
   -1.5799   -9.9322   18.3468 C   0  0  0  0  0  0  0  0  0  0  0  0
   -1.0871  -12.2214   17.8851 C   0  0  0  0  0  0  0  0  0  0  0  0
   -2.2706   -8.9669   19.0691 C   0  0  0  0  0  0  0  0  0  0  0  0
    3.0279   -5.3073   26.8197 C   0  0  0  0  0  0  0  0  0  0  0  0
    7.3282   -3.8948   29.1186 C   0  0  0  0  0  0  0  0  0  0  0  0
  1  3  4  0
  1  7  4  0
  2  3  1  0
  2  6  4  0
  2 16  4  0
  3 22  4  0
  4  9  4  0
  4 10  1  0
  4 20  4  0
  5 16  4  0
  5 23  4  0
  6 15  4  0
  7 12  4  0
  8 13  4  0
  8 14  4  0
  9 11  4  0
 11 14  4  0
 11 19  4  0
 12 18  4  0
 13 21  4  0
 15 23  4  0
 17 19  4  0
 17 20  4  0
 18 22  4  0
 19 21  4  0
M  END
$$$$

 Created by Python create_sdf_string function

 23 25  0  0  0  0  0  0  0  0999 V2000
    2.4610   -5.3070   29.1240 C   0  0  0  0  0  0  0  0  0  0  0  0
    4.7710   -4.6952   28.4803 C   0  0  0  0  0  0  0  0  0  0  0  0
    3.4047   -5.1087   28.1314 C   0  0  0  0  0  0  0  0  0  0  0  0
   -0.2234  -11.8615   16.8874 C   0  0  0  0  0  0  0  0  0  0  0  0
    6.4491   -4.1532   30.1213 C   0  0  0  0  0  0  0  0  0  0  0  0
    5.7060   -4.4340   27.4975 C   0  0  0  0  0  0  0  0  0  0  0  0
    1.1818   -5.6612   28.8399 C   0  0  0  0  0  0  0  0  0  0  0  0
   -1.2067   -7.3287   17.7772 C   0  0  0  0  0  0  0  0  0  0  0  0
   -0.0206  -10.5585   16.6210 C   0  0  0  0  0  0  0  0  0  0  0  0
    0.3696  -12.7626   16.2169 O   0  0  0  0  0  0  0  0  0  0  0  0
   -0.6895   -9.5676   17.3297 C   0  0  0  0  0  0  0  0  0  0  0  0
    0.8388   -5.8417   27.5264 C   0  0  0  0  0  0  0  0  0  0  0  0
   -2.0709   -7.6637   18.7817 C   0  0  0  0  0  0  0  0  0  0  0  0
   -0.5279   -8.2168   17.0717 C   0  0  0  0  0  0  0  0  0  0  0  0
    6.9694   -4.0191   27.8190 C   0  0  0  0  0  0  0  0  0  0  0  0
    5.1733   -4.5469   29.8123 C   0  0  0  0  0  0  0  0  0  0  0  0
   -1.7508  -11.3016   18.6072 C   0  0  0  0  0  0  0  0  0  0  0  0
    1.7497   -5.6771   26.4971 C   0  0  0  0  0  0  0  0  0  0  0  0
   -1.5799   -9.9322   18.3468 C   0  0  0  0  0  0  0  0  0  0  0  0
   -1.0871  -12.2214   17.8851 C   0  0  0  0  0  0  0  0  0  0  0  0
   -2.2706   -8.9669   19.0691 C   0  0  0  0  0  0  0  0  0  0  0  0
    3.0279   -5.3073   26.8197 C   0  0  0  0  0  0  0  0  0  0  0  0
    7.3282   -3.8948   29.1186 C   0  0  0  0  0  0  0  0  0  0  0  0
  1  3  4  0
  1  7  4  0
  2  3  1  0
  2  6  4  0
  2 16  4  0
  3 22  4  0
  4  9  4  0
  4 10  1  0
  4 20  4  0
  5 16  4  0
  5 23  4  0
  6 15  4  0
  7 12  4  0
  8 13  4  0
  8 14  4  0
  9 11  4  0
 11 14  4  0
 11 19  4  0
 12 18  4  0
 13 21  4  0
 15 23  4  0
 17 19  4  0
 17 20  4  0
 18 22  4  0
 19 21  4  0
M  END
$$$$

 Created by Python create_sdf_string function

 23 25  0  0  0  0  0  0  0  0999 V2000
    2.4610   -5.3070   29.1240 C   0  0  0  0  0  0  0  0  0  0  0  0
    4.7710   -4.6952   28.4803 C   0  0  0  0  0  0  0  0  0  0  0  0
    3.4047   -5.1087   28.1314 C   0  0  0  0  0  0  0  0  0  0  0  0
   -0.2234  -11.8615   16.8874 C   0  0  0  0  0  0  0  0  0  0  0  0
    6.4491   -4.1532   30.1213 C   0  0  0  0  0  0  0  0  0  0  0  0
    5.7060   -4.4340   27.4975 C   0  0  0  0  0  0  0  0  0  0  0  0
    1.1818   -5.6612   28.8399 C   0  0  0  0  0  0  0  0  0  0  0  0
   -1.2067   -7.3287   17.7772 C   0  0  0  0  0  0  0  0  0  0  0  0
   -0.0206  -10.5585   16.6210 C   0  0  0  0  0  0  0  0  0  0  0  0
    0.3696  -12.7626   16.2169 O   0  0  0  0  0  0  0  0  0  0  0  0
   -0.6895   -9.5676   17.3297 C   0  0  0  0  0  0  0  0  0  0  0  0
    0.8388   -5.8417   27.5264 C   0  0  0  0  0  0  0  0  0  0  0  0
   -2.0709   -7.6637   18.7817 C   0  0  0  0  0  0  0  0  0  0  0  0
   -0.5279   -8.2168   17.0717 C   0  0  0  0  0  0  0  0  0  0  0  0
    6.9694   -4.0191   27.8190 C   0  0  0  0  0  0  0  0  0  0  0  0
    5.1733   -4.5469   29.8123 C   0  0  0  0  0  0  0  0  0  0  0  0
   -1.7508  -11.3016   18.6072 C   0  0  0  0  0  0  0  0  0  0  0  0
    1.7497   -5.6771   26.4971 C   0  0  0  0  0  0  0  0  0  0  0  0
   -1.5799   -9.9322   18.3468 C   0  0  0  0  0  0  0  0  0  0  0  0
   -1.0871  -12.2214   17.8851 C   0  0  0  0  0  0  0  0  0  0  0  0
   -2.2706   -8.9669   19.0691 C   0  0  0  0  0  0  0  0  0  0  0  0
    3.0279   -5.3073   26.8197 C   0  0  0  0  0  0  0  0  0  0  0  0
    7.3282   -3.8948   29.1186 C   0  0  0  0  0  0  0  0  0  0  0  0
  1  3  4  0
  1  7  4  0
  2  3  1  0
  2  6  4  0
  2 16  4  0
  3 22  4  0
  4  9  4  0
  4 10  1  0
  4 20  4  0
  5 16  4  0
  5 23  4  0
  6 15  4  0
  7 12  4  0
  8 13  4  0
  8 14  4  0
  9 11  4  0
 11 14  4  0
 11 19  4  0
 12 18  4  0
 13 21  4  0
 15 23  4  0
 17 19  4  0
 17 20  4  0
 18 22  4  0
 19 21  4  0
M  END
$$$$

 Created by Python create_sdf_string function

 23 25  0  0  0  0  0  0  0  0999 V2000
    2.4610   -5.3070   29.1240 C   0  0  0  0  0  0  0  0  0  0  0  0
    4.7710   -4.6952   28.4803 C   0  0  0  0  0  0  0  0  0  0  0  0
    3.4047   -5.1087   28.1314 C   0  0  0  0  0  0  0  0  0  0  0  0
   -0.2234  -11.8615   16.8874 C   0  0  0  0  0  0  0  0  0  0  0  0
    6.4491   -4.1532   30.1213 C   0  0  0  0  0  0  0  0  0  0  0  0
    5.7060   -4.4340   27.4975 C   0  0  0  0  0  0  0  0  0  0  0  0
    1.1818   -5.6612   28.8399 C   0  0  0  0  0  0  0  0  0  0  0  0
   -1.2067   -7.3287   17.7772 C   0  0  0  0  0  0  0  0  0  0  0  0
   -0.0206  -10.5585   16.6210 C   0  0  0  0  0  0  0  0  0  0  0  0
    0.3696  -12.7626   16.2169 O   0  0  0  0  0  0  0  0  0  0  0  0
   -0.6895   -9.5676   17.3297 C   0  0  0  0  0  0  0  0  0  0  0  0
    0.8388   -5.8417   27.5264 C   0  0  0  0  0  0  0  0  0  0  0  0
   -2.0709   -7.6637   18.7817 C   0  0  0  0  0  0  0  0  0  0  0  0
   -0.5279   -8.2168   17.0717 C   0  0  0  0  0  0  0  0  0  0  0  0
    6.9694   -4.0191   27.8190 C   0  0  0  0  0  0  0  0  0  0  0  0
    5.1733   -4.5469   29.8123 C   0  0  0  0  0  0  0  0  0  0  0  0
   -1.7508  -11.3016   18.6072 C   0  0  0  0  0  0  0  0  0  0  0  0
    1.7497   -5.6771   26.4971 C   0  0  0  0  0  0  0  0  0  0  0  0
   -1.5799   -9.9322   18.3468 C   0  0  0  0  0  0  0  0  0  0  0  0
   -1.0871  -12.2214   17.8851 C   0  0  0  0  0  0  0  0  0  0  0  0
   -2.2706   -8.9669   19.0691 C   0  0  0  0  0  0  0  0  0  0  0  0
    3.0279   -5.3073   26.8197 C   0  0  0  0  0  0  0  0  0  0  0  0
    7.3282   -3.8948   29.1186 C   0  0  0  0  0  0  0  0  0  0  0  0
  1  3  4  0
  1  7  4  0
  2  3  1  0
  2  6  4  0
  2 16  4  0
  3 22  4  0
  4  9  4  0
  4 10  1  0
  4 20  4  0
  5 16  4  0
  5 23  4  0
  6 15  4  0
  7 12  4  0
  8 13  4  0
  8 14  4  0
  9 11  4  0
 11 14  4  0
 11 19  4  0
 12 18  4  0
 13 21  4  0
 15 23  4  0
 17 19  4  0
 17 20  4  0
 18 22  4  0
 19 21  4  0
M  END
$$$$

 Created by Python create_sdf_string function

 23 25  0  0  0  0  0  0  0  0999 V2000
    2.4610   -5.3070   29.1240 C   0  0  0  0  0  0  0  0  0  0  0  0
    4.7710   -4.6952   28.4803 C   0  0  0  0  0  0  0  0  0  0  0  0
    3.4047   -5.1087   28.1314 C   0  0  0  0  0  0  0  0  0  0  0  0
   -0.2234  -11.8615   16.8874 C   0  0  0  0  0  0  0  0  0  0  0  0
    6.4491   -4.1532   30.1213 C   0  0  0  0  0  0  0  0  0  0  0  0
    5.7060   -4.4340   27.4975 C   0  0  0  0  0  0  0  0  0  0  0  0
    1.1818   -5.6612   28.8399 C   0  0  0  0  0  0  0  0  0  0  0  0
   -1.2067   -7.3287   17.7772 C   0  0  0  0  0  0  0  0  0  0  0  0
   -0.0206  -10.5585   16.6210 C   0  0  0  0  0  0  0  0  0  0  0  0
    0.3696  -12.7626   16.2169 O   0  0  0  0  0  0  0  0  0  0  0  0
   -0.6895   -9.5676   17.3297 C   0  0  0  0  0  0  0  0  0  0  0  0
    0.8388   -5.8417   27.5264 C   0  0  0  0  0  0  0  0  0  0  0  0
   -2.0709   -7.6637   18.7817 C   0  0  0  0  0  0  0  0  0  0  0  0
   -0.5279   -8.2168   17.0717 C   0  0  0  0  0  0  0  0  0  0  0  0
    6.9694   -4.0191   27.8190 C   0  0  0  0  0  0  0  0  0  0  0  0
    5.1733   -4.5469   29.8123 C   0  0  0  0  0  0  0  0  0  0  0  0
   -1.7508  -11.3016   18.6072 C   0  0  0  0  0  0  0  0  0  0  0  0
    1.7497   -5.6771   26.4971 C   0  0  0  0  0  0  0  0  0  0  0  0
   -1.5799   -9.9322   18.3468 C   0  0  0  0  0  0  0  0  0  0  0  0
   -1.0871  -12.2214   17.8851 C   0  0  0  0  0  0  0  0  0  0  0  0
   -2.2706   -8.9669   19.0691 C   0  0  0  0  0  0  0  0  0  0  0  0
    3.0279   -5.3073   26.8197 C   0  0  0  0  0  0  0  0  0  0  0  0
    7.3282   -3.8948   29.1186 C   0  0  0  0  0  0  0  0  0  0  0  0
  1  3  4  0
  1  7  4  0
  2  3  1  0
  2  6  4  0
  2 16  4  0
  3 22  4  0
  4  9  4  0
  4 10  1  0
  4 20  4  0
  5 16  4  0
  5 23  4  0
  6 15  4  0
  7 12  4  0
  8 13  4  0
  8 14  4  0
  9 11  4  0
 11 14  4  0
 11 19  4  0
 12 18  4  0
 13 21  4  0
 15 23  4  0
 17 19  4  0
 17 20  4  0
 18 22  4  0
 19 21  4  0
M  END
$$$$

 Created by Python create_sdf_string function

 23 25  0  0  0  0  0  0  0  0999 V2000
    2.4610   -5.3070   29.1240 C   0  0  0  0  0  0  0  0  0  0  0  0
    4.7710   -4.6952   28.4803 C   0  0  0  0  0  0  0  0  0  0  0  0
    3.4047   -5.1087   28.1314 C   0  0  0  0  0  0  0  0  0  0  0  0
   -0.2234  -11.8615   16.8874 C   0  0  0  0  0  0  0  0  0  0  0  0
    6.4491   -4.1532   30.1213 C   0  0  0  0  0  0  0  0  0  0  0  0
    5.7060   -4.4340   27.4975 C   0  0  0  0  0  0  0  0  0  0  0  0
    1.1818   -5.6612   28.8399 C   0  0  0  0  0  0  0  0  0  0  0  0
   -1.2067   -7.3287   17.7772 C   0  0  0  0  0  0  0  0  0  0  0  0
   -0.0206  -10.5585   16.6210 C   0  0  0  0  0  0  0  0  0  0  0  0
    0.3696  -12.7626   16.2169 O   0  0  0  0  0  0  0  0  0  0  0  0
   -0.6895   -9.5676   17.3297 C   0  0  0  0  0  0  0  0  0  0  0  0
    0.8388   -5.8417   27.5264 C   0  0  0  0  0  0  0  0  0  0  0  0
   -2.0709   -7.6637   18.7817 C   0  0  0  0  0  0  0  0  0  0  0  0
   -0.5279   -8.2168   17.0717 C   0  0  0  0  0  0  0  0  0  0  0  0
    6.9694   -4.0191   27.8190 C   0  0  0  0  0  0  0  0  0  0  0  0
    5.1733   -4.5469   29.8123 C   0  0  0  0  0  0  0  0  0  0  0  0
   -1.7508  -11.3016   18.6072 C   0  0  0  0  0  0  0  0  0  0  0  0
    1.7497   -5.6771   26.4971 C   0  0  0  0  0  0  0  0  0  0  0  0
   -1.5799   -9.9322   18.3468 C   0  0  0  0  0  0  0  0  0  0  0  0
   -1.0871  -12.2214   17.8851 C   0  0  0  0  0  0  0  0  0  0  0  0
   -2.2706   -8.9669   19.0691 C   0  0  0  0  0  0  0  0  0  0  0  0
    3.0279   -5.3073   26.8197 C   0  0  0  0  0  0  0  0  0  0  0  0
    7.3282   -3.8948   29.1186 C   0  0  0  0  0  0  0  0  0  0  0  0
  1  3  4  0
  1  7  4  0
  2  3  1  0
  2  6  4  0
  2 16  4  0
  3 22  4  0
  4  9  4  0
  4 10  1  0
  4 20  4  0
  5 16  4  0
  5 23  4  0
  6 15  4  0
  7 12  4  0
  8 13  4  0
  8 14  4  0
  9 11  4  0
 11 14  4  0
 11 19  4  0
 12 18  4  0
 13 21  4  0
 15 23  4  0
 17 19  4  0
 17 20  4  0
 18 22  4  0
 19 21  4  0
M  END
$$$$

 Created by Python create_sdf_string function

 23 25  0  0  0  0  0  0  0  0999 V2000
    2.4610   -5.3070   29.1240 C   0  0  0  0  0  0  0  0  0  0  0  0
    4.7710   -4.6952   28.4803 C   0  0  0  0  0  0  0  0  0  0  0  0
    3.4047   -5.1087   28.1314 C   0  0  0  0  0  0  0  0  0  0  0  0
   -0.2234  -11.8615   16.8874 C   0  0  0  0  0  0  0  0  0  0  0  0
    6.4491   -4.1532   30.1213 C   0  0  0  0  0  0  0  0  0  0  0  0
    5.7060   -4.4340   27.4975 C   0  0  0  0  0  0  0  0  0  0  0  0
    1.1818   -5.6612   28.8399 C   0  0  0  0  0  0  0  0  0  0  0  0
   -1.2067   -7.3287   17.7772 C   0  0  0  0  0  0  0  0  0  0  0  0
   -0.0206  -10.5585   16.6210 C   0  0  0  0  0  0  0  0  0  0  0  0
    0.3696  -12.7626   16.2169 O   0  0  0  0  0  0  0  0  0  0  0  0
   -0.6895   -9.5676   17.3297 C   0  0  0  0  0  0  0  0  0  0  0  0
    0.8388   -5.8417   27.5264 C   0  0  0  0  0  0  0  0  0  0  0  0
   -2.0709   -7.6637   18.7817 C   0  0  0  0  0  0  0  0  0  0  0  0
   -0.5279   -8.2168   17.0717 C   0  0  0  0  0  0  0  0  0  0  0  0
    6.9694   -4.0191   27.8190 C   0  0  0  0  0  0  0  0  0  0  0  0
    5.1733   -4.5469   29.8123 C   0  0  0  0  0  0  0  0  0  0  0  0
   -1.7508  -11.3016   18.6072 C   0  0  0  0  0  0  0  0  0  0  0  0
    1.7497   -5.6771   26.4971 C   0  0  0  0  0  0  0  0  0  0  0  0
   -1.5799   -9.9322   18.3468 C   0  0  0  0  0  0  0  0  0  0  0  0
   -1.0871  -12.2214   17.8851 C   0  0  0  0  0  0  0  0  0  0  0  0
   -2.2706   -8.9669   19.0691 C   0  0  0  0  0  0  0  0  0  0  0  0
    3.0279   -5.3073   26.8197 C   0  0  0  0  0  0  0  0  0  0  0  0
    7.3282   -3.8948   29.1186 C   0  0  0  0  0  0  0  0  0  0  0  0
  1  3  4  0
  1  7  4  0
  2  3  1  0
  2  6  4  0
  2 16  4  0
  3 22  4  0
  4  9  4  0
  4 10  1  0
  4 20  4  0
  5 16  4  0
  5 23  4  0
  6 15  4  0
  7 12  4  0
  8 13  4  0
  8 14  4  0
  9 11  4  0
 11 14  4  0
 11 19  4  0
 12 18  4  0
 13 21  4  0
 15 23  4  0
 17 19  4  0
 17 20  4  0
 18 22  4  0
 19 21  4  0
M  END
$$$$

 Created by Python create_sdf_string function

 23 25  0  0  0  0  0  0  0  0999 V2000
    2.4610   -5.3070   29.1240 C   0  0  0  0  0  0  0  0  0  0  0  0
    4.7710   -4.6952   28.4803 C   0  0  0  0  0  0  0  0  0  0  0  0
    3.4047   -5.1087   28.1314 C   0  0  0  0  0  0  0  0  0  0  0  0
   -0.2234  -11.8615   16.8874 C   0  0  0  0  0  0  0  0  0  0  0  0
    6.4491   -4.1532   30.1213 C   0  0  0  0  0  0  0  0  0  0  0  0
    5.7060   -4.4340   27.4975 C   0  0  0  0  0  0  0  0  0  0  0  0
    1.1818   -5.6612   28.8399 C   0  0  0  0  0  0  0  0  0  0  0  0
   -1.2067   -7.3287   17.7772 C   0  0  0  0  0  0  0  0  0  0  0  0
   -0.0206  -10.5585   16.6210 C   0  0  0  0  0  0  0  0  0  0  0  0
    0.3696  -12.7626   16.2169 O   0  0  0  0  0  0  0  0  0  0  0  0
   -0.6895   -9.5676   17.3297 C   0  0  0  0  0  0  0  0  0  0  0  0
    0.8388   -5.8417   27.5264 C   0  0  0  0  0  0  0  0  0  0  0  0
   -2.0709   -7.6637   18.7817 C   0  0  0  0  0  0  0  0  0  0  0  0
   -0.5279   -8.2168   17.0717 C   0  0  0  0  0  0  0  0  0  0  0  0
    6.9694   -4.0191   27.8190 C   0  0  0  0  0  0  0  0  0  0  0  0
    5.1733   -4.5469   29.8123 C   0  0  0  0  0  0  0  0  0  0  0  0
   -1.7508  -11.3016   18.6072 C   0  0  0  0  0  0  0  0  0  0  0  0
    1.7497   -5.6771   26.4971 C   0  0  0  0  0  0  0  0  0  0  0  0
   -1.5799   -9.9322   18.3468 C   0  0  0  0  0  0  0  0  0  0  0  0
   -1.0871  -12.2214   17.8851 C   0  0  0  0  0  0  0  0  0  0  0  0
   -2.2706   -8.9669   19.0691 C   0  0  0  0  0  0  0  0  0  0  0  0
    3.0279   -5.3073   26.8197 C   0  0  0  0  0  0  0  0  0  0  0  0
    7.3282   -3.8948   29.1186 C   0  0  0  0  0  0  0  0  0  0  0  0
  1  3  4  0
  1  7  4  0
  2  3  1  0
  2  6  4  0
  2 16  4  0
  3 22  4  0
  4  9  4  0
  4 10  1  0
  4 20  4  0
  5 16  4  0
  5 23  4  0
  6 15  4  0
  7 12  4  0
  8 13  4  0
  8 14  4  0
  9 11  4  0
 11 14  4  0
 11 19  4  0
 12 18  4  0
 13 21  4  0
 15 23  4  0
 17 19  4  0
 17 20  4  0
 18 22  4  0
 19 21  4  0
M  END
$$$$

 Created by Python create_sdf_string function

 23 25  0  0  0  0  0  0  0  0999 V2000
    2.4610   -5.3070   29.1240 C   0  0  0  0  0  0  0  0  0  0  0  0
    4.7710   -4.6952   28.4803 C   0  0  0  0  0  0  0  0  0  0  0  0
    3.4047   -5.1087   28.1314 C   0  0  0  0  0  0  0  0  0  0  0  0
   -0.2234  -11.8615   16.8874 C   0  0  0  0  0  0  0  0  0  0  0  0
    6.4491   -4.1532   30.1213 C   0  0  0  0  0  0  0  0  0  0  0  0
    5.7060   -4.4340   27.4975 C   0  0  0  0  0  0  0  0  0  0  0  0
    1.1818   -5.6612   28.8399 C   0  0  0  0  0  0  0  0  0  0  0  0
   -1.2067   -7.3287   17.7772 C   0  0  0  0  0  0  0  0  0  0  0  0
   -0.0206  -10.5585   16.6210 C   0  0  0  0  0  0  0  0  0  0  0  0
    0.3696  -12.7626   16.2169 O   0  0  0  0  0  0  0  0  0  0  0  0
   -0.6895   -9.5676   17.3297 C   0  0  0  0  0  0  0  0  0  0  0  0
    0.8388   -5.8417   27.5264 C   0  0  0  0  0  0  0  0  0  0  0  0
   -2.0709   -7.6637   18.7817 C   0  0  0  0  0  0  0  0  0  0  0  0
   -0.5279   -8.2168   17.0717 C   0  0  0  0  0  0  0  0  0  0  0  0
    6.9694   -4.0191   27.8190 C   0  0  0  0  0  0  0  0  0  0  0  0
    5.1733   -4.5469   29.8123 C   0  0  0  0  0  0  0  0  0  0  0  0
   -1.7508  -11.3016   18.6072 C   0  0  0  0  0  0  0  0  0  0  0  0
    1.7497   -5.6771   26.4971 C   0  0  0  0  0  0  0  0  0  0  0  0
   -1.5799   -9.9322   18.3468 C   0  0  0  0  0  0  0  0  0  0  0  0
   -1.0871  -12.2214   17.8851 C   0  0  0  0  0  0  0  0  0  0  0  0
   -2.2706   -8.9669   19.0691 C   0  0  0  0  0  0  0  0  0  0  0  0
    3.0279   -5.3073   26.8197 C   0  0  0  0  0  0  0  0  0  0  0  0
    7.3282   -3.8948   29.1186 C   0  0  0  0  0  0  0  0  0  0  0  0
  1  3  4  0
  1  7  4  0
  2  3  1  0
  2  6  4  0
  2 16  4  0
  3 22  4  0
  4  9  4  0
  4 10  1  0
  4 20  4  0
  5 16  4  0
  5 23  4  0
  6 15  4  0
  7 12  4  0
  8 13  4  0
  8 14  4  0
  9 11  4  0
 11 14  4  0
 11 19  4  0
 12 18  4  0
 13 21  4  0
 15 23  4  0
 17 19  4  0
 17 20  4  0
 18 22  4  0
 19 21  4  0
M  END
$$$$

 Created by Python create_sdf_string function

 23 25  0  0  0  0  0  0  0  0999 V2000
    2.4610   -5.3070   29.1240 C   0  0  0  0  0  0  0  0  0  0  0  0
    4.7710   -4.6952   28.4803 C   0  0  0  0  0  0  0  0  0  0  0  0
    3.4047   -5.1087   28.1314 C   0  0  0  0  0  0  0  0  0  0  0  0
   -0.2234  -11.8615   16.8874 C   0  0  0  0  0  0  0  0  0  0  0  0
    6.4491   -4.1532   30.1213 C   0  0  0  0  0  0  0  0  0  0  0  0
    5.7060   -4.4340   27.4975 C   0  0  0  0  0  0  0  0  0  0  0  0
    1.1818   -5.6612   28.8399 C   0  0  0  0  0  0  0  0  0  0  0  0
   -1.2067   -7.3287   17.7772 C   0  0  0  0  0  0  0  0  0  0  0  0
   -0.0206  -10.5585   16.6210 C   0  0  0  0  0  0  0  0  0  0  0  0
    0.3696  -12.7626   16.2169 O   0  0  0  0  0  0  0  0  0  0  0  0
   -0.6895   -9.5676   17.3297 C   0  0  0  0  0  0  0  0  0  0  0  0
    0.8388   -5.8417   27.5264 C   0  0  0  0  0  0  0  0  0  0  0  0
   -2.0709   -7.6637   18.7817 C   0  0  0  0  0  0  0  0  0  0  0  0
   -0.5279   -8.2168   17.0717 C   0  0  0  0  0  0  0  0  0  0  0  0
    6.9694   -4.0191   27.8190 C   0  0  0  0  0  0  0  0  0  0  0  0
    5.1733   -4.5469   29.8123 C   0  0  0  0  0  0  0  0  0  0  0  0
   -1.7508  -11.3016   18.6072 C   0  0  0  0  0  0  0  0  0  0  0  0
    1.7497   -5.6771   26.4971 C   0  0  0  0  0  0  0  0  0  0  0  0
   -1.5799   -9.9322   18.3468 C   0  0  0  0  0  0  0  0  0  0  0  0
   -1.0871  -12.2214   17.8851 C   0  0  0  0  0  0  0  0  0  0  0  0
   -2.2706   -8.9669   19.0691 C   0  0  0  0  0  0  0  0  0  0  0  0
    3.0279   -5.3073   26.8197 C   0  0  0  0  0  0  0  0  0  0  0  0
    7.3282   -3.8948   29.1186 C   0  0  0  0  0  0  0  0  0  0  0  0
  1  3  4  0
  1  7  4  0
  2  3  1  0
  2  6  4  0
  2 16  4  0
  3 22  4  0
  4  9  4  0
  4 10  1  0
  4 20  4  0
  5 16  4  0
  5 23  4  0
  6 15  4  0
  7 12  4  0
  8 13  4  0
  8 14  4  0
  9 11  4  0
 11 14  4  0
 11 19  4  0
 12 18  4  0
 13 21  4  0
 15 23  4  0
 17 19  4  0
 17 20  4  0
 18 22  4  0
 19 21  4  0
M  END
$$$$

 Created by Python create_sdf_string function

 23 25  0  0  0  0  0  0  0  0999 V2000
    2.4610   -5.3070   29.1240 C   0  0  0  0  0  0  0  0  0  0  0  0
    4.7710   -4.6952   28.4803 C   0  0  0  0  0  0  0  0  0  0  0  0
    3.4047   -5.1087   28.1314 C   0  0  0  0  0  0  0  0  0  0  0  0
   -0.2234  -11.8615   16.8874 C   0  0  0  0  0  0  0  0  0  0  0  0
    6.4491   -4.1532   30.1213 C   0  0  0  0  0  0  0  0  0  0  0  0
    5.7060   -4.4340   27.4975 C   0  0  0  0  0  0  0  0  0  0  0  0
    1.1818   -5.6612   28.8399 C   0  0  0  0  0  0  0  0  0  0  0  0
   -1.2067   -7.3287   17.7772 C   0  0  0  0  0  0  0  0  0  0  0  0
   -0.0206  -10.5585   16.6210 C   0  0  0  0  0  0  0  0  0  0  0  0
    0.3696  -12.7626   16.2169 O   0  0  0  0  0  0  0  0  0  0  0  0
   -0.6895   -9.5676   17.3297 C   0  0  0  0  0  0  0  0  0  0  0  0
    0.8388   -5.8417   27.5264 C   0  0  0  0  0  0  0  0  0  0  0  0
   -2.0709   -7.6637   18.7817 C   0  0  0  0  0  0  0  0  0  0  0  0
   -0.5279   -8.2168   17.0717 C   0  0  0  0  0  0  0  0  0  0  0  0
    6.9694   -4.0191   27.8190 C   0  0  0  0  0  0  0  0  0  0  0  0
    5.1733   -4.5469   29.8123 C   0  0  0  0  0  0  0  0  0  0  0  0
   -1.7508  -11.3016   18.6072 C   0  0  0  0  0  0  0  0  0  0  0  0
    1.7497   -5.6771   26.4971 C   0  0  0  0  0  0  0  0  0  0  0  0
   -1.5799   -9.9322   18.3468 C   0  0  0  0  0  0  0  0  0  0  0  0
   -1.0871  -12.2214   17.8851 C   0  0  0  0  0  0  0  0  0  0  0  0
   -2.2706   -8.9669   19.0691 C   0  0  0  0  0  0  0  0  0  0  0  0
    3.0279   -5.3073   26.8197 C   0  0  0  0  0  0  0  0  0  0  0  0
    7.3282   -3.8948   29.1186 C   0  0  0  0  0  0  0  0  0  0  0  0
  1  3  4  0
  1  7  4  0
  2  3  1  0
  2  6  4  0
  2 16  4  0
  3 22  4  0
  4  9  4  0
  4 10  1  0
  4 20  4  0
  5 16  4  0
  5 23  4  0
  6 15  4  0
  7 12  4  0
  8 13  4  0
  8 14  4  0
  9 11  4  0
 11 14  4  0
 11 19  4  0
 12 18  4  0
 13 21  4  0
 15 23  4  0
 17 19  4  0
 17 20  4  0
 18 22  4  0
 19 21  4  0
M  END
$$$$

 Created by Python create_sdf_string function

 23 25  0  0  0  0  0  0  0  0999 V2000
    2.4610   -5.3070   29.1240 C   0  0  0  0  0  0  0  0  0  0  0  0
    4.7710   -4.6952   28.4803 C   0  0  0  0  0  0  0  0  0  0  0  0
    3.4047   -5.1087   28.1314 C   0  0  0  0  0  0  0  0  0  0  0  0
   -0.2234  -11.8615   16.8874 C   0  0  0  0  0  0  0  0  0  0  0  0
    6.4491   -4.1532   30.1213 C   0  0  0  0  0  0  0  0  0  0  0  0
    5.7060   -4.4340   27.4975 C   0  0  0  0  0  0  0  0  0  0  0  0
    1.1818   -5.6612   28.8399 C   0  0  0  0  0  0  0  0  0  0  0  0
   -1.2067   -7.3287   17.7772 C   0  0  0  0  0  0  0  0  0  0  0  0
   -0.0206  -10.5585   16.6210 C   0  0  0  0  0  0  0  0  0  0  0  0
    0.3696  -12.7626   16.2169 O   0  0  0  0  0  0  0  0  0  0  0  0
   -0.6895   -9.5676   17.3297 C   0  0  0  0  0  0  0  0  0  0  0  0
    0.8388   -5.8417   27.5264 C   0  0  0  0  0  0  0  0  0  0  0  0
   -2.0709   -7.6637   18.7817 C   0  0  0  0  0  0  0  0  0  0  0  0
   -0.5279   -8.2168   17.0717 C   0  0  0  0  0  0  0  0  0  0  0  0
    6.9694   -4.0191   27.8190 C   0  0  0  0  0  0  0  0  0  0  0  0
    5.1733   -4.5469   29.8123 C   0  0  0  0  0  0  0  0  0  0  0  0
   -1.7508  -11.3016   18.6072 C   0  0  0  0  0  0  0  0  0  0  0  0
    1.7497   -5.6771   26.4971 C   0  0  0  0  0  0  0  0  0  0  0  0
   -1.5799   -9.9322   18.3468 C   0  0  0  0  0  0  0  0  0  0  0  0
   -1.0871  -12.2214   17.8851 C   0  0  0  0  0  0  0  0  0  0  0  0
   -2.2706   -8.9669   19.0691 C   0  0  0  0  0  0  0  0  0  0  0  0
    3.0279   -5.3073   26.8197 C   0  0  0  0  0  0  0  0  0  0  0  0
    7.3282   -3.8948   29.1186 C   0  0  0  0  0  0  0  0  0  0  0  0
  1  3  4  0
  1  7  4  0
  2  3  1  0
  2  6  4  0
  2 16  4  0
  3 22  4  0
  4  9  4  0
  4 10  1  0
  4 20  4  0
  5 16  4  0
  5 23  4  0
  6 15  4  0
  7 12  4  0
  8 13  4  0
  8 14  4  0
  9 11  4  0
 11 14  4  0
 11 19  4  0
 12 18  4  0
 13 21  4  0
 15 23  4  0
 17 19  4  0
 17 20  4  0
 18 22  4  0
 19 21  4  0
M  END
$$$$

 Created by Python create_sdf_string function

 23 25  0  0  0  0  0  0  0  0999 V2000
    2.4610   -5.3070   29.1240 C   0  0  0  0  0  0  0  0  0  0  0  0
    4.7710   -4.6952   28.4803 C   0  0  0  0  0  0  0  0  0  0  0  0
    3.4047   -5.1087   28.1314 C   0  0  0  0  0  0  0  0  0  0  0  0
   -0.2234  -11.8615   16.8874 C   0  0  0  0  0  0  0  0  0  0  0  0
    6.4491   -4.1532   30.1213 C   0  0  0  0  0  0  0  0  0  0  0  0
    5.7060   -4.4340   27.4975 C   0  0  0  0  0  0  0  0  0  0  0  0
    1.1818   -5.6612   28.8399 C   0  0  0  0  0  0  0  0  0  0  0  0
   -1.2067   -7.3287   17.7772 C   0  0  0  0  0  0  0  0  0  0  0  0
   -0.0206  -10.5585   16.6210 C   0  0  0  0  0  0  0  0  0  0  0  0
    0.3696  -12.7626   16.2169 O   0  0  0  0  0  0  0  0  0  0  0  0
   -0.6895   -9.5676   17.3297 C   0  0  0  0  0  0  0  0  0  0  0  0
    0.8388   -5.8417   27.5264 C   0  0  0  0  0  0  0  0  0  0  0  0
   -2.0709   -7.6637   18.7817 C   0  0  0  0  0  0  0  0  0  0  0  0
   -0.5279   -8.2168   17.0717 C   0  0  0  0  0  0  0  0  0  0  0  0
    6.9694   -4.0191   27.8190 C   0  0  0  0  0  0  0  0  0  0  0  0
    5.1733   -4.5469   29.8123 C   0  0  0  0  0  0  0  0  0  0  0  0
   -1.7508  -11.3016   18.6072 C   0  0  0  0  0  0  0  0  0  0  0  0
    1.7497   -5.6771   26.4971 C   0  0  0  0  0  0  0  0  0  0  0  0
   -1.5799   -9.9322   18.3468 C   0  0  0  0  0  0  0  0  0  0  0  0
   -1.0871  -12.2214   17.8851 C   0  0  0  0  0  0  0  0  0  0  0  0
   -2.2706   -8.9669   19.0691 C   0  0  0  0  0  0  0  0  0  0  0  0
    3.0279   -5.3073   26.8197 C   0  0  0  0  0  0  0  0  0  0  0  0
    7.3282   -3.8948   29.1186 C   0  0  0  0  0  0  0  0  0  0  0  0
  1  3  4  0
  1  7  4  0
  2  3  1  0
  2  6  4  0
  2 16  4  0
  3 22  4  0
  4  9  4  0
  4 10  1  0
  4 20  4  0
  5 16  4  0
  5 23  4  0
  6 15  4  0
  7 12  4  0
  8 13  4  0
  8 14  4  0
  9 11  4  0
 11 14  4  0
 11 19  4  0
 12 18  4  0
 13 21  4  0
 15 23  4  0
 17 19  4  0
 17 20  4  0
 18 22  4  0
 19 21  4  0
M  END
$$$$

 Created by Python create_sdf_string function

 23 25  0  0  0  0  0  0  0  0999 V2000
    2.4610   -5.3070   29.1240 C   0  0  0  0  0  0  0  0  0  0  0  0
    4.7710   -4.6952   28.4803 C   0  0  0  0  0  0  0  0  0  0  0  0
    3.4047   -5.1087   28.1314 C   0  0  0  0  0  0  0  0  0  0  0  0
   -0.2234  -11.8615   16.8874 C   0  0  0  0  0  0  0  0  0  0  0  0
    6.4491   -4.1532   30.1213 C   0  0  0  0  0  0  0  0  0  0  0  0
    5.7060   -4.4340   27.4975 C   0  0  0  0  0  0  0  0  0  0  0  0
    1.1818   -5.6612   28.8399 C   0  0  0  0  0  0  0  0  0  0  0  0
   -1.2067   -7.3287   17.7772 C   0  0  0  0  0  0  0  0  0  0  0  0
   -0.0206  -10.5585   16.6210 C   0  0  0  0  0  0  0  0  0  0  0  0
    0.3696  -12.7626   16.2169 O   0  0  0  0  0  0  0  0  0  0  0  0
   -0.6895   -9.5676   17.3297 C   0  0  0  0  0  0  0  0  0  0  0  0
    0.8388   -5.8417   27.5264 C   0  0  0  0  0  0  0  0  0  0  0  0
   -2.0709   -7.6637   18.7817 C   0  0  0  0  0  0  0  0  0  0  0  0
   -0.5279   -8.2168   17.0717 C   0  0  0  0  0  0  0  0  0  0  0  0
    6.9694   -4.0191   27.8190 C   0  0  0  0  0  0  0  0  0  0  0  0
    5.1733   -4.5469   29.8123 C   0  0  0  0  0  0  0  0  0  0  0  0
   -1.7508  -11.3016   18.6072 C   0  0  0  0  0  0  0  0  0  0  0  0
    1.7497   -5.6771   26.4971 C   0  0  0  0  0  0  0  0  0  0  0  0
   -1.5799   -9.9322   18.3468 C   0  0  0  0  0  0  0  0  0  0  0  0
   -1.0871  -12.2214   17.8851 C   0  0  0  0  0  0  0  0  0  0  0  0
   -2.2706   -8.9669   19.0691 C   0  0  0  0  0  0  0  0  0  0  0  0
    3.0279   -5.3073   26.8197 C   0  0  0  0  0  0  0  0  0  0  0  0
    7.3282   -3.8948   29.1186 C   0  0  0  0  0  0  0  0  0  0  0  0
  1  3  4  0
  1  7  4  0
  2  3  1  0
  2  6  4  0
  2 16  4  0
  3 22  4  0
  4  9  4  0
  4 10  1  0
  4 20  4  0
  5 16  4  0
  5 23  4  0
  6 15  4  0
  7 12  4  0
  8 13  4  0
  8 14  4  0
  9 11  4  0
 11 14  4  0
 11 19  4  0
 12 18  4  0
 13 21  4  0
 15 23  4  0
 17 19  4  0
 17 20  4  0
 18 22  4  0
 19 21  4  0
M  END
$$$$

 Created by Python create_sdf_string function

 23 25  0  0  0  0  0  0  0  0999 V2000
    2.4610   -5.3070   29.1240 C   0  0  0  0  0  0  0  0  0  0  0  0
    4.7710   -4.6952   28.4803 C   0  0  0  0  0  0  0  0  0  0  0  0
    3.4047   -5.1087   28.1314 C   0  0  0  0  0  0  0  0  0  0  0  0
   -0.2234  -11.8615   16.8874 C   0  0  0  0  0  0  0  0  0  0  0  0
    6.4491   -4.1532   30.1213 C   0  0  0  0  0  0  0  0  0  0  0  0
    5.7060   -4.4340   27.4975 C   0  0  0  0  0  0  0  0  0  0  0  0
    1.1818   -5.6612   28.8399 C   0  0  0  0  0  0  0  0  0  0  0  0
   -1.2067   -7.3287   17.7772 C   0  0  0  0  0  0  0  0  0  0  0  0
   -0.0206  -10.5585   16.6210 C   0  0  0  0  0  0  0  0  0  0  0  0
    0.3696  -12.7626   16.2169 O   0  0  0  0  0  0  0  0  0  0  0  0
   -0.6895   -9.5676   17.3297 C   0  0  0  0  0  0  0  0  0  0  0  0
    0.8388   -5.8417   27.5264 C   0  0  0  0  0  0  0  0  0  0  0  0
   -2.0709   -7.6637   18.7817 C   0  0  0  0  0  0  0  0  0  0  0  0
   -0.5279   -8.2168   17.0717 C   0  0  0  0  0  0  0  0  0  0  0  0
    6.9694   -4.0191   27.8190 C   0  0  0  0  0  0  0  0  0  0  0  0
    5.1733   -4.5469   29.8123 C   0  0  0  0  0  0  0  0  0  0  0  0
   -1.7508  -11.3016   18.6072 C   0  0  0  0  0  0  0  0  0  0  0  0
    1.7497   -5.6771   26.4971 C   0  0  0  0  0  0  0  0  0  0  0  0
   -1.5799   -9.9322   18.3468 C   0  0  0  0  0  0  0  0  0  0  0  0
   -1.0871  -12.2214   17.8851 C   0  0  0  0  0  0  0  0  0  0  0  0
   -2.2706   -8.9669   19.0691 C   0  0  0  0  0  0  0  0  0  0  0  0
    3.0279   -5.3073   26.8197 C   0  0  0  0  0  0  0  0  0  0  0  0
    7.3282   -3.8948   29.1186 C   0  0  0  0  0  0  0  0  0  0  0  0
  1  3  4  0
  1  7  4  0
  2  3  1  0
  2  6  4  0
  2 16  4  0
  3 22  4  0
  4  9  4  0
  4 10  1  0
  4 20  4  0
  5 16  4  0
  5 23  4  0
  6 15  4  0
  7 12  4  0
  8 13  4  0
  8 14  4  0
  9 11  4  0
 11 14  4  0
 11 19  4  0
 12 18  4  0
 13 21  4  0
 15 23  4  0
 17 19  4  0
 17 20  4  0
 18 22  4  0
 19 21  4  0
M  END
$$$$

 Created by Python create_sdf_string function

 23 25  0  0  0  0  0  0  0  0999 V2000
    2.4610   -5.3070   29.1240 C   0  0  0  0  0  0  0  0  0  0  0  0
    4.7710   -4.6952   28.4803 C   0  0  0  0  0  0  0  0  0  0  0  0
    3.4047   -5.1087   28.1314 C   0  0  0  0  0  0  0  0  0  0  0  0
   -0.2234  -11.8615   16.8874 C   0  0  0  0  0  0  0  0  0  0  0  0
    6.4491   -4.1532   30.1213 C   0  0  0  0  0  0  0  0  0  0  0  0
    5.7060   -4.4340   27.4975 C   0  0  0  0  0  0  0  0  0  0  0  0
    1.1818   -5.6612   28.8399 C   0  0  0  0  0  0  0  0  0  0  0  0
   -1.2067   -7.3287   17.7772 C   0  0  0  0  0  0  0  0  0  0  0  0
   -0.0206  -10.5585   16.6210 C   0  0  0  0  0  0  0  0  0  0  0  0
    0.3696  -12.7626   16.2169 O   0  0  0  0  0  0  0  0  0  0  0  0
   -0.6895   -9.5676   17.3297 C   0  0  0  0  0  0  0  0  0  0  0  0
    0.8388   -5.8417   27.5264 C   0  0  0  0  0  0  0  0  0  0  0  0
   -2.0709   -7.6637   18.7817 C   0  0  0  0  0  0  0  0  0  0  0  0
   -0.5279   -8.2168   17.0717 C   0  0  0  0  0  0  0  0  0  0  0  0
    6.9694   -4.0191   27.8190 C   0  0  0  0  0  0  0  0  0  0  0  0
    5.1733   -4.5469   29.8123 C   0  0  0  0  0  0  0  0  0  0  0  0
   -1.7508  -11.3016   18.6072 C   0  0  0  0  0  0  0  0  0  0  0  0
    1.7497   -5.6771   26.4971 C   0  0  0  0  0  0  0  0  0  0  0  0
   -1.5799   -9.9322   18.3468 C   0  0  0  0  0  0  0  0  0  0  0  0
   -1.0871  -12.2214   17.8851 C   0  0  0  0  0  0  0  0  0  0  0  0
   -2.2706   -8.9669   19.0691 C   0  0  0  0  0  0  0  0  0  0  0  0
    3.0279   -5.3073   26.8197 C   0  0  0  0  0  0  0  0  0  0  0  0
    7.3282   -3.8948   29.1186 C   0  0  0  0  0  0  0  0  0  0  0  0
  1  3  4  0
  1  7  4  0
  2  3  1  0
  2  6  4  0
  2 16  4  0
  3 22  4  0
  4  9  4  0
  4 10  1  0
  4 20  4  0
  5 16  4  0
  5 23  4  0
  6 15  4  0
  7 12  4  0
  8 13  4  0
  8 14  4  0
  9 11  4  0
 11 14  4  0
 11 19  4  0
 12 18  4  0
 13 21  4  0
 15 23  4  0
 17 19  4  0
 17 20  4  0
 18 22  4  0
 19 21  4  0
M  END
$$$$

 Created by Python create_sdf_string function

 23 25  0  0  0  0  0  0  0  0999 V2000
    2.4610   -5.3070   29.1240 C   0  0  0  0  0  0  0  0  0  0  0  0
    4.7710   -4.6952   28.4803 C   0  0  0  0  0  0  0  0  0  0  0  0
    3.4047   -5.1087   28.1314 C   0  0  0  0  0  0  0  0  0  0  0  0
   -0.2234  -11.8615   16.8874 C   0  0  0  0  0  0  0  0  0  0  0  0
    6.4491   -4.1532   30.1213 C   0  0  0  0  0  0  0  0  0  0  0  0
    5.7060   -4.4340   27.4975 C   0  0  0  0  0  0  0  0  0  0  0  0
    1.1818   -5.6612   28.8399 C   0  0  0  0  0  0  0  0  0  0  0  0
   -1.2067   -7.3287   17.7772 C   0  0  0  0  0  0  0  0  0  0  0  0
   -0.0206  -10.5585   16.6210 C   0  0  0  0  0  0  0  0  0  0  0  0
    0.3696  -12.7626   16.2169 O   0  0  0  0  0  0  0  0  0  0  0  0
   -0.6895   -9.5676   17.3297 C   0  0  0  0  0  0  0  0  0  0  0  0
    0.8388   -5.8417   27.5264 C   0  0  0  0  0  0  0  0  0  0  0  0
   -2.0709   -7.6637   18.7817 C   0  0  0  0  0  0  0  0  0  0  0  0
   -0.5279   -8.2168   17.0717 C   0  0  0  0  0  0  0  0  0  0  0  0
    6.9694   -4.0191   27.8190 C   0  0  0  0  0  0  0  0  0  0  0  0
    5.1733   -4.5469   29.8123 C   0  0  0  0  0  0  0  0  0  0  0  0
   -1.7508  -11.3016   18.6072 C   0  0  0  0  0  0  0  0  0  0  0  0
    1.7497   -5.6771   26.4971 C   0  0  0  0  0  0  0  0  0  0  0  0
   -1.5799   -9.9322   18.3468 C   0  0  0  0  0  0  0  0  0  0  0  0
   -1.0871  -12.2214   17.8851 C   0  0  0  0  0  0  0  0  0  0  0  0
   -2.2706   -8.9669   19.0691 C   0  0  0  0  0  0  0  0  0  0  0  0
    3.0279   -5.3073   26.8197 C   0  0  0  0  0  0  0  0  0  0  0  0
    7.3282   -3.8948   29.1186 C   0  0  0  0  0  0  0  0  0  0  0  0
  1  3  4  0
  1  7  4  0
  2  3  1  0
  2  6  4  0
  2 16  4  0
  3 22  4  0
  4  9  4  0
  4 10  1  0
  4 20  4  0
  5 16  4  0
  5 23  4  0
  6 15  4  0
  7 12  4  0
  8 13  4  0
  8 14  4  0
  9 11  4  0
 11 14  4  0
 11 19  4  0
 12 18  4  0
 13 21  4  0
 15 23  4  0
 17 19  4  0
 17 20  4  0
 18 22  4  0
 19 21  4  0
M  END
$$$$

 Created by Python create_sdf_string function

 23 25  0  0  0  0  0  0  0  0999 V2000
    2.4610   -5.3070   29.1240 C   0  0  0  0  0  0  0  0  0  0  0  0
    4.7710   -4.6952   28.4803 C   0  0  0  0  0  0  0  0  0  0  0  0
    3.4047   -5.1087   28.1314 C   0  0  0  0  0  0  0  0  0  0  0  0
   -0.2234  -11.8615   16.8874 C   0  0  0  0  0  0  0  0  0  0  0  0
    6.4491   -4.1532   30.1213 C   0  0  0  0  0  0  0  0  0  0  0  0
    5.7060   -4.4340   27.4975 C   0  0  0  0  0  0  0  0  0  0  0  0
    1.1818   -5.6612   28.8399 C   0  0  0  0  0  0  0  0  0  0  0  0
   -1.2067   -7.3287   17.7772 C   0  0  0  0  0  0  0  0  0  0  0  0
   -0.0206  -10.5585   16.6210 C   0  0  0  0  0  0  0  0  0  0  0  0
    0.3696  -12.7626   16.2169 O   0  0  0  0  0  0  0  0  0  0  0  0
   -0.6895   -9.5676   17.3297 C   0  0  0  0  0  0  0  0  0  0  0  0
    0.8388   -5.8417   27.5264 C   0  0  0  0  0  0  0  0  0  0  0  0
   -2.0709   -7.6637   18.7817 C   0  0  0  0  0  0  0  0  0  0  0  0
   -0.5279   -8.2168   17.0717 C   0  0  0  0  0  0  0  0  0  0  0  0
    6.9694   -4.0191   27.8190 C   0  0  0  0  0  0  0  0  0  0  0  0
    5.1733   -4.5469   29.8123 C   0  0  0  0  0  0  0  0  0  0  0  0
   -1.7508  -11.3016   18.6072 C   0  0  0  0  0  0  0  0  0  0  0  0
    1.7497   -5.6771   26.4971 C   0  0  0  0  0  0  0  0  0  0  0  0
   -1.5799   -9.9322   18.3468 C   0  0  0  0  0  0  0  0  0  0  0  0
   -1.0871  -12.2214   17.8851 C   0  0  0  0  0  0  0  0  0  0  0  0
   -2.2706   -8.9669   19.0691 C   0  0  0  0  0  0  0  0  0  0  0  0
    3.0279   -5.3073   26.8197 C   0  0  0  0  0  0  0  0  0  0  0  0
    7.3282   -3.8948   29.1186 C   0  0  0  0  0  0  0  0  0  0  0  0
  1  3  4  0
  1  7  4  0
  2  3  1  0
  2  6  4  0
  2 16  4  0
  3 22  4  0
  4  9  4  0
  4 10  1  0
  4 20  4  0
  5 16  4  0
  5 23  4  0
  6 15  4  0
  7 12  4  0
  8 13  4  0
  8 14  4  0
  9 11  4  0
 11 14  4  0
 11 19  4  0
 12 18  4  0
 13 21  4  0
 15 23  4  0
 17 19  4  0
 17 20  4  0
 18 22  4  0
 19 21  4  0
M  END
$$$$

 Created by Python create_sdf_string function

 23 25  0  0  0  0  0  0  0  0999 V2000
    2.4610   -5.3070   29.1240 C   0  0  0  0  0  0  0  0  0  0  0  0
    4.7710   -4.6952   28.4803 C   0  0  0  0  0  0  0  0  0  0  0  0
    3.4047   -5.1087   28.1314 C   0  0  0  0  0  0  0  0  0  0  0  0
   -0.2234  -11.8615   16.8874 C   0  0  0  0  0  0  0  0  0  0  0  0
    6.4491   -4.1532   30.1213 C   0  0  0  0  0  0  0  0  0  0  0  0
    5.7060   -4.4340   27.4975 C   0  0  0  0  0  0  0  0  0  0  0  0
    1.1818   -5.6612   28.8399 C   0  0  0  0  0  0  0  0  0  0  0  0
   -1.2067   -7.3287   17.7772 C   0  0  0  0  0  0  0  0  0  0  0  0
   -0.0206  -10.5585   16.6210 C   0  0  0  0  0  0  0  0  0  0  0  0
    0.3696  -12.7626   16.2169 O   0  0  0  0  0  0  0  0  0  0  0  0
   -0.6895   -9.5676   17.3297 C   0  0  0  0  0  0  0  0  0  0  0  0
    0.8388   -5.8417   27.5264 C   0  0  0  0  0  0  0  0  0  0  0  0
   -2.0709   -7.6637   18.7817 C   0  0  0  0  0  0  0  0  0  0  0  0
   -0.5279   -8.2168   17.0717 C   0  0  0  0  0  0  0  0  0  0  0  0
    6.9694   -4.0191   27.8190 C   0  0  0  0  0  0  0  0  0  0  0  0
    5.1733   -4.5469   29.8123 C   0  0  0  0  0  0  0  0  0  0  0  0
   -1.7508  -11.3016   18.6072 C   0  0  0  0  0  0  0  0  0  0  0  0
    1.7497   -5.6771   26.4971 C   0  0  0  0  0  0  0  0  0  0  0  0
   -1.5799   -9.9322   18.3468 C   0  0  0  0  0  0  0  0  0  0  0  0
   -1.0871  -12.2214   17.8851 C   0  0  0  0  0  0  0  0  0  0  0  0
   -2.2706   -8.9669   19.0691 C   0  0  0  0  0  0  0  0  0  0  0  0
    3.0279   -5.3073   26.8197 C   0  0  0  0  0  0  0  0  0  0  0  0
    7.3282   -3.8948   29.1186 C   0  0  0  0  0  0  0  0  0  0  0  0
  1  3  4  0
  1  7  4  0
  2  3  1  0
  2  6  4  0
  2 16  4  0
  3 22  4  0
  4  9  4  0
  4 10  1  0
  4 20  4  0
  5 16  4  0
  5 23  4  0
  6 15  4  0
  7 12  4  0
  8 13  4  0
  8 14  4  0
  9 11  4  0
 11 14  4  0
 11 19  4  0
 12 18  4  0
 13 21  4  0
 15 23  4  0
 17 19  4  0
 17 20  4  0
 18 22  4  0
 19 21  4  0
M  END
$$$$

 Created by Python create_sdf_string function

 23 25  0  0  0  0  0  0  0  0999 V2000
    2.4610   -5.3070   29.1240 C   0  0  0  0  0  0  0  0  0  0  0  0
    4.7710   -4.6952   28.4803 C   0  0  0  0  0  0  0  0  0  0  0  0
    3.4047   -5.1087   28.1314 C   0  0  0  0  0  0  0  0  0  0  0  0
   -0.2234  -11.8615   16.8874 C   0  0  0  0  0  0  0  0  0  0  0  0
    6.4491   -4.1532   30.1213 C   0  0  0  0  0  0  0  0  0  0  0  0
    5.7060   -4.4340   27.4975 C   0  0  0  0  0  0  0  0  0  0  0  0
    1.1818   -5.6612   28.8399 C   0  0  0  0  0  0  0  0  0  0  0  0
   -1.2067   -7.3287   17.7772 C   0  0  0  0  0  0  0  0  0  0  0  0
   -0.0206  -10.5585   16.6210 C   0  0  0  0  0  0  0  0  0  0  0  0
    0.3696  -12.7626   16.2169 O   0  0  0  0  0  0  0  0  0  0  0  0
   -0.6895   -9.5676   17.3297 C   0  0  0  0  0  0  0  0  0  0  0  0
    0.8388   -5.8417   27.5264 C   0  0  0  0  0  0  0  0  0  0  0  0
   -2.0709   -7.6637   18.7817 C   0  0  0  0  0  0  0  0  0  0  0  0
   -0.5279   -8.2168   17.0717 C   0  0  0  0  0  0  0  0  0  0  0  0
    6.9694   -4.0191   27.8190 C   0  0  0  0  0  0  0  0  0  0  0  0
    5.1733   -4.5469   29.8123 C   0  0  0  0  0  0  0  0  0  0  0  0
   -1.7508  -11.3016   18.6072 C   0  0  0  0  0  0  0  0  0  0  0  0
    1.7497   -5.6771   26.4971 C   0  0  0  0  0  0  0  0  0  0  0  0
   -1.5799   -9.9322   18.3468 C   0  0  0  0  0  0  0  0  0  0  0  0
   -1.0871  -12.2214   17.8851 C   0  0  0  0  0  0  0  0  0  0  0  0
   -2.2706   -8.9669   19.0691 C   0  0  0  0  0  0  0  0  0  0  0  0
    3.0279   -5.3073   26.8197 C   0  0  0  0  0  0  0  0  0  0  0  0
    7.3282   -3.8948   29.1186 C   0  0  0  0  0  0  0  0  0  0  0  0
  1  3  4  0
  1  7  4  0
  2  3  1  0
  2  6  4  0
  2 16  4  0
  3 22  4  0
  4  9  4  0
  4 10  1  0
  4 20  4  0
  5 16  4  0
  5 23  4  0
  6 15  4  0
  7 12  4  0
  8 13  4  0
  8 14  4  0
  9 11  4  0
 11 14  4  0
 11 19  4  0
 12 18  4  0
 13 21  4  0
 15 23  4  0
 17 19  4  0
 17 20  4  0
 18 22  4  0
 19 21  4  0
M  END
$$$$

 Created by Python create_sdf_string function

 23 25  0  0  0  0  0  0  0  0999 V2000
    2.4610   -5.3070   29.1240 C   0  0  0  0  0  0  0  0  0  0  0  0
    4.7710   -4.6952   28.4803 C   0  0  0  0  0  0  0  0  0  0  0  0
    3.4047   -5.1087   28.1314 C   0  0  0  0  0  0  0  0  0  0  0  0
   -0.2234  -11.8615   16.8874 C   0  0  0  0  0  0  0  0  0  0  0  0
    6.4491   -4.1532   30.1213 C   0  0  0  0  0  0  0  0  0  0  0  0
    5.7060   -4.4340   27.4975 C   0  0  0  0  0  0  0  0  0  0  0  0
    1.1818   -5.6612   28.8399 C   0  0  0  0  0  0  0  0  0  0  0  0
   -1.2067   -7.3287   17.7772 C   0  0  0  0  0  0  0  0  0  0  0  0
   -0.0206  -10.5585   16.6210 C   0  0  0  0  0  0  0  0  0  0  0  0
    0.3696  -12.7626   16.2169 O   0  0  0  0  0  0  0  0  0  0  0  0
   -0.6895   -9.5676   17.3297 C   0  0  0  0  0  0  0  0  0  0  0  0
    0.8388   -5.8417   27.5264 C   0  0  0  0  0  0  0  0  0  0  0  0
   -2.0709   -7.6637   18.7817 C   0  0  0  0  0  0  0  0  0  0  0  0
   -0.5279   -8.2168   17.0717 C   0  0  0  0  0  0  0  0  0  0  0  0
    6.9694   -4.0191   27.8190 C   0  0  0  0  0  0  0  0  0  0  0  0
    5.1733   -4.5469   29.8123 C   0  0  0  0  0  0  0  0  0  0  0  0
   -1.7508  -11.3016   18.6072 C   0  0  0  0  0  0  0  0  0  0  0  0
    1.7497   -5.6771   26.4971 C   0  0  0  0  0  0  0  0  0  0  0  0
   -1.5799   -9.9322   18.3468 C   0  0  0  0  0  0  0  0  0  0  0  0
   -1.0871  -12.2214   17.8851 C   0  0  0  0  0  0  0  0  0  0  0  0
   -2.2706   -8.9669   19.0691 C   0  0  0  0  0  0  0  0  0  0  0  0
    3.0279   -5.3073   26.8197 C   0  0  0  0  0  0  0  0  0  0  0  0
    7.3282   -3.8948   29.1186 C   0  0  0  0  0  0  0  0  0  0  0  0
  1  3  4  0
  1  7  4  0
  2  3  1  0
  2  6  4  0
  2 16  4  0
  3 22  4  0
  4  9  4  0
  4 10  1  0
  4 20  4  0
  5 16  4  0
  5 23  4  0
  6 15  4  0
  7 12  4  0
  8 13  4  0
  8 14  4  0
  9 11  4  0
 11 14  4  0
 11 19  4  0
 12 18  4  0
 13 21  4  0
 15 23  4  0
 17 19  4  0
 17 20  4  0
 18 22  4  0
 19 21  4  0
M  END
$$$$

 Created by Python create_sdf_string function

 23 25  0  0  0  0  0  0  0  0999 V2000
    2.4610   -5.3070   29.1240 C   0  0  0  0  0  0  0  0  0  0  0  0
    4.7710   -4.6952   28.4803 C   0  0  0  0  0  0  0  0  0  0  0  0
    3.4047   -5.1087   28.1314 C   0  0  0  0  0  0  0  0  0  0  0  0
   -0.2234  -11.8615   16.8874 C   0  0  0  0  0  0  0  0  0  0  0  0
    6.4491   -4.1532   30.1213 C   0  0  0  0  0  0  0  0  0  0  0  0
    5.7060   -4.4340   27.4975 C   0  0  0  0  0  0  0  0  0  0  0  0
    1.1818   -5.6612   28.8399 C   0  0  0  0  0  0  0  0  0  0  0  0
   -1.2067   -7.3287   17.7772 C   0  0  0  0  0  0  0  0  0  0  0  0
   -0.0206  -10.5585   16.6210 C   0  0  0  0  0  0  0  0  0  0  0  0
    0.3696  -12.7626   16.2169 O   0  0  0  0  0  0  0  0  0  0  0  0
   -0.6895   -9.5676   17.3297 C   0  0  0  0  0  0  0  0  0  0  0  0
    0.8388   -5.8417   27.5264 C   0  0  0  0  0  0  0  0  0  0  0  0
   -2.0709   -7.6637   18.7817 C   0  0  0  0  0  0  0  0  0  0  0  0
   -0.5279   -8.2168   17.0717 C   0  0  0  0  0  0  0  0  0  0  0  0
    6.9694   -4.0191   27.8190 C   0  0  0  0  0  0  0  0  0  0  0  0
    5.1733   -4.5469   29.8123 C   0  0  0  0  0  0  0  0  0  0  0  0
   -1.7508  -11.3016   18.6072 C   0  0  0  0  0  0  0  0  0  0  0  0
    1.7497   -5.6771   26.4971 C   0  0  0  0  0  0  0  0  0  0  0  0
   -1.5799   -9.9322   18.3468 C   0  0  0  0  0  0  0  0  0  0  0  0
   -1.0871  -12.2214   17.8851 C   0  0  0  0  0  0  0  0  0  0  0  0
   -2.2706   -8.9669   19.0691 C   0  0  0  0  0  0  0  0  0  0  0  0
    3.0279   -5.3073   26.8197 C   0  0  0  0  0  0  0  0  0  0  0  0
    7.3282   -3.8948   29.1186 C   0  0  0  0  0  0  0  0  0  0  0  0
  1  3  4  0
  1  7  4  0
  2  3  1  0
  2  6  4  0
  2 16  4  0
  3 22  4  0
  4  9  4  0
  4 10  1  0
  4 20  4  0
  5 16  4  0
  5 23  4  0
  6 15  4  0
  7 12  4  0
  8 13  4  0
  8 14  4  0
  9 11  4  0
 11 14  4  0
 11 19  4  0
 12 18  4  0
 13 21  4  0
 15 23  4  0
 17 19  4  0
 17 20  4  0
 18 22  4  0
 19 21  4  0
M  END
$$$$

 Created by Python create_sdf_string function

 23 25  0  0  0  0  0  0  0  0999 V2000
    2.4610   -5.3070   29.1240 C   0  0  0  0  0  0  0  0  0  0  0  0
    4.7710   -4.6952   28.4803 C   0  0  0  0  0  0  0  0  0  0  0  0
    3.4047   -5.1087   28.1314 C   0  0  0  0  0  0  0  0  0  0  0  0
   -0.2234  -11.8615   16.8874 C   0  0  0  0  0  0  0  0  0  0  0  0
    6.4491   -4.1532   30.1213 C   0  0  0  0  0  0  0  0  0  0  0  0
    5.7060   -4.4340   27.4975 C   0  0  0  0  0  0  0  0  0  0  0  0
    1.1818   -5.6612   28.8399 C   0  0  0  0  0  0  0  0  0  0  0  0
   -1.2067   -7.3287   17.7772 C   0  0  0  0  0  0  0  0  0  0  0  0
   -0.0206  -10.5585   16.6210 C   0  0  0  0  0  0  0  0  0  0  0  0
    0.3696  -12.7626   16.2169 O   0  0  0  0  0  0  0  0  0  0  0  0
   -0.6895   -9.5676   17.3297 C   0  0  0  0  0  0  0  0  0  0  0  0
    0.8388   -5.8417   27.5264 C   0  0  0  0  0  0  0  0  0  0  0  0
   -2.0709   -7.6637   18.7817 C   0  0  0  0  0  0  0  0  0  0  0  0
   -0.5279   -8.2168   17.0717 C   0  0  0  0  0  0  0  0  0  0  0  0
    6.9694   -4.0191   27.8190 C   0  0  0  0  0  0  0  0  0  0  0  0
    5.1733   -4.5469   29.8123 C   0  0  0  0  0  0  0  0  0  0  0  0
   -1.7508  -11.3016   18.6072 C   0  0  0  0  0  0  0  0  0  0  0  0
    1.7497   -5.6771   26.4971 C   0  0  0  0  0  0  0  0  0  0  0  0
   -1.5799   -9.9322   18.3468 C   0  0  0  0  0  0  0  0  0  0  0  0
   -1.0871  -12.2214   17.8851 C   0  0  0  0  0  0  0  0  0  0  0  0
   -2.2706   -8.9669   19.0691 C   0  0  0  0  0  0  0  0  0  0  0  0
    3.0279   -5.3073   26.8197 C   0  0  0  0  0  0  0  0  0  0  0  0
    7.3282   -3.8948   29.1186 C   0  0  0  0  0  0  0  0  0  0  0  0
  1  3  4  0
  1  7  4  0
  2  3  1  0
  2  6  4  0
  2 16  4  0
  3 22  4  0
  4  9  4  0
  4 10  1  0
  4 20  4  0
  5 16  4  0
  5 23  4  0
  6 15  4  0
  7 12  4  0
  8 13  4  0
  8 14  4  0
  9 11  4  0
 11 14  4  0
 11 19  4  0
 12 18  4  0
 13 21  4  0
 15 23  4  0
 17 19  4  0
 17 20  4  0
 18 22  4  0
 19 21  4  0
M  END
$$$$

 Created by Python create_sdf_string function

 23 25  0  0  0  0  0  0  0  0999 V2000
    2.4610   -5.3070   29.1240 C   0  0  0  0  0  0  0  0  0  0  0  0
    4.7710   -4.6952   28.4803 C   0  0  0  0  0  0  0  0  0  0  0  0
    3.4047   -5.1087   28.1314 C   0  0  0  0  0  0  0  0  0  0  0  0
   -0.2234  -11.8615   16.8874 C   0  0  0  0  0  0  0  0  0  0  0  0
    6.4491   -4.1532   30.1213 C   0  0  0  0  0  0  0  0  0  0  0  0
    5.7060   -4.4340   27.4975 C   0  0  0  0  0  0  0  0  0  0  0  0
    1.1818   -5.6612   28.8399 C   0  0  0  0  0  0  0  0  0  0  0  0
   -1.2067   -7.3287   17.7772 C   0  0  0  0  0  0  0  0  0  0  0  0
   -0.0206  -10.5585   16.6210 C   0  0  0  0  0  0  0  0  0  0  0  0
    0.3696  -12.7626   16.2169 O   0  0  0  0  0  0  0  0  0  0  0  0
   -0.6895   -9.5676   17.3297 C   0  0  0  0  0  0  0  0  0  0  0  0
    0.8388   -5.8417   27.5264 C   0  0  0  0  0  0  0  0  0  0  0  0
   -2.0709   -7.6637   18.7817 C   0  0  0  0  0  0  0  0  0  0  0  0
   -0.5279   -8.2168   17.0717 C   0  0  0  0  0  0  0  0  0  0  0  0
    6.9694   -4.0191   27.8190 C   0  0  0  0  0  0  0  0  0  0  0  0
    5.1733   -4.5469   29.8123 C   0  0  0  0  0  0  0  0  0  0  0  0
   -1.7508  -11.3016   18.6072 C   0  0  0  0  0  0  0  0  0  0  0  0
    1.7497   -5.6771   26.4971 C   0  0  0  0  0  0  0  0  0  0  0  0
   -1.5799   -9.9322   18.3468 C   0  0  0  0  0  0  0  0  0  0  0  0
   -1.0871  -12.2214   17.8851 C   0  0  0  0  0  0  0  0  0  0  0  0
   -2.2706   -8.9669   19.0691 C   0  0  0  0  0  0  0  0  0  0  0  0
    3.0279   -5.3073   26.8197 C   0  0  0  0  0  0  0  0  0  0  0  0
    7.3282   -3.8948   29.1186 C   0  0  0  0  0  0  0  0  0  0  0  0
  1  3  4  0
  1  7  4  0
  2  3  1  0
  2  6  4  0
  2 16  4  0
  3 22  4  0
  4  9  4  0
  4 10  1  0
  4 20  4  0
  5 16  4  0
  5 23  4  0
  6 15  4  0
  7 12  4  0
  8 13  4  0
  8 14  4  0
  9 11  4  0
 11 14  4  0
 11 19  4  0
 12 18  4  0
 13 21  4  0
 15 23  4  0
 17 19  4  0
 17 20  4  0
 18 22  4  0
 19 21  4  0
M  END
$$$$

 Created by Python create_sdf_string function

 23 25  0  0  0  0  0  0  0  0999 V2000
    2.4610   -5.3070   29.1240 C   0  0  0  0  0  0  0  0  0  0  0  0
    4.7710   -4.6952   28.4803 C   0  0  0  0  0  0  0  0  0  0  0  0
    3.4047   -5.1087   28.1314 C   0  0  0  0  0  0  0  0  0  0  0  0
   -0.2234  -11.8615   16.8874 C   0  0  0  0  0  0  0  0  0  0  0  0
    6.4491   -4.1532   30.1213 C   0  0  0  0  0  0  0  0  0  0  0  0
    5.7060   -4.4340   27.4975 C   0  0  0  0  0  0  0  0  0  0  0  0
    1.1818   -5.6612   28.8399 C   0  0  0  0  0  0  0  0  0  0  0  0
   -1.2067   -7.3287   17.7772 C   0  0  0  0  0  0  0  0  0  0  0  0
   -0.0206  -10.5585   16.6210 C   0  0  0  0  0  0  0  0  0  0  0  0
    0.3696  -12.7626   16.2169 O   0  0  0  0  0  0  0  0  0  0  0  0
   -0.6895   -9.5676   17.3297 C   0  0  0  0  0  0  0  0  0  0  0  0
    0.8388   -5.8417   27.5264 C   0  0  0  0  0  0  0  0  0  0  0  0
   -2.0709   -7.6637   18.7817 C   0  0  0  0  0  0  0  0  0  0  0  0
   -0.5279   -8.2168   17.0717 C   0  0  0  0  0  0  0  0  0  0  0  0
    6.9694   -4.0191   27.8190 C   0  0  0  0  0  0  0  0  0  0  0  0
    5.1733   -4.5469   29.8123 C   0  0  0  0  0  0  0  0  0  0  0  0
   -1.7508  -11.3016   18.6072 C   0  0  0  0  0  0  0  0  0  0  0  0
    1.7497   -5.6771   26.4971 C   0  0  0  0  0  0  0  0  0  0  0  0
   -1.5799   -9.9322   18.3468 C   0  0  0  0  0  0  0  0  0  0  0  0
   -1.0871  -12.2214   17.8851 C   0  0  0  0  0  0  0  0  0  0  0  0
   -2.2706   -8.9669   19.0691 C   0  0  0  0  0  0  0  0  0  0  0  0
    3.0279   -5.3073   26.8197 C   0  0  0  0  0  0  0  0  0  0  0  0
    7.3282   -3.8948   29.1186 C   0  0  0  0  0  0  0  0  0  0  0  0
  1  3  4  0
  1  7  4  0
  2  3  1  0
  2  6  4  0
  2 16  4  0
  3 22  4  0
  4  9  4  0
  4 10  1  0
  4 20  4  0
  5 16  4  0
  5 23  4  0
  6 15  4  0
  7 12  4  0
  8 13  4  0
  8 14  4  0
  9 11  4  0
 11 14  4  0
 11 19  4  0
 12 18  4  0
 13 21  4  0
 15 23  4  0
 17 19  4  0
 17 20  4  0
 18 22  4  0
 19 21  4  0
M  END
$$$$

 Created by Python create_sdf_string function

 23 25  0  0  0  0  0  0  0  0999 V2000
    2.4610   -5.3070   29.1240 C   0  0  0  0  0  0  0  0  0  0  0  0
    4.7710   -4.6952   28.4803 C   0  0  0  0  0  0  0  0  0  0  0  0
    3.4047   -5.1087   28.1314 C   0  0  0  0  0  0  0  0  0  0  0  0
   -0.2234  -11.8615   16.8874 C   0  0  0  0  0  0  0  0  0  0  0  0
    6.4491   -4.1532   30.1213 C   0  0  0  0  0  0  0  0  0  0  0  0
    5.7060   -4.4340   27.4975 C   0  0  0  0  0  0  0  0  0  0  0  0
    1.1818   -5.6612   28.8399 C   0  0  0  0  0  0  0  0  0  0  0  0
   -1.2067   -7.3287   17.7772 C   0  0  0  0  0  0  0  0  0  0  0  0
   -0.0206  -10.5585   16.6210 C   0  0  0  0  0  0  0  0  0  0  0  0
    0.3696  -12.7626   16.2169 O   0  0  0  0  0  0  0  0  0  0  0  0
   -0.6895   -9.5676   17.3297 C   0  0  0  0  0  0  0  0  0  0  0  0
    0.8388   -5.8417   27.5264 C   0  0  0  0  0  0  0  0  0  0  0  0
   -2.0709   -7.6637   18.7817 C   0  0  0  0  0  0  0  0  0  0  0  0
   -0.5279   -8.2168   17.0717 C   0  0  0  0  0  0  0  0  0  0  0  0
    6.9694   -4.0191   27.8190 C   0  0  0  0  0  0  0  0  0  0  0  0
    5.1733   -4.5469   29.8123 C   0  0  0  0  0  0  0  0  0  0  0  0
   -1.7508  -11.3016   18.6072 C   0  0  0  0  0  0  0  0  0  0  0  0
    1.7497   -5.6771   26.4971 C   0  0  0  0  0  0  0  0  0  0  0  0
   -1.5799   -9.9322   18.3468 C   0  0  0  0  0  0  0  0  0  0  0  0
   -1.0871  -12.2214   17.8851 C   0  0  0  0  0  0  0  0  0  0  0  0
   -2.2706   -8.9669   19.0691 C   0  0  0  0  0  0  0  0  0  0  0  0
    3.0279   -5.3073   26.8197 C   0  0  0  0  0  0  0  0  0  0  0  0
    7.3282   -3.8948   29.1186 C   0  0  0  0  0  0  0  0  0  0  0  0
  1  3  4  0
  1  7  4  0
  2  3  1  0
  2  6  4  0
  2 16  4  0
  3 22  4  0
  4  9  4  0
  4 10  1  0
  4 20  4  0
  5 16  4  0
  5 23  4  0
  6 15  4  0
  7 12  4  0
  8 13  4  0
  8 14  4  0
  9 11  4  0
 11 14  4  0
 11 19  4  0
 12 18  4  0
 13 21  4  0
 15 23  4  0
 17 19  4  0
 17 20  4  0
 18 22  4  0
 19 21  4  0
M  END
$$$$

 Created by Python create_sdf_string function

 23 25  0  0  0  0  0  0  0  0999 V2000
    2.4610   -5.3070   29.1240 C   0  0  0  0  0  0  0  0  0  0  0  0
    4.7710   -4.6952   28.4803 C   0  0  0  0  0  0  0  0  0  0  0  0
    3.4047   -5.1087   28.1314 C   0  0  0  0  0  0  0  0  0  0  0  0
   -0.2234  -11.8615   16.8874 C   0  0  0  0  0  0  0  0  0  0  0  0
    6.4491   -4.1532   30.1213 C   0  0  0  0  0  0  0  0  0  0  0  0
    5.7060   -4.4340   27.4975 C   0  0  0  0  0  0  0  0  0  0  0  0
    1.1818   -5.6612   28.8399 C   0  0  0  0  0  0  0  0  0  0  0  0
   -1.2067   -7.3287   17.7772 C   0  0  0  0  0  0  0  0  0  0  0  0
   -0.0206  -10.5585   16.6210 C   0  0  0  0  0  0  0  0  0  0  0  0
    0.3696  -12.7626   16.2169 O   0  0  0  0  0  0  0  0  0  0  0  0
   -0.6895   -9.5676   17.3297 C   0  0  0  0  0  0  0  0  0  0  0  0
    0.8388   -5.8417   27.5264 C   0  0  0  0  0  0  0  0  0  0  0  0
   -2.0709   -7.6637   18.7817 C   0  0  0  0  0  0  0  0  0  0  0  0
   -0.5279   -8.2168   17.0717 C   0  0  0  0  0  0  0  0  0  0  0  0
    6.9694   -4.0191   27.8190 C   0  0  0  0  0  0  0  0  0  0  0  0
    5.1733   -4.5469   29.8123 C   0  0  0  0  0  0  0  0  0  0  0  0
   -1.7508  -11.3016   18.6072 C   0  0  0  0  0  0  0  0  0  0  0  0
    1.7497   -5.6771   26.4971 C   0  0  0  0  0  0  0  0  0  0  0  0
   -1.5799   -9.9322   18.3468 C   0  0  0  0  0  0  0  0  0  0  0  0
   -1.0871  -12.2214   17.8851 C   0  0  0  0  0  0  0  0  0  0  0  0
   -2.2706   -8.9669   19.0691 C   0  0  0  0  0  0  0  0  0  0  0  0
    3.0279   -5.3073   26.8197 C   0  0  0  0  0  0  0  0  0  0  0  0
    7.3282   -3.8948   29.1186 C   0  0  0  0  0  0  0  0  0  0  0  0
  1  3  4  0
  1  7  4  0
  2  3  1  0
  2  6  4  0
  2 16  4  0
  3 22  4  0
  4  9  4  0
  4 10  1  0
  4 20  4  0
  5 16  4  0
  5 23  4  0
  6 15  4  0
  7 12  4  0
  8 13  4  0
  8 14  4  0
  9 11  4  0
 11 14  4  0
 11 19  4  0
 12 18  4  0
 13 21  4  0
 15 23  4  0
 17 19  4  0
 17 20  4  0
 18 22  4  0
 19 21  4  0
M  END
$$$$

 Created by Python create_sdf_string function

 23 25  0  0  0  0  0  0  0  0999 V2000
    2.4610   -5.3070   29.1240 C   0  0  0  0  0  0  0  0  0  0  0  0
    4.7710   -4.6952   28.4803 C   0  0  0  0  0  0  0  0  0  0  0  0
    3.4047   -5.1087   28.1314 C   0  0  0  0  0  0  0  0  0  0  0  0
   -0.2234  -11.8615   16.8874 C   0  0  0  0  0  0  0  0  0  0  0  0
    6.4491   -4.1532   30.1213 C   0  0  0  0  0  0  0  0  0  0  0  0
    5.7060   -4.4340   27.4975 C   0  0  0  0  0  0  0  0  0  0  0  0
    1.1818   -5.6612   28.8399 C   0  0  0  0  0  0  0  0  0  0  0  0
   -1.2067   -7.3287   17.7772 C   0  0  0  0  0  0  0  0  0  0  0  0
   -0.0206  -10.5585   16.6210 C   0  0  0  0  0  0  0  0  0  0  0  0
    0.3696  -12.7626   16.2169 O   0  0  0  0  0  0  0  0  0  0  0  0
   -0.6895   -9.5676   17.3297 C   0  0  0  0  0  0  0  0  0  0  0  0
    0.8388   -5.8417   27.5264 C   0  0  0  0  0  0  0  0  0  0  0  0
   -2.0709   -7.6637   18.7817 C   0  0  0  0  0  0  0  0  0  0  0  0
   -0.5279   -8.2168   17.0717 C   0  0  0  0  0  0  0  0  0  0  0  0
    6.9694   -4.0191   27.8190 C   0  0  0  0  0  0  0  0  0  0  0  0
    5.1733   -4.5469   29.8123 C   0  0  0  0  0  0  0  0  0  0  0  0
   -1.7508  -11.3016   18.6072 C   0  0  0  0  0  0  0  0  0  0  0  0
    1.7497   -5.6771   26.4971 C   0  0  0  0  0  0  0  0  0  0  0  0
   -1.5799   -9.9322   18.3468 C   0  0  0  0  0  0  0  0  0  0  0  0
   -1.0871  -12.2214   17.8851 C   0  0  0  0  0  0  0  0  0  0  0  0
   -2.2706   -8.9669   19.0691 C   0  0  0  0  0  0  0  0  0  0  0  0
    3.0279   -5.3073   26.8197 C   0  0  0  0  0  0  0  0  0  0  0  0
    7.3282   -3.8948   29.1186 C   0  0  0  0  0  0  0  0  0  0  0  0
  1  3  4  0
  1  7  4  0
  2  3  1  0
  2  6  4  0
  2 16  4  0
  3 22  4  0
  4  9  4  0
  4 10  1  0
  4 20  4  0
  5 16  4  0
  5 23  4  0
  6 15  4  0
  7 12  4  0
  8 13  4  0
  8 14  4  0
  9 11  4  0
 11 14  4  0
 11 19  4  0
 12 18  4  0
 13 21  4  0
 15 23  4  0
 17 19  4  0
 17 20  4  0
 18 22  4  0
 19 21  4  0
M  END
$$$$

 Created by Python create_sdf_string function

 23 25  0  0  0  0  0  0  0  0999 V2000
    2.4610   -5.3070   29.1240 C   0  0  0  0  0  0  0  0  0  0  0  0
    4.7710   -4.6952   28.4803 C   0  0  0  0  0  0  0  0  0  0  0  0
    3.4047   -5.1087   28.1314 C   0  0  0  0  0  0  0  0  0  0  0  0
   -0.2234  -11.8615   16.8874 C   0  0  0  0  0  0  0  0  0  0  0  0
    6.4491   -4.1532   30.1213 C   0  0  0  0  0  0  0  0  0  0  0  0
    5.7060   -4.4340   27.4975 C   0  0  0  0  0  0  0  0  0  0  0  0
    1.1818   -5.6612   28.8399 C   0  0  0  0  0  0  0  0  0  0  0  0
   -1.2067   -7.3287   17.7772 C   0  0  0  0  0  0  0  0  0  0  0  0
   -0.0206  -10.5585   16.6210 C   0  0  0  0  0  0  0  0  0  0  0  0
    0.3696  -12.7626   16.2169 O   0  0  0  0  0  0  0  0  0  0  0  0
   -0.6895   -9.5676   17.3297 C   0  0  0  0  0  0  0  0  0  0  0  0
    0.8388   -5.8417   27.5264 C   0  0  0  0  0  0  0  0  0  0  0  0
   -2.0709   -7.6637   18.7817 C   0  0  0  0  0  0  0  0  0  0  0  0
   -0.5279   -8.2168   17.0717 C   0  0  0  0  0  0  0  0  0  0  0  0
    6.9694   -4.0191   27.8190 C   0  0  0  0  0  0  0  0  0  0  0  0
    5.1733   -4.5469   29.8123 C   0  0  0  0  0  0  0  0  0  0  0  0
   -1.7508  -11.3016   18.6072 C   0  0  0  0  0  0  0  0  0  0  0  0
    1.7497   -5.6771   26.4971 C   0  0  0  0  0  0  0  0  0  0  0  0
   -1.5799   -9.9322   18.3468 C   0  0  0  0  0  0  0  0  0  0  0  0
   -1.0871  -12.2214   17.8851 C   0  0  0  0  0  0  0  0  0  0  0  0
   -2.2706   -8.9669   19.0691 C   0  0  0  0  0  0  0  0  0  0  0  0
    3.0279   -5.3073   26.8197 C   0  0  0  0  0  0  0  0  0  0  0  0
    7.3282   -3.8948   29.1186 C   0  0  0  0  0  0  0  0  0  0  0  0
  1  3  4  0
  1  7  4  0
  2  3  1  0
  2  6  4  0
  2 16  4  0
  3 22  4  0
  4  9  4  0
  4 10  1  0
  4 20  4  0
  5 16  4  0
  5 23  4  0
  6 15  4  0
  7 12  4  0
  8 13  4  0
  8 14  4  0
  9 11  4  0
 11 14  4  0
 11 19  4  0
 12 18  4  0
 13 21  4  0
 15 23  4  0
 17 19  4  0
 17 20  4  0
 18 22  4  0
 19 21  4  0
M  END
$$$$

 Created by Python create_sdf_string function

 23 25  0  0  0  0  0  0  0  0999 V2000
    2.4610   -5.3070   29.1240 C   0  0  0  0  0  0  0  0  0  0  0  0
    4.7710   -4.6952   28.4803 C   0  0  0  0  0  0  0  0  0  0  0  0
    3.4047   -5.1087   28.1314 C   0  0  0  0  0  0  0  0  0  0  0  0
   -0.2234  -11.8615   16.8874 C   0  0  0  0  0  0  0  0  0  0  0  0
    6.4491   -4.1532   30.1213 C   0  0  0  0  0  0  0  0  0  0  0  0
    5.7060   -4.4340   27.4975 C   0  0  0  0  0  0  0  0  0  0  0  0
    1.1818   -5.6612   28.8399 C   0  0  0  0  0  0  0  0  0  0  0  0
   -1.2067   -7.3287   17.7772 C   0  0  0  0  0  0  0  0  0  0  0  0
   -0.0206  -10.5585   16.6210 C   0  0  0  0  0  0  0  0  0  0  0  0
    0.3696  -12.7626   16.2169 O   0  0  0  0  0  0  0  0  0  0  0  0
   -0.6895   -9.5676   17.3297 C   0  0  0  0  0  0  0  0  0  0  0  0
    0.8388   -5.8417   27.5264 C   0  0  0  0  0  0  0  0  0  0  0  0
   -2.0709   -7.6637   18.7817 C   0  0  0  0  0  0  0  0  0  0  0  0
   -0.5279   -8.2168   17.0717 C   0  0  0  0  0  0  0  0  0  0  0  0
    6.9694   -4.0191   27.8190 C   0  0  0  0  0  0  0  0  0  0  0  0
    5.1733   -4.5469   29.8123 C   0  0  0  0  0  0  0  0  0  0  0  0
   -1.7508  -11.3016   18.6072 C   0  0  0  0  0  0  0  0  0  0  0  0
    1.7497   -5.6771   26.4971 C   0  0  0  0  0  0  0  0  0  0  0  0
   -1.5799   -9.9322   18.3468 C   0  0  0  0  0  0  0  0  0  0  0  0
   -1.0871  -12.2214   17.8851 C   0  0  0  0  0  0  0  0  0  0  0  0
   -2.2706   -8.9669   19.0691 C   0  0  0  0  0  0  0  0  0  0  0  0
    3.0279   -5.3073   26.8197 C   0  0  0  0  0  0  0  0  0  0  0  0
    7.3282   -3.8948   29.1186 C   0  0  0  0  0  0  0  0  0  0  0  0
  1  3  4  0
  1  7  4  0
  2  3  1  0
  2  6  4  0
  2 16  4  0
  3 22  4  0
  4  9  4  0
  4 10  1  0
  4 20  4  0
  5 16  4  0
  5 23  4  0
  6 15  4  0
  7 12  4  0
  8 13  4  0
  8 14  4  0
  9 11  4  0
 11 14  4  0
 11 19  4  0
 12 18  4  0
 13 21  4  0
 15 23  4  0
 17 19  4  0
 17 20  4  0
 18 22  4  0
 19 21  4  0
M  END
$$$$

 Created by Python create_sdf_string function

 23 25  0  0  0  0  0  0  0  0999 V2000
    2.4610   -5.3070   29.1240 C   0  0  0  0  0  0  0  0  0  0  0  0
    4.7710   -4.6952   28.4803 C   0  0  0  0  0  0  0  0  0  0  0  0
    3.4047   -5.1087   28.1314 C   0  0  0  0  0  0  0  0  0  0  0  0
   -0.2234  -11.8615   16.8874 C   0  0  0  0  0  0  0  0  0  0  0  0
    6.4491   -4.1532   30.1213 C   0  0  0  0  0  0  0  0  0  0  0  0
    5.7060   -4.4340   27.4975 C   0  0  0  0  0  0  0  0  0  0  0  0
    1.1818   -5.6612   28.8399 C   0  0  0  0  0  0  0  0  0  0  0  0
   -1.2067   -7.3287   17.7772 C   0  0  0  0  0  0  0  0  0  0  0  0
   -0.0206  -10.5585   16.6210 C   0  0  0  0  0  0  0  0  0  0  0  0
    0.3696  -12.7626   16.2169 O   0  0  0  0  0  0  0  0  0  0  0  0
   -0.6895   -9.5676   17.3297 C   0  0  0  0  0  0  0  0  0  0  0  0
    0.8388   -5.8417   27.5264 C   0  0  0  0  0  0  0  0  0  0  0  0
   -2.0709   -7.6637   18.7817 C   0  0  0  0  0  0  0  0  0  0  0  0
   -0.5279   -8.2168   17.0717 C   0  0  0  0  0  0  0  0  0  0  0  0
    6.9694   -4.0191   27.8190 C   0  0  0  0  0  0  0  0  0  0  0  0
    5.1733   -4.5469   29.8123 C   0  0  0  0  0  0  0  0  0  0  0  0
   -1.7508  -11.3016   18.6072 C   0  0  0  0  0  0  0  0  0  0  0  0
    1.7497   -5.6771   26.4971 C   0  0  0  0  0  0  0  0  0  0  0  0
   -1.5799   -9.9322   18.3468 C   0  0  0  0  0  0  0  0  0  0  0  0
   -1.0871  -12.2214   17.8851 C   0  0  0  0  0  0  0  0  0  0  0  0
   -2.2706   -8.9669   19.0691 C   0  0  0  0  0  0  0  0  0  0  0  0
    3.0279   -5.3073   26.8197 C   0  0  0  0  0  0  0  0  0  0  0  0
    7.3282   -3.8948   29.1186 C   0  0  0  0  0  0  0  0  0  0  0  0
  1  3  4  0
  1  7  4  0
  2  3  1  0
  2  6  4  0
  2 16  4  0
  3 22  4  0
  4  9  4  0
  4 10  1  0
  4 20  4  0
  5 16  4  0
  5 23  4  0
  6 15  4  0
  7 12  4  0
  8 13  4  0
  8 14  4  0
  9 11  4  0
 11 14  4  0
 11 19  4  0
 12 18  4  0
 13 21  4  0
 15 23  4  0
 17 19  4  0
 17 20  4  0
 18 22  4  0
 19 21  4  0
M  END
$$$$

 Created by Python create_sdf_string function

 23 25  0  0  0  0  0  0  0  0999 V2000
    2.4610   -5.3070   29.1240 C   0  0  0  0  0  0  0  0  0  0  0  0
    4.7710   -4.6952   28.4803 C   0  0  0  0  0  0  0  0  0  0  0  0
    3.4047   -5.1087   28.1314 C   0  0  0  0  0  0  0  0  0  0  0  0
   -0.2234  -11.8615   16.8874 C   0  0  0  0  0  0  0  0  0  0  0  0
    6.4491   -4.1532   30.1213 C   0  0  0  0  0  0  0  0  0  0  0  0
    5.7060   -4.4340   27.4975 C   0  0  0  0  0  0  0  0  0  0  0  0
    1.1818   -5.6612   28.8399 C   0  0  0  0  0  0  0  0  0  0  0  0
   -1.2067   -7.3287   17.7772 C   0  0  0  0  0  0  0  0  0  0  0  0
   -0.0206  -10.5585   16.6210 C   0  0  0  0  0  0  0  0  0  0  0  0
    0.3696  -12.7626   16.2169 O   0  0  0  0  0  0  0  0  0  0  0  0
   -0.6895   -9.5676   17.3297 C   0  0  0  0  0  0  0  0  0  0  0  0
    0.8388   -5.8417   27.5264 C   0  0  0  0  0  0  0  0  0  0  0  0
   -2.0709   -7.6637   18.7817 C   0  0  0  0  0  0  0  0  0  0  0  0
   -0.5279   -8.2168   17.0717 C   0  0  0  0  0  0  0  0  0  0  0  0
    6.9694   -4.0191   27.8190 C   0  0  0  0  0  0  0  0  0  0  0  0
    5.1733   -4.5469   29.8123 C   0  0  0  0  0  0  0  0  0  0  0  0
   -1.7508  -11.3016   18.6072 C   0  0  0  0  0  0  0  0  0  0  0  0
    1.7497   -5.6771   26.4971 C   0  0  0  0  0  0  0  0  0  0  0  0
   -1.5799   -9.9322   18.3468 C   0  0  0  0  0  0  0  0  0  0  0  0
   -1.0871  -12.2214   17.8851 C   0  0  0  0  0  0  0  0  0  0  0  0
   -2.2706   -8.9669   19.0691 C   0  0  0  0  0  0  0  0  0  0  0  0
    3.0279   -5.3073   26.8197 C   0  0  0  0  0  0  0  0  0  0  0  0
    7.3282   -3.8948   29.1186 C   0  0  0  0  0  0  0  0  0  0  0  0
  1  3  4  0
  1  7  4  0
  2  3  1  0
  2  6  4  0
  2 16  4  0
  3 22  4  0
  4  9  4  0
  4 10  1  0
  4 20  4  0
  5 16  4  0
  5 23  4  0
  6 15  4  0
  7 12  4  0
  8 13  4  0
  8 14  4  0
  9 11  4  0
 11 14  4  0
 11 19  4  0
 12 18  4  0
 13 21  4  0
 15 23  4  0
 17 19  4  0
 17 20  4  0
 18 22  4  0
 19 21  4  0
M  END
$$$$

 Created by Python create_sdf_string function

 23 25  0  0  0  0  0  0  0  0999 V2000
    2.4610   -5.3070   29.1240 C   0  0  0  0  0  0  0  0  0  0  0  0
    4.7710   -4.6952   28.4803 C   0  0  0  0  0  0  0  0  0  0  0  0
    3.4047   -5.1087   28.1314 C   0  0  0  0  0  0  0  0  0  0  0  0
   -0.2234  -11.8615   16.8874 C   0  0  0  0  0  0  0  0  0  0  0  0
    6.4491   -4.1532   30.1213 C   0  0  0  0  0  0  0  0  0  0  0  0
    5.7060   -4.4340   27.4975 C   0  0  0  0  0  0  0  0  0  0  0  0
    1.1818   -5.6612   28.8399 C   0  0  0  0  0  0  0  0  0  0  0  0
   -1.2067   -7.3287   17.7772 C   0  0  0  0  0  0  0  0  0  0  0  0
   -0.0206  -10.5585   16.6210 C   0  0  0  0  0  0  0  0  0  0  0  0
    0.3696  -12.7626   16.2169 O   0  0  0  0  0  0  0  0  0  0  0  0
   -0.6895   -9.5676   17.3297 C   0  0  0  0  0  0  0  0  0  0  0  0
    0.8388   -5.8417   27.5264 C   0  0  0  0  0  0  0  0  0  0  0  0
   -2.0709   -7.6637   18.7817 C   0  0  0  0  0  0  0  0  0  0  0  0
   -0.5279   -8.2168   17.0717 C   0  0  0  0  0  0  0  0  0  0  0  0
    6.9694   -4.0191   27.8190 C   0  0  0  0  0  0  0  0  0  0  0  0
    5.1733   -4.5469   29.8123 C   0  0  0  0  0  0  0  0  0  0  0  0
   -1.7508  -11.3016   18.6072 C   0  0  0  0  0  0  0  0  0  0  0  0
    1.7497   -5.6771   26.4971 C   0  0  0  0  0  0  0  0  0  0  0  0
   -1.5799   -9.9322   18.3468 C   0  0  0  0  0  0  0  0  0  0  0  0
   -1.0871  -12.2214   17.8851 C   0  0  0  0  0  0  0  0  0  0  0  0
   -2.2706   -8.9669   19.0691 C   0  0  0  0  0  0  0  0  0  0  0  0
    3.0279   -5.3073   26.8197 C   0  0  0  0  0  0  0  0  0  0  0  0
    7.3282   -3.8948   29.1186 C   0  0  0  0  0  0  0  0  0  0  0  0
  1  3  4  0
  1  7  4  0
  2  3  1  0
  2  6  4  0
  2 16  4  0
  3 22  4  0
  4  9  4  0
  4 10  1  0
  4 20  4  0
  5 16  4  0
  5 23  4  0
  6 15  4  0
  7 12  4  0
  8 13  4  0
  8 14  4  0
  9 11  4  0
 11 14  4  0
 11 19  4  0
 12 18  4  0
 13 21  4  0
 15 23  4  0
 17 19  4  0
 17 20  4  0
 18 22  4  0
 19 21  4  0
M  END
$$$$

 Created by Python create_sdf_string function

 23 25  0  0  0  0  0  0  0  0999 V2000
    2.4610   -5.3070   29.1240 C   0  0  0  0  0  0  0  0  0  0  0  0
    4.7710   -4.6952   28.4803 C   0  0  0  0  0  0  0  0  0  0  0  0
    3.4047   -5.1087   28.1314 C   0  0  0  0  0  0  0  0  0  0  0  0
   -0.2234  -11.8615   16.8874 C   0  0  0  0  0  0  0  0  0  0  0  0
    6.4491   -4.1532   30.1213 C   0  0  0  0  0  0  0  0  0  0  0  0
    5.7060   -4.4340   27.4975 C   0  0  0  0  0  0  0  0  0  0  0  0
    1.1818   -5.6612   28.8399 C   0  0  0  0  0  0  0  0  0  0  0  0
   -1.2067   -7.3287   17.7772 C   0  0  0  0  0  0  0  0  0  0  0  0
   -0.0206  -10.5585   16.6210 C   0  0  0  0  0  0  0  0  0  0  0  0
    0.3696  -12.7626   16.2169 O   0  0  0  0  0  0  0  0  0  0  0  0
   -0.6895   -9.5676   17.3297 C   0  0  0  0  0  0  0  0  0  0  0  0
    0.8388   -5.8417   27.5264 C   0  0  0  0  0  0  0  0  0  0  0  0
   -2.0709   -7.6637   18.7817 C   0  0  0  0  0  0  0  0  0  0  0  0
   -0.5279   -8.2168   17.0717 C   0  0  0  0  0  0  0  0  0  0  0  0
    6.9694   -4.0191   27.8190 C   0  0  0  0  0  0  0  0  0  0  0  0
    5.1733   -4.5469   29.8123 C   0  0  0  0  0  0  0  0  0  0  0  0
   -1.7508  -11.3016   18.6072 C   0  0  0  0  0  0  0  0  0  0  0  0
    1.7497   -5.6771   26.4971 C   0  0  0  0  0  0  0  0  0  0  0  0
   -1.5799   -9.9322   18.3468 C   0  0  0  0  0  0  0  0  0  0  0  0
   -1.0871  -12.2214   17.8851 C   0  0  0  0  0  0  0  0  0  0  0  0
   -2.2706   -8.9669   19.0691 C   0  0  0  0  0  0  0  0  0  0  0  0
    3.0279   -5.3073   26.8197 C   0  0  0  0  0  0  0  0  0  0  0  0
    7.3282   -3.8948   29.1186 C   0  0  0  0  0  0  0  0  0  0  0  0
  1  3  4  0
  1  7  4  0
  2  3  1  0
  2  6  4  0
  2 16  4  0
  3 22  4  0
  4  9  4  0
  4 10  1  0
  4 20  4  0
  5 16  4  0
  5 23  4  0
  6 15  4  0
  7 12  4  0
  8 13  4  0
  8 14  4  0
  9 11  4  0
 11 14  4  0
 11 19  4  0
 12 18  4  0
 13 21  4  0
 15 23  4  0
 17 19  4  0
 17 20  4  0
 18 22  4  0
 19 21  4  0
M  END
$$$$

 Created by Python create_sdf_string function

 23 25  0  0  0  0  0  0  0  0999 V2000
    2.4610   -5.3070   29.1240 C   0  0  0  0  0  0  0  0  0  0  0  0
    4.7710   -4.6952   28.4803 C   0  0  0  0  0  0  0  0  0  0  0  0
    3.4047   -5.1087   28.1314 C   0  0  0  0  0  0  0  0  0  0  0  0
   -0.2234  -11.8615   16.8874 C   0  0  0  0  0  0  0  0  0  0  0  0
    6.4491   -4.1532   30.1213 C   0  0  0  0  0  0  0  0  0  0  0  0
    5.7060   -4.4340   27.4975 C   0  0  0  0  0  0  0  0  0  0  0  0
    1.1818   -5.6612   28.8399 C   0  0  0  0  0  0  0  0  0  0  0  0
   -1.2067   -7.3287   17.7772 C   0  0  0  0  0  0  0  0  0  0  0  0
   -0.0206  -10.5585   16.6210 C   0  0  0  0  0  0  0  0  0  0  0  0
    0.3696  -12.7626   16.2169 O   0  0  0  0  0  0  0  0  0  0  0  0
   -0.6895   -9.5676   17.3297 C   0  0  0  0  0  0  0  0  0  0  0  0
    0.8388   -5.8417   27.5264 C   0  0  0  0  0  0  0  0  0  0  0  0
   -2.0709   -7.6637   18.7817 C   0  0  0  0  0  0  0  0  0  0  0  0
   -0.5279   -8.2168   17.0717 C   0  0  0  0  0  0  0  0  0  0  0  0
    6.9694   -4.0191   27.8190 C   0  0  0  0  0  0  0  0  0  0  0  0
    5.1733   -4.5469   29.8123 C   0  0  0  0  0  0  0  0  0  0  0  0
   -1.7508  -11.3016   18.6072 C   0  0  0  0  0  0  0  0  0  0  0  0
    1.7497   -5.6771   26.4971 C   0  0  0  0  0  0  0  0  0  0  0  0
   -1.5799   -9.9322   18.3468 C   0  0  0  0  0  0  0  0  0  0  0  0
   -1.0871  -12.2214   17.8851 C   0  0  0  0  0  0  0  0  0  0  0  0
   -2.2706   -8.9669   19.0691 C   0  0  0  0  0  0  0  0  0  0  0  0
    3.0279   -5.3073   26.8197 C   0  0  0  0  0  0  0  0  0  0  0  0
    7.3282   -3.8948   29.1186 C   0  0  0  0  0  0  0  0  0  0  0  0
  1  3  4  0
  1  7  4  0
  2  3  1  0
  2  6  4  0
  2 16  4  0
  3 22  4  0
  4  9  4  0
  4 10  1  0
  4 20  4  0
  5 16  4  0
  5 23  4  0
  6 15  4  0
  7 12  4  0
  8 13  4  0
  8 14  4  0
  9 11  4  0
 11 14  4  0
 11 19  4  0
 12 18  4  0
 13 21  4  0
 15 23  4  0
 17 19  4  0
 17 20  4  0
 18 22  4  0
 19 21  4  0
M  END
$$$$

 Created by Python create_sdf_string function

 23 25  0  0  0  0  0  0  0  0999 V2000
    2.4610   -5.3070   29.1240 C   0  0  0  0  0  0  0  0  0  0  0  0
    4.7710   -4.6952   28.4803 C   0  0  0  0  0  0  0  0  0  0  0  0
    3.4047   -5.1087   28.1314 C   0  0  0  0  0  0  0  0  0  0  0  0
   -0.2234  -11.8615   16.8874 C   0  0  0  0  0  0  0  0  0  0  0  0
    6.4491   -4.1532   30.1213 C   0  0  0  0  0  0  0  0  0  0  0  0
    5.7060   -4.4340   27.4975 C   0  0  0  0  0  0  0  0  0  0  0  0
    1.1818   -5.6612   28.8399 C   0  0  0  0  0  0  0  0  0  0  0  0
   -1.2067   -7.3287   17.7772 C   0  0  0  0  0  0  0  0  0  0  0  0
   -0.0206  -10.5585   16.6210 C   0  0  0  0  0  0  0  0  0  0  0  0
    0.3696  -12.7626   16.2169 O   0  0  0  0  0  0  0  0  0  0  0  0
   -0.6895   -9.5676   17.3297 C   0  0  0  0  0  0  0  0  0  0  0  0
    0.8388   -5.8417   27.5264 C   0  0  0  0  0  0  0  0  0  0  0  0
   -2.0709   -7.6637   18.7817 C   0  0  0  0  0  0  0  0  0  0  0  0
   -0.5279   -8.2168   17.0717 C   0  0  0  0  0  0  0  0  0  0  0  0
    6.9694   -4.0191   27.8190 C   0  0  0  0  0  0  0  0  0  0  0  0
    5.1733   -4.5469   29.8123 C   0  0  0  0  0  0  0  0  0  0  0  0
   -1.7508  -11.3016   18.6072 C   0  0  0  0  0  0  0  0  0  0  0  0
    1.7497   -5.6771   26.4971 C   0  0  0  0  0  0  0  0  0  0  0  0
   -1.5799   -9.9322   18.3468 C   0  0  0  0  0  0  0  0  0  0  0  0
   -1.0871  -12.2214   17.8851 C   0  0  0  0  0  0  0  0  0  0  0  0
   -2.2706   -8.9669   19.0691 C   0  0  0  0  0  0  0  0  0  0  0  0
    3.0279   -5.3073   26.8197 C   0  0  0  0  0  0  0  0  0  0  0  0
    7.3282   -3.8948   29.1186 C   0  0  0  0  0  0  0  0  0  0  0  0
  1  3  4  0
  1  7  4  0
  2  3  1  0
  2  6  4  0
  2 16  4  0
  3 22  4  0
  4  9  4  0
  4 10  1  0
  4 20  4  0
  5 16  4  0
  5 23  4  0
  6 15  4  0
  7 12  4  0
  8 13  4  0
  8 14  4  0
  9 11  4  0
 11 14  4  0
 11 19  4  0
 12 18  4  0
 13 21  4  0
 15 23  4  0
 17 19  4  0
 17 20  4  0
 18 22  4  0
 19 21  4  0
M  END
$$$$

 Created by Python create_sdf_string function

 23 25  0  0  0  0  0  0  0  0999 V2000
    2.4610   -5.3070   29.1240 C   0  0  0  0  0  0  0  0  0  0  0  0
    4.7710   -4.6952   28.4803 C   0  0  0  0  0  0  0  0  0  0  0  0
    3.4047   -5.1087   28.1314 C   0  0  0  0  0  0  0  0  0  0  0  0
   -0.2234  -11.8615   16.8874 C   0  0  0  0  0  0  0  0  0  0  0  0
    6.4491   -4.1532   30.1213 C   0  0  0  0  0  0  0  0  0  0  0  0
    5.7060   -4.4340   27.4975 C   0  0  0  0  0  0  0  0  0  0  0  0
    1.1818   -5.6612   28.8399 C   0  0  0  0  0  0  0  0  0  0  0  0
   -1.2067   -7.3287   17.7772 C   0  0  0  0  0  0  0  0  0  0  0  0
   -0.0206  -10.5585   16.6210 C   0  0  0  0  0  0  0  0  0  0  0  0
    0.3696  -12.7626   16.2169 O   0  0  0  0  0  0  0  0  0  0  0  0
   -0.6895   -9.5676   17.3297 C   0  0  0  0  0  0  0  0  0  0  0  0
    0.8388   -5.8417   27.5264 C   0  0  0  0  0  0  0  0  0  0  0  0
   -2.0709   -7.6637   18.7817 C   0  0  0  0  0  0  0  0  0  0  0  0
   -0.5279   -8.2168   17.0717 C   0  0  0  0  0  0  0  0  0  0  0  0
    6.9694   -4.0191   27.8190 C   0  0  0  0  0  0  0  0  0  0  0  0
    5.1733   -4.5469   29.8123 C   0  0  0  0  0  0  0  0  0  0  0  0
   -1.7508  -11.3016   18.6072 C   0  0  0  0  0  0  0  0  0  0  0  0
    1.7497   -5.6771   26.4971 C   0  0  0  0  0  0  0  0  0  0  0  0
   -1.5799   -9.9322   18.3468 C   0  0  0  0  0  0  0  0  0  0  0  0
   -1.0871  -12.2214   17.8851 C   0  0  0  0  0  0  0  0  0  0  0  0
   -2.2706   -8.9669   19.0691 C   0  0  0  0  0  0  0  0  0  0  0  0
    3.0279   -5.3073   26.8197 C   0  0  0  0  0  0  0  0  0  0  0  0
    7.3282   -3.8948   29.1186 C   0  0  0  0  0  0  0  0  0  0  0  0
  1  3  4  0
  1  7  4  0
  2  3  1  0
  2  6  4  0
  2 16  4  0
  3 22  4  0
  4  9  4  0
  4 10  1  0
  4 20  4  0
  5 16  4  0
  5 23  4  0
  6 15  4  0
  7 12  4  0
  8 13  4  0
  8 14  4  0
  9 11  4  0
 11 14  4  0
 11 19  4  0
 12 18  4  0
 13 21  4  0
 15 23  4  0
 17 19  4  0
 17 20  4  0
 18 22  4  0
 19 21  4  0
M  END
$$$$

 Created by Python create_sdf_string function

 23 25  0  0  0  0  0  0  0  0999 V2000
    2.4610   -5.3070   29.1240 C   0  0  0  0  0  0  0  0  0  0  0  0
    4.7710   -4.6952   28.4803 C   0  0  0  0  0  0  0  0  0  0  0  0
    3.4047   -5.1087   28.1314 C   0  0  0  0  0  0  0  0  0  0  0  0
   -0.2234  -11.8615   16.8874 C   0  0  0  0  0  0  0  0  0  0  0  0
    6.4491   -4.1532   30.1213 C   0  0  0  0  0  0  0  0  0  0  0  0
    5.7060   -4.4340   27.4975 C   0  0  0  0  0  0  0  0  0  0  0  0
    1.1818   -5.6612   28.8399 C   0  0  0  0  0  0  0  0  0  0  0  0
   -1.2067   -7.3287   17.7772 C   0  0  0  0  0  0  0  0  0  0  0  0
   -0.0206  -10.5585   16.6210 C   0  0  0  0  0  0  0  0  0  0  0  0
    0.3696  -12.7626   16.2169 O   0  0  0  0  0  0  0  0  0  0  0  0
   -0.6895   -9.5676   17.3297 C   0  0  0  0  0  0  0  0  0  0  0  0
    0.8388   -5.8417   27.5264 C   0  0  0  0  0  0  0  0  0  0  0  0
   -2.0709   -7.6637   18.7817 C   0  0  0  0  0  0  0  0  0  0  0  0
   -0.5279   -8.2168   17.0717 C   0  0  0  0  0  0  0  0  0  0  0  0
    6.9694   -4.0191   27.8190 C   0  0  0  0  0  0  0  0  0  0  0  0
    5.1733   -4.5469   29.8123 C   0  0  0  0  0  0  0  0  0  0  0  0
   -1.7508  -11.3016   18.6072 C   0  0  0  0  0  0  0  0  0  0  0  0
    1.7497   -5.6771   26.4971 C   0  0  0  0  0  0  0  0  0  0  0  0
   -1.5799   -9.9322   18.3468 C   0  0  0  0  0  0  0  0  0  0  0  0
   -1.0871  -12.2214   17.8851 C   0  0  0  0  0  0  0  0  0  0  0  0
   -2.2706   -8.9669   19.0691 C   0  0  0  0  0  0  0  0  0  0  0  0
    3.0279   -5.3073   26.8197 C   0  0  0  0  0  0  0  0  0  0  0  0
    7.3282   -3.8948   29.1186 C   0  0  0  0  0  0  0  0  0  0  0  0
  1  3  4  0
  1  7  4  0
  2  3  1  0
  2  6  4  0
  2 16  4  0
  3 22  4  0
  4  9  4  0
  4 10  1  0
  4 20  4  0
  5 16  4  0
  5 23  4  0
  6 15  4  0
  7 12  4  0
  8 13  4  0
  8 14  4  0
  9 11  4  0
 11 14  4  0
 11 19  4  0
 12 18  4  0
 13 21  4  0
 15 23  4  0
 17 19  4  0
 17 20  4  0
 18 22  4  0
 19 21  4  0
M  END
$$$$

 Created by Python create_sdf_string function

 23 25  0  0  0  0  0  0  0  0999 V2000
    2.4610   -5.3070   29.1240 C   0  0  0  0  0  0  0  0  0  0  0  0
    4.7710   -4.6952   28.4803 C   0  0  0  0  0  0  0  0  0  0  0  0
    3.4047   -5.1087   28.1314 C   0  0  0  0  0  0  0  0  0  0  0  0
   -0.2234  -11.8615   16.8874 C   0  0  0  0  0  0  0  0  0  0  0  0
    6.4491   -4.1532   30.1213 C   0  0  0  0  0  0  0  0  0  0  0  0
    5.7060   -4.4340   27.4975 C   0  0  0  0  0  0  0  0  0  0  0  0
    1.1818   -5.6612   28.8399 C   0  0  0  0  0  0  0  0  0  0  0  0
   -1.2067   -7.3287   17.7772 C   0  0  0  0  0  0  0  0  0  0  0  0
   -0.0206  -10.5585   16.6210 C   0  0  0  0  0  0  0  0  0  0  0  0
    0.3696  -12.7626   16.2169 O   0  0  0  0  0  0  0  0  0  0  0  0
   -0.6895   -9.5676   17.3297 C   0  0  0  0  0  0  0  0  0  0  0  0
    0.8388   -5.8417   27.5264 C   0  0  0  0  0  0  0  0  0  0  0  0
   -2.0709   -7.6637   18.7817 C   0  0  0  0  0  0  0  0  0  0  0  0
   -0.5279   -8.2168   17.0717 C   0  0  0  0  0  0  0  0  0  0  0  0
    6.9694   -4.0191   27.8190 C   0  0  0  0  0  0  0  0  0  0  0  0
    5.1733   -4.5469   29.8123 C   0  0  0  0  0  0  0  0  0  0  0  0
   -1.7508  -11.3016   18.6072 C   0  0  0  0  0  0  0  0  0  0  0  0
    1.7497   -5.6771   26.4971 C   0  0  0  0  0  0  0  0  0  0  0  0
   -1.5799   -9.9322   18.3468 C   0  0  0  0  0  0  0  0  0  0  0  0
   -1.0871  -12.2214   17.8851 C   0  0  0  0  0  0  0  0  0  0  0  0
   -2.2706   -8.9669   19.0691 C   0  0  0  0  0  0  0  0  0  0  0  0
    3.0279   -5.3073   26.8197 C   0  0  0  0  0  0  0  0  0  0  0  0
    7.3282   -3.8948   29.1186 C   0  0  0  0  0  0  0  0  0  0  0  0
  1  3  4  0
  1  7  4  0
  2  3  1  0
  2  6  4  0
  2 16  4  0
  3 22  4  0
  4  9  4  0
  4 10  1  0
  4 20  4  0
  5 16  4  0
  5 23  4  0
  6 15  4  0
  7 12  4  0
  8 13  4  0
  8 14  4  0
  9 11  4  0
 11 14  4  0
 11 19  4  0
 12 18  4  0
 13 21  4  0
 15 23  4  0
 17 19  4  0
 17 20  4  0
 18 22  4  0
 19 21  4  0
M  END
$$$$

 Created by Python create_sdf_string function

 23 25  0  0  0  0  0  0  0  0999 V2000
    2.4610   -5.3070   29.1240 C   0  0  0  0  0  0  0  0  0  0  0  0
    4.7710   -4.6952   28.4803 C   0  0  0  0  0  0  0  0  0  0  0  0
    3.4047   -5.1087   28.1314 C   0  0  0  0  0  0  0  0  0  0  0  0
   -0.2234  -11.8615   16.8874 C   0  0  0  0  0  0  0  0  0  0  0  0
    6.4491   -4.1532   30.1213 C   0  0  0  0  0  0  0  0  0  0  0  0
    5.7060   -4.4340   27.4975 C   0  0  0  0  0  0  0  0  0  0  0  0
    1.1818   -5.6612   28.8399 C   0  0  0  0  0  0  0  0  0  0  0  0
   -1.2067   -7.3287   17.7772 C   0  0  0  0  0  0  0  0  0  0  0  0
   -0.0206  -10.5585   16.6210 C   0  0  0  0  0  0  0  0  0  0  0  0
    0.3696  -12.7626   16.2169 O   0  0  0  0  0  0  0  0  0  0  0  0
   -0.6895   -9.5676   17.3297 C   0  0  0  0  0  0  0  0  0  0  0  0
    0.8388   -5.8417   27.5264 C   0  0  0  0  0  0  0  0  0  0  0  0
   -2.0709   -7.6637   18.7817 C   0  0  0  0  0  0  0  0  0  0  0  0
   -0.5279   -8.2168   17.0717 C   0  0  0  0  0  0  0  0  0  0  0  0
    6.9694   -4.0191   27.8190 C   0  0  0  0  0  0  0  0  0  0  0  0
    5.1733   -4.5469   29.8123 C   0  0  0  0  0  0  0  0  0  0  0  0
   -1.7508  -11.3016   18.6072 C   0  0  0  0  0  0  0  0  0  0  0  0
    1.7497   -5.6771   26.4971 C   0  0  0  0  0  0  0  0  0  0  0  0
   -1.5799   -9.9322   18.3468 C   0  0  0  0  0  0  0  0  0  0  0  0
   -1.0871  -12.2214   17.8851 C   0  0  0  0  0  0  0  0  0  0  0  0
   -2.2706   -8.9669   19.0691 C   0  0  0  0  0  0  0  0  0  0  0  0
    3.0279   -5.3073   26.8197 C   0  0  0  0  0  0  0  0  0  0  0  0
    7.3282   -3.8948   29.1186 C   0  0  0  0  0  0  0  0  0  0  0  0
  1  3  4  0
  1  7  4  0
  2  3  1  0
  2  6  4  0
  2 16  4  0
  3 22  4  0
  4  9  4  0
  4 10  1  0
  4 20  4  0
  5 16  4  0
  5 23  4  0
  6 15  4  0
  7 12  4  0
  8 13  4  0
  8 14  4  0
  9 11  4  0
 11 14  4  0
 11 19  4  0
 12 18  4  0
 13 21  4  0
 15 23  4  0
 17 19  4  0
 17 20  4  0
 18 22  4  0
 19 21  4  0
M  END
$$$$

 Created by Python create_sdf_string function

 23 25  0  0  0  0  0  0  0  0999 V2000
    2.4610   -5.3070   29.1240 C   0  0  0  0  0  0  0  0  0  0  0  0
    4.7710   -4.6952   28.4803 C   0  0  0  0  0  0  0  0  0  0  0  0
    3.4047   -5.1087   28.1314 C   0  0  0  0  0  0  0  0  0  0  0  0
   -0.2234  -11.8615   16.8874 C   0  0  0  0  0  0  0  0  0  0  0  0
    6.4491   -4.1532   30.1213 C   0  0  0  0  0  0  0  0  0  0  0  0
    5.7060   -4.4340   27.4975 C   0  0  0  0  0  0  0  0  0  0  0  0
    1.1818   -5.6612   28.8399 C   0  0  0  0  0  0  0  0  0  0  0  0
   -1.2067   -7.3287   17.7772 C   0  0  0  0  0  0  0  0  0  0  0  0
   -0.0206  -10.5585   16.6210 C   0  0  0  0  0  0  0  0  0  0  0  0
    0.3696  -12.7626   16.2169 O   0  0  0  0  0  0  0  0  0  0  0  0
   -0.6895   -9.5676   17.3297 C   0  0  0  0  0  0  0  0  0  0  0  0
    0.8388   -5.8417   27.5264 C   0  0  0  0  0  0  0  0  0  0  0  0
   -2.0709   -7.6637   18.7817 C   0  0  0  0  0  0  0  0  0  0  0  0
   -0.5279   -8.2168   17.0717 C   0  0  0  0  0  0  0  0  0  0  0  0
    6.9694   -4.0191   27.8190 C   0  0  0  0  0  0  0  0  0  0  0  0
    5.1733   -4.5469   29.8123 C   0  0  0  0  0  0  0  0  0  0  0  0
   -1.7508  -11.3016   18.6072 C   0  0  0  0  0  0  0  0  0  0  0  0
    1.7497   -5.6771   26.4971 C   0  0  0  0  0  0  0  0  0  0  0  0
   -1.5799   -9.9322   18.3468 C   0  0  0  0  0  0  0  0  0  0  0  0
   -1.0871  -12.2214   17.8851 C   0  0  0  0  0  0  0  0  0  0  0  0
   -2.2706   -8.9669   19.0691 C   0  0  0  0  0  0  0  0  0  0  0  0
    3.0279   -5.3073   26.8197 C   0  0  0  0  0  0  0  0  0  0  0  0
    7.3282   -3.8948   29.1186 C   0  0  0  0  0  0  0  0  0  0  0  0
  1  3  4  0
  1  7  4  0
  2  3  1  0
  2  6  4  0
  2 16  4  0
  3 22  4  0
  4  9  4  0
  4 10  1  0
  4 20  4  0
  5 16  4  0
  5 23  4  0
  6 15  4  0
  7 12  4  0
  8 13  4  0
  8 14  4  0
  9 11  4  0
 11 14  4  0
 11 19  4  0
 12 18  4  0
 13 21  4  0
 15 23  4  0
 17 19  4  0
 17 20  4  0
 18 22  4  0
 19 21  4  0
M  END
$$$$

 Created by Python create_sdf_string function

 23 25  0  0  0  0  0  0  0  0999 V2000
    2.4610   -5.3070   29.1240 C   0  0  0  0  0  0  0  0  0  0  0  0
    4.7710   -4.6952   28.4803 C   0  0  0  0  0  0  0  0  0  0  0  0
    3.4047   -5.1087   28.1314 C   0  0  0  0  0  0  0  0  0  0  0  0
   -0.2234  -11.8615   16.8874 C   0  0  0  0  0  0  0  0  0  0  0  0
    6.4491   -4.1532   30.1213 C   0  0  0  0  0  0  0  0  0  0  0  0
    5.7060   -4.4340   27.4975 C   0  0  0  0  0  0  0  0  0  0  0  0
    1.1818   -5.6612   28.8399 C   0  0  0  0  0  0  0  0  0  0  0  0
   -1.2067   -7.3287   17.7772 C   0  0  0  0  0  0  0  0  0  0  0  0
   -0.0206  -10.5585   16.6210 C   0  0  0  0  0  0  0  0  0  0  0  0
    0.3696  -12.7626   16.2169 O   0  0  0  0  0  0  0  0  0  0  0  0
   -0.6895   -9.5676   17.3297 C   0  0  0  0  0  0  0  0  0  0  0  0
    0.8388   -5.8417   27.5264 C   0  0  0  0  0  0  0  0  0  0  0  0
   -2.0709   -7.6637   18.7817 C   0  0  0  0  0  0  0  0  0  0  0  0
   -0.5279   -8.2168   17.0717 C   0  0  0  0  0  0  0  0  0  0  0  0
    6.9694   -4.0191   27.8190 C   0  0  0  0  0  0  0  0  0  0  0  0
    5.1733   -4.5469   29.8123 C   0  0  0  0  0  0  0  0  0  0  0  0
   -1.7508  -11.3016   18.6072 C   0  0  0  0  0  0  0  0  0  0  0  0
    1.7497   -5.6771   26.4971 C   0  0  0  0  0  0  0  0  0  0  0  0
   -1.5799   -9.9322   18.3468 C   0  0  0  0  0  0  0  0  0  0  0  0
   -1.0871  -12.2214   17.8851 C   0  0  0  0  0  0  0  0  0  0  0  0
   -2.2706   -8.9669   19.0691 C   0  0  0  0  0  0  0  0  0  0  0  0
    3.0279   -5.3073   26.8197 C   0  0  0  0  0  0  0  0  0  0  0  0
    7.3282   -3.8948   29.1186 C   0  0  0  0  0  0  0  0  0  0  0  0
  1  3  4  0
  1  7  4  0
  2  3  1  0
  2  6  4  0
  2 16  4  0
  3 22  4  0
  4  9  4  0
  4 10  1  0
  4 20  4  0
  5 16  4  0
  5 23  4  0
  6 15  4  0
  7 12  4  0
  8 13  4  0
  8 14  4  0
  9 11  4  0
 11 14  4  0
 11 19  4  0
 12 18  4  0
 13 21  4  0
 15 23  4  0
 17 19  4  0
 17 20  4  0
 18 22  4  0
 19 21  4  0
M  END
$$$$

 Created by Python create_sdf_string function

 23 25  0  0  0  0  0  0  0  0999 V2000
    2.4610   -5.3070   29.1240 C   0  0  0  0  0  0  0  0  0  0  0  0
    4.7710   -4.6952   28.4803 C   0  0  0  0  0  0  0  0  0  0  0  0
    3.4047   -5.1087   28.1314 C   0  0  0  0  0  0  0  0  0  0  0  0
   -0.2234  -11.8615   16.8874 C   0  0  0  0  0  0  0  0  0  0  0  0
    6.4491   -4.1532   30.1213 C   0  0  0  0  0  0  0  0  0  0  0  0
    5.7060   -4.4340   27.4975 C   0  0  0  0  0  0  0  0  0  0  0  0
    1.1818   -5.6612   28.8399 C   0  0  0  0  0  0  0  0  0  0  0  0
   -1.2067   -7.3287   17.7772 C   0  0  0  0  0  0  0  0  0  0  0  0
   -0.0206  -10.5585   16.6210 C   0  0  0  0  0  0  0  0  0  0  0  0
    0.3696  -12.7626   16.2169 O   0  0  0  0  0  0  0  0  0  0  0  0
   -0.6895   -9.5676   17.3297 C   0  0  0  0  0  0  0  0  0  0  0  0
    0.8388   -5.8417   27.5264 C   0  0  0  0  0  0  0  0  0  0  0  0
   -2.0709   -7.6637   18.7817 C   0  0  0  0  0  0  0  0  0  0  0  0
   -0.5279   -8.2168   17.0717 C   0  0  0  0  0  0  0  0  0  0  0  0
    6.9694   -4.0191   27.8190 C   0  0  0  0  0  0  0  0  0  0  0  0
    5.1733   -4.5469   29.8123 C   0  0  0  0  0  0  0  0  0  0  0  0
   -1.7508  -11.3016   18.6072 C   0  0  0  0  0  0  0  0  0  0  0  0
    1.7497   -5.6771   26.4971 C   0  0  0  0  0  0  0  0  0  0  0  0
   -1.5799   -9.9322   18.3468 C   0  0  0  0  0  0  0  0  0  0  0  0
   -1.0871  -12.2214   17.8851 C   0  0  0  0  0  0  0  0  0  0  0  0
   -2.2706   -8.9669   19.0691 C   0  0  0  0  0  0  0  0  0  0  0  0
    3.0279   -5.3073   26.8197 C   0  0  0  0  0  0  0  0  0  0  0  0
    7.3282   -3.8948   29.1186 C   0  0  0  0  0  0  0  0  0  0  0  0
  1  3  4  0
  1  7  4  0
  2  3  1  0
  2  6  4  0
  2 16  4  0
  3 22  4  0
  4  9  4  0
  4 10  1  0
  4 20  4  0
  5 16  4  0
  5 23  4  0
  6 15  4  0
  7 12  4  0
  8 13  4  0
  8 14  4  0
  9 11  4  0
 11 14  4  0
 11 19  4  0
 12 18  4  0
 13 21  4  0
 15 23  4  0
 17 19  4  0
 17 20  4  0
 18 22  4  0
 19 21  4  0
M  END
$$$$

 Created by Python create_sdf_string function

 23 25  0  0  0  0  0  0  0  0999 V2000
    2.4610   -5.3070   29.1240 C   0  0  0  0  0  0  0  0  0  0  0  0
    4.7710   -4.6952   28.4803 C   0  0  0  0  0  0  0  0  0  0  0  0
    3.4047   -5.1087   28.1314 C   0  0  0  0  0  0  0  0  0  0  0  0
   -0.2234  -11.8615   16.8874 C   0  0  0  0  0  0  0  0  0  0  0  0
    6.4491   -4.1532   30.1213 C   0  0  0  0  0  0  0  0  0  0  0  0
    5.7060   -4.4340   27.4975 C   0  0  0  0  0  0  0  0  0  0  0  0
    1.1818   -5.6612   28.8399 C   0  0  0  0  0  0  0  0  0  0  0  0
   -1.2067   -7.3287   17.7772 C   0  0  0  0  0  0  0  0  0  0  0  0
   -0.0206  -10.5585   16.6210 C   0  0  0  0  0  0  0  0  0  0  0  0
    0.3696  -12.7626   16.2169 O   0  0  0  0  0  0  0  0  0  0  0  0
   -0.6895   -9.5676   17.3297 C   0  0  0  0  0  0  0  0  0  0  0  0
    0.8388   -5.8417   27.5264 C   0  0  0  0  0  0  0  0  0  0  0  0
   -2.0709   -7.6637   18.7817 C   0  0  0  0  0  0  0  0  0  0  0  0
   -0.5279   -8.2168   17.0717 C   0  0  0  0  0  0  0  0  0  0  0  0
    6.9694   -4.0191   27.8190 C   0  0  0  0  0  0  0  0  0  0  0  0
    5.1733   -4.5469   29.8123 C   0  0  0  0  0  0  0  0  0  0  0  0
   -1.7508  -11.3016   18.6072 C   0  0  0  0  0  0  0  0  0  0  0  0
    1.7497   -5.6771   26.4971 C   0  0  0  0  0  0  0  0  0  0  0  0
   -1.5799   -9.9322   18.3468 C   0  0  0  0  0  0  0  0  0  0  0  0
   -1.0871  -12.2214   17.8851 C   0  0  0  0  0  0  0  0  0  0  0  0
   -2.2706   -8.9669   19.0691 C   0  0  0  0  0  0  0  0  0  0  0  0
    3.0279   -5.3073   26.8197 C   0  0  0  0  0  0  0  0  0  0  0  0
    7.3282   -3.8948   29.1186 C   0  0  0  0  0  0  0  0  0  0  0  0
  1  3  4  0
  1  7  4  0
  2  3  1  0
  2  6  4  0
  2 16  4  0
  3 22  4  0
  4  9  4  0
  4 10  1  0
  4 20  4  0
  5 16  4  0
  5 23  4  0
  6 15  4  0
  7 12  4  0
  8 13  4  0
  8 14  4  0
  9 11  4  0
 11 14  4  0
 11 19  4  0
 12 18  4  0
 13 21  4  0
 15 23  4  0
 17 19  4  0
 17 20  4  0
 18 22  4  0
 19 21  4  0
M  END
$$$$

 Created by Python create_sdf_string function

 23 25  0  0  0  0  0  0  0  0999 V2000
    2.4610   -5.3070   29.1240 C   0  0  0  0  0  0  0  0  0  0  0  0
    4.7710   -4.6952   28.4803 C   0  0  0  0  0  0  0  0  0  0  0  0
    3.4047   -5.1087   28.1314 C   0  0  0  0  0  0  0  0  0  0  0  0
   -0.2234  -11.8615   16.8874 C   0  0  0  0  0  0  0  0  0  0  0  0
    6.4491   -4.1532   30.1213 C   0  0  0  0  0  0  0  0  0  0  0  0
    5.7060   -4.4340   27.4975 C   0  0  0  0  0  0  0  0  0  0  0  0
    1.1818   -5.6612   28.8399 C   0  0  0  0  0  0  0  0  0  0  0  0
   -1.2067   -7.3287   17.7772 C   0  0  0  0  0  0  0  0  0  0  0  0
   -0.0206  -10.5585   16.6210 C   0  0  0  0  0  0  0  0  0  0  0  0
    0.3696  -12.7626   16.2169 O   0  0  0  0  0  0  0  0  0  0  0  0
   -0.6895   -9.5676   17.3297 C   0  0  0  0  0  0  0  0  0  0  0  0
    0.8388   -5.8417   27.5264 C   0  0  0  0  0  0  0  0  0  0  0  0
   -2.0709   -7.6637   18.7817 C   0  0  0  0  0  0  0  0  0  0  0  0
   -0.5279   -8.2168   17.0717 C   0  0  0  0  0  0  0  0  0  0  0  0
    6.9694   -4.0191   27.8190 C   0  0  0  0  0  0  0  0  0  0  0  0
    5.1733   -4.5469   29.8123 C   0  0  0  0  0  0  0  0  0  0  0  0
   -1.7508  -11.3016   18.6072 C   0  0  0  0  0  0  0  0  0  0  0  0
    1.7497   -5.6771   26.4971 C   0  0  0  0  0  0  0  0  0  0  0  0
   -1.5799   -9.9322   18.3468 C   0  0  0  0  0  0  0  0  0  0  0  0
   -1.0871  -12.2214   17.8851 C   0  0  0  0  0  0  0  0  0  0  0  0
   -2.2706   -8.9669   19.0691 C   0  0  0  0  0  0  0  0  0  0  0  0
    3.0279   -5.3073   26.8197 C   0  0  0  0  0  0  0  0  0  0  0  0
    7.3282   -3.8948   29.1186 C   0  0  0  0  0  0  0  0  0  0  0  0
  1  3  4  0
  1  7  4  0
  2  3  1  0
  2  6  4  0
  2 16  4  0
  3 22  4  0
  4  9  4  0
  4 10  1  0
  4 20  4  0
  5 16  4  0
  5 23  4  0
  6 15  4  0
  7 12  4  0
  8 13  4  0
  8 14  4  0
  9 11  4  0
 11 14  4  0
 11 19  4  0
 12 18  4  0
 13 21  4  0
 15 23  4  0
 17 19  4  0
 17 20  4  0
 18 22  4  0
 19 21  4  0
M  END
$$$$

 Created by Python create_sdf_string function

 23 25  0  0  0  0  0  0  0  0999 V2000
    2.4610   -5.3070   29.1240 C   0  0  0  0  0  0  0  0  0  0  0  0
    4.7710   -4.6952   28.4803 C   0  0  0  0  0  0  0  0  0  0  0  0
    3.4047   -5.1087   28.1314 C   0  0  0  0  0  0  0  0  0  0  0  0
   -0.2234  -11.8615   16.8874 C   0  0  0  0  0  0  0  0  0  0  0  0
    6.4491   -4.1532   30.1213 C   0  0  0  0  0  0  0  0  0  0  0  0
    5.7060   -4.4340   27.4975 C   0  0  0  0  0  0  0  0  0  0  0  0
    1.1818   -5.6612   28.8399 C   0  0  0  0  0  0  0  0  0  0  0  0
   -1.2067   -7.3287   17.7772 C   0  0  0  0  0  0  0  0  0  0  0  0
   -0.0206  -10.5585   16.6210 C   0  0  0  0  0  0  0  0  0  0  0  0
    0.3696  -12.7626   16.2169 O   0  0  0  0  0  0  0  0  0  0  0  0
   -0.6895   -9.5676   17.3297 C   0  0  0  0  0  0  0  0  0  0  0  0
    0.8388   -5.8417   27.5264 C   0  0  0  0  0  0  0  0  0  0  0  0
   -2.0709   -7.6637   18.7817 C   0  0  0  0  0  0  0  0  0  0  0  0
   -0.5279   -8.2168   17.0717 C   0  0  0  0  0  0  0  0  0  0  0  0
    6.9694   -4.0191   27.8190 C   0  0  0  0  0  0  0  0  0  0  0  0
    5.1733   -4.5469   29.8123 C   0  0  0  0  0  0  0  0  0  0  0  0
   -1.7508  -11.3016   18.6072 C   0  0  0  0  0  0  0  0  0  0  0  0
    1.7497   -5.6771   26.4971 C   0  0  0  0  0  0  0  0  0  0  0  0
   -1.5799   -9.9322   18.3468 C   0  0  0  0  0  0  0  0  0  0  0  0
   -1.0871  -12.2214   17.8851 C   0  0  0  0  0  0  0  0  0  0  0  0
   -2.2706   -8.9669   19.0691 C   0  0  0  0  0  0  0  0  0  0  0  0
    3.0279   -5.3073   26.8197 C   0  0  0  0  0  0  0  0  0  0  0  0
    7.3282   -3.8948   29.1186 C   0  0  0  0  0  0  0  0  0  0  0  0
  1  3  4  0
  1  7  4  0
  2  3  1  0
  2  6  4  0
  2 16  4  0
  3 22  4  0
  4  9  4  0
  4 10  1  0
  4 20  4  0
  5 16  4  0
  5 23  4  0
  6 15  4  0
  7 12  4  0
  8 13  4  0
  8 14  4  0
  9 11  4  0
 11 14  4  0
 11 19  4  0
 12 18  4  0
 13 21  4  0
 15 23  4  0
 17 19  4  0
 17 20  4  0
 18 22  4  0
 19 21  4  0
M  END
$$$$

 Created by Python create_sdf_string function

 23 25  0  0  0  0  0  0  0  0999 V2000
    2.4610   -5.3070   29.1240 C   0  0  0  0  0  0  0  0  0  0  0  0
    4.7710   -4.6952   28.4803 C   0  0  0  0  0  0  0  0  0  0  0  0
    3.4047   -5.1087   28.1314 C   0  0  0  0  0  0  0  0  0  0  0  0
   -0.2234  -11.8615   16.8874 C   0  0  0  0  0  0  0  0  0  0  0  0
    6.4491   -4.1532   30.1213 C   0  0  0  0  0  0  0  0  0  0  0  0
    5.7060   -4.4340   27.4975 C   0  0  0  0  0  0  0  0  0  0  0  0
    1.1818   -5.6612   28.8399 C   0  0  0  0  0  0  0  0  0  0  0  0
   -1.2067   -7.3287   17.7772 C   0  0  0  0  0  0  0  0  0  0  0  0
   -0.0206  -10.5585   16.6210 C   0  0  0  0  0  0  0  0  0  0  0  0
    0.3696  -12.7626   16.2169 O   0  0  0  0  0  0  0  0  0  0  0  0
   -0.6895   -9.5676   17.3297 C   0  0  0  0  0  0  0  0  0  0  0  0
    0.8388   -5.8417   27.5264 C   0  0  0  0  0  0  0  0  0  0  0  0
   -2.0709   -7.6637   18.7817 C   0  0  0  0  0  0  0  0  0  0  0  0
   -0.5279   -8.2168   17.0717 C   0  0  0  0  0  0  0  0  0  0  0  0
    6.9694   -4.0191   27.8190 C   0  0  0  0  0  0  0  0  0  0  0  0
    5.1733   -4.5469   29.8123 C   0  0  0  0  0  0  0  0  0  0  0  0
   -1.7508  -11.3016   18.6072 C   0  0  0  0  0  0  0  0  0  0  0  0
    1.7497   -5.6771   26.4971 C   0  0  0  0  0  0  0  0  0  0  0  0
   -1.5799   -9.9322   18.3468 C   0  0  0  0  0  0  0  0  0  0  0  0
   -1.0871  -12.2214   17.8851 C   0  0  0  0  0  0  0  0  0  0  0  0
   -2.2706   -8.9669   19.0691 C   0  0  0  0  0  0  0  0  0  0  0  0
    3.0279   -5.3073   26.8197 C   0  0  0  0  0  0  0  0  0  0  0  0
    7.3282   -3.8948   29.1186 C   0  0  0  0  0  0  0  0  0  0  0  0
  1  3  4  0
  1  7  4  0
  2  3  1  0
  2  6  4  0
  2 16  4  0
  3 22  4  0
  4  9  4  0
  4 10  1  0
  4 20  4  0
  5 16  4  0
  5 23  4  0
  6 15  4  0
  7 12  4  0
  8 13  4  0
  8 14  4  0
  9 11  4  0
 11 14  4  0
 11 19  4  0
 12 18  4  0
 13 21  4  0
 15 23  4  0
 17 19  4  0
 17 20  4  0
 18 22  4  0
 19 21  4  0
M  END
$$$$

 Created by Python create_sdf_string function

 23 25  0  0  0  0  0  0  0  0999 V2000
    2.4610   -5.3070   29.1240 C   0  0  0  0  0  0  0  0  0  0  0  0
    4.7710   -4.6952   28.4803 C   0  0  0  0  0  0  0  0  0  0  0  0
    3.4047   -5.1087   28.1314 C   0  0  0  0  0  0  0  0  0  0  0  0
   -0.2234  -11.8615   16.8874 C   0  0  0  0  0  0  0  0  0  0  0  0
    6.4491   -4.1532   30.1213 C   0  0  0  0  0  0  0  0  0  0  0  0
    5.7060   -4.4340   27.4975 C   0  0  0  0  0  0  0  0  0  0  0  0
    1.1818   -5.6612   28.8399 C   0  0  0  0  0  0  0  0  0  0  0  0
   -1.2067   -7.3287   17.7772 C   0  0  0  0  0  0  0  0  0  0  0  0
   -0.0206  -10.5585   16.6210 C   0  0  0  0  0  0  0  0  0  0  0  0
    0.3696  -12.7626   16.2169 O   0  0  0  0  0  0  0  0  0  0  0  0
   -0.6895   -9.5676   17.3297 C   0  0  0  0  0  0  0  0  0  0  0  0
    0.8388   -5.8417   27.5264 C   0  0  0  0  0  0  0  0  0  0  0  0
   -2.0709   -7.6637   18.7817 C   0  0  0  0  0  0  0  0  0  0  0  0
   -0.5279   -8.2168   17.0717 C   0  0  0  0  0  0  0  0  0  0  0  0
    6.9694   -4.0191   27.8190 C   0  0  0  0  0  0  0  0  0  0  0  0
    5.1733   -4.5469   29.8123 C   0  0  0  0  0  0  0  0  0  0  0  0
   -1.7508  -11.3016   18.6072 C   0  0  0  0  0  0  0  0  0  0  0  0
    1.7497   -5.6771   26.4971 C   0  0  0  0  0  0  0  0  0  0  0  0
   -1.5799   -9.9322   18.3468 C   0  0  0  0  0  0  0  0  0  0  0  0
   -1.0871  -12.2214   17.8851 C   0  0  0  0  0  0  0  0  0  0  0  0
   -2.2706   -8.9669   19.0691 C   0  0  0  0  0  0  0  0  0  0  0  0
    3.0279   -5.3073   26.8197 C   0  0  0  0  0  0  0  0  0  0  0  0
    7.3282   -3.8948   29.1186 C   0  0  0  0  0  0  0  0  0  0  0  0
  1  3  4  0
  1  7  4  0
  2  3  1  0
  2  6  4  0
  2 16  4  0
  3 22  4  0
  4  9  4  0
  4 10  1  0
  4 20  4  0
  5 16  4  0
  5 23  4  0
  6 15  4  0
  7 12  4  0
  8 13  4  0
  8 14  4  0
  9 11  4  0
 11 14  4  0
 11 19  4  0
 12 18  4  0
 13 21  4  0
 15 23  4  0
 17 19  4  0
 17 20  4  0
 18 22  4  0
 19 21  4  0
M  END
$$$$

 Created by Python create_sdf_string function

 23 25  0  0  0  0  0  0  0  0999 V2000
    2.4610   -5.3070   29.1240 C   0  0  0  0  0  0  0  0  0  0  0  0
    4.7710   -4.6952   28.4803 C   0  0  0  0  0  0  0  0  0  0  0  0
    3.4047   -5.1087   28.1314 C   0  0  0  0  0  0  0  0  0  0  0  0
   -0.2234  -11.8615   16.8874 C   0  0  0  0  0  0  0  0  0  0  0  0
    6.4491   -4.1532   30.1213 C   0  0  0  0  0  0  0  0  0  0  0  0
    5.7060   -4.4340   27.4975 C   0  0  0  0  0  0  0  0  0  0  0  0
    1.1818   -5.6612   28.8399 C   0  0  0  0  0  0  0  0  0  0  0  0
   -1.2067   -7.3287   17.7772 C   0  0  0  0  0  0  0  0  0  0  0  0
   -0.0206  -10.5585   16.6210 C   0  0  0  0  0  0  0  0  0  0  0  0
    0.3696  -12.7626   16.2169 O   0  0  0  0  0  0  0  0  0  0  0  0
   -0.6895   -9.5676   17.3297 C   0  0  0  0  0  0  0  0  0  0  0  0
    0.8388   -5.8417   27.5264 C   0  0  0  0  0  0  0  0  0  0  0  0
   -2.0709   -7.6637   18.7817 C   0  0  0  0  0  0  0  0  0  0  0  0
   -0.5279   -8.2168   17.0717 C   0  0  0  0  0  0  0  0  0  0  0  0
    6.9694   -4.0191   27.8190 C   0  0  0  0  0  0  0  0  0  0  0  0
    5.1733   -4.5469   29.8123 C   0  0  0  0  0  0  0  0  0  0  0  0
   -1.7508  -11.3016   18.6072 C   0  0  0  0  0  0  0  0  0  0  0  0
    1.7497   -5.6771   26.4971 C   0  0  0  0  0  0  0  0  0  0  0  0
   -1.5799   -9.9322   18.3468 C   0  0  0  0  0  0  0  0  0  0  0  0
   -1.0871  -12.2214   17.8851 C   0  0  0  0  0  0  0  0  0  0  0  0
   -2.2706   -8.9669   19.0691 C   0  0  0  0  0  0  0  0  0  0  0  0
    3.0279   -5.3073   26.8197 C   0  0  0  0  0  0  0  0  0  0  0  0
    7.3282   -3.8948   29.1186 C   0  0  0  0  0  0  0  0  0  0  0  0
  1  3  4  0
  1  7  4  0
  2  3  1  0
  2  6  4  0
  2 16  4  0
  3 22  4  0
  4  9  4  0
  4 10  1  0
  4 20  4  0
  5 16  4  0
  5 23  4  0
  6 15  4  0
  7 12  4  0
  8 13  4  0
  8 14  4  0
  9 11  4  0
 11 14  4  0
 11 19  4  0
 12 18  4  0
 13 21  4  0
 15 23  4  0
 17 19  4  0
 17 20  4  0
 18 22  4  0
 19 21  4  0
M  END
$$$$

 Created by Python create_sdf_string function

 23 25  0  0  0  0  0  0  0  0999 V2000
    2.4610   -5.3070   29.1240 C   0  0  0  0  0  0  0  0  0  0  0  0
    4.7710   -4.6952   28.4803 C   0  0  0  0  0  0  0  0  0  0  0  0
    3.4047   -5.1087   28.1314 C   0  0  0  0  0  0  0  0  0  0  0  0
   -0.2234  -11.8615   16.8874 C   0  0  0  0  0  0  0  0  0  0  0  0
    6.4491   -4.1532   30.1213 C   0  0  0  0  0  0  0  0  0  0  0  0
    5.7060   -4.4340   27.4975 C   0  0  0  0  0  0  0  0  0  0  0  0
    1.1818   -5.6612   28.8399 C   0  0  0  0  0  0  0  0  0  0  0  0
   -1.2067   -7.3287   17.7772 C   0  0  0  0  0  0  0  0  0  0  0  0
   -0.0206  -10.5585   16.6210 C   0  0  0  0  0  0  0  0  0  0  0  0
    0.3696  -12.7626   16.2169 O   0  0  0  0  0  0  0  0  0  0  0  0
   -0.6895   -9.5676   17.3297 C   0  0  0  0  0  0  0  0  0  0  0  0
    0.8388   -5.8417   27.5264 C   0  0  0  0  0  0  0  0  0  0  0  0
   -2.0709   -7.6637   18.7817 C   0  0  0  0  0  0  0  0  0  0  0  0
   -0.5279   -8.2168   17.0717 C   0  0  0  0  0  0  0  0  0  0  0  0
    6.9694   -4.0191   27.8190 C   0  0  0  0  0  0  0  0  0  0  0  0
    5.1733   -4.5469   29.8123 C   0  0  0  0  0  0  0  0  0  0  0  0
   -1.7508  -11.3016   18.6072 C   0  0  0  0  0  0  0  0  0  0  0  0
    1.7497   -5.6771   26.4971 C   0  0  0  0  0  0  0  0  0  0  0  0
   -1.5799   -9.9322   18.3468 C   0  0  0  0  0  0  0  0  0  0  0  0
   -1.0871  -12.2214   17.8851 C   0  0  0  0  0  0  0  0  0  0  0  0
   -2.2706   -8.9669   19.0691 C   0  0  0  0  0  0  0  0  0  0  0  0
    3.0279   -5.3073   26.8197 C   0  0  0  0  0  0  0  0  0  0  0  0
    7.3282   -3.8948   29.1186 C   0  0  0  0  0  0  0  0  0  0  0  0
  1  3  4  0
  1  7  4  0
  2  3  1  0
  2  6  4  0
  2 16  4  0
  3 22  4  0
  4  9  4  0
  4 10  1  0
  4 20  4  0
  5 16  4  0
  5 23  4  0
  6 15  4  0
  7 12  4  0
  8 13  4  0
  8 14  4  0
  9 11  4  0
 11 14  4  0
 11 19  4  0
 12 18  4  0
 13 21  4  0
 15 23  4  0
 17 19  4  0
 17 20  4  0
 18 22  4  0
 19 21  4  0
M  END
$$$$

 Created by Python create_sdf_string function

 23 25  0  0  0  0  0  0  0  0999 V2000
    2.4610   -5.3070   29.1240 C   0  0  0  0  0  0  0  0  0  0  0  0
    4.7710   -4.6952   28.4803 C   0  0  0  0  0  0  0  0  0  0  0  0
    3.4047   -5.1087   28.1314 C   0  0  0  0  0  0  0  0  0  0  0  0
   -0.2234  -11.8615   16.8874 C   0  0  0  0  0  0  0  0  0  0  0  0
    6.4491   -4.1532   30.1213 C   0  0  0  0  0  0  0  0  0  0  0  0
    5.7060   -4.4340   27.4975 C   0  0  0  0  0  0  0  0  0  0  0  0
    1.1818   -5.6612   28.8399 C   0  0  0  0  0  0  0  0  0  0  0  0
   -1.2067   -7.3287   17.7772 C   0  0  0  0  0  0  0  0  0  0  0  0
   -0.0206  -10.5585   16.6210 C   0  0  0  0  0  0  0  0  0  0  0  0
    0.3696  -12.7626   16.2169 O   0  0  0  0  0  0  0  0  0  0  0  0
   -0.6895   -9.5676   17.3297 C   0  0  0  0  0  0  0  0  0  0  0  0
    0.8388   -5.8417   27.5264 C   0  0  0  0  0  0  0  0  0  0  0  0
   -2.0709   -7.6637   18.7817 C   0  0  0  0  0  0  0  0  0  0  0  0
   -0.5279   -8.2168   17.0717 C   0  0  0  0  0  0  0  0  0  0  0  0
    6.9694   -4.0191   27.8190 C   0  0  0  0  0  0  0  0  0  0  0  0
    5.1733   -4.5469   29.8123 C   0  0  0  0  0  0  0  0  0  0  0  0
   -1.7508  -11.3016   18.6072 C   0  0  0  0  0  0  0  0  0  0  0  0
    1.7497   -5.6771   26.4971 C   0  0  0  0  0  0  0  0  0  0  0  0
   -1.5799   -9.9322   18.3468 C   0  0  0  0  0  0  0  0  0  0  0  0
   -1.0871  -12.2214   17.8851 C   0  0  0  0  0  0  0  0  0  0  0  0
   -2.2706   -8.9669   19.0691 C   0  0  0  0  0  0  0  0  0  0  0  0
    3.0279   -5.3073   26.8197 C   0  0  0  0  0  0  0  0  0  0  0  0
    7.3282   -3.8948   29.1186 C   0  0  0  0  0  0  0  0  0  0  0  0
  1  3  4  0
  1  7  4  0
  2  3  1  0
  2  6  4  0
  2 16  4  0
  3 22  4  0
  4  9  4  0
  4 10  1  0
  4 20  4  0
  5 16  4  0
  5 23  4  0
  6 15  4  0
  7 12  4  0
  8 13  4  0
  8 14  4  0
  9 11  4  0
 11 14  4  0
 11 19  4  0
 12 18  4  0
 13 21  4  0
 15 23  4  0
 17 19  4  0
 17 20  4  0
 18 22  4  0
 19 21  4  0
M  END
$$$$

 Created by Python create_sdf_string function

 23 25  0  0  0  0  0  0  0  0999 V2000
    2.4610   -5.3070   29.1240 C   0  0  0  0  0  0  0  0  0  0  0  0
    4.7710   -4.6952   28.4803 C   0  0  0  0  0  0  0  0  0  0  0  0
    3.4047   -5.1087   28.1314 C   0  0  0  0  0  0  0  0  0  0  0  0
   -0.2234  -11.8615   16.8874 C   0  0  0  0  0  0  0  0  0  0  0  0
    6.4491   -4.1532   30.1213 C   0  0  0  0  0  0  0  0  0  0  0  0
    5.7060   -4.4340   27.4975 C   0  0  0  0  0  0  0  0  0  0  0  0
    1.1818   -5.6612   28.8399 C   0  0  0  0  0  0  0  0  0  0  0  0
   -1.2067   -7.3287   17.7772 C   0  0  0  0  0  0  0  0  0  0  0  0
   -0.0206  -10.5585   16.6210 C   0  0  0  0  0  0  0  0  0  0  0  0
    0.3696  -12.7626   16.2169 O   0  0  0  0  0  0  0  0  0  0  0  0
   -0.6895   -9.5676   17.3297 C   0  0  0  0  0  0  0  0  0  0  0  0
    0.8388   -5.8417   27.5264 C   0  0  0  0  0  0  0  0  0  0  0  0
   -2.0709   -7.6637   18.7817 C   0  0  0  0  0  0  0  0  0  0  0  0
   -0.5279   -8.2168   17.0717 C   0  0  0  0  0  0  0  0  0  0  0  0
    6.9694   -4.0191   27.8190 C   0  0  0  0  0  0  0  0  0  0  0  0
    5.1733   -4.5469   29.8123 C   0  0  0  0  0  0  0  0  0  0  0  0
   -1.7508  -11.3016   18.6072 C   0  0  0  0  0  0  0  0  0  0  0  0
    1.7497   -5.6771   26.4971 C   0  0  0  0  0  0  0  0  0  0  0  0
   -1.5799   -9.9322   18.3468 C   0  0  0  0  0  0  0  0  0  0  0  0
   -1.0871  -12.2214   17.8851 C   0  0  0  0  0  0  0  0  0  0  0  0
   -2.2706   -8.9669   19.0691 C   0  0  0  0  0  0  0  0  0  0  0  0
    3.0279   -5.3073   26.8197 C   0  0  0  0  0  0  0  0  0  0  0  0
    7.3282   -3.8948   29.1186 C   0  0  0  0  0  0  0  0  0  0  0  0
  1  3  4  0
  1  7  4  0
  2  3  1  0
  2  6  4  0
  2 16  4  0
  3 22  4  0
  4  9  4  0
  4 10  1  0
  4 20  4  0
  5 16  4  0
  5 23  4  0
  6 15  4  0
  7 12  4  0
  8 13  4  0
  8 14  4  0
  9 11  4  0
 11 14  4  0
 11 19  4  0
 12 18  4  0
 13 21  4  0
 15 23  4  0
 17 19  4  0
 17 20  4  0
 18 22  4  0
 19 21  4  0
M  END
$$$$

 Created by Python create_sdf_string function

 23 25  0  0  0  0  0  0  0  0999 V2000
    2.4610   -5.3070   29.1240 C   0  0  0  0  0  0  0  0  0  0  0  0
    4.7710   -4.6952   28.4803 C   0  0  0  0  0  0  0  0  0  0  0  0
    3.4047   -5.1087   28.1314 C   0  0  0  0  0  0  0  0  0  0  0  0
   -0.2234  -11.8615   16.8874 C   0  0  0  0  0  0  0  0  0  0  0  0
    6.4491   -4.1532   30.1213 C   0  0  0  0  0  0  0  0  0  0  0  0
    5.7060   -4.4340   27.4975 C   0  0  0  0  0  0  0  0  0  0  0  0
    1.1818   -5.6612   28.8399 C   0  0  0  0  0  0  0  0  0  0  0  0
   -1.2067   -7.3287   17.7772 C   0  0  0  0  0  0  0  0  0  0  0  0
   -0.0206  -10.5585   16.6210 C   0  0  0  0  0  0  0  0  0  0  0  0
    0.3696  -12.7626   16.2169 O   0  0  0  0  0  0  0  0  0  0  0  0
   -0.6895   -9.5676   17.3297 C   0  0  0  0  0  0  0  0  0  0  0  0
    0.8388   -5.8417   27.5264 C   0  0  0  0  0  0  0  0  0  0  0  0
   -2.0709   -7.6637   18.7817 C   0  0  0  0  0  0  0  0  0  0  0  0
   -0.5279   -8.2168   17.0717 C   0  0  0  0  0  0  0  0  0  0  0  0
    6.9694   -4.0191   27.8190 C   0  0  0  0  0  0  0  0  0  0  0  0
    5.1733   -4.5469   29.8123 C   0  0  0  0  0  0  0  0  0  0  0  0
   -1.7508  -11.3016   18.6072 C   0  0  0  0  0  0  0  0  0  0  0  0
    1.7497   -5.6771   26.4971 C   0  0  0  0  0  0  0  0  0  0  0  0
   -1.5799   -9.9322   18.3468 C   0  0  0  0  0  0  0  0  0  0  0  0
   -1.0871  -12.2214   17.8851 C   0  0  0  0  0  0  0  0  0  0  0  0
   -2.2706   -8.9669   19.0691 C   0  0  0  0  0  0  0  0  0  0  0  0
    3.0279   -5.3073   26.8197 C   0  0  0  0  0  0  0  0  0  0  0  0
    7.3282   -3.8948   29.1186 C   0  0  0  0  0  0  0  0  0  0  0  0
  1  3  4  0
  1  7  4  0
  2  3  1  0
  2  6  4  0
  2 16  4  0
  3 22  4  0
  4  9  4  0
  4 10  1  0
  4 20  4  0
  5 16  4  0
  5 23  4  0
  6 15  4  0
  7 12  4  0
  8 13  4  0
  8 14  4  0
  9 11  4  0
 11 14  4  0
 11 19  4  0
 12 18  4  0
 13 21  4  0
 15 23  4  0
 17 19  4  0
 17 20  4  0
 18 22  4  0
 19 21  4  0
M  END
$$$$

 Created by Python create_sdf_string function

 23 25  0  0  0  0  0  0  0  0999 V2000
    2.4610   -5.3070   29.1240 C   0  0  0  0  0  0  0  0  0  0  0  0
    4.7710   -4.6952   28.4803 C   0  0  0  0  0  0  0  0  0  0  0  0
    3.4047   -5.1087   28.1314 C   0  0  0  0  0  0  0  0  0  0  0  0
   -0.2234  -11.8615   16.8874 C   0  0  0  0  0  0  0  0  0  0  0  0
    6.4491   -4.1532   30.1213 C   0  0  0  0  0  0  0  0  0  0  0  0
    5.7060   -4.4340   27.4975 C   0  0  0  0  0  0  0  0  0  0  0  0
    1.1818   -5.6612   28.8399 C   0  0  0  0  0  0  0  0  0  0  0  0
   -1.2067   -7.3287   17.7772 C   0  0  0  0  0  0  0  0  0  0  0  0
   -0.0206  -10.5585   16.6210 C   0  0  0  0  0  0  0  0  0  0  0  0
    0.3696  -12.7626   16.2169 O   0  0  0  0  0  0  0  0  0  0  0  0
   -0.6895   -9.5676   17.3297 C   0  0  0  0  0  0  0  0  0  0  0  0
    0.8388   -5.8417   27.5264 C   0  0  0  0  0  0  0  0  0  0  0  0
   -2.0709   -7.6637   18.7817 C   0  0  0  0  0  0  0  0  0  0  0  0
   -0.5279   -8.2168   17.0717 C   0  0  0  0  0  0  0  0  0  0  0  0
    6.9694   -4.0191   27.8190 C   0  0  0  0  0  0  0  0  0  0  0  0
    5.1733   -4.5469   29.8123 C   0  0  0  0  0  0  0  0  0  0  0  0
   -1.7508  -11.3016   18.6072 C   0  0  0  0  0  0  0  0  0  0  0  0
    1.7497   -5.6771   26.4971 C   0  0  0  0  0  0  0  0  0  0  0  0
   -1.5799   -9.9322   18.3468 C   0  0  0  0  0  0  0  0  0  0  0  0
   -1.0871  -12.2214   17.8851 C   0  0  0  0  0  0  0  0  0  0  0  0
   -2.2706   -8.9669   19.0691 C   0  0  0  0  0  0  0  0  0  0  0  0
    3.0279   -5.3073   26.8197 C   0  0  0  0  0  0  0  0  0  0  0  0
    7.3282   -3.8948   29.1186 C   0  0  0  0  0  0  0  0  0  0  0  0
  1  3  4  0
  1  7  4  0
  2  3  1  0
  2  6  4  0
  2 16  4  0
  3 22  4  0
  4  9  4  0
  4 10  1  0
  4 20  4  0
  5 16  4  0
  5 23  4  0
  6 15  4  0
  7 12  4  0
  8 13  4  0
  8 14  4  0
  9 11  4  0
 11 14  4  0
 11 19  4  0
 12 18  4  0
 13 21  4  0
 15 23  4  0
 17 19  4  0
 17 20  4  0
 18 22  4  0
 19 21  4  0
M  END
$$$$

 Created by Python create_sdf_string function

 23 25  0  0  0  0  0  0  0  0999 V2000
    2.4610   -5.3070   29.1240 C   0  0  0  0  0  0  0  0  0  0  0  0
    4.7710   -4.6952   28.4803 C   0  0  0  0  0  0  0  0  0  0  0  0
    3.4047   -5.1087   28.1314 C   0  0  0  0  0  0  0  0  0  0  0  0
   -0.2234  -11.8615   16.8874 C   0  0  0  0  0  0  0  0  0  0  0  0
    6.4491   -4.1532   30.1213 C   0  0  0  0  0  0  0  0  0  0  0  0
    5.7060   -4.4340   27.4975 C   0  0  0  0  0  0  0  0  0  0  0  0
    1.1818   -5.6612   28.8399 C   0  0  0  0  0  0  0  0  0  0  0  0
   -1.2067   -7.3287   17.7772 C   0  0  0  0  0  0  0  0  0  0  0  0
   -0.0206  -10.5585   16.6210 C   0  0  0  0  0  0  0  0  0  0  0  0
    0.3696  -12.7626   16.2169 O   0  0  0  0  0  0  0  0  0  0  0  0
   -0.6895   -9.5676   17.3297 C   0  0  0  0  0  0  0  0  0  0  0  0
    0.8388   -5.8417   27.5264 C   0  0  0  0  0  0  0  0  0  0  0  0
   -2.0709   -7.6637   18.7817 C   0  0  0  0  0  0  0  0  0  0  0  0
   -0.5279   -8.2168   17.0717 C   0  0  0  0  0  0  0  0  0  0  0  0
    6.9694   -4.0191   27.8190 C   0  0  0  0  0  0  0  0  0  0  0  0
    5.1733   -4.5469   29.8123 C   0  0  0  0  0  0  0  0  0  0  0  0
   -1.7508  -11.3016   18.6072 C   0  0  0  0  0  0  0  0  0  0  0  0
    1.7497   -5.6771   26.4971 C   0  0  0  0  0  0  0  0  0  0  0  0
   -1.5799   -9.9322   18.3468 C   0  0  0  0  0  0  0  0  0  0  0  0
   -1.0871  -12.2214   17.8851 C   0  0  0  0  0  0  0  0  0  0  0  0
   -2.2706   -8.9669   19.0691 C   0  0  0  0  0  0  0  0  0  0  0  0
    3.0279   -5.3073   26.8197 C   0  0  0  0  0  0  0  0  0  0  0  0
    7.3282   -3.8948   29.1186 C   0  0  0  0  0  0  0  0  0  0  0  0
  1  3  4  0
  1  7  4  0
  2  3  1  0
  2  6  4  0
  2 16  4  0
  3 22  4  0
  4  9  4  0
  4 10  1  0
  4 20  4  0
  5 16  4  0
  5 23  4  0
  6 15  4  0
  7 12  4  0
  8 13  4  0
  8 14  4  0
  9 11  4  0
 11 14  4  0
 11 19  4  0
 12 18  4  0
 13 21  4  0
 15 23  4  0
 17 19  4  0
 17 20  4  0
 18 22  4  0
 19 21  4  0
M  END
$$$$

 Created by Python create_sdf_string function

 23 25  0  0  0  0  0  0  0  0999 V2000
    2.4610   -5.3070   29.1240 C   0  0  0  0  0  0  0  0  0  0  0  0
    4.7710   -4.6952   28.4803 C   0  0  0  0  0  0  0  0  0  0  0  0
    3.4047   -5.1087   28.1314 C   0  0  0  0  0  0  0  0  0  0  0  0
   -0.2234  -11.8615   16.8874 C   0  0  0  0  0  0  0  0  0  0  0  0
    6.4491   -4.1532   30.1213 C   0  0  0  0  0  0  0  0  0  0  0  0
    5.7060   -4.4340   27.4975 C   0  0  0  0  0  0  0  0  0  0  0  0
    1.1818   -5.6612   28.8399 C   0  0  0  0  0  0  0  0  0  0  0  0
   -1.2067   -7.3287   17.7772 C   0  0  0  0  0  0  0  0  0  0  0  0
   -0.0206  -10.5585   16.6210 C   0  0  0  0  0  0  0  0  0  0  0  0
    0.3696  -12.7626   16.2169 O   0  0  0  0  0  0  0  0  0  0  0  0
   -0.6895   -9.5676   17.3297 C   0  0  0  0  0  0  0  0  0  0  0  0
    0.8388   -5.8417   27.5264 C   0  0  0  0  0  0  0  0  0  0  0  0
   -2.0709   -7.6637   18.7817 C   0  0  0  0  0  0  0  0  0  0  0  0
   -0.5279   -8.2168   17.0717 C   0  0  0  0  0  0  0  0  0  0  0  0
    6.9694   -4.0191   27.8190 C   0  0  0  0  0  0  0  0  0  0  0  0
    5.1733   -4.5469   29.8123 C   0  0  0  0  0  0  0  0  0  0  0  0
   -1.7508  -11.3016   18.6072 C   0  0  0  0  0  0  0  0  0  0  0  0
    1.7497   -5.6771   26.4971 C   0  0  0  0  0  0  0  0  0  0  0  0
   -1.5799   -9.9322   18.3468 C   0  0  0  0  0  0  0  0  0  0  0  0
   -1.0871  -12.2214   17.8851 C   0  0  0  0  0  0  0  0  0  0  0  0
   -2.2706   -8.9669   19.0691 C   0  0  0  0  0  0  0  0  0  0  0  0
    3.0279   -5.3073   26.8197 C   0  0  0  0  0  0  0  0  0  0  0  0
    7.3282   -3.8948   29.1186 C   0  0  0  0  0  0  0  0  0  0  0  0
  1  3  4  0
  1  7  4  0
  2  3  1  0
  2  6  4  0
  2 16  4  0
  3 22  4  0
  4  9  4  0
  4 10  1  0
  4 20  4  0
  5 16  4  0
  5 23  4  0
  6 15  4  0
  7 12  4  0
  8 13  4  0
  8 14  4  0
  9 11  4  0
 11 14  4  0
 11 19  4  0
 12 18  4  0
 13 21  4  0
 15 23  4  0
 17 19  4  0
 17 20  4  0
 18 22  4  0
 19 21  4  0
M  END
$$$$

 Created by Python create_sdf_string function

 23 25  0  0  0  0  0  0  0  0999 V2000
    2.4610   -5.3070   29.1240 C   0  0  0  0  0  0  0  0  0  0  0  0
    4.7710   -4.6952   28.4803 C   0  0  0  0  0  0  0  0  0  0  0  0
    3.4047   -5.1087   28.1314 C   0  0  0  0  0  0  0  0  0  0  0  0
   -0.2234  -11.8615   16.8874 C   0  0  0  0  0  0  0  0  0  0  0  0
    6.4491   -4.1532   30.1213 C   0  0  0  0  0  0  0  0  0  0  0  0
    5.7060   -4.4340   27.4975 C   0  0  0  0  0  0  0  0  0  0  0  0
    1.1818   -5.6612   28.8399 C   0  0  0  0  0  0  0  0  0  0  0  0
   -1.2067   -7.3287   17.7772 C   0  0  0  0  0  0  0  0  0  0  0  0
   -0.0206  -10.5585   16.6210 C   0  0  0  0  0  0  0  0  0  0  0  0
    0.3696  -12.7626   16.2169 O   0  0  0  0  0  0  0  0  0  0  0  0
   -0.6895   -9.5676   17.3297 C   0  0  0  0  0  0  0  0  0  0  0  0
    0.8388   -5.8417   27.5264 C   0  0  0  0  0  0  0  0  0  0  0  0
   -2.0709   -7.6637   18.7817 C   0  0  0  0  0  0  0  0  0  0  0  0
   -0.5279   -8.2168   17.0717 C   0  0  0  0  0  0  0  0  0  0  0  0
    6.9694   -4.0191   27.8190 C   0  0  0  0  0  0  0  0  0  0  0  0
    5.1733   -4.5469   29.8123 C   0  0  0  0  0  0  0  0  0  0  0  0
   -1.7508  -11.3016   18.6072 C   0  0  0  0  0  0  0  0  0  0  0  0
    1.7497   -5.6771   26.4971 C   0  0  0  0  0  0  0  0  0  0  0  0
   -1.5799   -9.9322   18.3468 C   0  0  0  0  0  0  0  0  0  0  0  0
   -1.0871  -12.2214   17.8851 C   0  0  0  0  0  0  0  0  0  0  0  0
   -2.2706   -8.9669   19.0691 C   0  0  0  0  0  0  0  0  0  0  0  0
    3.0279   -5.3073   26.8197 C   0  0  0  0  0  0  0  0  0  0  0  0
    7.3282   -3.8948   29.1186 C   0  0  0  0  0  0  0  0  0  0  0  0
  1  3  4  0
  1  7  4  0
  2  3  1  0
  2  6  4  0
  2 16  4  0
  3 22  4  0
  4  9  4  0
  4 10  1  0
  4 20  4  0
  5 16  4  0
  5 23  4  0
  6 15  4  0
  7 12  4  0
  8 13  4  0
  8 14  4  0
  9 11  4  0
 11 14  4  0
 11 19  4  0
 12 18  4  0
 13 21  4  0
 15 23  4  0
 17 19  4  0
 17 20  4  0
 18 22  4  0
 19 21  4  0
M  END
$$$$

 Created by Python create_sdf_string function

 23 25  0  0  0  0  0  0  0  0999 V2000
    2.4610   -5.3070   29.1240 C   0  0  0  0  0  0  0  0  0  0  0  0
    4.7710   -4.6952   28.4803 C   0  0  0  0  0  0  0  0  0  0  0  0
    3.4047   -5.1087   28.1314 C   0  0  0  0  0  0  0  0  0  0  0  0
   -0.2234  -11.8615   16.8874 C   0  0  0  0  0  0  0  0  0  0  0  0
    6.4491   -4.1532   30.1213 C   0  0  0  0  0  0  0  0  0  0  0  0
    5.7060   -4.4340   27.4975 C   0  0  0  0  0  0  0  0  0  0  0  0
    1.1818   -5.6612   28.8399 C   0  0  0  0  0  0  0  0  0  0  0  0
   -1.2067   -7.3287   17.7772 C   0  0  0  0  0  0  0  0  0  0  0  0
   -0.0206  -10.5585   16.6210 C   0  0  0  0  0  0  0  0  0  0  0  0
    0.3696  -12.7626   16.2169 O   0  0  0  0  0  0  0  0  0  0  0  0
   -0.6895   -9.5676   17.3297 C   0  0  0  0  0  0  0  0  0  0  0  0
    0.8388   -5.8417   27.5264 C   0  0  0  0  0  0  0  0  0  0  0  0
   -2.0709   -7.6637   18.7817 C   0  0  0  0  0  0  0  0  0  0  0  0
   -0.5279   -8.2168   17.0717 C   0  0  0  0  0  0  0  0  0  0  0  0
    6.9694   -4.0191   27.8190 C   0  0  0  0  0  0  0  0  0  0  0  0
    5.1733   -4.5469   29.8123 C   0  0  0  0  0  0  0  0  0  0  0  0
   -1.7508  -11.3016   18.6072 C   0  0  0  0  0  0  0  0  0  0  0  0
    1.7497   -5.6771   26.4971 C   0  0  0  0  0  0  0  0  0  0  0  0
   -1.5799   -9.9322   18.3468 C   0  0  0  0  0  0  0  0  0  0  0  0
   -1.0871  -12.2214   17.8851 C   0  0  0  0  0  0  0  0  0  0  0  0
   -2.2706   -8.9669   19.0691 C   0  0  0  0  0  0  0  0  0  0  0  0
    3.0279   -5.3073   26.8197 C   0  0  0  0  0  0  0  0  0  0  0  0
    7.3282   -3.8948   29.1186 C   0  0  0  0  0  0  0  0  0  0  0  0
  1  3  4  0
  1  7  4  0
  2  3  1  0
  2  6  4  0
  2 16  4  0
  3 22  4  0
  4  9  4  0
  4 10  1  0
  4 20  4  0
  5 16  4  0
  5 23  4  0
  6 15  4  0
  7 12  4  0
  8 13  4  0
  8 14  4  0
  9 11  4  0
 11 14  4  0
 11 19  4  0
 12 18  4  0
 13 21  4  0
 15 23  4  0
 17 19  4  0
 17 20  4  0
 18 22  4  0
 19 21  4  0
M  END
$$$$

 Created by Python create_sdf_string function

 23 25  0  0  0  0  0  0  0  0999 V2000
    2.4610   -5.3070   29.1240 C   0  0  0  0  0  0  0  0  0  0  0  0
    4.7710   -4.6952   28.4803 C   0  0  0  0  0  0  0  0  0  0  0  0
    3.4047   -5.1087   28.1314 C   0  0  0  0  0  0  0  0  0  0  0  0
   -0.2234  -11.8615   16.8874 C   0  0  0  0  0  0  0  0  0  0  0  0
    6.4491   -4.1532   30.1213 C   0  0  0  0  0  0  0  0  0  0  0  0
    5.7060   -4.4340   27.4975 C   0  0  0  0  0  0  0  0  0  0  0  0
    1.1818   -5.6612   28.8399 C   0  0  0  0  0  0  0  0  0  0  0  0
   -1.2067   -7.3287   17.7772 C   0  0  0  0  0  0  0  0  0  0  0  0
   -0.0206  -10.5585   16.6210 C   0  0  0  0  0  0  0  0  0  0  0  0
    0.3696  -12.7626   16.2169 O   0  0  0  0  0  0  0  0  0  0  0  0
   -0.6895   -9.5676   17.3297 C   0  0  0  0  0  0  0  0  0  0  0  0
    0.8388   -5.8417   27.5264 C   0  0  0  0  0  0  0  0  0  0  0  0
   -2.0709   -7.6637   18.7817 C   0  0  0  0  0  0  0  0  0  0  0  0
   -0.5279   -8.2168   17.0717 C   0  0  0  0  0  0  0  0  0  0  0  0
    6.9694   -4.0191   27.8190 C   0  0  0  0  0  0  0  0  0  0  0  0
    5.1733   -4.5469   29.8123 C   0  0  0  0  0  0  0  0  0  0  0  0
   -1.7508  -11.3016   18.6072 C   0  0  0  0  0  0  0  0  0  0  0  0
    1.7497   -5.6771   26.4971 C   0  0  0  0  0  0  0  0  0  0  0  0
   -1.5799   -9.9322   18.3468 C   0  0  0  0  0  0  0  0  0  0  0  0
   -1.0871  -12.2214   17.8851 C   0  0  0  0  0  0  0  0  0  0  0  0
   -2.2706   -8.9669   19.0691 C   0  0  0  0  0  0  0  0  0  0  0  0
    3.0279   -5.3073   26.8197 C   0  0  0  0  0  0  0  0  0  0  0  0
    7.3282   -3.8948   29.1186 C   0  0  0  0  0  0  0  0  0  0  0  0
  1  3  4  0
  1  7  4  0
  2  3  1  0
  2  6  4  0
  2 16  4  0
  3 22  4  0
  4  9  4  0
  4 10  1  0
  4 20  4  0
  5 16  4  0
  5 23  4  0
  6 15  4  0
  7 12  4  0
  8 13  4  0
  8 14  4  0
  9 11  4  0
 11 14  4  0
 11 19  4  0
 12 18  4  0
 13 21  4  0
 15 23  4  0
 17 19  4  0
 17 20  4  0
 18 22  4  0
 19 21  4  0
M  END
$$$$

 Created by Python create_sdf_string function

 23 25  0  0  0  0  0  0  0  0999 V2000
    2.4610   -5.3070   29.1240 C   0  0  0  0  0  0  0  0  0  0  0  0
    4.7710   -4.6952   28.4803 C   0  0  0  0  0  0  0  0  0  0  0  0
    3.4047   -5.1087   28.1314 C   0  0  0  0  0  0  0  0  0  0  0  0
   -0.2234  -11.8615   16.8874 C   0  0  0  0  0  0  0  0  0  0  0  0
    6.4491   -4.1532   30.1213 C   0  0  0  0  0  0  0  0  0  0  0  0
    5.7060   -4.4340   27.4975 C   0  0  0  0  0  0  0  0  0  0  0  0
    1.1818   -5.6612   28.8399 C   0  0  0  0  0  0  0  0  0  0  0  0
   -1.2067   -7.3287   17.7772 C   0  0  0  0  0  0  0  0  0  0  0  0
   -0.0206  -10.5585   16.6210 C   0  0  0  0  0  0  0  0  0  0  0  0
    0.3696  -12.7626   16.2169 O   0  0  0  0  0  0  0  0  0  0  0  0
   -0.6895   -9.5676   17.3297 C   0  0  0  0  0  0  0  0  0  0  0  0
    0.8388   -5.8417   27.5264 C   0  0  0  0  0  0  0  0  0  0  0  0
   -2.0709   -7.6637   18.7817 C   0  0  0  0  0  0  0  0  0  0  0  0
   -0.5279   -8.2168   17.0717 C   0  0  0  0  0  0  0  0  0  0  0  0
    6.9694   -4.0191   27.8190 C   0  0  0  0  0  0  0  0  0  0  0  0
    5.1733   -4.5469   29.8123 C   0  0  0  0  0  0  0  0  0  0  0  0
   -1.7508  -11.3016   18.6072 C   0  0  0  0  0  0  0  0  0  0  0  0
    1.7497   -5.6771   26.4971 C   0  0  0  0  0  0  0  0  0  0  0  0
   -1.5799   -9.9322   18.3468 C   0  0  0  0  0  0  0  0  0  0  0  0
   -1.0871  -12.2214   17.8851 C   0  0  0  0  0  0  0  0  0  0  0  0
   -2.2706   -8.9669   19.0691 C   0  0  0  0  0  0  0  0  0  0  0  0
    3.0279   -5.3073   26.8197 C   0  0  0  0  0  0  0  0  0  0  0  0
    7.3282   -3.8948   29.1186 C   0  0  0  0  0  0  0  0  0  0  0  0
  1  3  4  0
  1  7  4  0
  2  3  1  0
  2  6  4  0
  2 16  4  0
  3 22  4  0
  4  9  4  0
  4 10  1  0
  4 20  4  0
  5 16  4  0
  5 23  4  0
  6 15  4  0
  7 12  4  0
  8 13  4  0
  8 14  4  0
  9 11  4  0
 11 14  4  0
 11 19  4  0
 12 18  4  0
 13 21  4  0
 15 23  4  0
 17 19  4  0
 17 20  4  0
 18 22  4  0
 19 21  4  0
M  END
$$$$

 Created by Python create_sdf_string function

 23 25  0  0  0  0  0  0  0  0999 V2000
    2.4610   -5.3070   29.1240 C   0  0  0  0  0  0  0  0  0  0  0  0
    4.7710   -4.6952   28.4803 C   0  0  0  0  0  0  0  0  0  0  0  0
    3.4047   -5.1087   28.1314 C   0  0  0  0  0  0  0  0  0  0  0  0
   -0.2234  -11.8615   16.8874 C   0  0  0  0  0  0  0  0  0  0  0  0
    6.4491   -4.1532   30.1213 C   0  0  0  0  0  0  0  0  0  0  0  0
    5.7060   -4.4340   27.4975 C   0  0  0  0  0  0  0  0  0  0  0  0
    1.1818   -5.6612   28.8399 C   0  0  0  0  0  0  0  0  0  0  0  0
   -1.2067   -7.3287   17.7772 C   0  0  0  0  0  0  0  0  0  0  0  0
   -0.0206  -10.5585   16.6210 C   0  0  0  0  0  0  0  0  0  0  0  0
    0.3696  -12.7626   16.2169 O   0  0  0  0  0  0  0  0  0  0  0  0
   -0.6895   -9.5676   17.3297 C   0  0  0  0  0  0  0  0  0  0  0  0
    0.8388   -5.8417   27.5264 C   0  0  0  0  0  0  0  0  0  0  0  0
   -2.0709   -7.6637   18.7817 C   0  0  0  0  0  0  0  0  0  0  0  0
   -0.5279   -8.2168   17.0717 C   0  0  0  0  0  0  0  0  0  0  0  0
    6.9694   -4.0191   27.8190 C   0  0  0  0  0  0  0  0  0  0  0  0
    5.1733   -4.5469   29.8123 C   0  0  0  0  0  0  0  0  0  0  0  0
   -1.7508  -11.3016   18.6072 C   0  0  0  0  0  0  0  0  0  0  0  0
    1.7497   -5.6771   26.4971 C   0  0  0  0  0  0  0  0  0  0  0  0
   -1.5799   -9.9322   18.3468 C   0  0  0  0  0  0  0  0  0  0  0  0
   -1.0871  -12.2214   17.8851 C   0  0  0  0  0  0  0  0  0  0  0  0
   -2.2706   -8.9669   19.0691 C   0  0  0  0  0  0  0  0  0  0  0  0
    3.0279   -5.3073   26.8197 C   0  0  0  0  0  0  0  0  0  0  0  0
    7.3282   -3.8948   29.1186 C   0  0  0  0  0  0  0  0  0  0  0  0
  1  3  4  0
  1  7  4  0
  2  3  1  0
  2  6  4  0
  2 16  4  0
  3 22  4  0
  4  9  4  0
  4 10  1  0
  4 20  4  0
  5 16  4  0
  5 23  4  0
  6 15  4  0
  7 12  4  0
  8 13  4  0
  8 14  4  0
  9 11  4  0
 11 14  4  0
 11 19  4  0
 12 18  4  0
 13 21  4  0
 15 23  4  0
 17 19  4  0
 17 20  4  0
 18 22  4  0
 19 21  4  0
M  END
$$$$

 Created by Python create_sdf_string function

 23 25  0  0  0  0  0  0  0  0999 V2000
    2.4610   -5.3070   29.1240 C   0  0  0  0  0  0  0  0  0  0  0  0
    4.7710   -4.6952   28.4803 C   0  0  0  0  0  0  0  0  0  0  0  0
    3.4047   -5.1087   28.1314 C   0  0  0  0  0  0  0  0  0  0  0  0
   -0.2234  -11.8615   16.8874 C   0  0  0  0  0  0  0  0  0  0  0  0
    6.4491   -4.1532   30.1213 C   0  0  0  0  0  0  0  0  0  0  0  0
    5.7060   -4.4340   27.4975 C   0  0  0  0  0  0  0  0  0  0  0  0
    1.1818   -5.6612   28.8399 C   0  0  0  0  0  0  0  0  0  0  0  0
   -1.2067   -7.3287   17.7772 C   0  0  0  0  0  0  0  0  0  0  0  0
   -0.0206  -10.5585   16.6210 C   0  0  0  0  0  0  0  0  0  0  0  0
    0.3696  -12.7626   16.2169 O   0  0  0  0  0  0  0  0  0  0  0  0
   -0.6895   -9.5676   17.3297 C   0  0  0  0  0  0  0  0  0  0  0  0
    0.8388   -5.8417   27.5264 C   0  0  0  0  0  0  0  0  0  0  0  0
   -2.0709   -7.6637   18.7817 C   0  0  0  0  0  0  0  0  0  0  0  0
   -0.5279   -8.2168   17.0717 C   0  0  0  0  0  0  0  0  0  0  0  0
    6.9694   -4.0191   27.8190 C   0  0  0  0  0  0  0  0  0  0  0  0
    5.1733   -4.5469   29.8123 C   0  0  0  0  0  0  0  0  0  0  0  0
   -1.7508  -11.3016   18.6072 C   0  0  0  0  0  0  0  0  0  0  0  0
    1.7497   -5.6771   26.4971 C   0  0  0  0  0  0  0  0  0  0  0  0
   -1.5799   -9.9322   18.3468 C   0  0  0  0  0  0  0  0  0  0  0  0
   -1.0871  -12.2214   17.8851 C   0  0  0  0  0  0  0  0  0  0  0  0
   -2.2706   -8.9669   19.0691 C   0  0  0  0  0  0  0  0  0  0  0  0
    3.0279   -5.3073   26.8197 C   0  0  0  0  0  0  0  0  0  0  0  0
    7.3282   -3.8948   29.1186 C   0  0  0  0  0  0  0  0  0  0  0  0
  1  3  4  0
  1  7  4  0
  2  3  1  0
  2  6  4  0
  2 16  4  0
  3 22  4  0
  4  9  4  0
  4 10  1  0
  4 20  4  0
  5 16  4  0
  5 23  4  0
  6 15  4  0
  7 12  4  0
  8 13  4  0
  8 14  4  0
  9 11  4  0
 11 14  4  0
 11 19  4  0
 12 18  4  0
 13 21  4  0
 15 23  4  0
 17 19  4  0
 17 20  4  0
 18 22  4  0
 19 21  4  0
M  END
$$$$

 Created by Python create_sdf_string function

 23 25  0  0  0  0  0  0  0  0999 V2000
    2.4610   -5.3070   29.1240 C   0  0  0  0  0  0  0  0  0  0  0  0
    4.7710   -4.6952   28.4803 C   0  0  0  0  0  0  0  0  0  0  0  0
    3.4047   -5.1087   28.1314 C   0  0  0  0  0  0  0  0  0  0  0  0
   -0.2234  -11.8615   16.8874 C   0  0  0  0  0  0  0  0  0  0  0  0
    6.4491   -4.1532   30.1213 C   0  0  0  0  0  0  0  0  0  0  0  0
    5.7060   -4.4340   27.4975 C   0  0  0  0  0  0  0  0  0  0  0  0
    1.1818   -5.6612   28.8399 C   0  0  0  0  0  0  0  0  0  0  0  0
   -1.2067   -7.3287   17.7772 C   0  0  0  0  0  0  0  0  0  0  0  0
   -0.0206  -10.5585   16.6210 C   0  0  0  0  0  0  0  0  0  0  0  0
    0.3696  -12.7626   16.2169 O   0  0  0  0  0  0  0  0  0  0  0  0
   -0.6895   -9.5676   17.3297 C   0  0  0  0  0  0  0  0  0  0  0  0
    0.8388   -5.8417   27.5264 C   0  0  0  0  0  0  0  0  0  0  0  0
   -2.0709   -7.6637   18.7817 C   0  0  0  0  0  0  0  0  0  0  0  0
   -0.5279   -8.2168   17.0717 C   0  0  0  0  0  0  0  0  0  0  0  0
    6.9694   -4.0191   27.8190 C   0  0  0  0  0  0  0  0  0  0  0  0
    5.1733   -4.5469   29.8123 C   0  0  0  0  0  0  0  0  0  0  0  0
   -1.7508  -11.3016   18.6072 C   0  0  0  0  0  0  0  0  0  0  0  0
    1.7497   -5.6771   26.4971 C   0  0  0  0  0  0  0  0  0  0  0  0
   -1.5799   -9.9322   18.3468 C   0  0  0  0  0  0  0  0  0  0  0  0
   -1.0871  -12.2214   17.8851 C   0  0  0  0  0  0  0  0  0  0  0  0
   -2.2706   -8.9669   19.0691 C   0  0  0  0  0  0  0  0  0  0  0  0
    3.0279   -5.3073   26.8197 C   0  0  0  0  0  0  0  0  0  0  0  0
    7.3282   -3.8948   29.1186 C   0  0  0  0  0  0  0  0  0  0  0  0
  1  3  4  0
  1  7  4  0
  2  3  1  0
  2  6  4  0
  2 16  4  0
  3 22  4  0
  4  9  4  0
  4 10  1  0
  4 20  4  0
  5 16  4  0
  5 23  4  0
  6 15  4  0
  7 12  4  0
  8 13  4  0
  8 14  4  0
  9 11  4  0
 11 14  4  0
 11 19  4  0
 12 18  4  0
 13 21  4  0
 15 23  4  0
 17 19  4  0
 17 20  4  0
 18 22  4  0
 19 21  4  0
M  END
$$$$

 Created by Python create_sdf_string function

 23 25  0  0  0  0  0  0  0  0999 V2000
    2.4610   -5.3070   29.1240 C   0  0  0  0  0  0  0  0  0  0  0  0
    4.7710   -4.6952   28.4803 C   0  0  0  0  0  0  0  0  0  0  0  0
    3.4047   -5.1087   28.1314 C   0  0  0  0  0  0  0  0  0  0  0  0
   -0.2234  -11.8615   16.8874 C   0  0  0  0  0  0  0  0  0  0  0  0
    6.4491   -4.1532   30.1213 C   0  0  0  0  0  0  0  0  0  0  0  0
    5.7060   -4.4340   27.4975 C   0  0  0  0  0  0  0  0  0  0  0  0
    1.1818   -5.6612   28.8399 C   0  0  0  0  0  0  0  0  0  0  0  0
   -1.2067   -7.3287   17.7772 C   0  0  0  0  0  0  0  0  0  0  0  0
   -0.0206  -10.5585   16.6210 C   0  0  0  0  0  0  0  0  0  0  0  0
    0.3696  -12.7626   16.2169 O   0  0  0  0  0  0  0  0  0  0  0  0
   -0.6895   -9.5676   17.3297 C   0  0  0  0  0  0  0  0  0  0  0  0
    0.8388   -5.8417   27.5264 C   0  0  0  0  0  0  0  0  0  0  0  0
   -2.0709   -7.6637   18.7817 C   0  0  0  0  0  0  0  0  0  0  0  0
   -0.5279   -8.2168   17.0717 C   0  0  0  0  0  0  0  0  0  0  0  0
    6.9694   -4.0191   27.8190 C   0  0  0  0  0  0  0  0  0  0  0  0
    5.1733   -4.5469   29.8123 C   0  0  0  0  0  0  0  0  0  0  0  0
   -1.7508  -11.3016   18.6072 C   0  0  0  0  0  0  0  0  0  0  0  0
    1.7497   -5.6771   26.4971 C   0  0  0  0  0  0  0  0  0  0  0  0
   -1.5799   -9.9322   18.3468 C   0  0  0  0  0  0  0  0  0  0  0  0
   -1.0871  -12.2214   17.8851 C   0  0  0  0  0  0  0  0  0  0  0  0
   -2.2706   -8.9669   19.0691 C   0  0  0  0  0  0  0  0  0  0  0  0
    3.0279   -5.3073   26.8197 C   0  0  0  0  0  0  0  0  0  0  0  0
    7.3282   -3.8948   29.1186 C   0  0  0  0  0  0  0  0  0  0  0  0
  1  3  4  0
  1  7  4  0
  2  3  1  0
  2  6  4  0
  2 16  4  0
  3 22  4  0
  4  9  4  0
  4 10  1  0
  4 20  4  0
  5 16  4  0
  5 23  4  0
  6 15  4  0
  7 12  4  0
  8 13  4  0
  8 14  4  0
  9 11  4  0
 11 14  4  0
 11 19  4  0
 12 18  4  0
 13 21  4  0
 15 23  4  0
 17 19  4  0
 17 20  4  0
 18 22  4  0
 19 21  4  0
M  END
$$$$

 Created by Python create_sdf_string function

 23 25  0  0  0  0  0  0  0  0999 V2000
    2.4610   -5.3070   29.1240 C   0  0  0  0  0  0  0  0  0  0  0  0
    4.7710   -4.6952   28.4803 C   0  0  0  0  0  0  0  0  0  0  0  0
    3.4047   -5.1087   28.1314 C   0  0  0  0  0  0  0  0  0  0  0  0
   -0.2234  -11.8615   16.8874 C   0  0  0  0  0  0  0  0  0  0  0  0
    6.4491   -4.1532   30.1213 C   0  0  0  0  0  0  0  0  0  0  0  0
    5.7060   -4.4340   27.4975 C   0  0  0  0  0  0  0  0  0  0  0  0
    1.1818   -5.6612   28.8399 C   0  0  0  0  0  0  0  0  0  0  0  0
   -1.2067   -7.3287   17.7772 C   0  0  0  0  0  0  0  0  0  0  0  0
   -0.0206  -10.5585   16.6210 C   0  0  0  0  0  0  0  0  0  0  0  0
    0.3696  -12.7626   16.2169 O   0  0  0  0  0  0  0  0  0  0  0  0
   -0.6895   -9.5676   17.3297 C   0  0  0  0  0  0  0  0  0  0  0  0
    0.8388   -5.8417   27.5264 C   0  0  0  0  0  0  0  0  0  0  0  0
   -2.0709   -7.6637   18.7817 C   0  0  0  0  0  0  0  0  0  0  0  0
   -0.5279   -8.2168   17.0717 C   0  0  0  0  0  0  0  0  0  0  0  0
    6.9694   -4.0191   27.8190 C   0  0  0  0  0  0  0  0  0  0  0  0
    5.1733   -4.5469   29.8123 C   0  0  0  0  0  0  0  0  0  0  0  0
   -1.7508  -11.3016   18.6072 C   0  0  0  0  0  0  0  0  0  0  0  0
    1.7497   -5.6771   26.4971 C   0  0  0  0  0  0  0  0  0  0  0  0
   -1.5799   -9.9322   18.3468 C   0  0  0  0  0  0  0  0  0  0  0  0
   -1.0871  -12.2214   17.8851 C   0  0  0  0  0  0  0  0  0  0  0  0
   -2.2706   -8.9669   19.0691 C   0  0  0  0  0  0  0  0  0  0  0  0
    3.0279   -5.3073   26.8197 C   0  0  0  0  0  0  0  0  0  0  0  0
    7.3282   -3.8948   29.1186 C   0  0  0  0  0  0  0  0  0  0  0  0
  1  3  4  0
  1  7  4  0
  2  3  1  0
  2  6  4  0
  2 16  4  0
  3 22  4  0
  4  9  4  0
  4 10  1  0
  4 20  4  0
  5 16  4  0
  5 23  4  0
  6 15  4  0
  7 12  4  0
  8 13  4  0
  8 14  4  0
  9 11  4  0
 11 14  4  0
 11 19  4  0
 12 18  4  0
 13 21  4  0
 15 23  4  0
 17 19  4  0
 17 20  4  0
 18 22  4  0
 19 21  4  0
M  END
$$$$

 Created by Python create_sdf_string function

 23 25  0  0  0  0  0  0  0  0999 V2000
    2.4610   -5.3070   29.1240 C   0  0  0  0  0  0  0  0  0  0  0  0
    4.7710   -4.6952   28.4803 C   0  0  0  0  0  0  0  0  0  0  0  0
    3.4047   -5.1087   28.1314 C   0  0  0  0  0  0  0  0  0  0  0  0
   -0.2234  -11.8615   16.8874 C   0  0  0  0  0  0  0  0  0  0  0  0
    6.4491   -4.1532   30.1213 C   0  0  0  0  0  0  0  0  0  0  0  0
    5.7060   -4.4340   27.4975 C   0  0  0  0  0  0  0  0  0  0  0  0
    1.1818   -5.6612   28.8399 C   0  0  0  0  0  0  0  0  0  0  0  0
   -1.2067   -7.3287   17.7772 C   0  0  0  0  0  0  0  0  0  0  0  0
   -0.0206  -10.5585   16.6210 C   0  0  0  0  0  0  0  0  0  0  0  0
    0.3696  -12.7626   16.2169 O   0  0  0  0  0  0  0  0  0  0  0  0
   -0.6895   -9.5676   17.3297 C   0  0  0  0  0  0  0  0  0  0  0  0
    0.8388   -5.8417   27.5264 C   0  0  0  0  0  0  0  0  0  0  0  0
   -2.0709   -7.6637   18.7817 C   0  0  0  0  0  0  0  0  0  0  0  0
   -0.5279   -8.2168   17.0717 C   0  0  0  0  0  0  0  0  0  0  0  0
    6.9694   -4.0191   27.8190 C   0  0  0  0  0  0  0  0  0  0  0  0
    5.1733   -4.5469   29.8123 C   0  0  0  0  0  0  0  0  0  0  0  0
   -1.7508  -11.3016   18.6072 C   0  0  0  0  0  0  0  0  0  0  0  0
    1.7497   -5.6771   26.4971 C   0  0  0  0  0  0  0  0  0  0  0  0
   -1.5799   -9.9322   18.3468 C   0  0  0  0  0  0  0  0  0  0  0  0
   -1.0871  -12.2214   17.8851 C   0  0  0  0  0  0  0  0  0  0  0  0
   -2.2706   -8.9669   19.0691 C   0  0  0  0  0  0  0  0  0  0  0  0
    3.0279   -5.3073   26.8197 C   0  0  0  0  0  0  0  0  0  0  0  0
    7.3282   -3.8948   29.1186 C   0  0  0  0  0  0  0  0  0  0  0  0
  1  3  4  0
  1  7  4  0
  2  3  1  0
  2  6  4  0
  2 16  4  0
  3 22  4  0
  4  9  4  0
  4 10  1  0
  4 20  4  0
  5 16  4  0
  5 23  4  0
  6 15  4  0
  7 12  4  0
  8 13  4  0
  8 14  4  0
  9 11  4  0
 11 14  4  0
 11 19  4  0
 12 18  4  0
 13 21  4  0
 15 23  4  0
 17 19  4  0
 17 20  4  0
 18 22  4  0
 19 21  4  0
M  END
$$$$

 Created by Python create_sdf_string function

 23 25  0  0  0  0  0  0  0  0999 V2000
    2.4610   -5.3070   29.1240 C   0  0  0  0  0  0  0  0  0  0  0  0
    4.7710   -4.6952   28.4803 C   0  0  0  0  0  0  0  0  0  0  0  0
    3.4047   -5.1087   28.1314 C   0  0  0  0  0  0  0  0  0  0  0  0
   -0.2234  -11.8615   16.8874 C   0  0  0  0  0  0  0  0  0  0  0  0
    6.4491   -4.1532   30.1213 C   0  0  0  0  0  0  0  0  0  0  0  0
    5.7060   -4.4340   27.4975 C   0  0  0  0  0  0  0  0  0  0  0  0
    1.1818   -5.6612   28.8399 C   0  0  0  0  0  0  0  0  0  0  0  0
   -1.2067   -7.3287   17.7772 C   0  0  0  0  0  0  0  0  0  0  0  0
   -0.0206  -10.5585   16.6210 C   0  0  0  0  0  0  0  0  0  0  0  0
    0.3696  -12.7626   16.2169 O   0  0  0  0  0  0  0  0  0  0  0  0
   -0.6895   -9.5676   17.3297 C   0  0  0  0  0  0  0  0  0  0  0  0
    0.8388   -5.8417   27.5264 C   0  0  0  0  0  0  0  0  0  0  0  0
   -2.0709   -7.6637   18.7817 C   0  0  0  0  0  0  0  0  0  0  0  0
   -0.5279   -8.2168   17.0717 C   0  0  0  0  0  0  0  0  0  0  0  0
    6.9694   -4.0191   27.8190 C   0  0  0  0  0  0  0  0  0  0  0  0
    5.1733   -4.5469   29.8123 C   0  0  0  0  0  0  0  0  0  0  0  0
   -1.7508  -11.3016   18.6072 C   0  0  0  0  0  0  0  0  0  0  0  0
    1.7497   -5.6771   26.4971 C   0  0  0  0  0  0  0  0  0  0  0  0
   -1.5799   -9.9322   18.3468 C   0  0  0  0  0  0  0  0  0  0  0  0
   -1.0871  -12.2214   17.8851 C   0  0  0  0  0  0  0  0  0  0  0  0
   -2.2706   -8.9669   19.0691 C   0  0  0  0  0  0  0  0  0  0  0  0
    3.0279   -5.3073   26.8197 C   0  0  0  0  0  0  0  0  0  0  0  0
    7.3282   -3.8948   29.1186 C   0  0  0  0  0  0  0  0  0  0  0  0
  1  3  4  0
  1  7  4  0
  2  3  1  0
  2  6  4  0
  2 16  4  0
  3 22  4  0
  4  9  4  0
  4 10  1  0
  4 20  4  0
  5 16  4  0
  5 23  4  0
  6 15  4  0
  7 12  4  0
  8 13  4  0
  8 14  4  0
  9 11  4  0
 11 14  4  0
 11 19  4  0
 12 18  4  0
 13 21  4  0
 15 23  4  0
 17 19  4  0
 17 20  4  0
 18 22  4  0
 19 21  4  0
M  END
$$$$

 Created by Python create_sdf_string function

 23 25  0  0  0  0  0  0  0  0999 V2000
    2.4610   -5.3070   29.1240 C   0  0  0  0  0  0  0  0  0  0  0  0
    4.7710   -4.6952   28.4803 C   0  0  0  0  0  0  0  0  0  0  0  0
    3.4047   -5.1087   28.1314 C   0  0  0  0  0  0  0  0  0  0  0  0
   -0.2234  -11.8615   16.8874 C   0  0  0  0  0  0  0  0  0  0  0  0
    6.4491   -4.1532   30.1213 C   0  0  0  0  0  0  0  0  0  0  0  0
    5.7060   -4.4340   27.4975 C   0  0  0  0  0  0  0  0  0  0  0  0
    1.1818   -5.6612   28.8399 C   0  0  0  0  0  0  0  0  0  0  0  0
   -1.2067   -7.3287   17.7772 C   0  0  0  0  0  0  0  0  0  0  0  0
   -0.0206  -10.5585   16.6210 C   0  0  0  0  0  0  0  0  0  0  0  0
    0.3696  -12.7626   16.2169 O   0  0  0  0  0  0  0  0  0  0  0  0
   -0.6895   -9.5676   17.3297 C   0  0  0  0  0  0  0  0  0  0  0  0
    0.8388   -5.8417   27.5264 C   0  0  0  0  0  0  0  0  0  0  0  0
   -2.0709   -7.6637   18.7817 C   0  0  0  0  0  0  0  0  0  0  0  0
   -0.5279   -8.2168   17.0717 C   0  0  0  0  0  0  0  0  0  0  0  0
    6.9694   -4.0191   27.8190 C   0  0  0  0  0  0  0  0  0  0  0  0
    5.1733   -4.5469   29.8123 C   0  0  0  0  0  0  0  0  0  0  0  0
   -1.7508  -11.3016   18.6072 C   0  0  0  0  0  0  0  0  0  0  0  0
    1.7497   -5.6771   26.4971 C   0  0  0  0  0  0  0  0  0  0  0  0
   -1.5799   -9.9322   18.3468 C   0  0  0  0  0  0  0  0  0  0  0  0
   -1.0871  -12.2214   17.8851 C   0  0  0  0  0  0  0  0  0  0  0  0
   -2.2706   -8.9669   19.0691 C   0  0  0  0  0  0  0  0  0  0  0  0
    3.0279   -5.3073   26.8197 C   0  0  0  0  0  0  0  0  0  0  0  0
    7.3282   -3.8948   29.1186 C   0  0  0  0  0  0  0  0  0  0  0  0
  1  3  4  0
  1  7  4  0
  2  3  1  0
  2  6  4  0
  2 16  4  0
  3 22  4  0
  4  9  4  0
  4 10  1  0
  4 20  4  0
  5 16  4  0
  5 23  4  0
  6 15  4  0
  7 12  4  0
  8 13  4  0
  8 14  4  0
  9 11  4  0
 11 14  4  0
 11 19  4  0
 12 18  4  0
 13 21  4  0
 15 23  4  0
 17 19  4  0
 17 20  4  0
 18 22  4  0
 19 21  4  0
M  END
$$$$

 Created by Python create_sdf_string function

 23 25  0  0  0  0  0  0  0  0999 V2000
    2.4610   -5.3070   29.1240 C   0  0  0  0  0  0  0  0  0  0  0  0
    4.7710   -4.6952   28.4803 C   0  0  0  0  0  0  0  0  0  0  0  0
    3.4047   -5.1087   28.1314 C   0  0  0  0  0  0  0  0  0  0  0  0
   -0.2234  -11.8615   16.8874 C   0  0  0  0  0  0  0  0  0  0  0  0
    6.4491   -4.1532   30.1213 C   0  0  0  0  0  0  0  0  0  0  0  0
    5.7060   -4.4340   27.4975 C   0  0  0  0  0  0  0  0  0  0  0  0
    1.1818   -5.6612   28.8399 C   0  0  0  0  0  0  0  0  0  0  0  0
   -1.2067   -7.3287   17.7772 C   0  0  0  0  0  0  0  0  0  0  0  0
   -0.0206  -10.5585   16.6210 C   0  0  0  0  0  0  0  0  0  0  0  0
    0.3696  -12.7626   16.2169 O   0  0  0  0  0  0  0  0  0  0  0  0
   -0.6895   -9.5676   17.3297 C   0  0  0  0  0  0  0  0  0  0  0  0
    0.8388   -5.8417   27.5264 C   0  0  0  0  0  0  0  0  0  0  0  0
   -2.0709   -7.6637   18.7817 C   0  0  0  0  0  0  0  0  0  0  0  0
   -0.5279   -8.2168   17.0717 C   0  0  0  0  0  0  0  0  0  0  0  0
    6.9694   -4.0191   27.8190 C   0  0  0  0  0  0  0  0  0  0  0  0
    5.1733   -4.5469   29.8123 C   0  0  0  0  0  0  0  0  0  0  0  0
   -1.7508  -11.3016   18.6072 C   0  0  0  0  0  0  0  0  0  0  0  0
    1.7497   -5.6771   26.4971 C   0  0  0  0  0  0  0  0  0  0  0  0
   -1.5799   -9.9322   18.3468 C   0  0  0  0  0  0  0  0  0  0  0  0
   -1.0871  -12.2214   17.8851 C   0  0  0  0  0  0  0  0  0  0  0  0
   -2.2706   -8.9669   19.0691 C   0  0  0  0  0  0  0  0  0  0  0  0
    3.0279   -5.3073   26.8197 C   0  0  0  0  0  0  0  0  0  0  0  0
    7.3282   -3.8948   29.1186 C   0  0  0  0  0  0  0  0  0  0  0  0
  1  3  4  0
  1  7  4  0
  2  3  1  0
  2  6  4  0
  2 16  4  0
  3 22  4  0
  4  9  4  0
  4 10  1  0
  4 20  4  0
  5 16  4  0
  5 23  4  0
  6 15  4  0
  7 12  4  0
  8 13  4  0
  8 14  4  0
  9 11  4  0
 11 14  4  0
 11 19  4  0
 12 18  4  0
 13 21  4  0
 15 23  4  0
 17 19  4  0
 17 20  4  0
 18 22  4  0
 19 21  4  0
M  END
$$$$

 Created by Python create_sdf_string function

 23 25  0  0  0  0  0  0  0  0999 V2000
    2.4610   -5.3070   29.1240 C   0  0  0  0  0  0  0  0  0  0  0  0
    4.7710   -4.6952   28.4803 C   0  0  0  0  0  0  0  0  0  0  0  0
    3.4047   -5.1087   28.1314 C   0  0  0  0  0  0  0  0  0  0  0  0
   -0.2234  -11.8615   16.8874 C   0  0  0  0  0  0  0  0  0  0  0  0
    6.4491   -4.1532   30.1213 C   0  0  0  0  0  0  0  0  0  0  0  0
    5.7060   -4.4340   27.4975 C   0  0  0  0  0  0  0  0  0  0  0  0
    1.1818   -5.6612   28.8399 C   0  0  0  0  0  0  0  0  0  0  0  0
   -1.2067   -7.3287   17.7772 C   0  0  0  0  0  0  0  0  0  0  0  0
   -0.0206  -10.5585   16.6210 C   0  0  0  0  0  0  0  0  0  0  0  0
    0.3696  -12.7626   16.2169 O   0  0  0  0  0  0  0  0  0  0  0  0
   -0.6895   -9.5676   17.3297 C   0  0  0  0  0  0  0  0  0  0  0  0
    0.8388   -5.8417   27.5264 C   0  0  0  0  0  0  0  0  0  0  0  0
   -2.0709   -7.6637   18.7817 C   0  0  0  0  0  0  0  0  0  0  0  0
   -0.5279   -8.2168   17.0717 C   0  0  0  0  0  0  0  0  0  0  0  0
    6.9694   -4.0191   27.8190 C   0  0  0  0  0  0  0  0  0  0  0  0
    5.1733   -4.5469   29.8123 C   0  0  0  0  0  0  0  0  0  0  0  0
   -1.7508  -11.3016   18.6072 C   0  0  0  0  0  0  0  0  0  0  0  0
    1.7497   -5.6771   26.4971 C   0  0  0  0  0  0  0  0  0  0  0  0
   -1.5799   -9.9322   18.3468 C   0  0  0  0  0  0  0  0  0  0  0  0
   -1.0871  -12.2214   17.8851 C   0  0  0  0  0  0  0  0  0  0  0  0
   -2.2706   -8.9669   19.0691 C   0  0  0  0  0  0  0  0  0  0  0  0
    3.0279   -5.3073   26.8197 C   0  0  0  0  0  0  0  0  0  0  0  0
    7.3282   -3.8948   29.1186 C   0  0  0  0  0  0  0  0  0  0  0  0
  1  3  4  0
  1  7  4  0
  2  3  1  0
  2  6  4  0
  2 16  4  0
  3 22  4  0
  4  9  4  0
  4 10  1  0
  4 20  4  0
  5 16  4  0
  5 23  4  0
  6 15  4  0
  7 12  4  0
  8 13  4  0
  8 14  4  0
  9 11  4  0
 11 14  4  0
 11 19  4  0
 12 18  4  0
 13 21  4  0
 15 23  4  0
 17 19  4  0
 17 20  4  0
 18 22  4  0
 19 21  4  0
M  END
$$$$

 Created by Python create_sdf_string function

 23 25  0  0  0  0  0  0  0  0999 V2000
    2.4610   -5.3070   29.1240 C   0  0  0  0  0  0  0  0  0  0  0  0
    4.7710   -4.6952   28.4803 C   0  0  0  0  0  0  0  0  0  0  0  0
    3.4047   -5.1087   28.1314 C   0  0  0  0  0  0  0  0  0  0  0  0
   -0.2234  -11.8615   16.8874 C   0  0  0  0  0  0  0  0  0  0  0  0
    6.4491   -4.1532   30.1213 C   0  0  0  0  0  0  0  0  0  0  0  0
    5.7060   -4.4340   27.4975 C   0  0  0  0  0  0  0  0  0  0  0  0
    1.1818   -5.6612   28.8399 C   0  0  0  0  0  0  0  0  0  0  0  0
   -1.2067   -7.3287   17.7772 C   0  0  0  0  0  0  0  0  0  0  0  0
   -0.0206  -10.5585   16.6210 C   0  0  0  0  0  0  0  0  0  0  0  0
    0.3696  -12.7626   16.2169 O   0  0  0  0  0  0  0  0  0  0  0  0
   -0.6895   -9.5676   17.3297 C   0  0  0  0  0  0  0  0  0  0  0  0
    0.8388   -5.8417   27.5264 C   0  0  0  0  0  0  0  0  0  0  0  0
   -2.0709   -7.6637   18.7817 C   0  0  0  0  0  0  0  0  0  0  0  0
   -0.5279   -8.2168   17.0717 C   0  0  0  0  0  0  0  0  0  0  0  0
    6.9694   -4.0191   27.8190 C   0  0  0  0  0  0  0  0  0  0  0  0
    5.1733   -4.5469   29.8123 C   0  0  0  0  0  0  0  0  0  0  0  0
   -1.7508  -11.3016   18.6072 C   0  0  0  0  0  0  0  0  0  0  0  0
    1.7497   -5.6771   26.4971 C   0  0  0  0  0  0  0  0  0  0  0  0
   -1.5799   -9.9322   18.3468 C   0  0  0  0  0  0  0  0  0  0  0  0
   -1.0871  -12.2214   17.8851 C   0  0  0  0  0  0  0  0  0  0  0  0
   -2.2706   -8.9669   19.0691 C   0  0  0  0  0  0  0  0  0  0  0  0
    3.0279   -5.3073   26.8197 C   0  0  0  0  0  0  0  0  0  0  0  0
    7.3282   -3.8948   29.1186 C   0  0  0  0  0  0  0  0  0  0  0  0
  1  3  4  0
  1  7  4  0
  2  3  1  0
  2  6  4  0
  2 16  4  0
  3 22  4  0
  4  9  4  0
  4 10  1  0
  4 20  4  0
  5 16  4  0
  5 23  4  0
  6 15  4  0
  7 12  4  0
  8 13  4  0
  8 14  4  0
  9 11  4  0
 11 14  4  0
 11 19  4  0
 12 18  4  0
 13 21  4  0
 15 23  4  0
 17 19  4  0
 17 20  4  0
 18 22  4  0
 19 21  4  0
M  END
$$$$

 Created by Python create_sdf_string function

 23 25  0  0  0  0  0  0  0  0999 V2000
    2.4610   -5.3070   29.1240 C   0  0  0  0  0  0  0  0  0  0  0  0
    4.7710   -4.6952   28.4803 C   0  0  0  0  0  0  0  0  0  0  0  0
    3.4047   -5.1087   28.1314 C   0  0  0  0  0  0  0  0  0  0  0  0
   -0.2234  -11.8615   16.8874 C   0  0  0  0  0  0  0  0  0  0  0  0
    6.4491   -4.1532   30.1213 C   0  0  0  0  0  0  0  0  0  0  0  0
    5.7060   -4.4340   27.4975 C   0  0  0  0  0  0  0  0  0  0  0  0
    1.1818   -5.6612   28.8399 C   0  0  0  0  0  0  0  0  0  0  0  0
   -1.2067   -7.3287   17.7772 C   0  0  0  0  0  0  0  0  0  0  0  0
   -0.0206  -10.5585   16.6210 C   0  0  0  0  0  0  0  0  0  0  0  0
    0.3696  -12.7626   16.2169 O   0  0  0  0  0  0  0  0  0  0  0  0
   -0.6895   -9.5676   17.3297 C   0  0  0  0  0  0  0  0  0  0  0  0
    0.8388   -5.8417   27.5264 C   0  0  0  0  0  0  0  0  0  0  0  0
   -2.0709   -7.6637   18.7817 C   0  0  0  0  0  0  0  0  0  0  0  0
   -0.5279   -8.2168   17.0717 C   0  0  0  0  0  0  0  0  0  0  0  0
    6.9694   -4.0191   27.8190 C   0  0  0  0  0  0  0  0  0  0  0  0
    5.1733   -4.5469   29.8123 C   0  0  0  0  0  0  0  0  0  0  0  0
   -1.7508  -11.3016   18.6072 C   0  0  0  0  0  0  0  0  0  0  0  0
    1.7497   -5.6771   26.4971 C   0  0  0  0  0  0  0  0  0  0  0  0
   -1.5799   -9.9322   18.3468 C   0  0  0  0  0  0  0  0  0  0  0  0
   -1.0871  -12.2214   17.8851 C   0  0  0  0  0  0  0  0  0  0  0  0
   -2.2706   -8.9669   19.0691 C   0  0  0  0  0  0  0  0  0  0  0  0
    3.0279   -5.3073   26.8197 C   0  0  0  0  0  0  0  0  0  0  0  0
    7.3282   -3.8948   29.1186 C   0  0  0  0  0  0  0  0  0  0  0  0
  1  3  4  0
  1  7  4  0
  2  3  1  0
  2  6  4  0
  2 16  4  0
  3 22  4  0
  4  9  4  0
  4 10  1  0
  4 20  4  0
  5 16  4  0
  5 23  4  0
  6 15  4  0
  7 12  4  0
  8 13  4  0
  8 14  4  0
  9 11  4  0
 11 14  4  0
 11 19  4  0
 12 18  4  0
 13 21  4  0
 15 23  4  0
 17 19  4  0
 17 20  4  0
 18 22  4  0
 19 21  4  0
M  END
$$$$

 Created by Python create_sdf_string function

 23 25  0  0  0  0  0  0  0  0999 V2000
    2.4610   -5.3070   29.1240 C   0  0  0  0  0  0  0  0  0  0  0  0
    4.7710   -4.6952   28.4803 C   0  0  0  0  0  0  0  0  0  0  0  0
    3.4047   -5.1087   28.1314 C   0  0  0  0  0  0  0  0  0  0  0  0
   -0.2234  -11.8615   16.8874 C   0  0  0  0  0  0  0  0  0  0  0  0
    6.4491   -4.1532   30.1213 C   0  0  0  0  0  0  0  0  0  0  0  0
    5.7060   -4.4340   27.4975 C   0  0  0  0  0  0  0  0  0  0  0  0
    1.1818   -5.6612   28.8399 C   0  0  0  0  0  0  0  0  0  0  0  0
   -1.2067   -7.3287   17.7772 C   0  0  0  0  0  0  0  0  0  0  0  0
   -0.0206  -10.5585   16.6210 C   0  0  0  0  0  0  0  0  0  0  0  0
    0.3696  -12.7626   16.2169 O   0  0  0  0  0  0  0  0  0  0  0  0
   -0.6895   -9.5676   17.3297 C   0  0  0  0  0  0  0  0  0  0  0  0
    0.8388   -5.8417   27.5264 C   0  0  0  0  0  0  0  0  0  0  0  0
   -2.0709   -7.6637   18.7817 C   0  0  0  0  0  0  0  0  0  0  0  0
   -0.5279   -8.2168   17.0717 C   0  0  0  0  0  0  0  0  0  0  0  0
    6.9694   -4.0191   27.8190 C   0  0  0  0  0  0  0  0  0  0  0  0
    5.1733   -4.5469   29.8123 C   0  0  0  0  0  0  0  0  0  0  0  0
   -1.7508  -11.3016   18.6072 C   0  0  0  0  0  0  0  0  0  0  0  0
    1.7497   -5.6771   26.4971 C   0  0  0  0  0  0  0  0  0  0  0  0
   -1.5799   -9.9322   18.3468 C   0  0  0  0  0  0  0  0  0  0  0  0
   -1.0871  -12.2214   17.8851 C   0  0  0  0  0  0  0  0  0  0  0  0
   -2.2706   -8.9669   19.0691 C   0  0  0  0  0  0  0  0  0  0  0  0
    3.0279   -5.3073   26.8197 C   0  0  0  0  0  0  0  0  0  0  0  0
    7.3282   -3.8948   29.1186 C   0  0  0  0  0  0  0  0  0  0  0  0
  1  3  4  0
  1  7  4  0
  2  3  1  0
  2  6  4  0
  2 16  4  0
  3 22  4  0
  4  9  4  0
  4 10  1  0
  4 20  4  0
  5 16  4  0
  5 23  4  0
  6 15  4  0
  7 12  4  0
  8 13  4  0
  8 14  4  0
  9 11  4  0
 11 14  4  0
 11 19  4  0
 12 18  4  0
 13 21  4  0
 15 23  4  0
 17 19  4  0
 17 20  4  0
 18 22  4  0
 19 21  4  0
M  END
$$$$

 Created by Python create_sdf_string function

 23 25  0  0  0  0  0  0  0  0999 V2000
    2.4610   -5.3070   29.1240 C   0  0  0  0  0  0  0  0  0  0  0  0
    4.7710   -4.6952   28.4803 C   0  0  0  0  0  0  0  0  0  0  0  0
    3.4047   -5.1087   28.1314 C   0  0  0  0  0  0  0  0  0  0  0  0
   -0.2234  -11.8615   16.8874 C   0  0  0  0  0  0  0  0  0  0  0  0
    6.4491   -4.1532   30.1213 C   0  0  0  0  0  0  0  0  0  0  0  0
    5.7060   -4.4340   27.4975 C   0  0  0  0  0  0  0  0  0  0  0  0
    1.1818   -5.6612   28.8399 C   0  0  0  0  0  0  0  0  0  0  0  0
   -1.2067   -7.3287   17.7772 C   0  0  0  0  0  0  0  0  0  0  0  0
   -0.0206  -10.5585   16.6210 C   0  0  0  0  0  0  0  0  0  0  0  0
    0.3696  -12.7626   16.2169 O   0  0  0  0  0  0  0  0  0  0  0  0
   -0.6895   -9.5676   17.3297 C   0  0  0  0  0  0  0  0  0  0  0  0
    0.8388   -5.8417   27.5264 C   0  0  0  0  0  0  0  0  0  0  0  0
   -2.0709   -7.6637   18.7817 C   0  0  0  0  0  0  0  0  0  0  0  0
   -0.5279   -8.2168   17.0717 C   0  0  0  0  0  0  0  0  0  0  0  0
    6.9694   -4.0191   27.8190 C   0  0  0  0  0  0  0  0  0  0  0  0
    5.1733   -4.5469   29.8123 C   0  0  0  0  0  0  0  0  0  0  0  0
   -1.7508  -11.3016   18.6072 C   0  0  0  0  0  0  0  0  0  0  0  0
    1.7497   -5.6771   26.4971 C   0  0  0  0  0  0  0  0  0  0  0  0
   -1.5799   -9.9322   18.3468 C   0  0  0  0  0  0  0  0  0  0  0  0
   -1.0871  -12.2214   17.8851 C   0  0  0  0  0  0  0  0  0  0  0  0
   -2.2706   -8.9669   19.0691 C   0  0  0  0  0  0  0  0  0  0  0  0
    3.0279   -5.3073   26.8197 C   0  0  0  0  0  0  0  0  0  0  0  0
    7.3282   -3.8948   29.1186 C   0  0  0  0  0  0  0  0  0  0  0  0
  1  3  4  0
  1  7  4  0
  2  3  1  0
  2  6  4  0
  2 16  4  0
  3 22  4  0
  4  9  4  0
  4 10  1  0
  4 20  4  0
  5 16  4  0
  5 23  4  0
  6 15  4  0
  7 12  4  0
  8 13  4  0
  8 14  4  0
  9 11  4  0
 11 14  4  0
 11 19  4  0
 12 18  4  0
 13 21  4  0
 15 23  4  0
 17 19  4  0
 17 20  4  0
 18 22  4  0
 19 21  4  0
M  END
$$$$

 Created by Python create_sdf_string function

 23 25  0  0  0  0  0  0  0  0999 V2000
    2.4610   -5.3070   29.1240 C   0  0  0  0  0  0  0  0  0  0  0  0
    4.7710   -4.6952   28.4803 C   0  0  0  0  0  0  0  0  0  0  0  0
    3.4047   -5.1087   28.1314 C   0  0  0  0  0  0  0  0  0  0  0  0
   -0.2234  -11.8615   16.8874 C   0  0  0  0  0  0  0  0  0  0  0  0
    6.4491   -4.1532   30.1213 C   0  0  0  0  0  0  0  0  0  0  0  0
    5.7060   -4.4340   27.4975 C   0  0  0  0  0  0  0  0  0  0  0  0
    1.1818   -5.6612   28.8399 C   0  0  0  0  0  0  0  0  0  0  0  0
   -1.2067   -7.3287   17.7772 C   0  0  0  0  0  0  0  0  0  0  0  0
   -0.0206  -10.5585   16.6210 C   0  0  0  0  0  0  0  0  0  0  0  0
    0.3696  -12.7626   16.2169 O   0  0  0  0  0  0  0  0  0  0  0  0
   -0.6895   -9.5676   17.3297 C   0  0  0  0  0  0  0  0  0  0  0  0
    0.8388   -5.8417   27.5264 C   0  0  0  0  0  0  0  0  0  0  0  0
   -2.0709   -7.6637   18.7817 C   0  0  0  0  0  0  0  0  0  0  0  0
   -0.5279   -8.2168   17.0717 C   0  0  0  0  0  0  0  0  0  0  0  0
    6.9694   -4.0191   27.8190 C   0  0  0  0  0  0  0  0  0  0  0  0
    5.1733   -4.5469   29.8123 C   0  0  0  0  0  0  0  0  0  0  0  0
   -1.7508  -11.3016   18.6072 C   0  0  0  0  0  0  0  0  0  0  0  0
    1.7497   -5.6771   26.4971 C   0  0  0  0  0  0  0  0  0  0  0  0
   -1.5799   -9.9322   18.3468 C   0  0  0  0  0  0  0  0  0  0  0  0
   -1.0871  -12.2214   17.8851 C   0  0  0  0  0  0  0  0  0  0  0  0
   -2.2706   -8.9669   19.0691 C   0  0  0  0  0  0  0  0  0  0  0  0
    3.0279   -5.3073   26.8197 C   0  0  0  0  0  0  0  0  0  0  0  0
    7.3282   -3.8948   29.1186 C   0  0  0  0  0  0  0  0  0  0  0  0
  1  3  4  0
  1  7  4  0
  2  3  1  0
  2  6  4  0
  2 16  4  0
  3 22  4  0
  4  9  4  0
  4 10  1  0
  4 20  4  0
  5 16  4  0
  5 23  4  0
  6 15  4  0
  7 12  4  0
  8 13  4  0
  8 14  4  0
  9 11  4  0
 11 14  4  0
 11 19  4  0
 12 18  4  0
 13 21  4  0
 15 23  4  0
 17 19  4  0
 17 20  4  0
 18 22  4  0
 19 21  4  0
M  END
$$$$

 Created by Python create_sdf_string function

 23 25  0  0  0  0  0  0  0  0999 V2000
    2.4610   -5.3070   29.1240 C   0  0  0  0  0  0  0  0  0  0  0  0
    4.7710   -4.6952   28.4803 C   0  0  0  0  0  0  0  0  0  0  0  0
    3.4047   -5.1087   28.1314 C   0  0  0  0  0  0  0  0  0  0  0  0
   -0.2234  -11.8615   16.8874 C   0  0  0  0  0  0  0  0  0  0  0  0
    6.4491   -4.1532   30.1213 C   0  0  0  0  0  0  0  0  0  0  0  0
    5.7060   -4.4340   27.4975 C   0  0  0  0  0  0  0  0  0  0  0  0
    1.1818   -5.6612   28.8399 C   0  0  0  0  0  0  0  0  0  0  0  0
   -1.2067   -7.3287   17.7772 C   0  0  0  0  0  0  0  0  0  0  0  0
   -0.0206  -10.5585   16.6210 C   0  0  0  0  0  0  0  0  0  0  0  0
    0.3696  -12.7626   16.2169 O   0  0  0  0  0  0  0  0  0  0  0  0
   -0.6895   -9.5676   17.3297 C   0  0  0  0  0  0  0  0  0  0  0  0
    0.8388   -5.8417   27.5264 C   0  0  0  0  0  0  0  0  0  0  0  0
   -2.0709   -7.6637   18.7817 C   0  0  0  0  0  0  0  0  0  0  0  0
   -0.5279   -8.2168   17.0717 C   0  0  0  0  0  0  0  0  0  0  0  0
    6.9694   -4.0191   27.8190 C   0  0  0  0  0  0  0  0  0  0  0  0
    5.1733   -4.5469   29.8123 C   0  0  0  0  0  0  0  0  0  0  0  0
   -1.7508  -11.3016   18.6072 C   0  0  0  0  0  0  0  0  0  0  0  0
    1.7497   -5.6771   26.4971 C   0  0  0  0  0  0  0  0  0  0  0  0
   -1.5799   -9.9322   18.3468 C   0  0  0  0  0  0  0  0  0  0  0  0
   -1.0871  -12.2214   17.8851 C   0  0  0  0  0  0  0  0  0  0  0  0
   -2.2706   -8.9669   19.0691 C   0  0  0  0  0  0  0  0  0  0  0  0
    3.0279   -5.3073   26.8197 C   0  0  0  0  0  0  0  0  0  0  0  0
    7.3282   -3.8948   29.1186 C   0  0  0  0  0  0  0  0  0  0  0  0
  1  3  4  0
  1  7  4  0
  2  3  1  0
  2  6  4  0
  2 16  4  0
  3 22  4  0
  4  9  4  0
  4 10  1  0
  4 20  4  0
  5 16  4  0
  5 23  4  0
  6 15  4  0
  7 12  4  0
  8 13  4  0
  8 14  4  0
  9 11  4  0
 11 14  4  0
 11 19  4  0
 12 18  4  0
 13 21  4  0
 15 23  4  0
 17 19  4  0
 17 20  4  0
 18 22  4  0
 19 21  4  0
M  END
$$$$

 Created by Python create_sdf_string function

 23 25  0  0  0  0  0  0  0  0999 V2000
    2.4610   -5.3070   29.1240 C   0  0  0  0  0  0  0  0  0  0  0  0
    4.7710   -4.6952   28.4803 C   0  0  0  0  0  0  0  0  0  0  0  0
    3.4047   -5.1087   28.1314 C   0  0  0  0  0  0  0  0  0  0  0  0
   -0.2234  -11.8615   16.8874 C   0  0  0  0  0  0  0  0  0  0  0  0
    6.4491   -4.1532   30.1213 C   0  0  0  0  0  0  0  0  0  0  0  0
    5.7060   -4.4340   27.4975 C   0  0  0  0  0  0  0  0  0  0  0  0
    1.1818   -5.6612   28.8399 C   0  0  0  0  0  0  0  0  0  0  0  0
   -1.2067   -7.3287   17.7772 C   0  0  0  0  0  0  0  0  0  0  0  0
   -0.0206  -10.5585   16.6210 C   0  0  0  0  0  0  0  0  0  0  0  0
    0.3696  -12.7626   16.2169 O   0  0  0  0  0  0  0  0  0  0  0  0
   -0.6895   -9.5676   17.3297 C   0  0  0  0  0  0  0  0  0  0  0  0
    0.8388   -5.8417   27.5264 C   0  0  0  0  0  0  0  0  0  0  0  0
   -2.0709   -7.6637   18.7817 C   0  0  0  0  0  0  0  0  0  0  0  0
   -0.5279   -8.2168   17.0717 C   0  0  0  0  0  0  0  0  0  0  0  0
    6.9694   -4.0191   27.8190 C   0  0  0  0  0  0  0  0  0  0  0  0
    5.1733   -4.5469   29.8123 C   0  0  0  0  0  0  0  0  0  0  0  0
   -1.7508  -11.3016   18.6072 C   0  0  0  0  0  0  0  0  0  0  0  0
    1.7497   -5.6771   26.4971 C   0  0  0  0  0  0  0  0  0  0  0  0
   -1.5799   -9.9322   18.3468 C   0  0  0  0  0  0  0  0  0  0  0  0
   -1.0871  -12.2214   17.8851 C   0  0  0  0  0  0  0  0  0  0  0  0
   -2.2706   -8.9669   19.0691 C   0  0  0  0  0  0  0  0  0  0  0  0
    3.0279   -5.3073   26.8197 C   0  0  0  0  0  0  0  0  0  0  0  0
    7.3282   -3.8948   29.1186 C   0  0  0  0  0  0  0  0  0  0  0  0
  1  3  4  0
  1  7  4  0
  2  3  1  0
  2  6  4  0
  2 16  4  0
  3 22  4  0
  4  9  4  0
  4 10  1  0
  4 20  4  0
  5 16  4  0
  5 23  4  0
  6 15  4  0
  7 12  4  0
  8 13  4  0
  8 14  4  0
  9 11  4  0
 11 14  4  0
 11 19  4  0
 12 18  4  0
 13 21  4  0
 15 23  4  0
 17 19  4  0
 17 20  4  0
 18 22  4  0
 19 21  4  0
M  END
$$$$

 Created by Python create_sdf_string function

 23 25  0  0  0  0  0  0  0  0999 V2000
    2.4610   -5.3070   29.1240 C   0  0  0  0  0  0  0  0  0  0  0  0
    4.7710   -4.6952   28.4803 C   0  0  0  0  0  0  0  0  0  0  0  0
    3.4047   -5.1087   28.1314 C   0  0  0  0  0  0  0  0  0  0  0  0
   -0.2234  -11.8615   16.8874 C   0  0  0  0  0  0  0  0  0  0  0  0
    6.4491   -4.1532   30.1213 C   0  0  0  0  0  0  0  0  0  0  0  0
    5.7060   -4.4340   27.4975 C   0  0  0  0  0  0  0  0  0  0  0  0
    1.1818   -5.6612   28.8399 C   0  0  0  0  0  0  0  0  0  0  0  0
   -1.2067   -7.3287   17.7772 C   0  0  0  0  0  0  0  0  0  0  0  0
   -0.0206  -10.5585   16.6210 C   0  0  0  0  0  0  0  0  0  0  0  0
    0.3696  -12.7626   16.2169 O   0  0  0  0  0  0  0  0  0  0  0  0
   -0.6895   -9.5676   17.3297 C   0  0  0  0  0  0  0  0  0  0  0  0
    0.8388   -5.8417   27.5264 C   0  0  0  0  0  0  0  0  0  0  0  0
   -2.0709   -7.6637   18.7817 C   0  0  0  0  0  0  0  0  0  0  0  0
   -0.5279   -8.2168   17.0717 C   0  0  0  0  0  0  0  0  0  0  0  0
    6.9694   -4.0191   27.8190 C   0  0  0  0  0  0  0  0  0  0  0  0
    5.1733   -4.5469   29.8123 C   0  0  0  0  0  0  0  0  0  0  0  0
   -1.7508  -11.3016   18.6072 C   0  0  0  0  0  0  0  0  0  0  0  0
    1.7497   -5.6771   26.4971 C   0  0  0  0  0  0  0  0  0  0  0  0
   -1.5799   -9.9322   18.3468 C   0  0  0  0  0  0  0  0  0  0  0  0
   -1.0871  -12.2214   17.8851 C   0  0  0  0  0  0  0  0  0  0  0  0
   -2.2706   -8.9669   19.0691 C   0  0  0  0  0  0  0  0  0  0  0  0
    3.0279   -5.3073   26.8197 C   0  0  0  0  0  0  0  0  0  0  0  0
    7.3282   -3.8948   29.1186 C   0  0  0  0  0  0  0  0  0  0  0  0
  1  3  4  0
  1  7  4  0
  2  3  1  0
  2  6  4  0
  2 16  4  0
  3 22  4  0
  4  9  4  0
  4 10  1  0
  4 20  4  0
  5 16  4  0
  5 23  4  0
  6 15  4  0
  7 12  4  0
  8 13  4  0
  8 14  4  0
  9 11  4  0
 11 14  4  0
 11 19  4  0
 12 18  4  0
 13 21  4  0
 15 23  4  0
 17 19  4  0
 17 20  4  0
 18 22  4  0
 19 21  4  0
M  END
$$$$

 Created by Python create_sdf_string function

 23 25  0  0  0  0  0  0  0  0999 V2000
    2.4610   -5.3070   29.1240 C   0  0  0  0  0  0  0  0  0  0  0  0
    4.7710   -4.6952   28.4803 C   0  0  0  0  0  0  0  0  0  0  0  0
    3.4047   -5.1087   28.1314 C   0  0  0  0  0  0  0  0  0  0  0  0
   -0.2234  -11.8615   16.8874 C   0  0  0  0  0  0  0  0  0  0  0  0
    6.4491   -4.1532   30.1213 C   0  0  0  0  0  0  0  0  0  0  0  0
    5.7060   -4.4340   27.4975 C   0  0  0  0  0  0  0  0  0  0  0  0
    1.1818   -5.6612   28.8399 C   0  0  0  0  0  0  0  0  0  0  0  0
   -1.2067   -7.3287   17.7772 C   0  0  0  0  0  0  0  0  0  0  0  0
   -0.0206  -10.5585   16.6210 C   0  0  0  0  0  0  0  0  0  0  0  0
    0.3696  -12.7626   16.2169 O   0  0  0  0  0  0  0  0  0  0  0  0
   -0.6895   -9.5676   17.3297 C   0  0  0  0  0  0  0  0  0  0  0  0
    0.8388   -5.8417   27.5264 C   0  0  0  0  0  0  0  0  0  0  0  0
   -2.0709   -7.6637   18.7817 C   0  0  0  0  0  0  0  0  0  0  0  0
   -0.5279   -8.2168   17.0717 C   0  0  0  0  0  0  0  0  0  0  0  0
    6.9694   -4.0191   27.8190 C   0  0  0  0  0  0  0  0  0  0  0  0
    5.1733   -4.5469   29.8123 C   0  0  0  0  0  0  0  0  0  0  0  0
   -1.7508  -11.3016   18.6072 C   0  0  0  0  0  0  0  0  0  0  0  0
    1.7497   -5.6771   26.4971 C   0  0  0  0  0  0  0  0  0  0  0  0
   -1.5799   -9.9322   18.3468 C   0  0  0  0  0  0  0  0  0  0  0  0
   -1.0871  -12.2214   17.8851 C   0  0  0  0  0  0  0  0  0  0  0  0
   -2.2706   -8.9669   19.0691 C   0  0  0  0  0  0  0  0  0  0  0  0
    3.0279   -5.3073   26.8197 C   0  0  0  0  0  0  0  0  0  0  0  0
    7.3282   -3.8948   29.1186 C   0  0  0  0  0  0  0  0  0  0  0  0
  1  3  4  0
  1  7  4  0
  2  3  1  0
  2  6  4  0
  2 16  4  0
  3 22  4  0
  4  9  4  0
  4 10  1  0
  4 20  4  0
  5 16  4  0
  5 23  4  0
  6 15  4  0
  7 12  4  0
  8 13  4  0
  8 14  4  0
  9 11  4  0
 11 14  4  0
 11 19  4  0
 12 18  4  0
 13 21  4  0
 15 23  4  0
 17 19  4  0
 17 20  4  0
 18 22  4  0
 19 21  4  0
M  END
$$$$

 Created by Python create_sdf_string function

 23 25  0  0  0  0  0  0  0  0999 V2000
    2.4610   -5.3070   29.1240 C   0  0  0  0  0  0  0  0  0  0  0  0
    4.7710   -4.6952   28.4803 C   0  0  0  0  0  0  0  0  0  0  0  0
    3.4047   -5.1087   28.1314 C   0  0  0  0  0  0  0  0  0  0  0  0
   -0.2234  -11.8615   16.8874 C   0  0  0  0  0  0  0  0  0  0  0  0
    6.4491   -4.1532   30.1213 C   0  0  0  0  0  0  0  0  0  0  0  0
    5.7060   -4.4340   27.4975 C   0  0  0  0  0  0  0  0  0  0  0  0
    1.1818   -5.6612   28.8399 C   0  0  0  0  0  0  0  0  0  0  0  0
   -1.2067   -7.3287   17.7772 C   0  0  0  0  0  0  0  0  0  0  0  0
   -0.0206  -10.5585   16.6210 C   0  0  0  0  0  0  0  0  0  0  0  0
    0.3696  -12.7626   16.2169 O   0  0  0  0  0  0  0  0  0  0  0  0
   -0.6895   -9.5676   17.3297 C   0  0  0  0  0  0  0  0  0  0  0  0
    0.8388   -5.8417   27.5264 C   0  0  0  0  0  0  0  0  0  0  0  0
   -2.0709   -7.6637   18.7817 C   0  0  0  0  0  0  0  0  0  0  0  0
   -0.5279   -8.2168   17.0717 C   0  0  0  0  0  0  0  0  0  0  0  0
    6.9694   -4.0191   27.8190 C   0  0  0  0  0  0  0  0  0  0  0  0
    5.1733   -4.5469   29.8123 C   0  0  0  0  0  0  0  0  0  0  0  0
   -1.7508  -11.3016   18.6072 C   0  0  0  0  0  0  0  0  0  0  0  0
    1.7497   -5.6771   26.4971 C   0  0  0  0  0  0  0  0  0  0  0  0
   -1.5799   -9.9322   18.3468 C   0  0  0  0  0  0  0  0  0  0  0  0
   -1.0871  -12.2214   17.8851 C   0  0  0  0  0  0  0  0  0  0  0  0
   -2.2706   -8.9669   19.0691 C   0  0  0  0  0  0  0  0  0  0  0  0
    3.0279   -5.3073   26.8197 C   0  0  0  0  0  0  0  0  0  0  0  0
    7.3282   -3.8948   29.1186 C   0  0  0  0  0  0  0  0  0  0  0  0
  1  3  4  0
  1  7  4  0
  2  3  1  0
  2  6  4  0
  2 16  4  0
  3 22  4  0
  4  9  4  0
  4 10  1  0
  4 20  4  0
  5 16  4  0
  5 23  4  0
  6 15  4  0
  7 12  4  0
  8 13  4  0
  8 14  4  0
  9 11  4  0
 11 14  4  0
 11 19  4  0
 12 18  4  0
 13 21  4  0
 15 23  4  0
 17 19  4  0
 17 20  4  0
 18 22  4  0
 19 21  4  0
M  END
$$$$

 Created by Python create_sdf_string function

 23 25  0  0  0  0  0  0  0  0999 V2000
    2.4610   -5.3070   29.1240 C   0  0  0  0  0  0  0  0  0  0  0  0
    4.7710   -4.6952   28.4803 C   0  0  0  0  0  0  0  0  0  0  0  0
    3.4047   -5.1087   28.1314 C   0  0  0  0  0  0  0  0  0  0  0  0
   -0.2234  -11.8615   16.8874 C   0  0  0  0  0  0  0  0  0  0  0  0
    6.4491   -4.1532   30.1213 C   0  0  0  0  0  0  0  0  0  0  0  0
    5.7060   -4.4340   27.4975 C   0  0  0  0  0  0  0  0  0  0  0  0
    1.1818   -5.6612   28.8399 C   0  0  0  0  0  0  0  0  0  0  0  0
   -1.2067   -7.3287   17.7772 C   0  0  0  0  0  0  0  0  0  0  0  0
   -0.0206  -10.5585   16.6210 C   0  0  0  0  0  0  0  0  0  0  0  0
    0.3696  -12.7626   16.2169 O   0  0  0  0  0  0  0  0  0  0  0  0
   -0.6895   -9.5676   17.3297 C   0  0  0  0  0  0  0  0  0  0  0  0
    0.8388   -5.8417   27.5264 C   0  0  0  0  0  0  0  0  0  0  0  0
   -2.0709   -7.6637   18.7817 C   0  0  0  0  0  0  0  0  0  0  0  0
   -0.5279   -8.2168   17.0717 C   0  0  0  0  0  0  0  0  0  0  0  0
    6.9694   -4.0191   27.8190 C   0  0  0  0  0  0  0  0  0  0  0  0
    5.1733   -4.5469   29.8123 C   0  0  0  0  0  0  0  0  0  0  0  0
   -1.7508  -11.3016   18.6072 C   0  0  0  0  0  0  0  0  0  0  0  0
    1.7497   -5.6771   26.4971 C   0  0  0  0  0  0  0  0  0  0  0  0
   -1.5799   -9.9322   18.3468 C   0  0  0  0  0  0  0  0  0  0  0  0
   -1.0871  -12.2214   17.8851 C   0  0  0  0  0  0  0  0  0  0  0  0
   -2.2706   -8.9669   19.0691 C   0  0  0  0  0  0  0  0  0  0  0  0
    3.0279   -5.3073   26.8197 C   0  0  0  0  0  0  0  0  0  0  0  0
    7.3282   -3.8948   29.1186 C   0  0  0  0  0  0  0  0  0  0  0  0
  1  3  4  0
  1  7  4  0
  2  3  1  0
  2  6  4  0
  2 16  4  0
  3 22  4  0
  4  9  4  0
  4 10  1  0
  4 20  4  0
  5 16  4  0
  5 23  4  0
  6 15  4  0
  7 12  4  0
  8 13  4  0
  8 14  4  0
  9 11  4  0
 11 14  4  0
 11 19  4  0
 12 18  4  0
 13 21  4  0
 15 23  4  0
 17 19  4  0
 17 20  4  0
 18 22  4  0
 19 21  4  0
M  END
$$$$

 Created by Python create_sdf_string function

 23 25  0  0  0  0  0  0  0  0999 V2000
    2.4610   -5.3070   29.1240 C   0  0  0  0  0  0  0  0  0  0  0  0
    4.7710   -4.6952   28.4803 C   0  0  0  0  0  0  0  0  0  0  0  0
    3.4047   -5.1087   28.1314 C   0  0  0  0  0  0  0  0  0  0  0  0
   -0.2234  -11.8615   16.8874 C   0  0  0  0  0  0  0  0  0  0  0  0
    6.4491   -4.1532   30.1213 C   0  0  0  0  0  0  0  0  0  0  0  0
    5.7060   -4.4340   27.4975 C   0  0  0  0  0  0  0  0  0  0  0  0
    1.1818   -5.6612   28.8399 C   0  0  0  0  0  0  0  0  0  0  0  0
   -1.2067   -7.3287   17.7772 C   0  0  0  0  0  0  0  0  0  0  0  0
   -0.0206  -10.5585   16.6210 C   0  0  0  0  0  0  0  0  0  0  0  0
    0.3696  -12.7626   16.2169 O   0  0  0  0  0  0  0  0  0  0  0  0
   -0.6895   -9.5676   17.3297 C   0  0  0  0  0  0  0  0  0  0  0  0
    0.8388   -5.8417   27.5264 C   0  0  0  0  0  0  0  0  0  0  0  0
   -2.0709   -7.6637   18.7817 C   0  0  0  0  0  0  0  0  0  0  0  0
   -0.5279   -8.2168   17.0717 C   0  0  0  0  0  0  0  0  0  0  0  0
    6.9694   -4.0191   27.8190 C   0  0  0  0  0  0  0  0  0  0  0  0
    5.1733   -4.5469   29.8123 C   0  0  0  0  0  0  0  0  0  0  0  0
   -1.7508  -11.3016   18.6072 C   0  0  0  0  0  0  0  0  0  0  0  0
    1.7497   -5.6771   26.4971 C   0  0  0  0  0  0  0  0  0  0  0  0
   -1.5799   -9.9322   18.3468 C   0  0  0  0  0  0  0  0  0  0  0  0
   -1.0871  -12.2214   17.8851 C   0  0  0  0  0  0  0  0  0  0  0  0
   -2.2706   -8.9669   19.0691 C   0  0  0  0  0  0  0  0  0  0  0  0
    3.0279   -5.3073   26.8197 C   0  0  0  0  0  0  0  0  0  0  0  0
    7.3282   -3.8948   29.1186 C   0  0  0  0  0  0  0  0  0  0  0  0
  1  3  4  0
  1  7  4  0
  2  3  1  0
  2  6  4  0
  2 16  4  0
  3 22  4  0
  4  9  4  0
  4 10  1  0
  4 20  4  0
  5 16  4  0
  5 23  4  0
  6 15  4  0
  7 12  4  0
  8 13  4  0
  8 14  4  0
  9 11  4  0
 11 14  4  0
 11 19  4  0
 12 18  4  0
 13 21  4  0
 15 23  4  0
 17 19  4  0
 17 20  4  0
 18 22  4  0
 19 21  4  0
M  END
$$$$

 Created by Python create_sdf_string function

 23 25  0  0  0  0  0  0  0  0999 V2000
    2.4610   -5.3070   29.1240 C   0  0  0  0  0  0  0  0  0  0  0  0
    4.7710   -4.6952   28.4803 C   0  0  0  0  0  0  0  0  0  0  0  0
    3.4047   -5.1087   28.1314 C   0  0  0  0  0  0  0  0  0  0  0  0
   -0.2234  -11.8615   16.8874 C   0  0  0  0  0  0  0  0  0  0  0  0
    6.4491   -4.1532   30.1213 C   0  0  0  0  0  0  0  0  0  0  0  0
    5.7060   -4.4340   27.4975 C   0  0  0  0  0  0  0  0  0  0  0  0
    1.1818   -5.6612   28.8399 C   0  0  0  0  0  0  0  0  0  0  0  0
   -1.2067   -7.3287   17.7772 C   0  0  0  0  0  0  0  0  0  0  0  0
   -0.0206  -10.5585   16.6210 C   0  0  0  0  0  0  0  0  0  0  0  0
    0.3696  -12.7626   16.2169 O   0  0  0  0  0  0  0  0  0  0  0  0
   -0.6895   -9.5676   17.3297 C   0  0  0  0  0  0  0  0  0  0  0  0
    0.8388   -5.8417   27.5264 C   0  0  0  0  0  0  0  0  0  0  0  0
   -2.0709   -7.6637   18.7817 C   0  0  0  0  0  0  0  0  0  0  0  0
   -0.5279   -8.2168   17.0717 C   0  0  0  0  0  0  0  0  0  0  0  0
    6.9694   -4.0191   27.8190 C   0  0  0  0  0  0  0  0  0  0  0  0
    5.1733   -4.5469   29.8123 C   0  0  0  0  0  0  0  0  0  0  0  0
   -1.7508  -11.3016   18.6072 C   0  0  0  0  0  0  0  0  0  0  0  0
    1.7497   -5.6771   26.4971 C   0  0  0  0  0  0  0  0  0  0  0  0
   -1.5799   -9.9322   18.3468 C   0  0  0  0  0  0  0  0  0  0  0  0
   -1.0871  -12.2214   17.8851 C   0  0  0  0  0  0  0  0  0  0  0  0
   -2.2706   -8.9669   19.0691 C   0  0  0  0  0  0  0  0  0  0  0  0
    3.0279   -5.3073   26.8197 C   0  0  0  0  0  0  0  0  0  0  0  0
    7.3282   -3.8948   29.1186 C   0  0  0  0  0  0  0  0  0  0  0  0
  1  3  4  0
  1  7  4  0
  2  3  1  0
  2  6  4  0
  2 16  4  0
  3 22  4  0
  4  9  4  0
  4 10  1  0
  4 20  4  0
  5 16  4  0
  5 23  4  0
  6 15  4  0
  7 12  4  0
  8 13  4  0
  8 14  4  0
  9 11  4  0
 11 14  4  0
 11 19  4  0
 12 18  4  0
 13 21  4  0
 15 23  4  0
 17 19  4  0
 17 20  4  0
 18 22  4  0
 19 21  4  0
M  END
$$$$

 Created by Python create_sdf_string function

 23 25  0  0  0  0  0  0  0  0999 V2000
    2.4610   -5.3070   29.1240 C   0  0  0  0  0  0  0  0  0  0  0  0
    4.7710   -4.6952   28.4803 C   0  0  0  0  0  0  0  0  0  0  0  0
    3.4047   -5.1087   28.1314 C   0  0  0  0  0  0  0  0  0  0  0  0
   -0.2234  -11.8615   16.8874 C   0  0  0  0  0  0  0  0  0  0  0  0
    6.4491   -4.1532   30.1213 C   0  0  0  0  0  0  0  0  0  0  0  0
    5.7060   -4.4340   27.4975 C   0  0  0  0  0  0  0  0  0  0  0  0
    1.1818   -5.6612   28.8399 C   0  0  0  0  0  0  0  0  0  0  0  0
   -1.2067   -7.3287   17.7772 C   0  0  0  0  0  0  0  0  0  0  0  0
   -0.0206  -10.5585   16.6210 C   0  0  0  0  0  0  0  0  0  0  0  0
    0.3696  -12.7626   16.2169 O   0  0  0  0  0  0  0  0  0  0  0  0
   -0.6895   -9.5676   17.3297 C   0  0  0  0  0  0  0  0  0  0  0  0
    0.8388   -5.8417   27.5264 C   0  0  0  0  0  0  0  0  0  0  0  0
   -2.0709   -7.6637   18.7817 C   0  0  0  0  0  0  0  0  0  0  0  0
   -0.5279   -8.2168   17.0717 C   0  0  0  0  0  0  0  0  0  0  0  0
    6.9694   -4.0191   27.8190 C   0  0  0  0  0  0  0  0  0  0  0  0
    5.1733   -4.5469   29.8123 C   0  0  0  0  0  0  0  0  0  0  0  0
   -1.7508  -11.3016   18.6072 C   0  0  0  0  0  0  0  0  0  0  0  0
    1.7497   -5.6771   26.4971 C   0  0  0  0  0  0  0  0  0  0  0  0
   -1.5799   -9.9322   18.3468 C   0  0  0  0  0  0  0  0  0  0  0  0
   -1.0871  -12.2214   17.8851 C   0  0  0  0  0  0  0  0  0  0  0  0
   -2.2706   -8.9669   19.0691 C   0  0  0  0  0  0  0  0  0  0  0  0
    3.0279   -5.3073   26.8197 C   0  0  0  0  0  0  0  0  0  0  0  0
    7.3282   -3.8948   29.1186 C   0  0  0  0  0  0  0  0  0  0  0  0
  1  3  4  0
  1  7  4  0
  2  3  1  0
  2  6  4  0
  2 16  4  0
  3 22  4  0
  4  9  4  0
  4 10  1  0
  4 20  4  0
  5 16  4  0
  5 23  4  0
  6 15  4  0
  7 12  4  0
  8 13  4  0
  8 14  4  0
  9 11  4  0
 11 14  4  0
 11 19  4  0
 12 18  4  0
 13 21  4  0
 15 23  4  0
 17 19  4  0
 17 20  4  0
 18 22  4  0
 19 21  4  0
M  END
$$$$

 Created by Python create_sdf_string function

 23 25  0  0  0  0  0  0  0  0999 V2000
    2.4610   -5.3070   29.1240 C   0  0  0  0  0  0  0  0  0  0  0  0
    4.7710   -4.6952   28.4803 C   0  0  0  0  0  0  0  0  0  0  0  0
    3.4047   -5.1087   28.1314 C   0  0  0  0  0  0  0  0  0  0  0  0
   -0.2234  -11.8615   16.8874 C   0  0  0  0  0  0  0  0  0  0  0  0
    6.4491   -4.1532   30.1213 C   0  0  0  0  0  0  0  0  0  0  0  0
    5.7060   -4.4340   27.4975 C   0  0  0  0  0  0  0  0  0  0  0  0
    1.1818   -5.6612   28.8399 C   0  0  0  0  0  0  0  0  0  0  0  0
   -1.2067   -7.3287   17.7772 C   0  0  0  0  0  0  0  0  0  0  0  0
   -0.0206  -10.5585   16.6210 C   0  0  0  0  0  0  0  0  0  0  0  0
    0.3696  -12.7626   16.2169 O   0  0  0  0  0  0  0  0  0  0  0  0
   -0.6895   -9.5676   17.3297 C   0  0  0  0  0  0  0  0  0  0  0  0
    0.8388   -5.8417   27.5264 C   0  0  0  0  0  0  0  0  0  0  0  0
   -2.0709   -7.6637   18.7817 C   0  0  0  0  0  0  0  0  0  0  0  0
   -0.5279   -8.2168   17.0717 C   0  0  0  0  0  0  0  0  0  0  0  0
    6.9694   -4.0191   27.8190 C   0  0  0  0  0  0  0  0  0  0  0  0
    5.1733   -4.5469   29.8123 C   0  0  0  0  0  0  0  0  0  0  0  0
   -1.7508  -11.3016   18.6072 C   0  0  0  0  0  0  0  0  0  0  0  0
    1.7497   -5.6771   26.4971 C   0  0  0  0  0  0  0  0  0  0  0  0
   -1.5799   -9.9322   18.3468 C   0  0  0  0  0  0  0  0  0  0  0  0
   -1.0871  -12.2214   17.8851 C   0  0  0  0  0  0  0  0  0  0  0  0
   -2.2706   -8.9669   19.0691 C   0  0  0  0  0  0  0  0  0  0  0  0
    3.0279   -5.3073   26.8197 C   0  0  0  0  0  0  0  0  0  0  0  0
    7.3282   -3.8948   29.1186 C   0  0  0  0  0  0  0  0  0  0  0  0
  1  3  4  0
  1  7  4  0
  2  3  1  0
  2  6  4  0
  2 16  4  0
  3 22  4  0
  4  9  4  0
  4 10  1  0
  4 20  4  0
  5 16  4  0
  5 23  4  0
  6 15  4  0
  7 12  4  0
  8 13  4  0
  8 14  4  0
  9 11  4  0
 11 14  4  0
 11 19  4  0
 12 18  4  0
 13 21  4  0
 15 23  4  0
 17 19  4  0
 17 20  4  0
 18 22  4  0
 19 21  4  0
M  END
$$$$

 Created by Python create_sdf_string function

 23 25  0  0  0  0  0  0  0  0999 V2000
    2.4610   -5.3070   29.1240 C   0  0  0  0  0  0  0  0  0  0  0  0
    4.7710   -4.6952   28.4803 C   0  0  0  0  0  0  0  0  0  0  0  0
    3.4047   -5.1087   28.1314 C   0  0  0  0  0  0  0  0  0  0  0  0
   -0.2234  -11.8615   16.8874 C   0  0  0  0  0  0  0  0  0  0  0  0
    6.4491   -4.1532   30.1213 C   0  0  0  0  0  0  0  0  0  0  0  0
    5.7060   -4.4340   27.4975 C   0  0  0  0  0  0  0  0  0  0  0  0
    1.1818   -5.6612   28.8399 C   0  0  0  0  0  0  0  0  0  0  0  0
   -1.2067   -7.3287   17.7772 C   0  0  0  0  0  0  0  0  0  0  0  0
   -0.0206  -10.5585   16.6210 C   0  0  0  0  0  0  0  0  0  0  0  0
    0.3696  -12.7626   16.2169 O   0  0  0  0  0  0  0  0  0  0  0  0
   -0.6895   -9.5676   17.3297 C   0  0  0  0  0  0  0  0  0  0  0  0
    0.8388   -5.8417   27.5264 C   0  0  0  0  0  0  0  0  0  0  0  0
   -2.0709   -7.6637   18.7817 C   0  0  0  0  0  0  0  0  0  0  0  0
   -0.5279   -8.2168   17.0717 C   0  0  0  0  0  0  0  0  0  0  0  0
    6.9694   -4.0191   27.8190 C   0  0  0  0  0  0  0  0  0  0  0  0
    5.1733   -4.5469   29.8123 C   0  0  0  0  0  0  0  0  0  0  0  0
   -1.7508  -11.3016   18.6072 C   0  0  0  0  0  0  0  0  0  0  0  0
    1.7497   -5.6771   26.4971 C   0  0  0  0  0  0  0  0  0  0  0  0
   -1.5799   -9.9322   18.3468 C   0  0  0  0  0  0  0  0  0  0  0  0
   -1.0871  -12.2214   17.8851 C   0  0  0  0  0  0  0  0  0  0  0  0
   -2.2706   -8.9669   19.0691 C   0  0  0  0  0  0  0  0  0  0  0  0
    3.0279   -5.3073   26.8197 C   0  0  0  0  0  0  0  0  0  0  0  0
    7.3282   -3.8948   29.1186 C   0  0  0  0  0  0  0  0  0  0  0  0
  1  3  4  0
  1  7  4  0
  2  3  1  0
  2  6  4  0
  2 16  4  0
  3 22  4  0
  4  9  4  0
  4 10  1  0
  4 20  4  0
  5 16  4  0
  5 23  4  0
  6 15  4  0
  7 12  4  0
  8 13  4  0
  8 14  4  0
  9 11  4  0
 11 14  4  0
 11 19  4  0
 12 18  4  0
 13 21  4  0
 15 23  4  0
 17 19  4  0
 17 20  4  0
 18 22  4  0
 19 21  4  0
M  END
$$$$

 Created by Python create_sdf_string function

 23 25  0  0  0  0  0  0  0  0999 V2000
    2.4610   -5.3070   29.1240 C   0  0  0  0  0  0  0  0  0  0  0  0
    4.7710   -4.6952   28.4803 C   0  0  0  0  0  0  0  0  0  0  0  0
    3.4047   -5.1087   28.1314 C   0  0  0  0  0  0  0  0  0  0  0  0
   -0.2234  -11.8615   16.8874 C   0  0  0  0  0  0  0  0  0  0  0  0
    6.4491   -4.1532   30.1213 C   0  0  0  0  0  0  0  0  0  0  0  0
    5.7060   -4.4340   27.4975 C   0  0  0  0  0  0  0  0  0  0  0  0
    1.1818   -5.6612   28.8399 C   0  0  0  0  0  0  0  0  0  0  0  0
   -1.2067   -7.3287   17.7772 C   0  0  0  0  0  0  0  0  0  0  0  0
   -0.0206  -10.5585   16.6210 C   0  0  0  0  0  0  0  0  0  0  0  0
    0.3696  -12.7626   16.2169 O   0  0  0  0  0  0  0  0  0  0  0  0
   -0.6895   -9.5676   17.3297 C   0  0  0  0  0  0  0  0  0  0  0  0
    0.8388   -5.8417   27.5264 C   0  0  0  0  0  0  0  0  0  0  0  0
   -2.0709   -7.6637   18.7817 C   0  0  0  0  0  0  0  0  0  0  0  0
   -0.5279   -8.2168   17.0717 C   0  0  0  0  0  0  0  0  0  0  0  0
    6.9694   -4.0191   27.8190 C   0  0  0  0  0  0  0  0  0  0  0  0
    5.1733   -4.5469   29.8123 C   0  0  0  0  0  0  0  0  0  0  0  0
   -1.7508  -11.3016   18.6072 C   0  0  0  0  0  0  0  0  0  0  0  0
    1.7497   -5.6771   26.4971 C   0  0  0  0  0  0  0  0  0  0  0  0
   -1.5799   -9.9322   18.3468 C   0  0  0  0  0  0  0  0  0  0  0  0
   -1.0871  -12.2214   17.8851 C   0  0  0  0  0  0  0  0  0  0  0  0
   -2.2706   -8.9669   19.0691 C   0  0  0  0  0  0  0  0  0  0  0  0
    3.0279   -5.3073   26.8197 C   0  0  0  0  0  0  0  0  0  0  0  0
    7.3282   -3.8948   29.1186 C   0  0  0  0  0  0  0  0  0  0  0  0
  1  3  4  0
  1  7  4  0
  2  3  1  0
  2  6  4  0
  2 16  4  0
  3 22  4  0
  4  9  4  0
  4 10  1  0
  4 20  4  0
  5 16  4  0
  5 23  4  0
  6 15  4  0
  7 12  4  0
  8 13  4  0
  8 14  4  0
  9 11  4  0
 11 14  4  0
 11 19  4  0
 12 18  4  0
 13 21  4  0
 15 23  4  0
 17 19  4  0
 17 20  4  0
 18 22  4  0
 19 21  4  0
M  END
$$$$

 Created by Python create_sdf_string function

 23 25  0  0  0  0  0  0  0  0999 V2000
    2.4610   -5.3070   29.1240 C   0  0  0  0  0  0  0  0  0  0  0  0
    4.7710   -4.6952   28.4803 C   0  0  0  0  0  0  0  0  0  0  0  0
    3.4047   -5.1087   28.1314 C   0  0  0  0  0  0  0  0  0  0  0  0
   -0.2234  -11.8615   16.8874 C   0  0  0  0  0  0  0  0  0  0  0  0
    6.4491   -4.1532   30.1213 C   0  0  0  0  0  0  0  0  0  0  0  0
    5.7060   -4.4340   27.4975 C   0  0  0  0  0  0  0  0  0  0  0  0
    1.1818   -5.6612   28.8399 C   0  0  0  0  0  0  0  0  0  0  0  0
   -1.2067   -7.3287   17.7772 C   0  0  0  0  0  0  0  0  0  0  0  0
   -0.0206  -10.5585   16.6210 C   0  0  0  0  0  0  0  0  0  0  0  0
    0.3696  -12.7626   16.2169 O   0  0  0  0  0  0  0  0  0  0  0  0
   -0.6895   -9.5676   17.3297 C   0  0  0  0  0  0  0  0  0  0  0  0
    0.8388   -5.8417   27.5264 C   0  0  0  0  0  0  0  0  0  0  0  0
   -2.0709   -7.6637   18.7817 C   0  0  0  0  0  0  0  0  0  0  0  0
   -0.5279   -8.2168   17.0717 C   0  0  0  0  0  0  0  0  0  0  0  0
    6.9694   -4.0191   27.8190 C   0  0  0  0  0  0  0  0  0  0  0  0
    5.1733   -4.5469   29.8123 C   0  0  0  0  0  0  0  0  0  0  0  0
   -1.7508  -11.3016   18.6072 C   0  0  0  0  0  0  0  0  0  0  0  0
    1.7497   -5.6771   26.4971 C   0  0  0  0  0  0  0  0  0  0  0  0
   -1.5799   -9.9322   18.3468 C   0  0  0  0  0  0  0  0  0  0  0  0
   -1.0871  -12.2214   17.8851 C   0  0  0  0  0  0  0  0  0  0  0  0
   -2.2706   -8.9669   19.0691 C   0  0  0  0  0  0  0  0  0  0  0  0
    3.0279   -5.3073   26.8197 C   0  0  0  0  0  0  0  0  0  0  0  0
    7.3282   -3.8948   29.1186 C   0  0  0  0  0  0  0  0  0  0  0  0
  1  3  4  0
  1  7  4  0
  2  3  1  0
  2  6  4  0
  2 16  4  0
  3 22  4  0
  4  9  4  0
  4 10  1  0
  4 20  4  0
  5 16  4  0
  5 23  4  0
  6 15  4  0
  7 12  4  0
  8 13  4  0
  8 14  4  0
  9 11  4  0
 11 14  4  0
 11 19  4  0
 12 18  4  0
 13 21  4  0
 15 23  4  0
 17 19  4  0
 17 20  4  0
 18 22  4  0
 19 21  4  0
M  END
$$$$

 Created by Python create_sdf_string function

 23 25  0  0  0  0  0  0  0  0999 V2000
    2.4610   -5.3070   29.1240 C   0  0  0  0  0  0  0  0  0  0  0  0
    4.7710   -4.6952   28.4803 C   0  0  0  0  0  0  0  0  0  0  0  0
    3.4047   -5.1087   28.1314 C   0  0  0  0  0  0  0  0  0  0  0  0
   -0.2234  -11.8615   16.8874 C   0  0  0  0  0  0  0  0  0  0  0  0
    6.4491   -4.1532   30.1213 C   0  0  0  0  0  0  0  0  0  0  0  0
    5.7060   -4.4340   27.4975 C   0  0  0  0  0  0  0  0  0  0  0  0
    1.1818   -5.6612   28.8399 C   0  0  0  0  0  0  0  0  0  0  0  0
   -1.2067   -7.3287   17.7772 C   0  0  0  0  0  0  0  0  0  0  0  0
   -0.0206  -10.5585   16.6210 C   0  0  0  0  0  0  0  0  0  0  0  0
    0.3696  -12.7626   16.2169 O   0  0  0  0  0  0  0  0  0  0  0  0
   -0.6895   -9.5676   17.3297 C   0  0  0  0  0  0  0  0  0  0  0  0
    0.8388   -5.8417   27.5264 C   0  0  0  0  0  0  0  0  0  0  0  0
   -2.0709   -7.6637   18.7817 C   0  0  0  0  0  0  0  0  0  0  0  0
   -0.5279   -8.2168   17.0717 C   0  0  0  0  0  0  0  0  0  0  0  0
    6.9694   -4.0191   27.8190 C   0  0  0  0  0  0  0  0  0  0  0  0
    5.1733   -4.5469   29.8123 C   0  0  0  0  0  0  0  0  0  0  0  0
   -1.7508  -11.3016   18.6072 C   0  0  0  0  0  0  0  0  0  0  0  0
    1.7497   -5.6771   26.4971 C   0  0  0  0  0  0  0  0  0  0  0  0
   -1.5799   -9.9322   18.3468 C   0  0  0  0  0  0  0  0  0  0  0  0
   -1.0871  -12.2214   17.8851 C   0  0  0  0  0  0  0  0  0  0  0  0
   -2.2706   -8.9669   19.0691 C   0  0  0  0  0  0  0  0  0  0  0  0
    3.0279   -5.3073   26.8197 C   0  0  0  0  0  0  0  0  0  0  0  0
    7.3282   -3.8948   29.1186 C   0  0  0  0  0  0  0  0  0  0  0  0
  1  3  4  0
  1  7  4  0
  2  3  1  0
  2  6  4  0
  2 16  4  0
  3 22  4  0
  4  9  4  0
  4 10  1  0
  4 20  4  0
  5 16  4  0
  5 23  4  0
  6 15  4  0
  7 12  4  0
  8 13  4  0
  8 14  4  0
  9 11  4  0
 11 14  4  0
 11 19  4  0
 12 18  4  0
 13 21  4  0
 15 23  4  0
 17 19  4  0
 17 20  4  0
 18 22  4  0
 19 21  4  0
M  END
$$$$

 Created by Python create_sdf_string function

 23 25  0  0  0  0  0  0  0  0999 V2000
    2.4610   -5.3070   29.1240 C   0  0  0  0  0  0  0  0  0  0  0  0
    4.7710   -4.6952   28.4803 C   0  0  0  0  0  0  0  0  0  0  0  0
    3.4047   -5.1087   28.1314 C   0  0  0  0  0  0  0  0  0  0  0  0
   -0.2234  -11.8615   16.8874 C   0  0  0  0  0  0  0  0  0  0  0  0
    6.4491   -4.1532   30.1213 C   0  0  0  0  0  0  0  0  0  0  0  0
    5.7060   -4.4340   27.4975 C   0  0  0  0  0  0  0  0  0  0  0  0
    1.1818   -5.6612   28.8399 C   0  0  0  0  0  0  0  0  0  0  0  0
   -1.2067   -7.3287   17.7772 C   0  0  0  0  0  0  0  0  0  0  0  0
   -0.0206  -10.5585   16.6210 C   0  0  0  0  0  0  0  0  0  0  0  0
    0.3696  -12.7626   16.2169 O   0  0  0  0  0  0  0  0  0  0  0  0
   -0.6895   -9.5676   17.3297 C   0  0  0  0  0  0  0  0  0  0  0  0
    0.8388   -5.8417   27.5264 C   0  0  0  0  0  0  0  0  0  0  0  0
   -2.0709   -7.6637   18.7817 C   0  0  0  0  0  0  0  0  0  0  0  0
   -0.5279   -8.2168   17.0717 C   0  0  0  0  0  0  0  0  0  0  0  0
    6.9694   -4.0191   27.8190 C   0  0  0  0  0  0  0  0  0  0  0  0
    5.1733   -4.5469   29.8123 C   0  0  0  0  0  0  0  0  0  0  0  0
   -1.7508  -11.3016   18.6072 C   0  0  0  0  0  0  0  0  0  0  0  0
    1.7497   -5.6771   26.4971 C   0  0  0  0  0  0  0  0  0  0  0  0
   -1.5799   -9.9322   18.3468 C   0  0  0  0  0  0  0  0  0  0  0  0
   -1.0871  -12.2214   17.8851 C   0  0  0  0  0  0  0  0  0  0  0  0
   -2.2706   -8.9669   19.0691 C   0  0  0  0  0  0  0  0  0  0  0  0
    3.0279   -5.3073   26.8197 C   0  0  0  0  0  0  0  0  0  0  0  0
    7.3282   -3.8948   29.1186 C   0  0  0  0  0  0  0  0  0  0  0  0
  1  3  4  0
  1  7  4  0
  2  3  1  0
  2  6  4  0
  2 16  4  0
  3 22  4  0
  4  9  4  0
  4 10  1  0
  4 20  4  0
  5 16  4  0
  5 23  4  0
  6 15  4  0
  7 12  4  0
  8 13  4  0
  8 14  4  0
  9 11  4  0
 11 14  4  0
 11 19  4  0
 12 18  4  0
 13 21  4  0
 15 23  4  0
 17 19  4  0
 17 20  4  0
 18 22  4  0
 19 21  4  0
M  END
$$$$

 Created by Python create_sdf_string function

 23 25  0  0  0  0  0  0  0  0999 V2000
    2.4610   -5.3070   29.1240 C   0  0  0  0  0  0  0  0  0  0  0  0
    4.7710   -4.6952   28.4803 C   0  0  0  0  0  0  0  0  0  0  0  0
    3.4047   -5.1087   28.1314 C   0  0  0  0  0  0  0  0  0  0  0  0
   -0.2234  -11.8615   16.8874 C   0  0  0  0  0  0  0  0  0  0  0  0
    6.4491   -4.1532   30.1213 C   0  0  0  0  0  0  0  0  0  0  0  0
    5.7060   -4.4340   27.4975 C   0  0  0  0  0  0  0  0  0  0  0  0
    1.1818   -5.6612   28.8399 C   0  0  0  0  0  0  0  0  0  0  0  0
   -1.2067   -7.3287   17.7772 C   0  0  0  0  0  0  0  0  0  0  0  0
   -0.0206  -10.5585   16.6210 C   0  0  0  0  0  0  0  0  0  0  0  0
    0.3696  -12.7626   16.2169 O   0  0  0  0  0  0  0  0  0  0  0  0
   -0.6895   -9.5676   17.3297 C   0  0  0  0  0  0  0  0  0  0  0  0
    0.8388   -5.8417   27.5264 C   0  0  0  0  0  0  0  0  0  0  0  0
   -2.0709   -7.6637   18.7817 C   0  0  0  0  0  0  0  0  0  0  0  0
   -0.5279   -8.2168   17.0717 C   0  0  0  0  0  0  0  0  0  0  0  0
    6.9694   -4.0191   27.8190 C   0  0  0  0  0  0  0  0  0  0  0  0
    5.1733   -4.5469   29.8123 C   0  0  0  0  0  0  0  0  0  0  0  0
   -1.7508  -11.3016   18.6072 C   0  0  0  0  0  0  0  0  0  0  0  0
    1.7497   -5.6771   26.4971 C   0  0  0  0  0  0  0  0  0  0  0  0
   -1.5799   -9.9322   18.3468 C   0  0  0  0  0  0  0  0  0  0  0  0
   -1.0871  -12.2214   17.8851 C   0  0  0  0  0  0  0  0  0  0  0  0
   -2.2706   -8.9669   19.0691 C   0  0  0  0  0  0  0  0  0  0  0  0
    3.0279   -5.3073   26.8197 C   0  0  0  0  0  0  0  0  0  0  0  0
    7.3282   -3.8948   29.1186 C   0  0  0  0  0  0  0  0  0  0  0  0
  1  3  4  0
  1  7  4  0
  2  3  1  0
  2  6  4  0
  2 16  4  0
  3 22  4  0
  4  9  4  0
  4 10  1  0
  4 20  4  0
  5 16  4  0
  5 23  4  0
  6 15  4  0
  7 12  4  0
  8 13  4  0
  8 14  4  0
  9 11  4  0
 11 14  4  0
 11 19  4  0
 12 18  4  0
 13 21  4  0
 15 23  4  0
 17 19  4  0
 17 20  4  0
 18 22  4  0
 19 21  4  0
M  END
$$$$

 Created by Python create_sdf_string function

 23 25  0  0  0  0  0  0  0  0999 V2000
    2.4610   -5.3070   29.1240 C   0  0  0  0  0  0  0  0  0  0  0  0
    4.7710   -4.6952   28.4803 C   0  0  0  0  0  0  0  0  0  0  0  0
    3.4047   -5.1087   28.1314 C   0  0  0  0  0  0  0  0  0  0  0  0
   -0.2234  -11.8615   16.8874 C   0  0  0  0  0  0  0  0  0  0  0  0
    6.4491   -4.1532   30.1213 C   0  0  0  0  0  0  0  0  0  0  0  0
    5.7060   -4.4340   27.4975 C   0  0  0  0  0  0  0  0  0  0  0  0
    1.1818   -5.6612   28.8399 C   0  0  0  0  0  0  0  0  0  0  0  0
   -1.2067   -7.3287   17.7772 C   0  0  0  0  0  0  0  0  0  0  0  0
   -0.0206  -10.5585   16.6210 C   0  0  0  0  0  0  0  0  0  0  0  0
    0.3696  -12.7626   16.2169 O   0  0  0  0  0  0  0  0  0  0  0  0
   -0.6895   -9.5676   17.3297 C   0  0  0  0  0  0  0  0  0  0  0  0
    0.8388   -5.8417   27.5264 C   0  0  0  0  0  0  0  0  0  0  0  0
   -2.0709   -7.6637   18.7817 C   0  0  0  0  0  0  0  0  0  0  0  0
   -0.5279   -8.2168   17.0717 C   0  0  0  0  0  0  0  0  0  0  0  0
    6.9694   -4.0191   27.8190 C   0  0  0  0  0  0  0  0  0  0  0  0
    5.1733   -4.5469   29.8123 C   0  0  0  0  0  0  0  0  0  0  0  0
   -1.7508  -11.3016   18.6072 C   0  0  0  0  0  0  0  0  0  0  0  0
    1.7497   -5.6771   26.4971 C   0  0  0  0  0  0  0  0  0  0  0  0
   -1.5799   -9.9322   18.3468 C   0  0  0  0  0  0  0  0  0  0  0  0
   -1.0871  -12.2214   17.8851 C   0  0  0  0  0  0  0  0  0  0  0  0
   -2.2706   -8.9669   19.0691 C   0  0  0  0  0  0  0  0  0  0  0  0
    3.0279   -5.3073   26.8197 C   0  0  0  0  0  0  0  0  0  0  0  0
    7.3282   -3.8948   29.1186 C   0  0  0  0  0  0  0  0  0  0  0  0
  1  3  4  0
  1  7  4  0
  2  3  1  0
  2  6  4  0
  2 16  4  0
  3 22  4  0
  4  9  4  0
  4 10  1  0
  4 20  4  0
  5 16  4  0
  5 23  4  0
  6 15  4  0
  7 12  4  0
  8 13  4  0
  8 14  4  0
  9 11  4  0
 11 14  4  0
 11 19  4  0
 12 18  4  0
 13 21  4  0
 15 23  4  0
 17 19  4  0
 17 20  4  0
 18 22  4  0
 19 21  4  0
M  END
$$$$

 Created by Python create_sdf_string function

 23 25  0  0  0  0  0  0  0  0999 V2000
    2.4610   -5.3070   29.1240 C   0  0  0  0  0  0  0  0  0  0  0  0
    4.7710   -4.6952   28.4803 C   0  0  0  0  0  0  0  0  0  0  0  0
    3.4047   -5.1087   28.1314 C   0  0  0  0  0  0  0  0  0  0  0  0
   -0.2234  -11.8615   16.8874 C   0  0  0  0  0  0  0  0  0  0  0  0
    6.4491   -4.1532   30.1213 C   0  0  0  0  0  0  0  0  0  0  0  0
    5.7060   -4.4340   27.4975 C   0  0  0  0  0  0  0  0  0  0  0  0
    1.1818   -5.6612   28.8399 C   0  0  0  0  0  0  0  0  0  0  0  0
   -1.2067   -7.3287   17.7772 C   0  0  0  0  0  0  0  0  0  0  0  0
   -0.0206  -10.5585   16.6210 C   0  0  0  0  0  0  0  0  0  0  0  0
    0.3696  -12.7626   16.2169 O   0  0  0  0  0  0  0  0  0  0  0  0
   -0.6895   -9.5676   17.3297 C   0  0  0  0  0  0  0  0  0  0  0  0
    0.8388   -5.8417   27.5264 C   0  0  0  0  0  0  0  0  0  0  0  0
   -2.0709   -7.6637   18.7817 C   0  0  0  0  0  0  0  0  0  0  0  0
   -0.5279   -8.2168   17.0717 C   0  0  0  0  0  0  0  0  0  0  0  0
    6.9694   -4.0191   27.8190 C   0  0  0  0  0  0  0  0  0  0  0  0
    5.1733   -4.5469   29.8123 C   0  0  0  0  0  0  0  0  0  0  0  0
   -1.7508  -11.3016   18.6072 C   0  0  0  0  0  0  0  0  0  0  0  0
    1.7497   -5.6771   26.4971 C   0  0  0  0  0  0  0  0  0  0  0  0
   -1.5799   -9.9322   18.3468 C   0  0  0  0  0  0  0  0  0  0  0  0
   -1.0871  -12.2214   17.8851 C   0  0  0  0  0  0  0  0  0  0  0  0
   -2.2706   -8.9669   19.0691 C   0  0  0  0  0  0  0  0  0  0  0  0
    3.0279   -5.3073   26.8197 C   0  0  0  0  0  0  0  0  0  0  0  0
    7.3282   -3.8948   29.1186 C   0  0  0  0  0  0  0  0  0  0  0  0
  1  3  4  0
  1  7  4  0
  2  3  1  0
  2  6  4  0
  2 16  4  0
  3 22  4  0
  4  9  4  0
  4 10  1  0
  4 20  4  0
  5 16  4  0
  5 23  4  0
  6 15  4  0
  7 12  4  0
  8 13  4  0
  8 14  4  0
  9 11  4  0
 11 14  4  0
 11 19  4  0
 12 18  4  0
 13 21  4  0
 15 23  4  0
 17 19  4  0
 17 20  4  0
 18 22  4  0
 19 21  4  0
M  END
$$$$

 Created by Python create_sdf_string function

 23 25  0  0  0  0  0  0  0  0999 V2000
    2.4610   -5.3070   29.1240 C   0  0  0  0  0  0  0  0  0  0  0  0
    4.7710   -4.6952   28.4803 C   0  0  0  0  0  0  0  0  0  0  0  0
    3.4047   -5.1087   28.1314 C   0  0  0  0  0  0  0  0  0  0  0  0
   -0.2234  -11.8615   16.8874 C   0  0  0  0  0  0  0  0  0  0  0  0
    6.4491   -4.1532   30.1213 C   0  0  0  0  0  0  0  0  0  0  0  0
    5.7060   -4.4340   27.4975 C   0  0  0  0  0  0  0  0  0  0  0  0
    1.1818   -5.6612   28.8399 C   0  0  0  0  0  0  0  0  0  0  0  0
   -1.2067   -7.3287   17.7772 C   0  0  0  0  0  0  0  0  0  0  0  0
   -0.0206  -10.5585   16.6210 C   0  0  0  0  0  0  0  0  0  0  0  0
    0.3696  -12.7626   16.2169 O   0  0  0  0  0  0  0  0  0  0  0  0
   -0.6895   -9.5676   17.3297 C   0  0  0  0  0  0  0  0  0  0  0  0
    0.8388   -5.8417   27.5264 C   0  0  0  0  0  0  0  0  0  0  0  0
   -2.0709   -7.6637   18.7817 C   0  0  0  0  0  0  0  0  0  0  0  0
   -0.5279   -8.2168   17.0717 C   0  0  0  0  0  0  0  0  0  0  0  0
    6.9694   -4.0191   27.8190 C   0  0  0  0  0  0  0  0  0  0  0  0
    5.1733   -4.5469   29.8123 C   0  0  0  0  0  0  0  0  0  0  0  0
   -1.7508  -11.3016   18.6072 C   0  0  0  0  0  0  0  0  0  0  0  0
    1.7497   -5.6771   26.4971 C   0  0  0  0  0  0  0  0  0  0  0  0
   -1.5799   -9.9322   18.3468 C   0  0  0  0  0  0  0  0  0  0  0  0
   -1.0871  -12.2214   17.8851 C   0  0  0  0  0  0  0  0  0  0  0  0
   -2.2706   -8.9669   19.0691 C   0  0  0  0  0  0  0  0  0  0  0  0
    3.0279   -5.3073   26.8197 C   0  0  0  0  0  0  0  0  0  0  0  0
    7.3282   -3.8948   29.1186 C   0  0  0  0  0  0  0  0  0  0  0  0
  1  3  4  0
  1  7  4  0
  2  3  1  0
  2  6  4  0
  2 16  4  0
  3 22  4  0
  4  9  4  0
  4 10  1  0
  4 20  4  0
  5 16  4  0
  5 23  4  0
  6 15  4  0
  7 12  4  0
  8 13  4  0
  8 14  4  0
  9 11  4  0
 11 14  4  0
 11 19  4  0
 12 18  4  0
 13 21  4  0
 15 23  4  0
 17 19  4  0
 17 20  4  0
 18 22  4  0
 19 21  4  0
M  END
$$$$

 Created by Python create_sdf_string function

 23 25  0  0  0  0  0  0  0  0999 V2000
    2.4610   -5.3070   29.1240 C   0  0  0  0  0  0  0  0  0  0  0  0
    4.7710   -4.6952   28.4803 C   0  0  0  0  0  0  0  0  0  0  0  0
    3.4047   -5.1087   28.1314 C   0  0  0  0  0  0  0  0  0  0  0  0
   -0.2234  -11.8615   16.8874 C   0  0  0  0  0  0  0  0  0  0  0  0
    6.4491   -4.1532   30.1213 C   0  0  0  0  0  0  0  0  0  0  0  0
    5.7060   -4.4340   27.4975 C   0  0  0  0  0  0  0  0  0  0  0  0
    1.1818   -5.6612   28.8399 C   0  0  0  0  0  0  0  0  0  0  0  0
   -1.2067   -7.3287   17.7772 C   0  0  0  0  0  0  0  0  0  0  0  0
   -0.0206  -10.5585   16.6210 C   0  0  0  0  0  0  0  0  0  0  0  0
    0.3696  -12.7626   16.2169 O   0  0  0  0  0  0  0  0  0  0  0  0
   -0.6895   -9.5676   17.3297 C   0  0  0  0  0  0  0  0  0  0  0  0
    0.8388   -5.8417   27.5264 C   0  0  0  0  0  0  0  0  0  0  0  0
   -2.0709   -7.6637   18.7817 C   0  0  0  0  0  0  0  0  0  0  0  0
   -0.5279   -8.2168   17.0717 C   0  0  0  0  0  0  0  0  0  0  0  0
    6.9694   -4.0191   27.8190 C   0  0  0  0  0  0  0  0  0  0  0  0
    5.1733   -4.5469   29.8123 C   0  0  0  0  0  0  0  0  0  0  0  0
   -1.7508  -11.3016   18.6072 C   0  0  0  0  0  0  0  0  0  0  0  0
    1.7497   -5.6771   26.4971 C   0  0  0  0  0  0  0  0  0  0  0  0
   -1.5799   -9.9322   18.3468 C   0  0  0  0  0  0  0  0  0  0  0  0
   -1.0871  -12.2214   17.8851 C   0  0  0  0  0  0  0  0  0  0  0  0
   -2.2706   -8.9669   19.0691 C   0  0  0  0  0  0  0  0  0  0  0  0
    3.0279   -5.3073   26.8197 C   0  0  0  0  0  0  0  0  0  0  0  0
    7.3282   -3.8948   29.1186 C   0  0  0  0  0  0  0  0  0  0  0  0
  1  3  4  0
  1  7  4  0
  2  3  1  0
  2  6  4  0
  2 16  4  0
  3 22  4  0
  4  9  4  0
  4 10  1  0
  4 20  4  0
  5 16  4  0
  5 23  4  0
  6 15  4  0
  7 12  4  0
  8 13  4  0
  8 14  4  0
  9 11  4  0
 11 14  4  0
 11 19  4  0
 12 18  4  0
 13 21  4  0
 15 23  4  0
 17 19  4  0
 17 20  4  0
 18 22  4  0
 19 21  4  0
M  END
$$$$

 Created by Python create_sdf_string function

 23 25  0  0  0  0  0  0  0  0999 V2000
    2.4610   -5.3070   29.1240 C   0  0  0  0  0  0  0  0  0  0  0  0
    4.7710   -4.6952   28.4803 C   0  0  0  0  0  0  0  0  0  0  0  0
    3.4047   -5.1087   28.1314 C   0  0  0  0  0  0  0  0  0  0  0  0
   -0.2234  -11.8615   16.8874 C   0  0  0  0  0  0  0  0  0  0  0  0
    6.4491   -4.1532   30.1213 C   0  0  0  0  0  0  0  0  0  0  0  0
    5.7060   -4.4340   27.4975 C   0  0  0  0  0  0  0  0  0  0  0  0
    1.1818   -5.6612   28.8399 C   0  0  0  0  0  0  0  0  0  0  0  0
   -1.2067   -7.3287   17.7772 C   0  0  0  0  0  0  0  0  0  0  0  0
   -0.0206  -10.5585   16.6210 C   0  0  0  0  0  0  0  0  0  0  0  0
    0.3696  -12.7626   16.2169 O   0  0  0  0  0  0  0  0  0  0  0  0
   -0.6895   -9.5676   17.3297 C   0  0  0  0  0  0  0  0  0  0  0  0
    0.8388   -5.8417   27.5264 C   0  0  0  0  0  0  0  0  0  0  0  0
   -2.0709   -7.6637   18.7817 C   0  0  0  0  0  0  0  0  0  0  0  0
   -0.5279   -8.2168   17.0717 C   0  0  0  0  0  0  0  0  0  0  0  0
    6.9694   -4.0191   27.8190 C   0  0  0  0  0  0  0  0  0  0  0  0
    5.1733   -4.5469   29.8123 C   0  0  0  0  0  0  0  0  0  0  0  0
   -1.7508  -11.3016   18.6072 C   0  0  0  0  0  0  0  0  0  0  0  0
    1.7497   -5.6771   26.4971 C   0  0  0  0  0  0  0  0  0  0  0  0
   -1.5799   -9.9322   18.3468 C   0  0  0  0  0  0  0  0  0  0  0  0
   -1.0871  -12.2214   17.8851 C   0  0  0  0  0  0  0  0  0  0  0  0
   -2.2706   -8.9669   19.0691 C   0  0  0  0  0  0  0  0  0  0  0  0
    3.0279   -5.3073   26.8197 C   0  0  0  0  0  0  0  0  0  0  0  0
    7.3282   -3.8948   29.1186 C   0  0  0  0  0  0  0  0  0  0  0  0
  1  3  4  0
  1  7  4  0
  2  3  1  0
  2  6  4  0
  2 16  4  0
  3 22  4  0
  4  9  4  0
  4 10  1  0
  4 20  4  0
  5 16  4  0
  5 23  4  0
  6 15  4  0
  7 12  4  0
  8 13  4  0
  8 14  4  0
  9 11  4  0
 11 14  4  0
 11 19  4  0
 12 18  4  0
 13 21  4  0
 15 23  4  0
 17 19  4  0
 17 20  4  0
 18 22  4  0
 19 21  4  0
M  END
$$$$

 Created by Python create_sdf_string function

 23 25  0  0  0  0  0  0  0  0999 V2000
    2.4610   -5.3070   29.1240 C   0  0  0  0  0  0  0  0  0  0  0  0
    4.7710   -4.6952   28.4803 C   0  0  0  0  0  0  0  0  0  0  0  0
    3.4047   -5.1087   28.1314 C   0  0  0  0  0  0  0  0  0  0  0  0
   -0.2234  -11.8615   16.8874 C   0  0  0  0  0  0  0  0  0  0  0  0
    6.4491   -4.1532   30.1213 C   0  0  0  0  0  0  0  0  0  0  0  0
    5.7060   -4.4340   27.4975 C   0  0  0  0  0  0  0  0  0  0  0  0
    1.1818   -5.6612   28.8399 C   0  0  0  0  0  0  0  0  0  0  0  0
   -1.2067   -7.3287   17.7772 C   0  0  0  0  0  0  0  0  0  0  0  0
   -0.0206  -10.5585   16.6210 C   0  0  0  0  0  0  0  0  0  0  0  0
    0.3696  -12.7626   16.2169 O   0  0  0  0  0  0  0  0  0  0  0  0
   -0.6895   -9.5676   17.3297 C   0  0  0  0  0  0  0  0  0  0  0  0
    0.8388   -5.8417   27.5264 C   0  0  0  0  0  0  0  0  0  0  0  0
   -2.0709   -7.6637   18.7817 C   0  0  0  0  0  0  0  0  0  0  0  0
   -0.5279   -8.2168   17.0717 C   0  0  0  0  0  0  0  0  0  0  0  0
    6.9694   -4.0191   27.8190 C   0  0  0  0  0  0  0  0  0  0  0  0
    5.1733   -4.5469   29.8123 C   0  0  0  0  0  0  0  0  0  0  0  0
   -1.7508  -11.3016   18.6072 C   0  0  0  0  0  0  0  0  0  0  0  0
    1.7497   -5.6771   26.4971 C   0  0  0  0  0  0  0  0  0  0  0  0
   -1.5799   -9.9322   18.3468 C   0  0  0  0  0  0  0  0  0  0  0  0
   -1.0871  -12.2214   17.8851 C   0  0  0  0  0  0  0  0  0  0  0  0
   -2.2706   -8.9669   19.0691 C   0  0  0  0  0  0  0  0  0  0  0  0
    3.0279   -5.3073   26.8197 C   0  0  0  0  0  0  0  0  0  0  0  0
    7.3282   -3.8948   29.1186 C   0  0  0  0  0  0  0  0  0  0  0  0
  1  3  4  0
  1  7  4  0
  2  3  1  0
  2  6  4  0
  2 16  4  0
  3 22  4  0
  4  9  4  0
  4 10  1  0
  4 20  4  0
  5 16  4  0
  5 23  4  0
  6 15  4  0
  7 12  4  0
  8 13  4  0
  8 14  4  0
  9 11  4  0
 11 14  4  0
 11 19  4  0
 12 18  4  0
 13 21  4  0
 15 23  4  0
 17 19  4  0
 17 20  4  0
 18 22  4  0
 19 21  4  0
M  END
$$$$

 Created by Python create_sdf_string function

 23 25  0  0  0  0  0  0  0  0999 V2000
    2.4610   -5.3070   29.1240 C   0  0  0  0  0  0  0  0  0  0  0  0
    4.7710   -4.6952   28.4803 C   0  0  0  0  0  0  0  0  0  0  0  0
    3.4047   -5.1087   28.1314 C   0  0  0  0  0  0  0  0  0  0  0  0
   -0.2234  -11.8615   16.8874 C   0  0  0  0  0  0  0  0  0  0  0  0
    6.4491   -4.1532   30.1213 C   0  0  0  0  0  0  0  0  0  0  0  0
    5.7060   -4.4340   27.4975 C   0  0  0  0  0  0  0  0  0  0  0  0
    1.1818   -5.6612   28.8399 C   0  0  0  0  0  0  0  0  0  0  0  0
   -1.2067   -7.3287   17.7772 C   0  0  0  0  0  0  0  0  0  0  0  0
   -0.0206  -10.5585   16.6210 C   0  0  0  0  0  0  0  0  0  0  0  0
    0.3696  -12.7626   16.2169 O   0  0  0  0  0  0  0  0  0  0  0  0
   -0.6895   -9.5676   17.3297 C   0  0  0  0  0  0  0  0  0  0  0  0
    0.8388   -5.8417   27.5264 C   0  0  0  0  0  0  0  0  0  0  0  0
   -2.0709   -7.6637   18.7817 C   0  0  0  0  0  0  0  0  0  0  0  0
   -0.5279   -8.2168   17.0717 C   0  0  0  0  0  0  0  0  0  0  0  0
    6.9694   -4.0191   27.8190 C   0  0  0  0  0  0  0  0  0  0  0  0
    5.1733   -4.5469   29.8123 C   0  0  0  0  0  0  0  0  0  0  0  0
   -1.7508  -11.3016   18.6072 C   0  0  0  0  0  0  0  0  0  0  0  0
    1.7497   -5.6771   26.4971 C   0  0  0  0  0  0  0  0  0  0  0  0
   -1.5799   -9.9322   18.3468 C   0  0  0  0  0  0  0  0  0  0  0  0
   -1.0871  -12.2214   17.8851 C   0  0  0  0  0  0  0  0  0  0  0  0
   -2.2706   -8.9669   19.0691 C   0  0  0  0  0  0  0  0  0  0  0  0
    3.0279   -5.3073   26.8197 C   0  0  0  0  0  0  0  0  0  0  0  0
    7.3282   -3.8948   29.1186 C   0  0  0  0  0  0  0  0  0  0  0  0
  1  3  4  0
  1  7  4  0
  2  3  1  0
  2  6  4  0
  2 16  4  0
  3 22  4  0
  4  9  4  0
  4 10  1  0
  4 20  4  0
  5 16  4  0
  5 23  4  0
  6 15  4  0
  7 12  4  0
  8 13  4  0
  8 14  4  0
  9 11  4  0
 11 14  4  0
 11 19  4  0
 12 18  4  0
 13 21  4  0
 15 23  4  0
 17 19  4  0
 17 20  4  0
 18 22  4  0
 19 21  4  0
M  END
$$$$

 Created by Python create_sdf_string function

 23 25  0  0  0  0  0  0  0  0999 V2000
    2.4610   -5.3070   29.1240 C   0  0  0  0  0  0  0  0  0  0  0  0
    4.7710   -4.6952   28.4803 C   0  0  0  0  0  0  0  0  0  0  0  0
    3.4047   -5.1087   28.1314 C   0  0  0  0  0  0  0  0  0  0  0  0
   -0.2234  -11.8615   16.8874 C   0  0  0  0  0  0  0  0  0  0  0  0
    6.4491   -4.1532   30.1213 C   0  0  0  0  0  0  0  0  0  0  0  0
    5.7060   -4.4340   27.4975 C   0  0  0  0  0  0  0  0  0  0  0  0
    1.1818   -5.6612   28.8399 C   0  0  0  0  0  0  0  0  0  0  0  0
   -1.2067   -7.3287   17.7772 C   0  0  0  0  0  0  0  0  0  0  0  0
   -0.0206  -10.5585   16.6210 C   0  0  0  0  0  0  0  0  0  0  0  0
    0.3696  -12.7626   16.2169 O   0  0  0  0  0  0  0  0  0  0  0  0
   -0.6895   -9.5676   17.3297 C   0  0  0  0  0  0  0  0  0  0  0  0
    0.8388   -5.8417   27.5264 C   0  0  0  0  0  0  0  0  0  0  0  0
   -2.0709   -7.6637   18.7817 C   0  0  0  0  0  0  0  0  0  0  0  0
   -0.5279   -8.2168   17.0717 C   0  0  0  0  0  0  0  0  0  0  0  0
    6.9694   -4.0191   27.8190 C   0  0  0  0  0  0  0  0  0  0  0  0
    5.1733   -4.5469   29.8123 C   0  0  0  0  0  0  0  0  0  0  0  0
   -1.7508  -11.3016   18.6072 C   0  0  0  0  0  0  0  0  0  0  0  0
    1.7497   -5.6771   26.4971 C   0  0  0  0  0  0  0  0  0  0  0  0
   -1.5799   -9.9322   18.3468 C   0  0  0  0  0  0  0  0  0  0  0  0
   -1.0871  -12.2214   17.8851 C   0  0  0  0  0  0  0  0  0  0  0  0
   -2.2706   -8.9669   19.0691 C   0  0  0  0  0  0  0  0  0  0  0  0
    3.0279   -5.3073   26.8197 C   0  0  0  0  0  0  0  0  0  0  0  0
    7.3282   -3.8948   29.1186 C   0  0  0  0  0  0  0  0  0  0  0  0
  1  3  4  0
  1  7  4  0
  2  3  1  0
  2  6  4  0
  2 16  4  0
  3 22  4  0
  4  9  4  0
  4 10  1  0
  4 20  4  0
  5 16  4  0
  5 23  4  0
  6 15  4  0
  7 12  4  0
  8 13  4  0
  8 14  4  0
  9 11  4  0
 11 14  4  0
 11 19  4  0
 12 18  4  0
 13 21  4  0
 15 23  4  0
 17 19  4  0
 17 20  4  0
 18 22  4  0
 19 21  4  0
M  END
$$$$

 Created by Python create_sdf_string function

 23 25  0  0  0  0  0  0  0  0999 V2000
    2.4610   -5.3070   29.1240 C   0  0  0  0  0  0  0  0  0  0  0  0
    4.7710   -4.6952   28.4803 C   0  0  0  0  0  0  0  0  0  0  0  0
    3.4047   -5.1087   28.1314 C   0  0  0  0  0  0  0  0  0  0  0  0
   -0.2234  -11.8615   16.8874 C   0  0  0  0  0  0  0  0  0  0  0  0
    6.4491   -4.1532   30.1213 C   0  0  0  0  0  0  0  0  0  0  0  0
    5.7060   -4.4340   27.4975 C   0  0  0  0  0  0  0  0  0  0  0  0
    1.1818   -5.6612   28.8399 C   0  0  0  0  0  0  0  0  0  0  0  0
   -1.2067   -7.3287   17.7772 C   0  0  0  0  0  0  0  0  0  0  0  0
   -0.0206  -10.5585   16.6210 C   0  0  0  0  0  0  0  0  0  0  0  0
    0.3696  -12.7626   16.2169 O   0  0  0  0  0  0  0  0  0  0  0  0
   -0.6895   -9.5676   17.3297 C   0  0  0  0  0  0  0  0  0  0  0  0
    0.8388   -5.8417   27.5264 C   0  0  0  0  0  0  0  0  0  0  0  0
   -2.0709   -7.6637   18.7817 C   0  0  0  0  0  0  0  0  0  0  0  0
   -0.5279   -8.2168   17.0717 C   0  0  0  0  0  0  0  0  0  0  0  0
    6.9694   -4.0191   27.8190 C   0  0  0  0  0  0  0  0  0  0  0  0
    5.1733   -4.5469   29.8123 C   0  0  0  0  0  0  0  0  0  0  0  0
   -1.7508  -11.3016   18.6072 C   0  0  0  0  0  0  0  0  0  0  0  0
    1.7497   -5.6771   26.4971 C   0  0  0  0  0  0  0  0  0  0  0  0
   -1.5799   -9.9322   18.3468 C   0  0  0  0  0  0  0  0  0  0  0  0
   -1.0871  -12.2214   17.8851 C   0  0  0  0  0  0  0  0  0  0  0  0
   -2.2706   -8.9669   19.0691 C   0  0  0  0  0  0  0  0  0  0  0  0
    3.0279   -5.3073   26.8197 C   0  0  0  0  0  0  0  0  0  0  0  0
    7.3282   -3.8948   29.1186 C   0  0  0  0  0  0  0  0  0  0  0  0
  1  3  4  0
  1  7  4  0
  2  3  1  0
  2  6  4  0
  2 16  4  0
  3 22  4  0
  4  9  4  0
  4 10  1  0
  4 20  4  0
  5 16  4  0
  5 23  4  0
  6 15  4  0
  7 12  4  0
  8 13  4  0
  8 14  4  0
  9 11  4  0
 11 14  4  0
 11 19  4  0
 12 18  4  0
 13 21  4  0
 15 23  4  0
 17 19  4  0
 17 20  4  0
 18 22  4  0
 19 21  4  0
M  END
$$$$

 Created by Python create_sdf_string function

 23 25  0  0  0  0  0  0  0  0999 V2000
    2.4610   -5.3070   29.1240 C   0  0  0  0  0  0  0  0  0  0  0  0
    4.7710   -4.6952   28.4803 C   0  0  0  0  0  0  0  0  0  0  0  0
    3.4047   -5.1087   28.1314 C   0  0  0  0  0  0  0  0  0  0  0  0
   -0.2234  -11.8615   16.8874 C   0  0  0  0  0  0  0  0  0  0  0  0
    6.4491   -4.1532   30.1213 C   0  0  0  0  0  0  0  0  0  0  0  0
    5.7060   -4.4340   27.4975 C   0  0  0  0  0  0  0  0  0  0  0  0
    1.1818   -5.6612   28.8399 C   0  0  0  0  0  0  0  0  0  0  0  0
   -1.2067   -7.3287   17.7772 C   0  0  0  0  0  0  0  0  0  0  0  0
   -0.0206  -10.5585   16.6210 C   0  0  0  0  0  0  0  0  0  0  0  0
    0.3696  -12.7626   16.2169 O   0  0  0  0  0  0  0  0  0  0  0  0
   -0.6895   -9.5676   17.3297 C   0  0  0  0  0  0  0  0  0  0  0  0
    0.8388   -5.8417   27.5264 C   0  0  0  0  0  0  0  0  0  0  0  0
   -2.0709   -7.6637   18.7817 C   0  0  0  0  0  0  0  0  0  0  0  0
   -0.5279   -8.2168   17.0717 C   0  0  0  0  0  0  0  0  0  0  0  0
    6.9694   -4.0191   27.8190 C   0  0  0  0  0  0  0  0  0  0  0  0
    5.1733   -4.5469   29.8123 C   0  0  0  0  0  0  0  0  0  0  0  0
   -1.7508  -11.3016   18.6072 C   0  0  0  0  0  0  0  0  0  0  0  0
    1.7497   -5.6771   26.4971 C   0  0  0  0  0  0  0  0  0  0  0  0
   -1.5799   -9.9322   18.3468 C   0  0  0  0  0  0  0  0  0  0  0  0
   -1.0871  -12.2214   17.8851 C   0  0  0  0  0  0  0  0  0  0  0  0
   -2.2706   -8.9669   19.0691 C   0  0  0  0  0  0  0  0  0  0  0  0
    3.0279   -5.3073   26.8197 C   0  0  0  0  0  0  0  0  0  0  0  0
    7.3282   -3.8948   29.1186 C   0  0  0  0  0  0  0  0  0  0  0  0
  1  3  4  0
  1  7  4  0
  2  3  1  0
  2  6  4  0
  2 16  4  0
  3 22  4  0
  4  9  4  0
  4 10  1  0
  4 20  4  0
  5 16  4  0
  5 23  4  0
  6 15  4  0
  7 12  4  0
  8 13  4  0
  8 14  4  0
  9 11  4  0
 11 14  4  0
 11 19  4  0
 12 18  4  0
 13 21  4  0
 15 23  4  0
 17 19  4  0
 17 20  4  0
 18 22  4  0
 19 21  4  0
M  END
$$$$

 Created by Python create_sdf_string function

 23 25  0  0  0  0  0  0  0  0999 V2000
    2.4610   -5.3070   29.1240 C   0  0  0  0  0  0  0  0  0  0  0  0
    4.7710   -4.6952   28.4803 C   0  0  0  0  0  0  0  0  0  0  0  0
    3.4047   -5.1087   28.1314 C   0  0  0  0  0  0  0  0  0  0  0  0
   -0.2234  -11.8615   16.8874 C   0  0  0  0  0  0  0  0  0  0  0  0
    6.4491   -4.1532   30.1213 C   0  0  0  0  0  0  0  0  0  0  0  0
    5.7060   -4.4340   27.4975 C   0  0  0  0  0  0  0  0  0  0  0  0
    1.1818   -5.6612   28.8399 C   0  0  0  0  0  0  0  0  0  0  0  0
   -1.2067   -7.3287   17.7772 C   0  0  0  0  0  0  0  0  0  0  0  0
   -0.0206  -10.5585   16.6210 C   0  0  0  0  0  0  0  0  0  0  0  0
    0.3696  -12.7626   16.2169 O   0  0  0  0  0  0  0  0  0  0  0  0
   -0.6895   -9.5676   17.3297 C   0  0  0  0  0  0  0  0  0  0  0  0
    0.8388   -5.8417   27.5264 C   0  0  0  0  0  0  0  0  0  0  0  0
   -2.0709   -7.6637   18.7817 C   0  0  0  0  0  0  0  0  0  0  0  0
   -0.5279   -8.2168   17.0717 C   0  0  0  0  0  0  0  0  0  0  0  0
    6.9694   -4.0191   27.8190 C   0  0  0  0  0  0  0  0  0  0  0  0
    5.1733   -4.5469   29.8123 C   0  0  0  0  0  0  0  0  0  0  0  0
   -1.7508  -11.3016   18.6072 C   0  0  0  0  0  0  0  0  0  0  0  0
    1.7497   -5.6771   26.4971 C   0  0  0  0  0  0  0  0  0  0  0  0
   -1.5799   -9.9322   18.3468 C   0  0  0  0  0  0  0  0  0  0  0  0
   -1.0871  -12.2214   17.8851 C   0  0  0  0  0  0  0  0  0  0  0  0
   -2.2706   -8.9669   19.0691 C   0  0  0  0  0  0  0  0  0  0  0  0
    3.0279   -5.3073   26.8197 C   0  0  0  0  0  0  0  0  0  0  0  0
    7.3282   -3.8948   29.1186 C   0  0  0  0  0  0  0  0  0  0  0  0
  1  3  4  0
  1  7  4  0
  2  3  1  0
  2  6  4  0
  2 16  4  0
  3 22  4  0
  4  9  4  0
  4 10  1  0
  4 20  4  0
  5 16  4  0
  5 23  4  0
  6 15  4  0
  7 12  4  0
  8 13  4  0
  8 14  4  0
  9 11  4  0
 11 14  4  0
 11 19  4  0
 12 18  4  0
 13 21  4  0
 15 23  4  0
 17 19  4  0
 17 20  4  0
 18 22  4  0
 19 21  4  0
M  END
$$$$

 Created by Python create_sdf_string function

 23 25  0  0  0  0  0  0  0  0999 V2000
    2.4610   -5.3070   29.1240 C   0  0  0  0  0  0  0  0  0  0  0  0
    4.7710   -4.6952   28.4803 C   0  0  0  0  0  0  0  0  0  0  0  0
    3.4047   -5.1087   28.1314 C   0  0  0  0  0  0  0  0  0  0  0  0
   -0.2234  -11.8615   16.8874 C   0  0  0  0  0  0  0  0  0  0  0  0
    6.4491   -4.1532   30.1213 C   0  0  0  0  0  0  0  0  0  0  0  0
    5.7060   -4.4340   27.4975 C   0  0  0  0  0  0  0  0  0  0  0  0
    1.1818   -5.6612   28.8399 C   0  0  0  0  0  0  0  0  0  0  0  0
   -1.2067   -7.3287   17.7772 C   0  0  0  0  0  0  0  0  0  0  0  0
   -0.0206  -10.5585   16.6210 C   0  0  0  0  0  0  0  0  0  0  0  0
    0.3696  -12.7626   16.2169 O   0  0  0  0  0  0  0  0  0  0  0  0
   -0.6895   -9.5676   17.3297 C   0  0  0  0  0  0  0  0  0  0  0  0
    0.8388   -5.8417   27.5264 C   0  0  0  0  0  0  0  0  0  0  0  0
   -2.0709   -7.6637   18.7817 C   0  0  0  0  0  0  0  0  0  0  0  0
   -0.5279   -8.2168   17.0717 C   0  0  0  0  0  0  0  0  0  0  0  0
    6.9694   -4.0191   27.8190 C   0  0  0  0  0  0  0  0  0  0  0  0
    5.1733   -4.5469   29.8123 C   0  0  0  0  0  0  0  0  0  0  0  0
   -1.7508  -11.3016   18.6072 C   0  0  0  0  0  0  0  0  0  0  0  0
    1.7497   -5.6771   26.4971 C   0  0  0  0  0  0  0  0  0  0  0  0
   -1.5799   -9.9322   18.3468 C   0  0  0  0  0  0  0  0  0  0  0  0
   -1.0871  -12.2214   17.8851 C   0  0  0  0  0  0  0  0  0  0  0  0
   -2.2706   -8.9669   19.0691 C   0  0  0  0  0  0  0  0  0  0  0  0
    3.0279   -5.3073   26.8197 C   0  0  0  0  0  0  0  0  0  0  0  0
    7.3282   -3.8948   29.1186 C   0  0  0  0  0  0  0  0  0  0  0  0
  1  3  4  0
  1  7  4  0
  2  3  1  0
  2  6  4  0
  2 16  4  0
  3 22  4  0
  4  9  4  0
  4 10  1  0
  4 20  4  0
  5 16  4  0
  5 23  4  0
  6 15  4  0
  7 12  4  0
  8 13  4  0
  8 14  4  0
  9 11  4  0
 11 14  4  0
 11 19  4  0
 12 18  4  0
 13 21  4  0
 15 23  4  0
 17 19  4  0
 17 20  4  0
 18 22  4  0
 19 21  4  0
M  END
$$$$

 Created by Python create_sdf_string function

 23 25  0  0  0  0  0  0  0  0999 V2000
    2.4610   -5.3070   29.1240 C   0  0  0  0  0  0  0  0  0  0  0  0
    4.7710   -4.6952   28.4803 C   0  0  0  0  0  0  0  0  0  0  0  0
    3.4047   -5.1087   28.1314 C   0  0  0  0  0  0  0  0  0  0  0  0
   -0.2234  -11.8615   16.8874 C   0  0  0  0  0  0  0  0  0  0  0  0
    6.4491   -4.1532   30.1213 C   0  0  0  0  0  0  0  0  0  0  0  0
    5.7060   -4.4340   27.4975 C   0  0  0  0  0  0  0  0  0  0  0  0
    1.1818   -5.6612   28.8399 C   0  0  0  0  0  0  0  0  0  0  0  0
   -1.2067   -7.3287   17.7772 C   0  0  0  0  0  0  0  0  0  0  0  0
   -0.0206  -10.5585   16.6210 C   0  0  0  0  0  0  0  0  0  0  0  0
    0.3696  -12.7626   16.2169 O   0  0  0  0  0  0  0  0  0  0  0  0
   -0.6895   -9.5676   17.3297 C   0  0  0  0  0  0  0  0  0  0  0  0
    0.8388   -5.8417   27.5264 C   0  0  0  0  0  0  0  0  0  0  0  0
   -2.0709   -7.6637   18.7817 C   0  0  0  0  0  0  0  0  0  0  0  0
   -0.5279   -8.2168   17.0717 C   0  0  0  0  0  0  0  0  0  0  0  0
    6.9694   -4.0191   27.8190 C   0  0  0  0  0  0  0  0  0  0  0  0
    5.1733   -4.5469   29.8123 C   0  0  0  0  0  0  0  0  0  0  0  0
   -1.7508  -11.3016   18.6072 C   0  0  0  0  0  0  0  0  0  0  0  0
    1.7497   -5.6771   26.4971 C   0  0  0  0  0  0  0  0  0  0  0  0
   -1.5799   -9.9322   18.3468 C   0  0  0  0  0  0  0  0  0  0  0  0
   -1.0871  -12.2214   17.8851 C   0  0  0  0  0  0  0  0  0  0  0  0
   -2.2706   -8.9669   19.0691 C   0  0  0  0  0  0  0  0  0  0  0  0
    3.0279   -5.3073   26.8197 C   0  0  0  0  0  0  0  0  0  0  0  0
    7.3282   -3.8948   29.1186 C   0  0  0  0  0  0  0  0  0  0  0  0
  1  3  4  0
  1  7  4  0
  2  3  1  0
  2  6  4  0
  2 16  4  0
  3 22  4  0
  4  9  4  0
  4 10  1  0
  4 20  4  0
  5 16  4  0
  5 23  4  0
  6 15  4  0
  7 12  4  0
  8 13  4  0
  8 14  4  0
  9 11  4  0
 11 14  4  0
 11 19  4  0
 12 18  4  0
 13 21  4  0
 15 23  4  0
 17 19  4  0
 17 20  4  0
 18 22  4  0
 19 21  4  0
M  END
$$$$

 Created by Python create_sdf_string function

 23 25  0  0  0  0  0  0  0  0999 V2000
    2.4610   -5.3070   29.1240 C   0  0  0  0  0  0  0  0  0  0  0  0
    4.7710   -4.6952   28.4803 C   0  0  0  0  0  0  0  0  0  0  0  0
    3.4047   -5.1087   28.1314 C   0  0  0  0  0  0  0  0  0  0  0  0
   -0.2234  -11.8615   16.8874 C   0  0  0  0  0  0  0  0  0  0  0  0
    6.4491   -4.1532   30.1213 C   0  0  0  0  0  0  0  0  0  0  0  0
    5.7060   -4.4340   27.4975 C   0  0  0  0  0  0  0  0  0  0  0  0
    1.1818   -5.6612   28.8399 C   0  0  0  0  0  0  0  0  0  0  0  0
   -1.2067   -7.3287   17.7772 C   0  0  0  0  0  0  0  0  0  0  0  0
   -0.0206  -10.5585   16.6210 C   0  0  0  0  0  0  0  0  0  0  0  0
    0.3696  -12.7626   16.2169 O   0  0  0  0  0  0  0  0  0  0  0  0
   -0.6895   -9.5676   17.3297 C   0  0  0  0  0  0  0  0  0  0  0  0
    0.8388   -5.8417   27.5264 C   0  0  0  0  0  0  0  0  0  0  0  0
   -2.0709   -7.6637   18.7817 C   0  0  0  0  0  0  0  0  0  0  0  0
   -0.5279   -8.2168   17.0717 C   0  0  0  0  0  0  0  0  0  0  0  0
    6.9694   -4.0191   27.8190 C   0  0  0  0  0  0  0  0  0  0  0  0
    5.1733   -4.5469   29.8123 C   0  0  0  0  0  0  0  0  0  0  0  0
   -1.7508  -11.3016   18.6072 C   0  0  0  0  0  0  0  0  0  0  0  0
    1.7497   -5.6771   26.4971 C   0  0  0  0  0  0  0  0  0  0  0  0
   -1.5799   -9.9322   18.3468 C   0  0  0  0  0  0  0  0  0  0  0  0
   -1.0871  -12.2214   17.8851 C   0  0  0  0  0  0  0  0  0  0  0  0
   -2.2706   -8.9669   19.0691 C   0  0  0  0  0  0  0  0  0  0  0  0
    3.0279   -5.3073   26.8197 C   0  0  0  0  0  0  0  0  0  0  0  0
    7.3282   -3.8948   29.1186 C   0  0  0  0  0  0  0  0  0  0  0  0
  1  3  4  0
  1  7  4  0
  2  3  1  0
  2  6  4  0
  2 16  4  0
  3 22  4  0
  4  9  4  0
  4 10  1  0
  4 20  4  0
  5 16  4  0
  5 23  4  0
  6 15  4  0
  7 12  4  0
  8 13  4  0
  8 14  4  0
  9 11  4  0
 11 14  4  0
 11 19  4  0
 12 18  4  0
 13 21  4  0
 15 23  4  0
 17 19  4  0
 17 20  4  0
 18 22  4  0
 19 21  4  0
M  END
$$$$

 Created by Python create_sdf_string function

 23 25  0  0  0  0  0  0  0  0999 V2000
    2.4610   -5.3070   29.1240 C   0  0  0  0  0  0  0  0  0  0  0  0
    4.7710   -4.6952   28.4803 C   0  0  0  0  0  0  0  0  0  0  0  0
    3.4047   -5.1087   28.1314 C   0  0  0  0  0  0  0  0  0  0  0  0
   -0.2234  -11.8615   16.8874 C   0  0  0  0  0  0  0  0  0  0  0  0
    6.4491   -4.1532   30.1213 C   0  0  0  0  0  0  0  0  0  0  0  0
    5.7060   -4.4340   27.4975 C   0  0  0  0  0  0  0  0  0  0  0  0
    1.1818   -5.6612   28.8399 C   0  0  0  0  0  0  0  0  0  0  0  0
   -1.2067   -7.3287   17.7772 C   0  0  0  0  0  0  0  0  0  0  0  0
   -0.0206  -10.5585   16.6210 C   0  0  0  0  0  0  0  0  0  0  0  0
    0.3696  -12.7626   16.2169 O   0  0  0  0  0  0  0  0  0  0  0  0
   -0.6895   -9.5676   17.3297 C   0  0  0  0  0  0  0  0  0  0  0  0
    0.8388   -5.8417   27.5264 C   0  0  0  0  0  0  0  0  0  0  0  0
   -2.0709   -7.6637   18.7817 C   0  0  0  0  0  0  0  0  0  0  0  0
   -0.5279   -8.2168   17.0717 C   0  0  0  0  0  0  0  0  0  0  0  0
    6.9694   -4.0191   27.8190 C   0  0  0  0  0  0  0  0  0  0  0  0
    5.1733   -4.5469   29.8123 C   0  0  0  0  0  0  0  0  0  0  0  0
   -1.7508  -11.3016   18.6072 C   0  0  0  0  0  0  0  0  0  0  0  0
    1.7497   -5.6771   26.4971 C   0  0  0  0  0  0  0  0  0  0  0  0
   -1.5799   -9.9322   18.3468 C   0  0  0  0  0  0  0  0  0  0  0  0
   -1.0871  -12.2214   17.8851 C   0  0  0  0  0  0  0  0  0  0  0  0
   -2.2706   -8.9669   19.0691 C   0  0  0  0  0  0  0  0  0  0  0  0
    3.0279   -5.3073   26.8197 C   0  0  0  0  0  0  0  0  0  0  0  0
    7.3282   -3.8948   29.1186 C   0  0  0  0  0  0  0  0  0  0  0  0
  1  3  4  0
  1  7  4  0
  2  3  1  0
  2  6  4  0
  2 16  4  0
  3 22  4  0
  4  9  4  0
  4 10  1  0
  4 20  4  0
  5 16  4  0
  5 23  4  0
  6 15  4  0
  7 12  4  0
  8 13  4  0
  8 14  4  0
  9 11  4  0
 11 14  4  0
 11 19  4  0
 12 18  4  0
 13 21  4  0
 15 23  4  0
 17 19  4  0
 17 20  4  0
 18 22  4  0
 19 21  4  0
M  END
$$$$

 Created by Python create_sdf_string function

 23 25  0  0  0  0  0  0  0  0999 V2000
    2.4610   -5.3070   29.1240 C   0  0  0  0  0  0  0  0  0  0  0  0
    4.7710   -4.6952   28.4803 C   0  0  0  0  0  0  0  0  0  0  0  0
    3.4047   -5.1087   28.1314 C   0  0  0  0  0  0  0  0  0  0  0  0
   -0.2234  -11.8615   16.8874 C   0  0  0  0  0  0  0  0  0  0  0  0
    6.4491   -4.1532   30.1213 C   0  0  0  0  0  0  0  0  0  0  0  0
    5.7060   -4.4340   27.4975 C   0  0  0  0  0  0  0  0  0  0  0  0
    1.1818   -5.6612   28.8399 C   0  0  0  0  0  0  0  0  0  0  0  0
   -1.2067   -7.3287   17.7772 C   0  0  0  0  0  0  0  0  0  0  0  0
   -0.0206  -10.5585   16.6210 C   0  0  0  0  0  0  0  0  0  0  0  0
    0.3696  -12.7626   16.2169 O   0  0  0  0  0  0  0  0  0  0  0  0
   -0.6895   -9.5676   17.3297 C   0  0  0  0  0  0  0  0  0  0  0  0
    0.8388   -5.8417   27.5264 C   0  0  0  0  0  0  0  0  0  0  0  0
   -2.0709   -7.6637   18.7817 C   0  0  0  0  0  0  0  0  0  0  0  0
   -0.5279   -8.2168   17.0717 C   0  0  0  0  0  0  0  0  0  0  0  0
    6.9694   -4.0191   27.8190 C   0  0  0  0  0  0  0  0  0  0  0  0
    5.1733   -4.5469   29.8123 C   0  0  0  0  0  0  0  0  0  0  0  0
   -1.7508  -11.3016   18.6072 C   0  0  0  0  0  0  0  0  0  0  0  0
    1.7497   -5.6771   26.4971 C   0  0  0  0  0  0  0  0  0  0  0  0
   -1.5799   -9.9322   18.3468 C   0  0  0  0  0  0  0  0  0  0  0  0
   -1.0871  -12.2214   17.8851 C   0  0  0  0  0  0  0  0  0  0  0  0
   -2.2706   -8.9669   19.0691 C   0  0  0  0  0  0  0  0  0  0  0  0
    3.0279   -5.3073   26.8197 C   0  0  0  0  0  0  0  0  0  0  0  0
    7.3282   -3.8948   29.1186 C   0  0  0  0  0  0  0  0  0  0  0  0
  1  3  4  0
  1  7  4  0
  2  3  1  0
  2  6  4  0
  2 16  4  0
  3 22  4  0
  4  9  4  0
  4 10  1  0
  4 20  4  0
  5 16  4  0
  5 23  4  0
  6 15  4  0
  7 12  4  0
  8 13  4  0
  8 14  4  0
  9 11  4  0
 11 14  4  0
 11 19  4  0
 12 18  4  0
 13 21  4  0
 15 23  4  0
 17 19  4  0
 17 20  4  0
 18 22  4  0
 19 21  4  0
M  END
$$$$

 Created by Python create_sdf_string function

 23 25  0  0  0  0  0  0  0  0999 V2000
    2.4610   -5.3070   29.1240 C   0  0  0  0  0  0  0  0  0  0  0  0
    4.7710   -4.6952   28.4803 C   0  0  0  0  0  0  0  0  0  0  0  0
    3.4047   -5.1087   28.1314 C   0  0  0  0  0  0  0  0  0  0  0  0
   -0.2234  -11.8615   16.8874 C   0  0  0  0  0  0  0  0  0  0  0  0
    6.4491   -4.1532   30.1213 C   0  0  0  0  0  0  0  0  0  0  0  0
    5.7060   -4.4340   27.4975 C   0  0  0  0  0  0  0  0  0  0  0  0
    1.1818   -5.6612   28.8399 C   0  0  0  0  0  0  0  0  0  0  0  0
   -1.2067   -7.3287   17.7772 C   0  0  0  0  0  0  0  0  0  0  0  0
   -0.0206  -10.5585   16.6210 C   0  0  0  0  0  0  0  0  0  0  0  0
    0.3696  -12.7626   16.2169 O   0  0  0  0  0  0  0  0  0  0  0  0
   -0.6895   -9.5676   17.3297 C   0  0  0  0  0  0  0  0  0  0  0  0
    0.8388   -5.8417   27.5264 C   0  0  0  0  0  0  0  0  0  0  0  0
   -2.0709   -7.6637   18.7817 C   0  0  0  0  0  0  0  0  0  0  0  0
   -0.5279   -8.2168   17.0717 C   0  0  0  0  0  0  0  0  0  0  0  0
    6.9694   -4.0191   27.8190 C   0  0  0  0  0  0  0  0  0  0  0  0
    5.1733   -4.5469   29.8123 C   0  0  0  0  0  0  0  0  0  0  0  0
   -1.7508  -11.3016   18.6072 C   0  0  0  0  0  0  0  0  0  0  0  0
    1.7497   -5.6771   26.4971 C   0  0  0  0  0  0  0  0  0  0  0  0
   -1.5799   -9.9322   18.3468 C   0  0  0  0  0  0  0  0  0  0  0  0
   -1.0871  -12.2214   17.8851 C   0  0  0  0  0  0  0  0  0  0  0  0
   -2.2706   -8.9669   19.0691 C   0  0  0  0  0  0  0  0  0  0  0  0
    3.0279   -5.3073   26.8197 C   0  0  0  0  0  0  0  0  0  0  0  0
    7.3282   -3.8948   29.1186 C   0  0  0  0  0  0  0  0  0  0  0  0
  1  3  4  0
  1  7  4  0
  2  3  1  0
  2  6  4  0
  2 16  4  0
  3 22  4  0
  4  9  4  0
  4 10  1  0
  4 20  4  0
  5 16  4  0
  5 23  4  0
  6 15  4  0
  7 12  4  0
  8 13  4  0
  8 14  4  0
  9 11  4  0
 11 14  4  0
 11 19  4  0
 12 18  4  0
 13 21  4  0
 15 23  4  0
 17 19  4  0
 17 20  4  0
 18 22  4  0
 19 21  4  0
M  END
$$$$

 Created by Python create_sdf_string function

 23 25  0  0  0  0  0  0  0  0999 V2000
    2.4610   -5.3070   29.1240 C   0  0  0  0  0  0  0  0  0  0  0  0
    4.7710   -4.6952   28.4803 C   0  0  0  0  0  0  0  0  0  0  0  0
    3.4047   -5.1087   28.1314 C   0  0  0  0  0  0  0  0  0  0  0  0
   -0.2234  -11.8615   16.8874 C   0  0  0  0  0  0  0  0  0  0  0  0
    6.4491   -4.1532   30.1213 C   0  0  0  0  0  0  0  0  0  0  0  0
    5.7060   -4.4340   27.4975 C   0  0  0  0  0  0  0  0  0  0  0  0
    1.1818   -5.6612   28.8399 C   0  0  0  0  0  0  0  0  0  0  0  0
   -1.2067   -7.3287   17.7772 C   0  0  0  0  0  0  0  0  0  0  0  0
   -0.0206  -10.5585   16.6210 C   0  0  0  0  0  0  0  0  0  0  0  0
    0.3696  -12.7626   16.2169 O   0  0  0  0  0  0  0  0  0  0  0  0
   -0.6895   -9.5676   17.3297 C   0  0  0  0  0  0  0  0  0  0  0  0
    0.8388   -5.8417   27.5264 C   0  0  0  0  0  0  0  0  0  0  0  0
   -2.0709   -7.6637   18.7817 C   0  0  0  0  0  0  0  0  0  0  0  0
   -0.5279   -8.2168   17.0717 C   0  0  0  0  0  0  0  0  0  0  0  0
    6.9694   -4.0191   27.8190 C   0  0  0  0  0  0  0  0  0  0  0  0
    5.1733   -4.5469   29.8123 C   0  0  0  0  0  0  0  0  0  0  0  0
   -1.7508  -11.3016   18.6072 C   0  0  0  0  0  0  0  0  0  0  0  0
    1.7497   -5.6771   26.4971 C   0  0  0  0  0  0  0  0  0  0  0  0
   -1.5799   -9.9322   18.3468 C   0  0  0  0  0  0  0  0  0  0  0  0
   -1.0871  -12.2214   17.8851 C   0  0  0  0  0  0  0  0  0  0  0  0
   -2.2706   -8.9669   19.0691 C   0  0  0  0  0  0  0  0  0  0  0  0
    3.0279   -5.3073   26.8197 C   0  0  0  0  0  0  0  0  0  0  0  0
    7.3282   -3.8948   29.1186 C   0  0  0  0  0  0  0  0  0  0  0  0
  1  3  4  0
  1  7  4  0
  2  3  1  0
  2  6  4  0
  2 16  4  0
  3 22  4  0
  4  9  4  0
  4 10  1  0
  4 20  4  0
  5 16  4  0
  5 23  4  0
  6 15  4  0
  7 12  4  0
  8 13  4  0
  8 14  4  0
  9 11  4  0
 11 14  4  0
 11 19  4  0
 12 18  4  0
 13 21  4  0
 15 23  4  0
 17 19  4  0
 17 20  4  0
 18 22  4  0
 19 21  4  0
M  END
$$$$

 Created by Python create_sdf_string function

 23 25  0  0  0  0  0  0  0  0999 V2000
    2.4610   -5.3070   29.1240 C   0  0  0  0  0  0  0  0  0  0  0  0
    4.7710   -4.6952   28.4803 C   0  0  0  0  0  0  0  0  0  0  0  0
    3.4047   -5.1087   28.1314 C   0  0  0  0  0  0  0  0  0  0  0  0
   -0.2234  -11.8615   16.8874 C   0  0  0  0  0  0  0  0  0  0  0  0
    6.4491   -4.1532   30.1213 C   0  0  0  0  0  0  0  0  0  0  0  0
    5.7060   -4.4340   27.4975 C   0  0  0  0  0  0  0  0  0  0  0  0
    1.1818   -5.6612   28.8399 C   0  0  0  0  0  0  0  0  0  0  0  0
   -1.2067   -7.3287   17.7772 C   0  0  0  0  0  0  0  0  0  0  0  0
   -0.0206  -10.5585   16.6210 C   0  0  0  0  0  0  0  0  0  0  0  0
    0.3696  -12.7626   16.2169 O   0  0  0  0  0  0  0  0  0  0  0  0
   -0.6895   -9.5676   17.3297 C   0  0  0  0  0  0  0  0  0  0  0  0
    0.8388   -5.8417   27.5264 C   0  0  0  0  0  0  0  0  0  0  0  0
   -2.0709   -7.6637   18.7817 C   0  0  0  0  0  0  0  0  0  0  0  0
   -0.5279   -8.2168   17.0717 C   0  0  0  0  0  0  0  0  0  0  0  0
    6.9694   -4.0191   27.8190 C   0  0  0  0  0  0  0  0  0  0  0  0
    5.1733   -4.5469   29.8123 C   0  0  0  0  0  0  0  0  0  0  0  0
   -1.7508  -11.3016   18.6072 C   0  0  0  0  0  0  0  0  0  0  0  0
    1.7497   -5.6771   26.4971 C   0  0  0  0  0  0  0  0  0  0  0  0
   -1.5799   -9.9322   18.3468 C   0  0  0  0  0  0  0  0  0  0  0  0
   -1.0871  -12.2214   17.8851 C   0  0  0  0  0  0  0  0  0  0  0  0
   -2.2706   -8.9669   19.0691 C   0  0  0  0  0  0  0  0  0  0  0  0
    3.0279   -5.3073   26.8197 C   0  0  0  0  0  0  0  0  0  0  0  0
    7.3282   -3.8948   29.1186 C   0  0  0  0  0  0  0  0  0  0  0  0
  1  3  4  0
  1  7  4  0
  2  3  1  0
  2  6  4  0
  2 16  4  0
  3 22  4  0
  4  9  4  0
  4 10  1  0
  4 20  4  0
  5 16  4  0
  5 23  4  0
  6 15  4  0
  7 12  4  0
  8 13  4  0
  8 14  4  0
  9 11  4  0
 11 14  4  0
 11 19  4  0
 12 18  4  0
 13 21  4  0
 15 23  4  0
 17 19  4  0
 17 20  4  0
 18 22  4  0
 19 21  4  0
M  END
$$$$

 Created by Python create_sdf_string function

 23 25  0  0  0  0  0  0  0  0999 V2000
    2.4610   -5.3070   29.1240 C   0  0  0  0  0  0  0  0  0  0  0  0
    4.7710   -4.6952   28.4803 C   0  0  0  0  0  0  0  0  0  0  0  0
    3.4047   -5.1087   28.1314 C   0  0  0  0  0  0  0  0  0  0  0  0
   -0.2234  -11.8615   16.8874 C   0  0  0  0  0  0  0  0  0  0  0  0
    6.4491   -4.1532   30.1213 C   0  0  0  0  0  0  0  0  0  0  0  0
    5.7060   -4.4340   27.4975 C   0  0  0  0  0  0  0  0  0  0  0  0
    1.1818   -5.6612   28.8399 C   0  0  0  0  0  0  0  0  0  0  0  0
   -1.2067   -7.3287   17.7772 C   0  0  0  0  0  0  0  0  0  0  0  0
   -0.0206  -10.5585   16.6210 C   0  0  0  0  0  0  0  0  0  0  0  0
    0.3696  -12.7626   16.2169 O   0  0  0  0  0  0  0  0  0  0  0  0
   -0.6895   -9.5676   17.3297 C   0  0  0  0  0  0  0  0  0  0  0  0
    0.8388   -5.8417   27.5264 C   0  0  0  0  0  0  0  0  0  0  0  0
   -2.0709   -7.6637   18.7817 C   0  0  0  0  0  0  0  0  0  0  0  0
   -0.5279   -8.2168   17.0717 C   0  0  0  0  0  0  0  0  0  0  0  0
    6.9694   -4.0191   27.8190 C   0  0  0  0  0  0  0  0  0  0  0  0
    5.1733   -4.5469   29.8123 C   0  0  0  0  0  0  0  0  0  0  0  0
   -1.7508  -11.3016   18.6072 C   0  0  0  0  0  0  0  0  0  0  0  0
    1.7497   -5.6771   26.4971 C   0  0  0  0  0  0  0  0  0  0  0  0
   -1.5799   -9.9322   18.3468 C   0  0  0  0  0  0  0  0  0  0  0  0
   -1.0871  -12.2214   17.8851 C   0  0  0  0  0  0  0  0  0  0  0  0
   -2.2706   -8.9669   19.0691 C   0  0  0  0  0  0  0  0  0  0  0  0
    3.0279   -5.3073   26.8197 C   0  0  0  0  0  0  0  0  0  0  0  0
    7.3282   -3.8948   29.1186 C   0  0  0  0  0  0  0  0  0  0  0  0
  1  3  4  0
  1  7  4  0
  2  3  1  0
  2  6  4  0
  2 16  4  0
  3 22  4  0
  4  9  4  0
  4 10  1  0
  4 20  4  0
  5 16  4  0
  5 23  4  0
  6 15  4  0
  7 12  4  0
  8 13  4  0
  8 14  4  0
  9 11  4  0
 11 14  4  0
 11 19  4  0
 12 18  4  0
 13 21  4  0
 15 23  4  0
 17 19  4  0
 17 20  4  0
 18 22  4  0
 19 21  4  0
M  END
$$$$

 Created by Python create_sdf_string function

 23 25  0  0  0  0  0  0  0  0999 V2000
    2.4610   -5.3070   29.1240 C   0  0  0  0  0  0  0  0  0  0  0  0
    4.7710   -4.6952   28.4803 C   0  0  0  0  0  0  0  0  0  0  0  0
    3.4047   -5.1087   28.1314 C   0  0  0  0  0  0  0  0  0  0  0  0
   -0.2234  -11.8615   16.8874 C   0  0  0  0  0  0  0  0  0  0  0  0
    6.4491   -4.1532   30.1213 C   0  0  0  0  0  0  0  0  0  0  0  0
    5.7060   -4.4340   27.4975 C   0  0  0  0  0  0  0  0  0  0  0  0
    1.1818   -5.6612   28.8399 C   0  0  0  0  0  0  0  0  0  0  0  0
   -1.2067   -7.3287   17.7772 C   0  0  0  0  0  0  0  0  0  0  0  0
   -0.0206  -10.5585   16.6210 C   0  0  0  0  0  0  0  0  0  0  0  0
    0.3696  -12.7626   16.2169 O   0  0  0  0  0  0  0  0  0  0  0  0
   -0.6895   -9.5676   17.3297 C   0  0  0  0  0  0  0  0  0  0  0  0
    0.8388   -5.8417   27.5264 C   0  0  0  0  0  0  0  0  0  0  0  0
   -2.0709   -7.6637   18.7817 C   0  0  0  0  0  0  0  0  0  0  0  0
   -0.5279   -8.2168   17.0717 C   0  0  0  0  0  0  0  0  0  0  0  0
    6.9694   -4.0191   27.8190 C   0  0  0  0  0  0  0  0  0  0  0  0
    5.1733   -4.5469   29.8123 C   0  0  0  0  0  0  0  0  0  0  0  0
   -1.7508  -11.3016   18.6072 C   0  0  0  0  0  0  0  0  0  0  0  0
    1.7497   -5.6771   26.4971 C   0  0  0  0  0  0  0  0  0  0  0  0
   -1.5799   -9.9322   18.3468 C   0  0  0  0  0  0  0  0  0  0  0  0
   -1.0871  -12.2214   17.8851 C   0  0  0  0  0  0  0  0  0  0  0  0
   -2.2706   -8.9669   19.0691 C   0  0  0  0  0  0  0  0  0  0  0  0
    3.0279   -5.3073   26.8197 C   0  0  0  0  0  0  0  0  0  0  0  0
    7.3282   -3.8948   29.1186 C   0  0  0  0  0  0  0  0  0  0  0  0
  1  3  4  0
  1  7  4  0
  2  3  1  0
  2  6  4  0
  2 16  4  0
  3 22  4  0
  4  9  4  0
  4 10  1  0
  4 20  4  0
  5 16  4  0
  5 23  4  0
  6 15  4  0
  7 12  4  0
  8 13  4  0
  8 14  4  0
  9 11  4  0
 11 14  4  0
 11 19  4  0
 12 18  4  0
 13 21  4  0
 15 23  4  0
 17 19  4  0
 17 20  4  0
 18 22  4  0
 19 21  4  0
M  END
$$$$

 Created by Python create_sdf_string function

 23 25  0  0  0  0  0  0  0  0999 V2000
    2.4610   -5.3070   29.1240 C   0  0  0  0  0  0  0  0  0  0  0  0
    4.7710   -4.6952   28.4803 C   0  0  0  0  0  0  0  0  0  0  0  0
    3.4047   -5.1087   28.1314 C   0  0  0  0  0  0  0  0  0  0  0  0
   -0.2234  -11.8615   16.8874 C   0  0  0  0  0  0  0  0  0  0  0  0
    6.4491   -4.1532   30.1213 C   0  0  0  0  0  0  0  0  0  0  0  0
    5.7060   -4.4340   27.4975 C   0  0  0  0  0  0  0  0  0  0  0  0
    1.1818   -5.6612   28.8399 C   0  0  0  0  0  0  0  0  0  0  0  0
   -1.2067   -7.3287   17.7772 C   0  0  0  0  0  0  0  0  0  0  0  0
   -0.0206  -10.5585   16.6210 C   0  0  0  0  0  0  0  0  0  0  0  0
    0.3696  -12.7626   16.2169 O   0  0  0  0  0  0  0  0  0  0  0  0
   -0.6895   -9.5676   17.3297 C   0  0  0  0  0  0  0  0  0  0  0  0
    0.8388   -5.8417   27.5264 C   0  0  0  0  0  0  0  0  0  0  0  0
   -2.0709   -7.6637   18.7817 C   0  0  0  0  0  0  0  0  0  0  0  0
   -0.5279   -8.2168   17.0717 C   0  0  0  0  0  0  0  0  0  0  0  0
    6.9694   -4.0191   27.8190 C   0  0  0  0  0  0  0  0  0  0  0  0
    5.1733   -4.5469   29.8123 C   0  0  0  0  0  0  0  0  0  0  0  0
   -1.7508  -11.3016   18.6072 C   0  0  0  0  0  0  0  0  0  0  0  0
    1.7497   -5.6771   26.4971 C   0  0  0  0  0  0  0  0  0  0  0  0
   -1.5799   -9.9322   18.3468 C   0  0  0  0  0  0  0  0  0  0  0  0
   -1.0871  -12.2214   17.8851 C   0  0  0  0  0  0  0  0  0  0  0  0
   -2.2706   -8.9669   19.0691 C   0  0  0  0  0  0  0  0  0  0  0  0
    3.0279   -5.3073   26.8197 C   0  0  0  0  0  0  0  0  0  0  0  0
    7.3282   -3.8948   29.1186 C   0  0  0  0  0  0  0  0  0  0  0  0
  1  3  4  0
  1  7  4  0
  2  3  1  0
  2  6  4  0
  2 16  4  0
  3 22  4  0
  4  9  4  0
  4 10  1  0
  4 20  4  0
  5 16  4  0
  5 23  4  0
  6 15  4  0
  7 12  4  0
  8 13  4  0
  8 14  4  0
  9 11  4  0
 11 14  4  0
 11 19  4  0
 12 18  4  0
 13 21  4  0
 15 23  4  0
 17 19  4  0
 17 20  4  0
 18 22  4  0
 19 21  4  0
M  END
$$$$

 Created by Python create_sdf_string function

 23 25  0  0  0  0  0  0  0  0999 V2000
    2.4610   -5.3070   29.1240 C   0  0  0  0  0  0  0  0  0  0  0  0
    4.7710   -4.6952   28.4803 C   0  0  0  0  0  0  0  0  0  0  0  0
    3.4047   -5.1087   28.1314 C   0  0  0  0  0  0  0  0  0  0  0  0
   -0.2234  -11.8615   16.8874 C   0  0  0  0  0  0  0  0  0  0  0  0
    6.4491   -4.1532   30.1213 C   0  0  0  0  0  0  0  0  0  0  0  0
    5.7060   -4.4340   27.4975 C   0  0  0  0  0  0  0  0  0  0  0  0
    1.1818   -5.6612   28.8399 C   0  0  0  0  0  0  0  0  0  0  0  0
   -1.2067   -7.3287   17.7772 C   0  0  0  0  0  0  0  0  0  0  0  0
   -0.0206  -10.5585   16.6210 C   0  0  0  0  0  0  0  0  0  0  0  0
    0.3696  -12.7626   16.2169 O   0  0  0  0  0  0  0  0  0  0  0  0
   -0.6895   -9.5676   17.3297 C   0  0  0  0  0  0  0  0  0  0  0  0
    0.8388   -5.8417   27.5264 C   0  0  0  0  0  0  0  0  0  0  0  0
   -2.0709   -7.6637   18.7817 C   0  0  0  0  0  0  0  0  0  0  0  0
   -0.5279   -8.2168   17.0717 C   0  0  0  0  0  0  0  0  0  0  0  0
    6.9694   -4.0191   27.8190 C   0  0  0  0  0  0  0  0  0  0  0  0
    5.1733   -4.5469   29.8123 C   0  0  0  0  0  0  0  0  0  0  0  0
   -1.7508  -11.3016   18.6072 C   0  0  0  0  0  0  0  0  0  0  0  0
    1.7497   -5.6771   26.4971 C   0  0  0  0  0  0  0  0  0  0  0  0
   -1.5799   -9.9322   18.3468 C   0  0  0  0  0  0  0  0  0  0  0  0
   -1.0871  -12.2214   17.8851 C   0  0  0  0  0  0  0  0  0  0  0  0
   -2.2706   -8.9669   19.0691 C   0  0  0  0  0  0  0  0  0  0  0  0
    3.0279   -5.3073   26.8197 C   0  0  0  0  0  0  0  0  0  0  0  0
    7.3282   -3.8948   29.1186 C   0  0  0  0  0  0  0  0  0  0  0  0
  1  3  4  0
  1  7  4  0
  2  3  1  0
  2  6  4  0
  2 16  4  0
  3 22  4  0
  4  9  4  0
  4 10  1  0
  4 20  4  0
  5 16  4  0
  5 23  4  0
  6 15  4  0
  7 12  4  0
  8 13  4  0
  8 14  4  0
  9 11  4  0
 11 14  4  0
 11 19  4  0
 12 18  4  0
 13 21  4  0
 15 23  4  0
 17 19  4  0
 17 20  4  0
 18 22  4  0
 19 21  4  0
M  END
$$$$

 Created by Python create_sdf_string function

 23 25  0  0  0  0  0  0  0  0999 V2000
    2.4610   -5.3070   29.1240 C   0  0  0  0  0  0  0  0  0  0  0  0
    4.7710   -4.6952   28.4803 C   0  0  0  0  0  0  0  0  0  0  0  0
    3.4047   -5.1087   28.1314 C   0  0  0  0  0  0  0  0  0  0  0  0
   -0.2234  -11.8615   16.8874 C   0  0  0  0  0  0  0  0  0  0  0  0
    6.4491   -4.1532   30.1213 C   0  0  0  0  0  0  0  0  0  0  0  0
    5.7060   -4.4340   27.4975 C   0  0  0  0  0  0  0  0  0  0  0  0
    1.1818   -5.6612   28.8399 C   0  0  0  0  0  0  0  0  0  0  0  0
   -1.2067   -7.3287   17.7772 C   0  0  0  0  0  0  0  0  0  0  0  0
   -0.0206  -10.5585   16.6210 C   0  0  0  0  0  0  0  0  0  0  0  0
    0.3696  -12.7626   16.2169 O   0  0  0  0  0  0  0  0  0  0  0  0
   -0.6895   -9.5676   17.3297 C   0  0  0  0  0  0  0  0  0  0  0  0
    0.8388   -5.8417   27.5264 C   0  0  0  0  0  0  0  0  0  0  0  0
   -2.0709   -7.6637   18.7817 C   0  0  0  0  0  0  0  0  0  0  0  0
   -0.5279   -8.2168   17.0717 C   0  0  0  0  0  0  0  0  0  0  0  0
    6.9694   -4.0191   27.8190 C   0  0  0  0  0  0  0  0  0  0  0  0
    5.1733   -4.5469   29.8123 C   0  0  0  0  0  0  0  0  0  0  0  0
   -1.7508  -11.3016   18.6072 C   0  0  0  0  0  0  0  0  0  0  0  0
    1.7497   -5.6771   26.4971 C   0  0  0  0  0  0  0  0  0  0  0  0
   -1.5799   -9.9322   18.3468 C   0  0  0  0  0  0  0  0  0  0  0  0
   -1.0871  -12.2214   17.8851 C   0  0  0  0  0  0  0  0  0  0  0  0
   -2.2706   -8.9669   19.0691 C   0  0  0  0  0  0  0  0  0  0  0  0
    3.0279   -5.3073   26.8197 C   0  0  0  0  0  0  0  0  0  0  0  0
    7.3282   -3.8948   29.1186 C   0  0  0  0  0  0  0  0  0  0  0  0
  1  3  4  0
  1  7  4  0
  2  3  1  0
  2  6  4  0
  2 16  4  0
  3 22  4  0
  4  9  4  0
  4 10  1  0
  4 20  4  0
  5 16  4  0
  5 23  4  0
  6 15  4  0
  7 12  4  0
  8 13  4  0
  8 14  4  0
  9 11  4  0
 11 14  4  0
 11 19  4  0
 12 18  4  0
 13 21  4  0
 15 23  4  0
 17 19  4  0
 17 20  4  0
 18 22  4  0
 19 21  4  0
M  END
$$$$

 Created by Python create_sdf_string function

 23 25  0  0  0  0  0  0  0  0999 V2000
    2.4610   -5.3070   29.1240 C   0  0  0  0  0  0  0  0  0  0  0  0
    4.7710   -4.6952   28.4803 C   0  0  0  0  0  0  0  0  0  0  0  0
    3.4047   -5.1087   28.1314 C   0  0  0  0  0  0  0  0  0  0  0  0
   -0.2234  -11.8615   16.8874 C   0  0  0  0  0  0  0  0  0  0  0  0
    6.4491   -4.1532   30.1213 C   0  0  0  0  0  0  0  0  0  0  0  0
    5.7060   -4.4340   27.4975 C   0  0  0  0  0  0  0  0  0  0  0  0
    1.1818   -5.6612   28.8399 C   0  0  0  0  0  0  0  0  0  0  0  0
   -1.2067   -7.3287   17.7772 C   0  0  0  0  0  0  0  0  0  0  0  0
   -0.0206  -10.5585   16.6210 C   0  0  0  0  0  0  0  0  0  0  0  0
    0.3696  -12.7626   16.2169 O   0  0  0  0  0  0  0  0  0  0  0  0
   -0.6895   -9.5676   17.3297 C   0  0  0  0  0  0  0  0  0  0  0  0
    0.8388   -5.8417   27.5264 C   0  0  0  0  0  0  0  0  0  0  0  0
   -2.0709   -7.6637   18.7817 C   0  0  0  0  0  0  0  0  0  0  0  0
   -0.5279   -8.2168   17.0717 C   0  0  0  0  0  0  0  0  0  0  0  0
    6.9694   -4.0191   27.8190 C   0  0  0  0  0  0  0  0  0  0  0  0
    5.1733   -4.5469   29.8123 C   0  0  0  0  0  0  0  0  0  0  0  0
   -1.7508  -11.3016   18.6072 C   0  0  0  0  0  0  0  0  0  0  0  0
    1.7497   -5.6771   26.4971 C   0  0  0  0  0  0  0  0  0  0  0  0
   -1.5799   -9.9322   18.3468 C   0  0  0  0  0  0  0  0  0  0  0  0
   -1.0871  -12.2214   17.8851 C   0  0  0  0  0  0  0  0  0  0  0  0
   -2.2706   -8.9669   19.0691 C   0  0  0  0  0  0  0  0  0  0  0  0
    3.0279   -5.3073   26.8197 C   0  0  0  0  0  0  0  0  0  0  0  0
    7.3282   -3.8948   29.1186 C   0  0  0  0  0  0  0  0  0  0  0  0
  1  3  4  0
  1  7  4  0
  2  3  1  0
  2  6  4  0
  2 16  4  0
  3 22  4  0
  4  9  4  0
  4 10  1  0
  4 20  4  0
  5 16  4  0
  5 23  4  0
  6 15  4  0
  7 12  4  0
  8 13  4  0
  8 14  4  0
  9 11  4  0
 11 14  4  0
 11 19  4  0
 12 18  4  0
 13 21  4  0
 15 23  4  0
 17 19  4  0
 17 20  4  0
 18 22  4  0
 19 21  4  0
M  END
$$$$

 Created by Python create_sdf_string function

 23 25  0  0  0  0  0  0  0  0999 V2000
    2.4610   -5.3070   29.1240 C   0  0  0  0  0  0  0  0  0  0  0  0
    4.7710   -4.6952   28.4803 C   0  0  0  0  0  0  0  0  0  0  0  0
    3.4047   -5.1087   28.1314 C   0  0  0  0  0  0  0  0  0  0  0  0
   -0.2234  -11.8615   16.8874 C   0  0  0  0  0  0  0  0  0  0  0  0
    6.4491   -4.1532   30.1213 C   0  0  0  0  0  0  0  0  0  0  0  0
    5.7060   -4.4340   27.4975 C   0  0  0  0  0  0  0  0  0  0  0  0
    1.1818   -5.6612   28.8399 C   0  0  0  0  0  0  0  0  0  0  0  0
   -1.2067   -7.3287   17.7772 C   0  0  0  0  0  0  0  0  0  0  0  0
   -0.0206  -10.5585   16.6210 C   0  0  0  0  0  0  0  0  0  0  0  0
    0.3696  -12.7626   16.2169 O   0  0  0  0  0  0  0  0  0  0  0  0
   -0.6895   -9.5676   17.3297 C   0  0  0  0  0  0  0  0  0  0  0  0
    0.8388   -5.8417   27.5264 C   0  0  0  0  0  0  0  0  0  0  0  0
   -2.0709   -7.6637   18.7817 C   0  0  0  0  0  0  0  0  0  0  0  0
   -0.5279   -8.2168   17.0717 C   0  0  0  0  0  0  0  0  0  0  0  0
    6.9694   -4.0191   27.8190 C   0  0  0  0  0  0  0  0  0  0  0  0
    5.1733   -4.5469   29.8123 C   0  0  0  0  0  0  0  0  0  0  0  0
   -1.7508  -11.3016   18.6072 C   0  0  0  0  0  0  0  0  0  0  0  0
    1.7497   -5.6771   26.4971 C   0  0  0  0  0  0  0  0  0  0  0  0
   -1.5799   -9.9322   18.3468 C   0  0  0  0  0  0  0  0  0  0  0  0
   -1.0871  -12.2214   17.8851 C   0  0  0  0  0  0  0  0  0  0  0  0
   -2.2706   -8.9669   19.0691 C   0  0  0  0  0  0  0  0  0  0  0  0
    3.0279   -5.3073   26.8197 C   0  0  0  0  0  0  0  0  0  0  0  0
    7.3282   -3.8948   29.1186 C   0  0  0  0  0  0  0  0  0  0  0  0
  1  3  4  0
  1  7  4  0
  2  3  1  0
  2  6  4  0
  2 16  4  0
  3 22  4  0
  4  9  4  0
  4 10  1  0
  4 20  4  0
  5 16  4  0
  5 23  4  0
  6 15  4  0
  7 12  4  0
  8 13  4  0
  8 14  4  0
  9 11  4  0
 11 14  4  0
 11 19  4  0
 12 18  4  0
 13 21  4  0
 15 23  4  0
 17 19  4  0
 17 20  4  0
 18 22  4  0
 19 21  4  0
M  END
$$$$

 Created by Python create_sdf_string function

 23 25  0  0  0  0  0  0  0  0999 V2000
    2.4610   -5.3070   29.1240 C   0  0  0  0  0  0  0  0  0  0  0  0
    4.7710   -4.6952   28.4803 C   0  0  0  0  0  0  0  0  0  0  0  0
    3.4047   -5.1087   28.1314 C   0  0  0  0  0  0  0  0  0  0  0  0
   -0.2234  -11.8615   16.8874 C   0  0  0  0  0  0  0  0  0  0  0  0
    6.4491   -4.1532   30.1213 C   0  0  0  0  0  0  0  0  0  0  0  0
    5.7060   -4.4340   27.4975 C   0  0  0  0  0  0  0  0  0  0  0  0
    1.1818   -5.6612   28.8399 C   0  0  0  0  0  0  0  0  0  0  0  0
   -1.2067   -7.3287   17.7772 C   0  0  0  0  0  0  0  0  0  0  0  0
   -0.0206  -10.5585   16.6210 C   0  0  0  0  0  0  0  0  0  0  0  0
    0.3696  -12.7626   16.2169 O   0  0  0  0  0  0  0  0  0  0  0  0
   -0.6895   -9.5676   17.3297 C   0  0  0  0  0  0  0  0  0  0  0  0
    0.8388   -5.8417   27.5264 C   0  0  0  0  0  0  0  0  0  0  0  0
   -2.0709   -7.6637   18.7817 C   0  0  0  0  0  0  0  0  0  0  0  0
   -0.5279   -8.2168   17.0717 C   0  0  0  0  0  0  0  0  0  0  0  0
    6.9694   -4.0191   27.8190 C   0  0  0  0  0  0  0  0  0  0  0  0
    5.1733   -4.5469   29.8123 C   0  0  0  0  0  0  0  0  0  0  0  0
   -1.7508  -11.3016   18.6072 C   0  0  0  0  0  0  0  0  0  0  0  0
    1.7497   -5.6771   26.4971 C   0  0  0  0  0  0  0  0  0  0  0  0
   -1.5799   -9.9322   18.3468 C   0  0  0  0  0  0  0  0  0  0  0  0
   -1.0871  -12.2214   17.8851 C   0  0  0  0  0  0  0  0  0  0  0  0
   -2.2706   -8.9669   19.0691 C   0  0  0  0  0  0  0  0  0  0  0  0
    3.0279   -5.3073   26.8197 C   0  0  0  0  0  0  0  0  0  0  0  0
    7.3282   -3.8948   29.1186 C   0  0  0  0  0  0  0  0  0  0  0  0
  1  3  4  0
  1  7  4  0
  2  3  1  0
  2  6  4  0
  2 16  4  0
  3 22  4  0
  4  9  4  0
  4 10  1  0
  4 20  4  0
  5 16  4  0
  5 23  4  0
  6 15  4  0
  7 12  4  0
  8 13  4  0
  8 14  4  0
  9 11  4  0
 11 14  4  0
 11 19  4  0
 12 18  4  0
 13 21  4  0
 15 23  4  0
 17 19  4  0
 17 20  4  0
 18 22  4  0
 19 21  4  0
M  END
$$$$

 Created by Python create_sdf_string function

 23 25  0  0  0  0  0  0  0  0999 V2000
    2.4610   -5.3070   29.1240 C   0  0  0  0  0  0  0  0  0  0  0  0
    4.7710   -4.6952   28.4803 C   0  0  0  0  0  0  0  0  0  0  0  0
    3.4047   -5.1087   28.1314 C   0  0  0  0  0  0  0  0  0  0  0  0
   -0.2234  -11.8615   16.8874 C   0  0  0  0  0  0  0  0  0  0  0  0
    6.4491   -4.1532   30.1213 C   0  0  0  0  0  0  0  0  0  0  0  0
    5.7060   -4.4340   27.4975 C   0  0  0  0  0  0  0  0  0  0  0  0
    1.1818   -5.6612   28.8399 C   0  0  0  0  0  0  0  0  0  0  0  0
   -1.2067   -7.3287   17.7772 C   0  0  0  0  0  0  0  0  0  0  0  0
   -0.0206  -10.5585   16.6210 C   0  0  0  0  0  0  0  0  0  0  0  0
    0.3696  -12.7626   16.2169 O   0  0  0  0  0  0  0  0  0  0  0  0
   -0.6895   -9.5676   17.3297 C   0  0  0  0  0  0  0  0  0  0  0  0
    0.8388   -5.8417   27.5264 C   0  0  0  0  0  0  0  0  0  0  0  0
   -2.0709   -7.6637   18.7817 C   0  0  0  0  0  0  0  0  0  0  0  0
   -0.5279   -8.2168   17.0717 C   0  0  0  0  0  0  0  0  0  0  0  0
    6.9694   -4.0191   27.8190 C   0  0  0  0  0  0  0  0  0  0  0  0
    5.1733   -4.5469   29.8123 C   0  0  0  0  0  0  0  0  0  0  0  0
   -1.7508  -11.3016   18.6072 C   0  0  0  0  0  0  0  0  0  0  0  0
    1.7497   -5.6771   26.4971 C   0  0  0  0  0  0  0  0  0  0  0  0
   -1.5799   -9.9322   18.3468 C   0  0  0  0  0  0  0  0  0  0  0  0
   -1.0871  -12.2214   17.8851 C   0  0  0  0  0  0  0  0  0  0  0  0
   -2.2706   -8.9669   19.0691 C   0  0  0  0  0  0  0  0  0  0  0  0
    3.0279   -5.3073   26.8197 C   0  0  0  0  0  0  0  0  0  0  0  0
    7.3282   -3.8948   29.1186 C   0  0  0  0  0  0  0  0  0  0  0  0
  1  3  4  0
  1  7  4  0
  2  3  1  0
  2  6  4  0
  2 16  4  0
  3 22  4  0
  4  9  4  0
  4 10  1  0
  4 20  4  0
  5 16  4  0
  5 23  4  0
  6 15  4  0
  7 12  4  0
  8 13  4  0
  8 14  4  0
  9 11  4  0
 11 14  4  0
 11 19  4  0
 12 18  4  0
 13 21  4  0
 15 23  4  0
 17 19  4  0
 17 20  4  0
 18 22  4  0
 19 21  4  0
M  END
$$$$

 Created by Python create_sdf_string function

 23 25  0  0  0  0  0  0  0  0999 V2000
    2.4610   -5.3070   29.1240 C   0  0  0  0  0  0  0  0  0  0  0  0
    4.7710   -4.6952   28.4803 C   0  0  0  0  0  0  0  0  0  0  0  0
    3.4047   -5.1087   28.1314 C   0  0  0  0  0  0  0  0  0  0  0  0
   -0.2234  -11.8615   16.8874 C   0  0  0  0  0  0  0  0  0  0  0  0
    6.4491   -4.1532   30.1213 C   0  0  0  0  0  0  0  0  0  0  0  0
    5.7060   -4.4340   27.4975 C   0  0  0  0  0  0  0  0  0  0  0  0
    1.1818   -5.6612   28.8399 C   0  0  0  0  0  0  0  0  0  0  0  0
   -1.2067   -7.3287   17.7772 C   0  0  0  0  0  0  0  0  0  0  0  0
   -0.0206  -10.5585   16.6210 C   0  0  0  0  0  0  0  0  0  0  0  0
    0.3696  -12.7626   16.2169 O   0  0  0  0  0  0  0  0  0  0  0  0
   -0.6895   -9.5676   17.3297 C   0  0  0  0  0  0  0  0  0  0  0  0
    0.8388   -5.8417   27.5264 C   0  0  0  0  0  0  0  0  0  0  0  0
   -2.0709   -7.6637   18.7817 C   0  0  0  0  0  0  0  0  0  0  0  0
   -0.5279   -8.2168   17.0717 C   0  0  0  0  0  0  0  0  0  0  0  0
    6.9694   -4.0191   27.8190 C   0  0  0  0  0  0  0  0  0  0  0  0
    5.1733   -4.5469   29.8123 C   0  0  0  0  0  0  0  0  0  0  0  0
   -1.7508  -11.3016   18.6072 C   0  0  0  0  0  0  0  0  0  0  0  0
    1.7497   -5.6771   26.4971 C   0  0  0  0  0  0  0  0  0  0  0  0
   -1.5799   -9.9322   18.3468 C   0  0  0  0  0  0  0  0  0  0  0  0
   -1.0871  -12.2214   17.8851 C   0  0  0  0  0  0  0  0  0  0  0  0
   -2.2706   -8.9669   19.0691 C   0  0  0  0  0  0  0  0  0  0  0  0
    3.0279   -5.3073   26.8197 C   0  0  0  0  0  0  0  0  0  0  0  0
    7.3282   -3.8948   29.1186 C   0  0  0  0  0  0  0  0  0  0  0  0
  1  3  4  0
  1  7  4  0
  2  3  1  0
  2  6  4  0
  2 16  4  0
  3 22  4  0
  4  9  4  0
  4 10  1  0
  4 20  4  0
  5 16  4  0
  5 23  4  0
  6 15  4  0
  7 12  4  0
  8 13  4  0
  8 14  4  0
  9 11  4  0
 11 14  4  0
 11 19  4  0
 12 18  4  0
 13 21  4  0
 15 23  4  0
 17 19  4  0
 17 20  4  0
 18 22  4  0
 19 21  4  0
M  END
$$$$

 Created by Python create_sdf_string function

 23 25  0  0  0  0  0  0  0  0999 V2000
    2.4610   -5.3070   29.1240 C   0  0  0  0  0  0  0  0  0  0  0  0
    4.7710   -4.6952   28.4803 C   0  0  0  0  0  0  0  0  0  0  0  0
    3.4047   -5.1087   28.1314 C   0  0  0  0  0  0  0  0  0  0  0  0
   -0.2234  -11.8615   16.8874 C   0  0  0  0  0  0  0  0  0  0  0  0
    6.4491   -4.1532   30.1213 C   0  0  0  0  0  0  0  0  0  0  0  0
    5.7060   -4.4340   27.4975 C   0  0  0  0  0  0  0  0  0  0  0  0
    1.1818   -5.6612   28.8399 C   0  0  0  0  0  0  0  0  0  0  0  0
   -1.2067   -7.3287   17.7772 C   0  0  0  0  0  0  0  0  0  0  0  0
   -0.0206  -10.5585   16.6210 C   0  0  0  0  0  0  0  0  0  0  0  0
    0.3696  -12.7626   16.2169 O   0  0  0  0  0  0  0  0  0  0  0  0
   -0.6895   -9.5676   17.3297 C   0  0  0  0  0  0  0  0  0  0  0  0
    0.8388   -5.8417   27.5264 C   0  0  0  0  0  0  0  0  0  0  0  0
   -2.0709   -7.6637   18.7817 C   0  0  0  0  0  0  0  0  0  0  0  0
   -0.5279   -8.2168   17.0717 C   0  0  0  0  0  0  0  0  0  0  0  0
    6.9694   -4.0191   27.8190 C   0  0  0  0  0  0  0  0  0  0  0  0
    5.1733   -4.5469   29.8123 C   0  0  0  0  0  0  0  0  0  0  0  0
   -1.7508  -11.3016   18.6072 C   0  0  0  0  0  0  0  0  0  0  0  0
    1.7497   -5.6771   26.4971 C   0  0  0  0  0  0  0  0  0  0  0  0
   -1.5799   -9.9322   18.3468 C   0  0  0  0  0  0  0  0  0  0  0  0
   -1.0871  -12.2214   17.8851 C   0  0  0  0  0  0  0  0  0  0  0  0
   -2.2706   -8.9669   19.0691 C   0  0  0  0  0  0  0  0  0  0  0  0
    3.0279   -5.3073   26.8197 C   0  0  0  0  0  0  0  0  0  0  0  0
    7.3282   -3.8948   29.1186 C   0  0  0  0  0  0  0  0  0  0  0  0
  1  3  4  0
  1  7  4  0
  2  3  1  0
  2  6  4  0
  2 16  4  0
  3 22  4  0
  4  9  4  0
  4 10  1  0
  4 20  4  0
  5 16  4  0
  5 23  4  0
  6 15  4  0
  7 12  4  0
  8 13  4  0
  8 14  4  0
  9 11  4  0
 11 14  4  0
 11 19  4  0
 12 18  4  0
 13 21  4  0
 15 23  4  0
 17 19  4  0
 17 20  4  0
 18 22  4  0
 19 21  4  0
M  END
$$$$

 Created by Python create_sdf_string function

 23 25  0  0  0  0  0  0  0  0999 V2000
    2.4610   -5.3070   29.1240 C   0  0  0  0  0  0  0  0  0  0  0  0
    4.7710   -4.6952   28.4803 C   0  0  0  0  0  0  0  0  0  0  0  0
    3.4047   -5.1087   28.1314 C   0  0  0  0  0  0  0  0  0  0  0  0
   -0.2234  -11.8615   16.8874 C   0  0  0  0  0  0  0  0  0  0  0  0
    6.4491   -4.1532   30.1213 C   0  0  0  0  0  0  0  0  0  0  0  0
    5.7060   -4.4340   27.4975 C   0  0  0  0  0  0  0  0  0  0  0  0
    1.1818   -5.6612   28.8399 C   0  0  0  0  0  0  0  0  0  0  0  0
   -1.2067   -7.3287   17.7772 C   0  0  0  0  0  0  0  0  0  0  0  0
   -0.0206  -10.5585   16.6210 C   0  0  0  0  0  0  0  0  0  0  0  0
    0.3696  -12.7626   16.2169 O   0  0  0  0  0  0  0  0  0  0  0  0
   -0.6895   -9.5676   17.3297 C   0  0  0  0  0  0  0  0  0  0  0  0
    0.8388   -5.8417   27.5264 C   0  0  0  0  0  0  0  0  0  0  0  0
   -2.0709   -7.6637   18.7817 C   0  0  0  0  0  0  0  0  0  0  0  0
   -0.5279   -8.2168   17.0717 C   0  0  0  0  0  0  0  0  0  0  0  0
    6.9694   -4.0191   27.8190 C   0  0  0  0  0  0  0  0  0  0  0  0
    5.1733   -4.5469   29.8123 C   0  0  0  0  0  0  0  0  0  0  0  0
   -1.7508  -11.3016   18.6072 C   0  0  0  0  0  0  0  0  0  0  0  0
    1.7497   -5.6771   26.4971 C   0  0  0  0  0  0  0  0  0  0  0  0
   -1.5799   -9.9322   18.3468 C   0  0  0  0  0  0  0  0  0  0  0  0
   -1.0871  -12.2214   17.8851 C   0  0  0  0  0  0  0  0  0  0  0  0
   -2.2706   -8.9669   19.0691 C   0  0  0  0  0  0  0  0  0  0  0  0
    3.0279   -5.3073   26.8197 C   0  0  0  0  0  0  0  0  0  0  0  0
    7.3282   -3.8948   29.1186 C   0  0  0  0  0  0  0  0  0  0  0  0
  1  3  4  0
  1  7  4  0
  2  3  1  0
  2  6  4  0
  2 16  4  0
  3 22  4  0
  4  9  4  0
  4 10  1  0
  4 20  4  0
  5 16  4  0
  5 23  4  0
  6 15  4  0
  7 12  4  0
  8 13  4  0
  8 14  4  0
  9 11  4  0
 11 14  4  0
 11 19  4  0
 12 18  4  0
 13 21  4  0
 15 23  4  0
 17 19  4  0
 17 20  4  0
 18 22  4  0
 19 21  4  0
M  END
$$$$

 Created by Python create_sdf_string function

 23 25  0  0  0  0  0  0  0  0999 V2000
    2.4610   -5.3070   29.1240 C   0  0  0  0  0  0  0  0  0  0  0  0
    4.7710   -4.6952   28.4803 C   0  0  0  0  0  0  0  0  0  0  0  0
    3.4047   -5.1087   28.1314 C   0  0  0  0  0  0  0  0  0  0  0  0
   -0.2234  -11.8615   16.8874 C   0  0  0  0  0  0  0  0  0  0  0  0
    6.4491   -4.1532   30.1213 C   0  0  0  0  0  0  0  0  0  0  0  0
    5.7060   -4.4340   27.4975 C   0  0  0  0  0  0  0  0  0  0  0  0
    1.1818   -5.6612   28.8399 C   0  0  0  0  0  0  0  0  0  0  0  0
   -1.2067   -7.3287   17.7772 C   0  0  0  0  0  0  0  0  0  0  0  0
   -0.0206  -10.5585   16.6210 C   0  0  0  0  0  0  0  0  0  0  0  0
    0.3696  -12.7626   16.2169 O   0  0  0  0  0  0  0  0  0  0  0  0
   -0.6895   -9.5676   17.3297 C   0  0  0  0  0  0  0  0  0  0  0  0
    0.8388   -5.8417   27.5264 C   0  0  0  0  0  0  0  0  0  0  0  0
   -2.0709   -7.6637   18.7817 C   0  0  0  0  0  0  0  0  0  0  0  0
   -0.5279   -8.2168   17.0717 C   0  0  0  0  0  0  0  0  0  0  0  0
    6.9694   -4.0191   27.8190 C   0  0  0  0  0  0  0  0  0  0  0  0
    5.1733   -4.5469   29.8123 C   0  0  0  0  0  0  0  0  0  0  0  0
   -1.7508  -11.3016   18.6072 C   0  0  0  0  0  0  0  0  0  0  0  0
    1.7497   -5.6771   26.4971 C   0  0  0  0  0  0  0  0  0  0  0  0
   -1.5799   -9.9322   18.3468 C   0  0  0  0  0  0  0  0  0  0  0  0
   -1.0871  -12.2214   17.8851 C   0  0  0  0  0  0  0  0  0  0  0  0
   -2.2706   -8.9669   19.0691 C   0  0  0  0  0  0  0  0  0  0  0  0
    3.0279   -5.3073   26.8197 C   0  0  0  0  0  0  0  0  0  0  0  0
    7.3282   -3.8948   29.1186 C   0  0  0  0  0  0  0  0  0  0  0  0
  1  3  4  0
  1  7  4  0
  2  3  1  0
  2  6  4  0
  2 16  4  0
  3 22  4  0
  4  9  4  0
  4 10  1  0
  4 20  4  0
  5 16  4  0
  5 23  4  0
  6 15  4  0
  7 12  4  0
  8 13  4  0
  8 14  4  0
  9 11  4  0
 11 14  4  0
 11 19  4  0
 12 18  4  0
 13 21  4  0
 15 23  4  0
 17 19  4  0
 17 20  4  0
 18 22  4  0
 19 21  4  0
M  END
$$$$

 Created by Python create_sdf_string function

 23 25  0  0  0  0  0  0  0  0999 V2000
    2.4610   -5.3070   29.1240 C   0  0  0  0  0  0  0  0  0  0  0  0
    4.7710   -4.6952   28.4803 C   0  0  0  0  0  0  0  0  0  0  0  0
    3.4047   -5.1087   28.1314 C   0  0  0  0  0  0  0  0  0  0  0  0
   -0.2234  -11.8615   16.8874 C   0  0  0  0  0  0  0  0  0  0  0  0
    6.4491   -4.1532   30.1213 C   0  0  0  0  0  0  0  0  0  0  0  0
    5.7060   -4.4340   27.4975 C   0  0  0  0  0  0  0  0  0  0  0  0
    1.1818   -5.6612   28.8399 C   0  0  0  0  0  0  0  0  0  0  0  0
   -1.2067   -7.3287   17.7772 C   0  0  0  0  0  0  0  0  0  0  0  0
   -0.0206  -10.5585   16.6210 C   0  0  0  0  0  0  0  0  0  0  0  0
    0.3696  -12.7626   16.2169 O   0  0  0  0  0  0  0  0  0  0  0  0
   -0.6895   -9.5676   17.3297 C   0  0  0  0  0  0  0  0  0  0  0  0
    0.8388   -5.8417   27.5264 C   0  0  0  0  0  0  0  0  0  0  0  0
   -2.0709   -7.6637   18.7817 C   0  0  0  0  0  0  0  0  0  0  0  0
   -0.5279   -8.2168   17.0717 C   0  0  0  0  0  0  0  0  0  0  0  0
    6.9694   -4.0191   27.8190 C   0  0  0  0  0  0  0  0  0  0  0  0
    5.1733   -4.5469   29.8123 C   0  0  0  0  0  0  0  0  0  0  0  0
   -1.7508  -11.3016   18.6072 C   0  0  0  0  0  0  0  0  0  0  0  0
    1.7497   -5.6771   26.4971 C   0  0  0  0  0  0  0  0  0  0  0  0
   -1.5799   -9.9322   18.3468 C   0  0  0  0  0  0  0  0  0  0  0  0
   -1.0871  -12.2214   17.8851 C   0  0  0  0  0  0  0  0  0  0  0  0
   -2.2706   -8.9669   19.0691 C   0  0  0  0  0  0  0  0  0  0  0  0
    3.0279   -5.3073   26.8197 C   0  0  0  0  0  0  0  0  0  0  0  0
    7.3282   -3.8948   29.1186 C   0  0  0  0  0  0  0  0  0  0  0  0
  1  3  4  0
  1  7  4  0
  2  3  1  0
  2  6  4  0
  2 16  4  0
  3 22  4  0
  4  9  4  0
  4 10  1  0
  4 20  4  0
  5 16  4  0
  5 23  4  0
  6 15  4  0
  7 12  4  0
  8 13  4  0
  8 14  4  0
  9 11  4  0
 11 14  4  0
 11 19  4  0
 12 18  4  0
 13 21  4  0
 15 23  4  0
 17 19  4  0
 17 20  4  0
 18 22  4  0
 19 21  4  0
M  END
$$$$

 Created by Python create_sdf_string function

 23 25  0  0  0  0  0  0  0  0999 V2000
    2.4610   -5.3070   29.1240 C   0  0  0  0  0  0  0  0  0  0  0  0
    4.7710   -4.6952   28.4803 C   0  0  0  0  0  0  0  0  0  0  0  0
    3.4047   -5.1087   28.1314 C   0  0  0  0  0  0  0  0  0  0  0  0
   -0.2234  -11.8615   16.8874 C   0  0  0  0  0  0  0  0  0  0  0  0
    6.4491   -4.1532   30.1213 C   0  0  0  0  0  0  0  0  0  0  0  0
    5.7060   -4.4340   27.4975 C   0  0  0  0  0  0  0  0  0  0  0  0
    1.1818   -5.6612   28.8399 C   0  0  0  0  0  0  0  0  0  0  0  0
   -1.2067   -7.3287   17.7772 C   0  0  0  0  0  0  0  0  0  0  0  0
   -0.0206  -10.5585   16.6210 C   0  0  0  0  0  0  0  0  0  0  0  0
    0.3696  -12.7626   16.2169 O   0  0  0  0  0  0  0  0  0  0  0  0
   -0.6895   -9.5676   17.3297 C   0  0  0  0  0  0  0  0  0  0  0  0
    0.8388   -5.8417   27.5264 C   0  0  0  0  0  0  0  0  0  0  0  0
   -2.0709   -7.6637   18.7817 C   0  0  0  0  0  0  0  0  0  0  0  0
   -0.5279   -8.2168   17.0717 C   0  0  0  0  0  0  0  0  0  0  0  0
    6.9694   -4.0191   27.8190 C   0  0  0  0  0  0  0  0  0  0  0  0
    5.1733   -4.5469   29.8123 C   0  0  0  0  0  0  0  0  0  0  0  0
   -1.7508  -11.3016   18.6072 C   0  0  0  0  0  0  0  0  0  0  0  0
    1.7497   -5.6771   26.4971 C   0  0  0  0  0  0  0  0  0  0  0  0
   -1.5799   -9.9322   18.3468 C   0  0  0  0  0  0  0  0  0  0  0  0
   -1.0871  -12.2214   17.8851 C   0  0  0  0  0  0  0  0  0  0  0  0
   -2.2706   -8.9669   19.0691 C   0  0  0  0  0  0  0  0  0  0  0  0
    3.0279   -5.3073   26.8197 C   0  0  0  0  0  0  0  0  0  0  0  0
    7.3282   -3.8948   29.1186 C   0  0  0  0  0  0  0  0  0  0  0  0
  1  3  4  0
  1  7  4  0
  2  3  1  0
  2  6  4  0
  2 16  4  0
  3 22  4  0
  4  9  4  0
  4 10  1  0
  4 20  4  0
  5 16  4  0
  5 23  4  0
  6 15  4  0
  7 12  4  0
  8 13  4  0
  8 14  4  0
  9 11  4  0
 11 14  4  0
 11 19  4  0
 12 18  4  0
 13 21  4  0
 15 23  4  0
 17 19  4  0
 17 20  4  0
 18 22  4  0
 19 21  4  0
M  END
$$$$

 Created by Python create_sdf_string function

 23 25  0  0  0  0  0  0  0  0999 V2000
    2.4610   -5.3070   29.1240 C   0  0  0  0  0  0  0  0  0  0  0  0
    4.7710   -4.6952   28.4803 C   0  0  0  0  0  0  0  0  0  0  0  0
    3.4047   -5.1087   28.1314 C   0  0  0  0  0  0  0  0  0  0  0  0
   -0.2234  -11.8615   16.8874 C   0  0  0  0  0  0  0  0  0  0  0  0
    6.4491   -4.1532   30.1213 C   0  0  0  0  0  0  0  0  0  0  0  0
    5.7060   -4.4340   27.4975 C   0  0  0  0  0  0  0  0  0  0  0  0
    1.1818   -5.6612   28.8399 C   0  0  0  0  0  0  0  0  0  0  0  0
   -1.2067   -7.3287   17.7772 C   0  0  0  0  0  0  0  0  0  0  0  0
   -0.0206  -10.5585   16.6210 C   0  0  0  0  0  0  0  0  0  0  0  0
    0.3696  -12.7626   16.2169 O   0  0  0  0  0  0  0  0  0  0  0  0
   -0.6895   -9.5676   17.3297 C   0  0  0  0  0  0  0  0  0  0  0  0
    0.8388   -5.8417   27.5264 C   0  0  0  0  0  0  0  0  0  0  0  0
   -2.0709   -7.6637   18.7817 C   0  0  0  0  0  0  0  0  0  0  0  0
   -0.5279   -8.2168   17.0717 C   0  0  0  0  0  0  0  0  0  0  0  0
    6.9694   -4.0191   27.8190 C   0  0  0  0  0  0  0  0  0  0  0  0
    5.1733   -4.5469   29.8123 C   0  0  0  0  0  0  0  0  0  0  0  0
   -1.7508  -11.3016   18.6072 C   0  0  0  0  0  0  0  0  0  0  0  0
    1.7497   -5.6771   26.4971 C   0  0  0  0  0  0  0  0  0  0  0  0
   -1.5799   -9.9322   18.3468 C   0  0  0  0  0  0  0  0  0  0  0  0
   -1.0871  -12.2214   17.8851 C   0  0  0  0  0  0  0  0  0  0  0  0
   -2.2706   -8.9669   19.0691 C   0  0  0  0  0  0  0  0  0  0  0  0
    3.0279   -5.3073   26.8197 C   0  0  0  0  0  0  0  0  0  0  0  0
    7.3282   -3.8948   29.1186 C   0  0  0  0  0  0  0  0  0  0  0  0
  1  3  4  0
  1  7  4  0
  2  3  1  0
  2  6  4  0
  2 16  4  0
  3 22  4  0
  4  9  4  0
  4 10  1  0
  4 20  4  0
  5 16  4  0
  5 23  4  0
  6 15  4  0
  7 12  4  0
  8 13  4  0
  8 14  4  0
  9 11  4  0
 11 14  4  0
 11 19  4  0
 12 18  4  0
 13 21  4  0
 15 23  4  0
 17 19  4  0
 17 20  4  0
 18 22  4  0
 19 21  4  0
M  END
$$$$

 Created by Python create_sdf_string function

 23 25  0  0  0  0  0  0  0  0999 V2000
    2.4610   -5.3070   29.1240 C   0  0  0  0  0  0  0  0  0  0  0  0
    4.7710   -4.6952   28.4803 C   0  0  0  0  0  0  0  0  0  0  0  0
    3.4047   -5.1087   28.1314 C   0  0  0  0  0  0  0  0  0  0  0  0
   -0.2234  -11.8615   16.8874 C   0  0  0  0  0  0  0  0  0  0  0  0
    6.4491   -4.1532   30.1213 C   0  0  0  0  0  0  0  0  0  0  0  0
    5.7060   -4.4340   27.4975 C   0  0  0  0  0  0  0  0  0  0  0  0
    1.1818   -5.6612   28.8399 C   0  0  0  0  0  0  0  0  0  0  0  0
   -1.2067   -7.3287   17.7772 C   0  0  0  0  0  0  0  0  0  0  0  0
   -0.0206  -10.5585   16.6210 C   0  0  0  0  0  0  0  0  0  0  0  0
    0.3696  -12.7626   16.2169 O   0  0  0  0  0  0  0  0  0  0  0  0
   -0.6895   -9.5676   17.3297 C   0  0  0  0  0  0  0  0  0  0  0  0
    0.8388   -5.8417   27.5264 C   0  0  0  0  0  0  0  0  0  0  0  0
   -2.0709   -7.6637   18.7817 C   0  0  0  0  0  0  0  0  0  0  0  0
   -0.5279   -8.2168   17.0717 C   0  0  0  0  0  0  0  0  0  0  0  0
    6.9694   -4.0191   27.8190 C   0  0  0  0  0  0  0  0  0  0  0  0
    5.1733   -4.5469   29.8123 C   0  0  0  0  0  0  0  0  0  0  0  0
   -1.7508  -11.3016   18.6072 C   0  0  0  0  0  0  0  0  0  0  0  0
    1.7497   -5.6771   26.4971 C   0  0  0  0  0  0  0  0  0  0  0  0
   -1.5799   -9.9322   18.3468 C   0  0  0  0  0  0  0  0  0  0  0  0
   -1.0871  -12.2214   17.8851 C   0  0  0  0  0  0  0  0  0  0  0  0
   -2.2706   -8.9669   19.0691 C   0  0  0  0  0  0  0  0  0  0  0  0
    3.0279   -5.3073   26.8197 C   0  0  0  0  0  0  0  0  0  0  0  0
    7.3282   -3.8948   29.1186 C   0  0  0  0  0  0  0  0  0  0  0  0
  1  3  4  0
  1  7  4  0
  2  3  1  0
  2  6  4  0
  2 16  4  0
  3 22  4  0
  4  9  4  0
  4 10  1  0
  4 20  4  0
  5 16  4  0
  5 23  4  0
  6 15  4  0
  7 12  4  0
  8 13  4  0
  8 14  4  0
  9 11  4  0
 11 14  4  0
 11 19  4  0
 12 18  4  0
 13 21  4  0
 15 23  4  0
 17 19  4  0
 17 20  4  0
 18 22  4  0
 19 21  4  0
M  END
$$$$

 Created by Python create_sdf_string function

 23 25  0  0  0  0  0  0  0  0999 V2000
    2.4610   -5.3070   29.1240 C   0  0  0  0  0  0  0  0  0  0  0  0
    4.7710   -4.6952   28.4803 C   0  0  0  0  0  0  0  0  0  0  0  0
    3.4047   -5.1087   28.1314 C   0  0  0  0  0  0  0  0  0  0  0  0
   -0.2234  -11.8615   16.8874 C   0  0  0  0  0  0  0  0  0  0  0  0
    6.4491   -4.1532   30.1213 C   0  0  0  0  0  0  0  0  0  0  0  0
    5.7060   -4.4340   27.4975 C   0  0  0  0  0  0  0  0  0  0  0  0
    1.1818   -5.6612   28.8399 C   0  0  0  0  0  0  0  0  0  0  0  0
   -1.2067   -7.3287   17.7772 C   0  0  0  0  0  0  0  0  0  0  0  0
   -0.0206  -10.5585   16.6210 C   0  0  0  0  0  0  0  0  0  0  0  0
    0.3696  -12.7626   16.2169 O   0  0  0  0  0  0  0  0  0  0  0  0
   -0.6895   -9.5676   17.3297 C   0  0  0  0  0  0  0  0  0  0  0  0
    0.8388   -5.8417   27.5264 C   0  0  0  0  0  0  0  0  0  0  0  0
   -2.0709   -7.6637   18.7817 C   0  0  0  0  0  0  0  0  0  0  0  0
   -0.5279   -8.2168   17.0717 C   0  0  0  0  0  0  0  0  0  0  0  0
    6.9694   -4.0191   27.8190 C   0  0  0  0  0  0  0  0  0  0  0  0
    5.1733   -4.5469   29.8123 C   0  0  0  0  0  0  0  0  0  0  0  0
   -1.7508  -11.3016   18.6072 C   0  0  0  0  0  0  0  0  0  0  0  0
    1.7497   -5.6771   26.4971 C   0  0  0  0  0  0  0  0  0  0  0  0
   -1.5799   -9.9322   18.3468 C   0  0  0  0  0  0  0  0  0  0  0  0
   -1.0871  -12.2214   17.8851 C   0  0  0  0  0  0  0  0  0  0  0  0
   -2.2706   -8.9669   19.0691 C   0  0  0  0  0  0  0  0  0  0  0  0
    3.0279   -5.3073   26.8197 C   0  0  0  0  0  0  0  0  0  0  0  0
    7.3282   -3.8948   29.1186 C   0  0  0  0  0  0  0  0  0  0  0  0
  1  3  4  0
  1  7  4  0
  2  3  1  0
  2  6  4  0
  2 16  4  0
  3 22  4  0
  4  9  4  0
  4 10  1  0
  4 20  4  0
  5 16  4  0
  5 23  4  0
  6 15  4  0
  7 12  4  0
  8 13  4  0
  8 14  4  0
  9 11  4  0
 11 14  4  0
 11 19  4  0
 12 18  4  0
 13 21  4  0
 15 23  4  0
 17 19  4  0
 17 20  4  0
 18 22  4  0
 19 21  4  0
M  END
$$$$

 Created by Python create_sdf_string function

 23 25  0  0  0  0  0  0  0  0999 V2000
    2.4610   -5.3070   29.1240 C   0  0  0  0  0  0  0  0  0  0  0  0
    4.7710   -4.6952   28.4803 C   0  0  0  0  0  0  0  0  0  0  0  0
    3.4047   -5.1087   28.1314 C   0  0  0  0  0  0  0  0  0  0  0  0
   -0.2234  -11.8615   16.8874 C   0  0  0  0  0  0  0  0  0  0  0  0
    6.4491   -4.1532   30.1213 C   0  0  0  0  0  0  0  0  0  0  0  0
    5.7060   -4.4340   27.4975 C   0  0  0  0  0  0  0  0  0  0  0  0
    1.1818   -5.6612   28.8399 C   0  0  0  0  0  0  0  0  0  0  0  0
   -1.2067   -7.3287   17.7772 C   0  0  0  0  0  0  0  0  0  0  0  0
   -0.0206  -10.5585   16.6210 C   0  0  0  0  0  0  0  0  0  0  0  0
    0.3696  -12.7626   16.2169 O   0  0  0  0  0  0  0  0  0  0  0  0
   -0.6895   -9.5676   17.3297 C   0  0  0  0  0  0  0  0  0  0  0  0
    0.8388   -5.8417   27.5264 C   0  0  0  0  0  0  0  0  0  0  0  0
   -2.0709   -7.6637   18.7817 C   0  0  0  0  0  0  0  0  0  0  0  0
   -0.5279   -8.2168   17.0717 C   0  0  0  0  0  0  0  0  0  0  0  0
    6.9694   -4.0191   27.8190 C   0  0  0  0  0  0  0  0  0  0  0  0
    5.1733   -4.5469   29.8123 C   0  0  0  0  0  0  0  0  0  0  0  0
   -1.7508  -11.3016   18.6072 C   0  0  0  0  0  0  0  0  0  0  0  0
    1.7497   -5.6771   26.4971 C   0  0  0  0  0  0  0  0  0  0  0  0
   -1.5799   -9.9322   18.3468 C   0  0  0  0  0  0  0  0  0  0  0  0
   -1.0871  -12.2214   17.8851 C   0  0  0  0  0  0  0  0  0  0  0  0
   -2.2706   -8.9669   19.0691 C   0  0  0  0  0  0  0  0  0  0  0  0
    3.0279   -5.3073   26.8197 C   0  0  0  0  0  0  0  0  0  0  0  0
    7.3282   -3.8948   29.1186 C   0  0  0  0  0  0  0  0  0  0  0  0
  1  3  4  0
  1  7  4  0
  2  3  1  0
  2  6  4  0
  2 16  4  0
  3 22  4  0
  4  9  4  0
  4 10  1  0
  4 20  4  0
  5 16  4  0
  5 23  4  0
  6 15  4  0
  7 12  4  0
  8 13  4  0
  8 14  4  0
  9 11  4  0
 11 14  4  0
 11 19  4  0
 12 18  4  0
 13 21  4  0
 15 23  4  0
 17 19  4  0
 17 20  4  0
 18 22  4  0
 19 21  4  0
M  END
$$$$

 Created by Python create_sdf_string function

 23 25  0  0  0  0  0  0  0  0999 V2000
    2.4610   -5.3070   29.1240 C   0  0  0  0  0  0  0  0  0  0  0  0
    4.7710   -4.6952   28.4803 C   0  0  0  0  0  0  0  0  0  0  0  0
    3.4047   -5.1087   28.1314 C   0  0  0  0  0  0  0  0  0  0  0  0
   -0.2234  -11.8615   16.8874 C   0  0  0  0  0  0  0  0  0  0  0  0
    6.4491   -4.1532   30.1213 C   0  0  0  0  0  0  0  0  0  0  0  0
    5.7060   -4.4340   27.4975 C   0  0  0  0  0  0  0  0  0  0  0  0
    1.1818   -5.6612   28.8399 C   0  0  0  0  0  0  0  0  0  0  0  0
   -1.2067   -7.3287   17.7772 C   0  0  0  0  0  0  0  0  0  0  0  0
   -0.0206  -10.5585   16.6210 C   0  0  0  0  0  0  0  0  0  0  0  0
    0.3696  -12.7626   16.2169 O   0  0  0  0  0  0  0  0  0  0  0  0
   -0.6895   -9.5676   17.3297 C   0  0  0  0  0  0  0  0  0  0  0  0
    0.8388   -5.8417   27.5264 C   0  0  0  0  0  0  0  0  0  0  0  0
   -2.0709   -7.6637   18.7817 C   0  0  0  0  0  0  0  0  0  0  0  0
   -0.5279   -8.2168   17.0717 C   0  0  0  0  0  0  0  0  0  0  0  0
    6.9694   -4.0191   27.8190 C   0  0  0  0  0  0  0  0  0  0  0  0
    5.1733   -4.5469   29.8123 C   0  0  0  0  0  0  0  0  0  0  0  0
   -1.7508  -11.3016   18.6072 C   0  0  0  0  0  0  0  0  0  0  0  0
    1.7497   -5.6771   26.4971 C   0  0  0  0  0  0  0  0  0  0  0  0
   -1.5799   -9.9322   18.3468 C   0  0  0  0  0  0  0  0  0  0  0  0
   -1.0871  -12.2214   17.8851 C   0  0  0  0  0  0  0  0  0  0  0  0
   -2.2706   -8.9669   19.0691 C   0  0  0  0  0  0  0  0  0  0  0  0
    3.0279   -5.3073   26.8197 C   0  0  0  0  0  0  0  0  0  0  0  0
    7.3282   -3.8948   29.1186 C   0  0  0  0  0  0  0  0  0  0  0  0
  1  3  4  0
  1  7  4  0
  2  3  1  0
  2  6  4  0
  2 16  4  0
  3 22  4  0
  4  9  4  0
  4 10  1  0
  4 20  4  0
  5 16  4  0
  5 23  4  0
  6 15  4  0
  7 12  4  0
  8 13  4  0
  8 14  4  0
  9 11  4  0
 11 14  4  0
 11 19  4  0
 12 18  4  0
 13 21  4  0
 15 23  4  0
 17 19  4  0
 17 20  4  0
 18 22  4  0
 19 21  4  0
M  END
$$$$

 Created by Python create_sdf_string function

 23 25  0  0  0  0  0  0  0  0999 V2000
    2.4610   -5.3070   29.1240 C   0  0  0  0  0  0  0  0  0  0  0  0
    4.7710   -4.6952   28.4803 C   0  0  0  0  0  0  0  0  0  0  0  0
    3.4047   -5.1087   28.1314 C   0  0  0  0  0  0  0  0  0  0  0  0
   -0.2234  -11.8615   16.8874 C   0  0  0  0  0  0  0  0  0  0  0  0
    6.4491   -4.1532   30.1213 C   0  0  0  0  0  0  0  0  0  0  0  0
    5.7060   -4.4340   27.4975 C   0  0  0  0  0  0  0  0  0  0  0  0
    1.1818   -5.6612   28.8399 C   0  0  0  0  0  0  0  0  0  0  0  0
   -1.2067   -7.3287   17.7772 C   0  0  0  0  0  0  0  0  0  0  0  0
   -0.0206  -10.5585   16.6210 C   0  0  0  0  0  0  0  0  0  0  0  0
    0.3696  -12.7626   16.2169 O   0  0  0  0  0  0  0  0  0  0  0  0
   -0.6895   -9.5676   17.3297 C   0  0  0  0  0  0  0  0  0  0  0  0
    0.8388   -5.8417   27.5264 C   0  0  0  0  0  0  0  0  0  0  0  0
   -2.0709   -7.6637   18.7817 C   0  0  0  0  0  0  0  0  0  0  0  0
   -0.5279   -8.2168   17.0717 C   0  0  0  0  0  0  0  0  0  0  0  0
    6.9694   -4.0191   27.8190 C   0  0  0  0  0  0  0  0  0  0  0  0
    5.1733   -4.5469   29.8123 C   0  0  0  0  0  0  0  0  0  0  0  0
   -1.7508  -11.3016   18.6072 C   0  0  0  0  0  0  0  0  0  0  0  0
    1.7497   -5.6771   26.4971 C   0  0  0  0  0  0  0  0  0  0  0  0
   -1.5799   -9.9322   18.3468 C   0  0  0  0  0  0  0  0  0  0  0  0
   -1.0871  -12.2214   17.8851 C   0  0  0  0  0  0  0  0  0  0  0  0
   -2.2706   -8.9669   19.0691 C   0  0  0  0  0  0  0  0  0  0  0  0
    3.0279   -5.3073   26.8197 C   0  0  0  0  0  0  0  0  0  0  0  0
    7.3282   -3.8948   29.1186 C   0  0  0  0  0  0  0  0  0  0  0  0
  1  3  4  0
  1  7  4  0
  2  3  1  0
  2  6  4  0
  2 16  4  0
  3 22  4  0
  4  9  4  0
  4 10  1  0
  4 20  4  0
  5 16  4  0
  5 23  4  0
  6 15  4  0
  7 12  4  0
  8 13  4  0
  8 14  4  0
  9 11  4  0
 11 14  4  0
 11 19  4  0
 12 18  4  0
 13 21  4  0
 15 23  4  0
 17 19  4  0
 17 20  4  0
 18 22  4  0
 19 21  4  0
M  END
$$$$

 Created by Python create_sdf_string function

 23 25  0  0  0  0  0  0  0  0999 V2000
    2.4610   -5.3070   29.1240 C   0  0  0  0  0  0  0  0  0  0  0  0
    4.7710   -4.6952   28.4803 C   0  0  0  0  0  0  0  0  0  0  0  0
    3.4047   -5.1087   28.1314 C   0  0  0  0  0  0  0  0  0  0  0  0
   -0.2234  -11.8615   16.8874 C   0  0  0  0  0  0  0  0  0  0  0  0
    6.4491   -4.1532   30.1213 C   0  0  0  0  0  0  0  0  0  0  0  0
    5.7060   -4.4340   27.4975 C   0  0  0  0  0  0  0  0  0  0  0  0
    1.1818   -5.6612   28.8399 C   0  0  0  0  0  0  0  0  0  0  0  0
   -1.2067   -7.3287   17.7772 C   0  0  0  0  0  0  0  0  0  0  0  0
   -0.0206  -10.5585   16.6210 C   0  0  0  0  0  0  0  0  0  0  0  0
    0.3696  -12.7626   16.2169 O   0  0  0  0  0  0  0  0  0  0  0  0
   -0.6895   -9.5676   17.3297 C   0  0  0  0  0  0  0  0  0  0  0  0
    0.8388   -5.8417   27.5264 C   0  0  0  0  0  0  0  0  0  0  0  0
   -2.0709   -7.6637   18.7817 C   0  0  0  0  0  0  0  0  0  0  0  0
   -0.5279   -8.2168   17.0717 C   0  0  0  0  0  0  0  0  0  0  0  0
    6.9694   -4.0191   27.8190 C   0  0  0  0  0  0  0  0  0  0  0  0
    5.1733   -4.5469   29.8123 C   0  0  0  0  0  0  0  0  0  0  0  0
   -1.7508  -11.3016   18.6072 C   0  0  0  0  0  0  0  0  0  0  0  0
    1.7497   -5.6771   26.4971 C   0  0  0  0  0  0  0  0  0  0  0  0
   -1.5799   -9.9322   18.3468 C   0  0  0  0  0  0  0  0  0  0  0  0
   -1.0871  -12.2214   17.8851 C   0  0  0  0  0  0  0  0  0  0  0  0
   -2.2706   -8.9669   19.0691 C   0  0  0  0  0  0  0  0  0  0  0  0
    3.0279   -5.3073   26.8197 C   0  0  0  0  0  0  0  0  0  0  0  0
    7.3282   -3.8948   29.1186 C   0  0  0  0  0  0  0  0  0  0  0  0
  1  3  4  0
  1  7  4  0
  2  3  1  0
  2  6  4  0
  2 16  4  0
  3 22  4  0
  4  9  4  0
  4 10  1  0
  4 20  4  0
  5 16  4  0
  5 23  4  0
  6 15  4  0
  7 12  4  0
  8 13  4  0
  8 14  4  0
  9 11  4  0
 11 14  4  0
 11 19  4  0
 12 18  4  0
 13 21  4  0
 15 23  4  0
 17 19  4  0
 17 20  4  0
 18 22  4  0
 19 21  4  0
M  END
$$$$

 Created by Python create_sdf_string function

 23 25  0  0  0  0  0  0  0  0999 V2000
    2.4610   -5.3070   29.1240 C   0  0  0  0  0  0  0  0  0  0  0  0
    4.7710   -4.6952   28.4803 C   0  0  0  0  0  0  0  0  0  0  0  0
    3.4047   -5.1087   28.1314 C   0  0  0  0  0  0  0  0  0  0  0  0
   -0.2234  -11.8615   16.8874 C   0  0  0  0  0  0  0  0  0  0  0  0
    6.4491   -4.1532   30.1213 C   0  0  0  0  0  0  0  0  0  0  0  0
    5.7060   -4.4340   27.4975 C   0  0  0  0  0  0  0  0  0  0  0  0
    1.1818   -5.6612   28.8399 C   0  0  0  0  0  0  0  0  0  0  0  0
   -1.2067   -7.3287   17.7772 C   0  0  0  0  0  0  0  0  0  0  0  0
   -0.0206  -10.5585   16.6210 C   0  0  0  0  0  0  0  0  0  0  0  0
    0.3696  -12.7626   16.2169 O   0  0  0  0  0  0  0  0  0  0  0  0
   -0.6895   -9.5676   17.3297 C   0  0  0  0  0  0  0  0  0  0  0  0
    0.8388   -5.8417   27.5264 C   0  0  0  0  0  0  0  0  0  0  0  0
   -2.0709   -7.6637   18.7817 C   0  0  0  0  0  0  0  0  0  0  0  0
   -0.5279   -8.2168   17.0717 C   0  0  0  0  0  0  0  0  0  0  0  0
    6.9694   -4.0191   27.8190 C   0  0  0  0  0  0  0  0  0  0  0  0
    5.1733   -4.5469   29.8123 C   0  0  0  0  0  0  0  0  0  0  0  0
   -1.7508  -11.3016   18.6072 C   0  0  0  0  0  0  0  0  0  0  0  0
    1.7497   -5.6771   26.4971 C   0  0  0  0  0  0  0  0  0  0  0  0
   -1.5799   -9.9322   18.3468 C   0  0  0  0  0  0  0  0  0  0  0  0
   -1.0871  -12.2214   17.8851 C   0  0  0  0  0  0  0  0  0  0  0  0
   -2.2706   -8.9669   19.0691 C   0  0  0  0  0  0  0  0  0  0  0  0
    3.0279   -5.3073   26.8197 C   0  0  0  0  0  0  0  0  0  0  0  0
    7.3282   -3.8948   29.1186 C   0  0  0  0  0  0  0  0  0  0  0  0
  1  3  4  0
  1  7  4  0
  2  3  1  0
  2  6  4  0
  2 16  4  0
  3 22  4  0
  4  9  4  0
  4 10  1  0
  4 20  4  0
  5 16  4  0
  5 23  4  0
  6 15  4  0
  7 12  4  0
  8 13  4  0
  8 14  4  0
  9 11  4  0
 11 14  4  0
 11 19  4  0
 12 18  4  0
 13 21  4  0
 15 23  4  0
 17 19  4  0
 17 20  4  0
 18 22  4  0
 19 21  4  0
M  END
$$$$

 Created by Python create_sdf_string function

 23 25  0  0  0  0  0  0  0  0999 V2000
    2.4610   -5.3070   29.1240 C   0  0  0  0  0  0  0  0  0  0  0  0
    4.7710   -4.6952   28.4803 C   0  0  0  0  0  0  0  0  0  0  0  0
    3.4047   -5.1087   28.1314 C   0  0  0  0  0  0  0  0  0  0  0  0
   -0.2234  -11.8615   16.8874 C   0  0  0  0  0  0  0  0  0  0  0  0
    6.4491   -4.1532   30.1213 C   0  0  0  0  0  0  0  0  0  0  0  0
    5.7060   -4.4340   27.4975 C   0  0  0  0  0  0  0  0  0  0  0  0
    1.1818   -5.6612   28.8399 C   0  0  0  0  0  0  0  0  0  0  0  0
   -1.2067   -7.3287   17.7772 C   0  0  0  0  0  0  0  0  0  0  0  0
   -0.0206  -10.5585   16.6210 C   0  0  0  0  0  0  0  0  0  0  0  0
    0.3696  -12.7626   16.2169 O   0  0  0  0  0  0  0  0  0  0  0  0
   -0.6895   -9.5676   17.3297 C   0  0  0  0  0  0  0  0  0  0  0  0
    0.8388   -5.8417   27.5264 C   0  0  0  0  0  0  0  0  0  0  0  0
   -2.0709   -7.6637   18.7817 C   0  0  0  0  0  0  0  0  0  0  0  0
   -0.5279   -8.2168   17.0717 C   0  0  0  0  0  0  0  0  0  0  0  0
    6.9694   -4.0191   27.8190 C   0  0  0  0  0  0  0  0  0  0  0  0
    5.1733   -4.5469   29.8123 C   0  0  0  0  0  0  0  0  0  0  0  0
   -1.7508  -11.3016   18.6072 C   0  0  0  0  0  0  0  0  0  0  0  0
    1.7497   -5.6771   26.4971 C   0  0  0  0  0  0  0  0  0  0  0  0
   -1.5799   -9.9322   18.3468 C   0  0  0  0  0  0  0  0  0  0  0  0
   -1.0871  -12.2214   17.8851 C   0  0  0  0  0  0  0  0  0  0  0  0
   -2.2706   -8.9669   19.0691 C   0  0  0  0  0  0  0  0  0  0  0  0
    3.0279   -5.3073   26.8197 C   0  0  0  0  0  0  0  0  0  0  0  0
    7.3282   -3.8948   29.1186 C   0  0  0  0  0  0  0  0  0  0  0  0
  1  3  4  0
  1  7  4  0
  2  3  1  0
  2  6  4  0
  2 16  4  0
  3 22  4  0
  4  9  4  0
  4 10  1  0
  4 20  4  0
  5 16  4  0
  5 23  4  0
  6 15  4  0
  7 12  4  0
  8 13  4  0
  8 14  4  0
  9 11  4  0
 11 14  4  0
 11 19  4  0
 12 18  4  0
 13 21  4  0
 15 23  4  0
 17 19  4  0
 17 20  4  0
 18 22  4  0
 19 21  4  0
M  END
$$$$

 Created by Python create_sdf_string function

 23 25  0  0  0  0  0  0  0  0999 V2000
    2.4610   -5.3070   29.1240 C   0  0  0  0  0  0  0  0  0  0  0  0
    4.7710   -4.6952   28.4803 C   0  0  0  0  0  0  0  0  0  0  0  0
    3.4047   -5.1087   28.1314 C   0  0  0  0  0  0  0  0  0  0  0  0
   -0.2234  -11.8615   16.8874 C   0  0  0  0  0  0  0  0  0  0  0  0
    6.4491   -4.1532   30.1213 C   0  0  0  0  0  0  0  0  0  0  0  0
    5.7060   -4.4340   27.4975 C   0  0  0  0  0  0  0  0  0  0  0  0
    1.1818   -5.6612   28.8399 C   0  0  0  0  0  0  0  0  0  0  0  0
   -1.2067   -7.3287   17.7772 C   0  0  0  0  0  0  0  0  0  0  0  0
   -0.0206  -10.5585   16.6210 C   0  0  0  0  0  0  0  0  0  0  0  0
    0.3696  -12.7626   16.2169 O   0  0  0  0  0  0  0  0  0  0  0  0
   -0.6895   -9.5676   17.3297 C   0  0  0  0  0  0  0  0  0  0  0  0
    0.8388   -5.8417   27.5264 C   0  0  0  0  0  0  0  0  0  0  0  0
   -2.0709   -7.6637   18.7817 C   0  0  0  0  0  0  0  0  0  0  0  0
   -0.5279   -8.2168   17.0717 C   0  0  0  0  0  0  0  0  0  0  0  0
    6.9694   -4.0191   27.8190 C   0  0  0  0  0  0  0  0  0  0  0  0
    5.1733   -4.5469   29.8123 C   0  0  0  0  0  0  0  0  0  0  0  0
   -1.7508  -11.3016   18.6072 C   0  0  0  0  0  0  0  0  0  0  0  0
    1.7497   -5.6771   26.4971 C   0  0  0  0  0  0  0  0  0  0  0  0
   -1.5799   -9.9322   18.3468 C   0  0  0  0  0  0  0  0  0  0  0  0
   -1.0871  -12.2214   17.8851 C   0  0  0  0  0  0  0  0  0  0  0  0
   -2.2706   -8.9669   19.0691 C   0  0  0  0  0  0  0  0  0  0  0  0
    3.0279   -5.3073   26.8197 C   0  0  0  0  0  0  0  0  0  0  0  0
    7.3282   -3.8948   29.1186 C   0  0  0  0  0  0  0  0  0  0  0  0
  1  3  4  0
  1  7  4  0
  2  3  1  0
  2  6  4  0
  2 16  4  0
  3 22  4  0
  4  9  4  0
  4 10  1  0
  4 20  4  0
  5 16  4  0
  5 23  4  0
  6 15  4  0
  7 12  4  0
  8 13  4  0
  8 14  4  0
  9 11  4  0
 11 14  4  0
 11 19  4  0
 12 18  4  0
 13 21  4  0
 15 23  4  0
 17 19  4  0
 17 20  4  0
 18 22  4  0
 19 21  4  0
M  END
$$$$

 Created by Python create_sdf_string function

 23 25  0  0  0  0  0  0  0  0999 V2000
    2.4610   -5.3070   29.1240 C   0  0  0  0  0  0  0  0  0  0  0  0
    4.7710   -4.6952   28.4803 C   0  0  0  0  0  0  0  0  0  0  0  0
    3.4047   -5.1087   28.1314 C   0  0  0  0  0  0  0  0  0  0  0  0
   -0.2234  -11.8615   16.8874 C   0  0  0  0  0  0  0  0  0  0  0  0
    6.4491   -4.1532   30.1213 C   0  0  0  0  0  0  0  0  0  0  0  0
    5.7060   -4.4340   27.4975 C   0  0  0  0  0  0  0  0  0  0  0  0
    1.1818   -5.6612   28.8399 C   0  0  0  0  0  0  0  0  0  0  0  0
   -1.2067   -7.3287   17.7772 C   0  0  0  0  0  0  0  0  0  0  0  0
   -0.0206  -10.5585   16.6210 C   0  0  0  0  0  0  0  0  0  0  0  0
    0.3696  -12.7626   16.2169 O   0  0  0  0  0  0  0  0  0  0  0  0
   -0.6895   -9.5676   17.3297 C   0  0  0  0  0  0  0  0  0  0  0  0
    0.8388   -5.8417   27.5264 C   0  0  0  0  0  0  0  0  0  0  0  0
   -2.0709   -7.6637   18.7817 C   0  0  0  0  0  0  0  0  0  0  0  0
   -0.5279   -8.2168   17.0717 C   0  0  0  0  0  0  0  0  0  0  0  0
    6.9694   -4.0191   27.8190 C   0  0  0  0  0  0  0  0  0  0  0  0
    5.1733   -4.5469   29.8123 C   0  0  0  0  0  0  0  0  0  0  0  0
   -1.7508  -11.3016   18.6072 C   0  0  0  0  0  0  0  0  0  0  0  0
    1.7497   -5.6771   26.4971 C   0  0  0  0  0  0  0  0  0  0  0  0
   -1.5799   -9.9322   18.3468 C   0  0  0  0  0  0  0  0  0  0  0  0
   -1.0871  -12.2214   17.8851 C   0  0  0  0  0  0  0  0  0  0  0  0
   -2.2706   -8.9669   19.0691 C   0  0  0  0  0  0  0  0  0  0  0  0
    3.0279   -5.3073   26.8197 C   0  0  0  0  0  0  0  0  0  0  0  0
    7.3282   -3.8948   29.1186 C   0  0  0  0  0  0  0  0  0  0  0  0
  1  3  4  0
  1  7  4  0
  2  3  1  0
  2  6  4  0
  2 16  4  0
  3 22  4  0
  4  9  4  0
  4 10  1  0
  4 20  4  0
  5 16  4  0
  5 23  4  0
  6 15  4  0
  7 12  4  0
  8 13  4  0
  8 14  4  0
  9 11  4  0
 11 14  4  0
 11 19  4  0
 12 18  4  0
 13 21  4  0
 15 23  4  0
 17 19  4  0
 17 20  4  0
 18 22  4  0
 19 21  4  0
M  END
$$$$

 Created by Python create_sdf_string function

 23 25  0  0  0  0  0  0  0  0999 V2000
    2.4610   -5.3070   29.1240 C   0  0  0  0  0  0  0  0  0  0  0  0
    4.7710   -4.6952   28.4803 C   0  0  0  0  0  0  0  0  0  0  0  0
    3.4047   -5.1087   28.1314 C   0  0  0  0  0  0  0  0  0  0  0  0
   -0.2234  -11.8615   16.8874 C   0  0  0  0  0  0  0  0  0  0  0  0
    6.4491   -4.1532   30.1213 C   0  0  0  0  0  0  0  0  0  0  0  0
    5.7060   -4.4340   27.4975 C   0  0  0  0  0  0  0  0  0  0  0  0
    1.1818   -5.6612   28.8399 C   0  0  0  0  0  0  0  0  0  0  0  0
   -1.2067   -7.3287   17.7772 C   0  0  0  0  0  0  0  0  0  0  0  0
   -0.0206  -10.5585   16.6210 C   0  0  0  0  0  0  0  0  0  0  0  0
    0.3696  -12.7626   16.2169 O   0  0  0  0  0  0  0  0  0  0  0  0
   -0.6895   -9.5676   17.3297 C   0  0  0  0  0  0  0  0  0  0  0  0
    0.8388   -5.8417   27.5264 C   0  0  0  0  0  0  0  0  0  0  0  0
   -2.0709   -7.6637   18.7817 C   0  0  0  0  0  0  0  0  0  0  0  0
   -0.5279   -8.2168   17.0717 C   0  0  0  0  0  0  0  0  0  0  0  0
    6.9694   -4.0191   27.8190 C   0  0  0  0  0  0  0  0  0  0  0  0
    5.1733   -4.5469   29.8123 C   0  0  0  0  0  0  0  0  0  0  0  0
   -1.7508  -11.3016   18.6072 C   0  0  0  0  0  0  0  0  0  0  0  0
    1.7497   -5.6771   26.4971 C   0  0  0  0  0  0  0  0  0  0  0  0
   -1.5799   -9.9322   18.3468 C   0  0  0  0  0  0  0  0  0  0  0  0
   -1.0871  -12.2214   17.8851 C   0  0  0  0  0  0  0  0  0  0  0  0
   -2.2706   -8.9669   19.0691 C   0  0  0  0  0  0  0  0  0  0  0  0
    3.0279   -5.3073   26.8197 C   0  0  0  0  0  0  0  0  0  0  0  0
    7.3282   -3.8948   29.1186 C   0  0  0  0  0  0  0  0  0  0  0  0
  1  3  4  0
  1  7  4  0
  2  3  1  0
  2  6  4  0
  2 16  4  0
  3 22  4  0
  4  9  4  0
  4 10  1  0
  4 20  4  0
  5 16  4  0
  5 23  4  0
  6 15  4  0
  7 12  4  0
  8 13  4  0
  8 14  4  0
  9 11  4  0
 11 14  4  0
 11 19  4  0
 12 18  4  0
 13 21  4  0
 15 23  4  0
 17 19  4  0
 17 20  4  0
 18 22  4  0
 19 21  4  0
M  END
$$$$

 Created by Python create_sdf_string function

 23 25  0  0  0  0  0  0  0  0999 V2000
    2.4610   -5.3070   29.1240 C   0  0  0  0  0  0  0  0  0  0  0  0
    4.7710   -4.6952   28.4803 C   0  0  0  0  0  0  0  0  0  0  0  0
    3.4047   -5.1087   28.1314 C   0  0  0  0  0  0  0  0  0  0  0  0
   -0.2234  -11.8615   16.8874 C   0  0  0  0  0  0  0  0  0  0  0  0
    6.4491   -4.1532   30.1213 C   0  0  0  0  0  0  0  0  0  0  0  0
    5.7060   -4.4340   27.4975 C   0  0  0  0  0  0  0  0  0  0  0  0
    1.1818   -5.6612   28.8399 C   0  0  0  0  0  0  0  0  0  0  0  0
   -1.2067   -7.3287   17.7772 C   0  0  0  0  0  0  0  0  0  0  0  0
   -0.0206  -10.5585   16.6210 C   0  0  0  0  0  0  0  0  0  0  0  0
    0.3696  -12.7626   16.2169 O   0  0  0  0  0  0  0  0  0  0  0  0
   -0.6895   -9.5676   17.3297 C   0  0  0  0  0  0  0  0  0  0  0  0
    0.8388   -5.8417   27.5264 C   0  0  0  0  0  0  0  0  0  0  0  0
   -2.0709   -7.6637   18.7817 C   0  0  0  0  0  0  0  0  0  0  0  0
   -0.5279   -8.2168   17.0717 C   0  0  0  0  0  0  0  0  0  0  0  0
    6.9694   -4.0191   27.8190 C   0  0  0  0  0  0  0  0  0  0  0  0
    5.1733   -4.5469   29.8123 C   0  0  0  0  0  0  0  0  0  0  0  0
   -1.7508  -11.3016   18.6072 C   0  0  0  0  0  0  0  0  0  0  0  0
    1.7497   -5.6771   26.4971 C   0  0  0  0  0  0  0  0  0  0  0  0
   -1.5799   -9.9322   18.3468 C   0  0  0  0  0  0  0  0  0  0  0  0
   -1.0871  -12.2214   17.8851 C   0  0  0  0  0  0  0  0  0  0  0  0
   -2.2706   -8.9669   19.0691 C   0  0  0  0  0  0  0  0  0  0  0  0
    3.0279   -5.3073   26.8197 C   0  0  0  0  0  0  0  0  0  0  0  0
    7.3282   -3.8948   29.1186 C   0  0  0  0  0  0  0  0  0  0  0  0
  1  3  4  0
  1  7  4  0
  2  3  1  0
  2  6  4  0
  2 16  4  0
  3 22  4  0
  4  9  4  0
  4 10  1  0
  4 20  4  0
  5 16  4  0
  5 23  4  0
  6 15  4  0
  7 12  4  0
  8 13  4  0
  8 14  4  0
  9 11  4  0
 11 14  4  0
 11 19  4  0
 12 18  4  0
 13 21  4  0
 15 23  4  0
 17 19  4  0
 17 20  4  0
 18 22  4  0
 19 21  4  0
M  END
$$$$

 Created by Python create_sdf_string function

 23 25  0  0  0  0  0  0  0  0999 V2000
    2.4610   -5.3070   29.1240 C   0  0  0  0  0  0  0  0  0  0  0  0
    4.7710   -4.6952   28.4803 C   0  0  0  0  0  0  0  0  0  0  0  0
    3.4047   -5.1087   28.1314 C   0  0  0  0  0  0  0  0  0  0  0  0
   -0.2234  -11.8615   16.8874 C   0  0  0  0  0  0  0  0  0  0  0  0
    6.4491   -4.1532   30.1213 C   0  0  0  0  0  0  0  0  0  0  0  0
    5.7060   -4.4340   27.4975 C   0  0  0  0  0  0  0  0  0  0  0  0
    1.1818   -5.6612   28.8399 C   0  0  0  0  0  0  0  0  0  0  0  0
   -1.2067   -7.3287   17.7772 C   0  0  0  0  0  0  0  0  0  0  0  0
   -0.0206  -10.5585   16.6210 C   0  0  0  0  0  0  0  0  0  0  0  0
    0.3696  -12.7626   16.2169 O   0  0  0  0  0  0  0  0  0  0  0  0
   -0.6895   -9.5676   17.3297 C   0  0  0  0  0  0  0  0  0  0  0  0
    0.8388   -5.8417   27.5264 C   0  0  0  0  0  0  0  0  0  0  0  0
   -2.0709   -7.6637   18.7817 C   0  0  0  0  0  0  0  0  0  0  0  0
   -0.5279   -8.2168   17.0717 C   0  0  0  0  0  0  0  0  0  0  0  0
    6.9694   -4.0191   27.8190 C   0  0  0  0  0  0  0  0  0  0  0  0
    5.1733   -4.5469   29.8123 C   0  0  0  0  0  0  0  0  0  0  0  0
   -1.7508  -11.3016   18.6072 C   0  0  0  0  0  0  0  0  0  0  0  0
    1.7497   -5.6771   26.4971 C   0  0  0  0  0  0  0  0  0  0  0  0
   -1.5799   -9.9322   18.3468 C   0  0  0  0  0  0  0  0  0  0  0  0
   -1.0871  -12.2214   17.8851 C   0  0  0  0  0  0  0  0  0  0  0  0
   -2.2706   -8.9669   19.0691 C   0  0  0  0  0  0  0  0  0  0  0  0
    3.0279   -5.3073   26.8197 C   0  0  0  0  0  0  0  0  0  0  0  0
    7.3282   -3.8948   29.1186 C   0  0  0  0  0  0  0  0  0  0  0  0
  1  3  4  0
  1  7  4  0
  2  3  1  0
  2  6  4  0
  2 16  4  0
  3 22  4  0
  4  9  4  0
  4 10  1  0
  4 20  4  0
  5 16  4  0
  5 23  4  0
  6 15  4  0
  7 12  4  0
  8 13  4  0
  8 14  4  0
  9 11  4  0
 11 14  4  0
 11 19  4  0
 12 18  4  0
 13 21  4  0
 15 23  4  0
 17 19  4  0
 17 20  4  0
 18 22  4  0
 19 21  4  0
M  END
$$$$

 Created by Python create_sdf_string function

 23 25  0  0  0  0  0  0  0  0999 V2000
    2.4610   -5.3070   29.1240 C   0  0  0  0  0  0  0  0  0  0  0  0
    4.7710   -4.6952   28.4803 C   0  0  0  0  0  0  0  0  0  0  0  0
    3.4047   -5.1087   28.1314 C   0  0  0  0  0  0  0  0  0  0  0  0
   -0.2234  -11.8615   16.8874 C   0  0  0  0  0  0  0  0  0  0  0  0
    6.4491   -4.1532   30.1213 C   0  0  0  0  0  0  0  0  0  0  0  0
    5.7060   -4.4340   27.4975 C   0  0  0  0  0  0  0  0  0  0  0  0
    1.1818   -5.6612   28.8399 C   0  0  0  0  0  0  0  0  0  0  0  0
   -1.2067   -7.3287   17.7772 C   0  0  0  0  0  0  0  0  0  0  0  0
   -0.0206  -10.5585   16.6210 C   0  0  0  0  0  0  0  0  0  0  0  0
    0.3696  -12.7626   16.2169 O   0  0  0  0  0  0  0  0  0  0  0  0
   -0.6895   -9.5676   17.3297 C   0  0  0  0  0  0  0  0  0  0  0  0
    0.8388   -5.8417   27.5264 C   0  0  0  0  0  0  0  0  0  0  0  0
   -2.0709   -7.6637   18.7817 C   0  0  0  0  0  0  0  0  0  0  0  0
   -0.5279   -8.2168   17.0717 C   0  0  0  0  0  0  0  0  0  0  0  0
    6.9694   -4.0191   27.8190 C   0  0  0  0  0  0  0  0  0  0  0  0
    5.1733   -4.5469   29.8123 C   0  0  0  0  0  0  0  0  0  0  0  0
   -1.7508  -11.3016   18.6072 C   0  0  0  0  0  0  0  0  0  0  0  0
    1.7497   -5.6771   26.4971 C   0  0  0  0  0  0  0  0  0  0  0  0
   -1.5799   -9.9322   18.3468 C   0  0  0  0  0  0  0  0  0  0  0  0
   -1.0871  -12.2214   17.8851 C   0  0  0  0  0  0  0  0  0  0  0  0
   -2.2706   -8.9669   19.0691 C   0  0  0  0  0  0  0  0  0  0  0  0
    3.0279   -5.3073   26.8197 C   0  0  0  0  0  0  0  0  0  0  0  0
    7.3282   -3.8948   29.1186 C   0  0  0  0  0  0  0  0  0  0  0  0
  1  3  4  0
  1  7  4  0
  2  3  1  0
  2  6  4  0
  2 16  4  0
  3 22  4  0
  4  9  4  0
  4 10  1  0
  4 20  4  0
  5 16  4  0
  5 23  4  0
  6 15  4  0
  7 12  4  0
  8 13  4  0
  8 14  4  0
  9 11  4  0
 11 14  4  0
 11 19  4  0
 12 18  4  0
 13 21  4  0
 15 23  4  0
 17 19  4  0
 17 20  4  0
 18 22  4  0
 19 21  4  0
M  END
$$$$

 Created by Python create_sdf_string function

 23 25  0  0  0  0  0  0  0  0999 V2000
    2.4610   -5.3070   29.1240 C   0  0  0  0  0  0  0  0  0  0  0  0
    4.7710   -4.6952   28.4803 C   0  0  0  0  0  0  0  0  0  0  0  0
    3.4047   -5.1087   28.1314 C   0  0  0  0  0  0  0  0  0  0  0  0
   -0.2234  -11.8615   16.8874 C   0  0  0  0  0  0  0  0  0  0  0  0
    6.4491   -4.1532   30.1213 C   0  0  0  0  0  0  0  0  0  0  0  0
    5.7060   -4.4340   27.4975 C   0  0  0  0  0  0  0  0  0  0  0  0
    1.1818   -5.6612   28.8399 C   0  0  0  0  0  0  0  0  0  0  0  0
   -1.2067   -7.3287   17.7772 C   0  0  0  0  0  0  0  0  0  0  0  0
   -0.0206  -10.5585   16.6210 C   0  0  0  0  0  0  0  0  0  0  0  0
    0.3696  -12.7626   16.2169 O   0  0  0  0  0  0  0  0  0  0  0  0
   -0.6895   -9.5676   17.3297 C   0  0  0  0  0  0  0  0  0  0  0  0
    0.8388   -5.8417   27.5264 C   0  0  0  0  0  0  0  0  0  0  0  0
   -2.0709   -7.6637   18.7817 C   0  0  0  0  0  0  0  0  0  0  0  0
   -0.5279   -8.2168   17.0717 C   0  0  0  0  0  0  0  0  0  0  0  0
    6.9694   -4.0191   27.8190 C   0  0  0  0  0  0  0  0  0  0  0  0
    5.1733   -4.5469   29.8123 C   0  0  0  0  0  0  0  0  0  0  0  0
   -1.7508  -11.3016   18.6072 C   0  0  0  0  0  0  0  0  0  0  0  0
    1.7497   -5.6771   26.4971 C   0  0  0  0  0  0  0  0  0  0  0  0
   -1.5799   -9.9322   18.3468 C   0  0  0  0  0  0  0  0  0  0  0  0
   -1.0871  -12.2214   17.8851 C   0  0  0  0  0  0  0  0  0  0  0  0
   -2.2706   -8.9669   19.0691 C   0  0  0  0  0  0  0  0  0  0  0  0
    3.0279   -5.3073   26.8197 C   0  0  0  0  0  0  0  0  0  0  0  0
    7.3282   -3.8948   29.1186 C   0  0  0  0  0  0  0  0  0  0  0  0
  1  3  4  0
  1  7  4  0
  2  3  1  0
  2  6  4  0
  2 16  4  0
  3 22  4  0
  4  9  4  0
  4 10  1  0
  4 20  4  0
  5 16  4  0
  5 23  4  0
  6 15  4  0
  7 12  4  0
  8 13  4  0
  8 14  4  0
  9 11  4  0
 11 14  4  0
 11 19  4  0
 12 18  4  0
 13 21  4  0
 15 23  4  0
 17 19  4  0
 17 20  4  0
 18 22  4  0
 19 21  4  0
M  END
$$$$

 Created by Python create_sdf_string function

 23 25  0  0  0  0  0  0  0  0999 V2000
    2.4610   -5.3070   29.1240 C   0  0  0  0  0  0  0  0  0  0  0  0
    4.7710   -4.6952   28.4803 C   0  0  0  0  0  0  0  0  0  0  0  0
    3.4047   -5.1087   28.1314 C   0  0  0  0  0  0  0  0  0  0  0  0
   -0.2234  -11.8615   16.8874 C   0  0  0  0  0  0  0  0  0  0  0  0
    6.4491   -4.1532   30.1213 C   0  0  0  0  0  0  0  0  0  0  0  0
    5.7060   -4.4340   27.4975 C   0  0  0  0  0  0  0  0  0  0  0  0
    1.1818   -5.6612   28.8399 C   0  0  0  0  0  0  0  0  0  0  0  0
   -1.2067   -7.3287   17.7772 C   0  0  0  0  0  0  0  0  0  0  0  0
   -0.0206  -10.5585   16.6210 C   0  0  0  0  0  0  0  0  0  0  0  0
    0.3696  -12.7626   16.2169 O   0  0  0  0  0  0  0  0  0  0  0  0
   -0.6895   -9.5676   17.3297 C   0  0  0  0  0  0  0  0  0  0  0  0
    0.8388   -5.8417   27.5264 C   0  0  0  0  0  0  0  0  0  0  0  0
   -2.0709   -7.6637   18.7817 C   0  0  0  0  0  0  0  0  0  0  0  0
   -0.5279   -8.2168   17.0717 C   0  0  0  0  0  0  0  0  0  0  0  0
    6.9694   -4.0191   27.8190 C   0  0  0  0  0  0  0  0  0  0  0  0
    5.1733   -4.5469   29.8123 C   0  0  0  0  0  0  0  0  0  0  0  0
   -1.7508  -11.3016   18.6072 C   0  0  0  0  0  0  0  0  0  0  0  0
    1.7497   -5.6771   26.4971 C   0  0  0  0  0  0  0  0  0  0  0  0
   -1.5799   -9.9322   18.3468 C   0  0  0  0  0  0  0  0  0  0  0  0
   -1.0871  -12.2214   17.8851 C   0  0  0  0  0  0  0  0  0  0  0  0
   -2.2706   -8.9669   19.0691 C   0  0  0  0  0  0  0  0  0  0  0  0
    3.0279   -5.3073   26.8197 C   0  0  0  0  0  0  0  0  0  0  0  0
    7.3282   -3.8948   29.1186 C   0  0  0  0  0  0  0  0  0  0  0  0
  1  3  4  0
  1  7  4  0
  2  3  1  0
  2  6  4  0
  2 16  4  0
  3 22  4  0
  4  9  4  0
  4 10  1  0
  4 20  4  0
  5 16  4  0
  5 23  4  0
  6 15  4  0
  7 12  4  0
  8 13  4  0
  8 14  4  0
  9 11  4  0
 11 14  4  0
 11 19  4  0
 12 18  4  0
 13 21  4  0
 15 23  4  0
 17 19  4  0
 17 20  4  0
 18 22  4  0
 19 21  4  0
M  END
$$$$

 Created by Python create_sdf_string function

 23 25  0  0  0  0  0  0  0  0999 V2000
    2.4610   -5.3070   29.1240 C   0  0  0  0  0  0  0  0  0  0  0  0
    4.7710   -4.6952   28.4803 C   0  0  0  0  0  0  0  0  0  0  0  0
    3.4047   -5.1087   28.1314 C   0  0  0  0  0  0  0  0  0  0  0  0
   -0.2234  -11.8615   16.8874 C   0  0  0  0  0  0  0  0  0  0  0  0
    6.4491   -4.1532   30.1213 C   0  0  0  0  0  0  0  0  0  0  0  0
    5.7060   -4.4340   27.4975 C   0  0  0  0  0  0  0  0  0  0  0  0
    1.1818   -5.6612   28.8399 C   0  0  0  0  0  0  0  0  0  0  0  0
   -1.2067   -7.3287   17.7772 C   0  0  0  0  0  0  0  0  0  0  0  0
   -0.0206  -10.5585   16.6210 C   0  0  0  0  0  0  0  0  0  0  0  0
    0.3696  -12.7626   16.2169 O   0  0  0  0  0  0  0  0  0  0  0  0
   -0.6895   -9.5676   17.3297 C   0  0  0  0  0  0  0  0  0  0  0  0
    0.8388   -5.8417   27.5264 C   0  0  0  0  0  0  0  0  0  0  0  0
   -2.0709   -7.6637   18.7817 C   0  0  0  0  0  0  0  0  0  0  0  0
   -0.5279   -8.2168   17.0717 C   0  0  0  0  0  0  0  0  0  0  0  0
    6.9694   -4.0191   27.8190 C   0  0  0  0  0  0  0  0  0  0  0  0
    5.1733   -4.5469   29.8123 C   0  0  0  0  0  0  0  0  0  0  0  0
   -1.7508  -11.3016   18.6072 C   0  0  0  0  0  0  0  0  0  0  0  0
    1.7497   -5.6771   26.4971 C   0  0  0  0  0  0  0  0  0  0  0  0
   -1.5799   -9.9322   18.3468 C   0  0  0  0  0  0  0  0  0  0  0  0
   -1.0871  -12.2214   17.8851 C   0  0  0  0  0  0  0  0  0  0  0  0
   -2.2706   -8.9669   19.0691 C   0  0  0  0  0  0  0  0  0  0  0  0
    3.0279   -5.3073   26.8197 C   0  0  0  0  0  0  0  0  0  0  0  0
    7.3282   -3.8948   29.1186 C   0  0  0  0  0  0  0  0  0  0  0  0
  1  3  4  0
  1  7  4  0
  2  3  1  0
  2  6  4  0
  2 16  4  0
  3 22  4  0
  4  9  4  0
  4 10  1  0
  4 20  4  0
  5 16  4  0
  5 23  4  0
  6 15  4  0
  7 12  4  0
  8 13  4  0
  8 14  4  0
  9 11  4  0
 11 14  4  0
 11 19  4  0
 12 18  4  0
 13 21  4  0
 15 23  4  0
 17 19  4  0
 17 20  4  0
 18 22  4  0
 19 21  4  0
M  END
$$$$

 Created by Python create_sdf_string function

 23 25  0  0  0  0  0  0  0  0999 V2000
    2.4610   -5.3070   29.1240 C   0  0  0  0  0  0  0  0  0  0  0  0
    4.7710   -4.6952   28.4803 C   0  0  0  0  0  0  0  0  0  0  0  0
    3.4047   -5.1087   28.1314 C   0  0  0  0  0  0  0  0  0  0  0  0
   -0.2234  -11.8615   16.8874 C   0  0  0  0  0  0  0  0  0  0  0  0
    6.4491   -4.1532   30.1213 C   0  0  0  0  0  0  0  0  0  0  0  0
    5.7060   -4.4340   27.4975 C   0  0  0  0  0  0  0  0  0  0  0  0
    1.1818   -5.6612   28.8399 C   0  0  0  0  0  0  0  0  0  0  0  0
   -1.2067   -7.3287   17.7772 C   0  0  0  0  0  0  0  0  0  0  0  0
   -0.0206  -10.5585   16.6210 C   0  0  0  0  0  0  0  0  0  0  0  0
    0.3696  -12.7626   16.2169 O   0  0  0  0  0  0  0  0  0  0  0  0
   -0.6895   -9.5676   17.3297 C   0  0  0  0  0  0  0  0  0  0  0  0
    0.8388   -5.8417   27.5264 C   0  0  0  0  0  0  0  0  0  0  0  0
   -2.0709   -7.6637   18.7817 C   0  0  0  0  0  0  0  0  0  0  0  0
   -0.5279   -8.2168   17.0717 C   0  0  0  0  0  0  0  0  0  0  0  0
    6.9694   -4.0191   27.8190 C   0  0  0  0  0  0  0  0  0  0  0  0
    5.1733   -4.5469   29.8123 C   0  0  0  0  0  0  0  0  0  0  0  0
   -1.7508  -11.3016   18.6072 C   0  0  0  0  0  0  0  0  0  0  0  0
    1.7497   -5.6771   26.4971 C   0  0  0  0  0  0  0  0  0  0  0  0
   -1.5799   -9.9322   18.3468 C   0  0  0  0  0  0  0  0  0  0  0  0
   -1.0871  -12.2214   17.8851 C   0  0  0  0  0  0  0  0  0  0  0  0
   -2.2706   -8.9669   19.0691 C   0  0  0  0  0  0  0  0  0  0  0  0
    3.0279   -5.3073   26.8197 C   0  0  0  0  0  0  0  0  0  0  0  0
    7.3282   -3.8948   29.1186 C   0  0  0  0  0  0  0  0  0  0  0  0
  1  3  4  0
  1  7  4  0
  2  3  1  0
  2  6  4  0
  2 16  4  0
  3 22  4  0
  4  9  4  0
  4 10  1  0
  4 20  4  0
  5 16  4  0
  5 23  4  0
  6 15  4  0
  7 12  4  0
  8 13  4  0
  8 14  4  0
  9 11  4  0
 11 14  4  0
 11 19  4  0
 12 18  4  0
 13 21  4  0
 15 23  4  0
 17 19  4  0
 17 20  4  0
 18 22  4  0
 19 21  4  0
M  END
$$$$

 Created by Python create_sdf_string function

 23 25  0  0  0  0  0  0  0  0999 V2000
    2.4610   -5.3070   29.1240 C   0  0  0  0  0  0  0  0  0  0  0  0
    4.7710   -4.6952   28.4803 C   0  0  0  0  0  0  0  0  0  0  0  0
    3.4047   -5.1087   28.1314 C   0  0  0  0  0  0  0  0  0  0  0  0
   -0.2234  -11.8615   16.8874 C   0  0  0  0  0  0  0  0  0  0  0  0
    6.4491   -4.1532   30.1213 C   0  0  0  0  0  0  0  0  0  0  0  0
    5.7060   -4.4340   27.4975 C   0  0  0  0  0  0  0  0  0  0  0  0
    1.1818   -5.6612   28.8399 C   0  0  0  0  0  0  0  0  0  0  0  0
   -1.2067   -7.3287   17.7772 C   0  0  0  0  0  0  0  0  0  0  0  0
   -0.0206  -10.5585   16.6210 C   0  0  0  0  0  0  0  0  0  0  0  0
    0.3696  -12.7626   16.2169 O   0  0  0  0  0  0  0  0  0  0  0  0
   -0.6895   -9.5676   17.3297 C   0  0  0  0  0  0  0  0  0  0  0  0
    0.8388   -5.8417   27.5264 C   0  0  0  0  0  0  0  0  0  0  0  0
   -2.0709   -7.6637   18.7817 C   0  0  0  0  0  0  0  0  0  0  0  0
   -0.5279   -8.2168   17.0717 C   0  0  0  0  0  0  0  0  0  0  0  0
    6.9694   -4.0191   27.8190 C   0  0  0  0  0  0  0  0  0  0  0  0
    5.1733   -4.5469   29.8123 C   0  0  0  0  0  0  0  0  0  0  0  0
   -1.7508  -11.3016   18.6072 C   0  0  0  0  0  0  0  0  0  0  0  0
    1.7497   -5.6771   26.4971 C   0  0  0  0  0  0  0  0  0  0  0  0
   -1.5799   -9.9322   18.3468 C   0  0  0  0  0  0  0  0  0  0  0  0
   -1.0871  -12.2214   17.8851 C   0  0  0  0  0  0  0  0  0  0  0  0
   -2.2706   -8.9669   19.0691 C   0  0  0  0  0  0  0  0  0  0  0  0
    3.0279   -5.3073   26.8197 C   0  0  0  0  0  0  0  0  0  0  0  0
    7.3282   -3.8948   29.1186 C   0  0  0  0  0  0  0  0  0  0  0  0
  1  3  4  0
  1  7  4  0
  2  3  1  0
  2  6  4  0
  2 16  4  0
  3 22  4  0
  4  9  4  0
  4 10  1  0
  4 20  4  0
  5 16  4  0
  5 23  4  0
  6 15  4  0
  7 12  4  0
  8 13  4  0
  8 14  4  0
  9 11  4  0
 11 14  4  0
 11 19  4  0
 12 18  4  0
 13 21  4  0
 15 23  4  0
 17 19  4  0
 17 20  4  0
 18 22  4  0
 19 21  4  0
M  END
$$$$

 Created by Python create_sdf_string function

 23 25  0  0  0  0  0  0  0  0999 V2000
    2.4610   -5.3070   29.1240 C   0  0  0  0  0  0  0  0  0  0  0  0
    4.7710   -4.6952   28.4803 C   0  0  0  0  0  0  0  0  0  0  0  0
    3.4047   -5.1087   28.1314 C   0  0  0  0  0  0  0  0  0  0  0  0
   -0.2234  -11.8615   16.8874 C   0  0  0  0  0  0  0  0  0  0  0  0
    6.4491   -4.1532   30.1213 C   0  0  0  0  0  0  0  0  0  0  0  0
    5.7060   -4.4340   27.4975 C   0  0  0  0  0  0  0  0  0  0  0  0
    1.1818   -5.6612   28.8399 C   0  0  0  0  0  0  0  0  0  0  0  0
   -1.2067   -7.3287   17.7772 C   0  0  0  0  0  0  0  0  0  0  0  0
   -0.0206  -10.5585   16.6210 C   0  0  0  0  0  0  0  0  0  0  0  0
    0.3696  -12.7626   16.2169 O   0  0  0  0  0  0  0  0  0  0  0  0
   -0.6895   -9.5676   17.3297 C   0  0  0  0  0  0  0  0  0  0  0  0
    0.8388   -5.8417   27.5264 C   0  0  0  0  0  0  0  0  0  0  0  0
   -2.0709   -7.6637   18.7817 C   0  0  0  0  0  0  0  0  0  0  0  0
   -0.5279   -8.2168   17.0717 C   0  0  0  0  0  0  0  0  0  0  0  0
    6.9694   -4.0191   27.8190 C   0  0  0  0  0  0  0  0  0  0  0  0
    5.1733   -4.5469   29.8123 C   0  0  0  0  0  0  0  0  0  0  0  0
   -1.7508  -11.3016   18.6072 C   0  0  0  0  0  0  0  0  0  0  0  0
    1.7497   -5.6771   26.4971 C   0  0  0  0  0  0  0  0  0  0  0  0
   -1.5799   -9.9322   18.3468 C   0  0  0  0  0  0  0  0  0  0  0  0
   -1.0871  -12.2214   17.8851 C   0  0  0  0  0  0  0  0  0  0  0  0
   -2.2706   -8.9669   19.0691 C   0  0  0  0  0  0  0  0  0  0  0  0
    3.0279   -5.3073   26.8197 C   0  0  0  0  0  0  0  0  0  0  0  0
    7.3282   -3.8948   29.1186 C   0  0  0  0  0  0  0  0  0  0  0  0
  1  3  4  0
  1  7  4  0
  2  3  1  0
  2  6  4  0
  2 16  4  0
  3 22  4  0
  4  9  4  0
  4 10  1  0
  4 20  4  0
  5 16  4  0
  5 23  4  0
  6 15  4  0
  7 12  4  0
  8 13  4  0
  8 14  4  0
  9 11  4  0
 11 14  4  0
 11 19  4  0
 12 18  4  0
 13 21  4  0
 15 23  4  0
 17 19  4  0
 17 20  4  0
 18 22  4  0
 19 21  4  0
M  END
$$$$

 Created by Python create_sdf_string function

 23 25  0  0  0  0  0  0  0  0999 V2000
    2.4610   -5.3070   29.1240 C   0  0  0  0  0  0  0  0  0  0  0  0
    4.7710   -4.6952   28.4803 C   0  0  0  0  0  0  0  0  0  0  0  0
    3.4047   -5.1087   28.1314 C   0  0  0  0  0  0  0  0  0  0  0  0
   -0.2234  -11.8615   16.8874 C   0  0  0  0  0  0  0  0  0  0  0  0
    6.4491   -4.1532   30.1213 C   0  0  0  0  0  0  0  0  0  0  0  0
    5.7060   -4.4340   27.4975 C   0  0  0  0  0  0  0  0  0  0  0  0
    1.1818   -5.6612   28.8399 C   0  0  0  0  0  0  0  0  0  0  0  0
   -1.2067   -7.3287   17.7772 C   0  0  0  0  0  0  0  0  0  0  0  0
   -0.0206  -10.5585   16.6210 C   0  0  0  0  0  0  0  0  0  0  0  0
    0.3696  -12.7626   16.2169 O   0  0  0  0  0  0  0  0  0  0  0  0
   -0.6895   -9.5676   17.3297 C   0  0  0  0  0  0  0  0  0  0  0  0
    0.8388   -5.8417   27.5264 C   0  0  0  0  0  0  0  0  0  0  0  0
   -2.0709   -7.6637   18.7817 C   0  0  0  0  0  0  0  0  0  0  0  0
   -0.5279   -8.2168   17.0717 C   0  0  0  0  0  0  0  0  0  0  0  0
    6.9694   -4.0191   27.8190 C   0  0  0  0  0  0  0  0  0  0  0  0
    5.1733   -4.5469   29.8123 C   0  0  0  0  0  0  0  0  0  0  0  0
   -1.7508  -11.3016   18.6072 C   0  0  0  0  0  0  0  0  0  0  0  0
    1.7497   -5.6771   26.4971 C   0  0  0  0  0  0  0  0  0  0  0  0
   -1.5799   -9.9322   18.3468 C   0  0  0  0  0  0  0  0  0  0  0  0
   -1.0871  -12.2214   17.8851 C   0  0  0  0  0  0  0  0  0  0  0  0
   -2.2706   -8.9669   19.0691 C   0  0  0  0  0  0  0  0  0  0  0  0
    3.0279   -5.3073   26.8197 C   0  0  0  0  0  0  0  0  0  0  0  0
    7.3282   -3.8948   29.1186 C   0  0  0  0  0  0  0  0  0  0  0  0
  1  3  4  0
  1  7  4  0
  2  3  1  0
  2  6  4  0
  2 16  4  0
  3 22  4  0
  4  9  4  0
  4 10  1  0
  4 20  4  0
  5 16  4  0
  5 23  4  0
  6 15  4  0
  7 12  4  0
  8 13  4  0
  8 14  4  0
  9 11  4  0
 11 14  4  0
 11 19  4  0
 12 18  4  0
 13 21  4  0
 15 23  4  0
 17 19  4  0
 17 20  4  0
 18 22  4  0
 19 21  4  0
M  END
$$$$

 Created by Python create_sdf_string function

 23 25  0  0  0  0  0  0  0  0999 V2000
    2.4610   -5.3070   29.1240 C   0  0  0  0  0  0  0  0  0  0  0  0
    4.7710   -4.6952   28.4803 C   0  0  0  0  0  0  0  0  0  0  0  0
    3.4047   -5.1087   28.1314 C   0  0  0  0  0  0  0  0  0  0  0  0
   -0.2234  -11.8615   16.8874 C   0  0  0  0  0  0  0  0  0  0  0  0
    6.4491   -4.1532   30.1213 C   0  0  0  0  0  0  0  0  0  0  0  0
    5.7060   -4.4340   27.4975 C   0  0  0  0  0  0  0  0  0  0  0  0
    1.1818   -5.6612   28.8399 C   0  0  0  0  0  0  0  0  0  0  0  0
   -1.2067   -7.3287   17.7772 C   0  0  0  0  0  0  0  0  0  0  0  0
   -0.0206  -10.5585   16.6210 C   0  0  0  0  0  0  0  0  0  0  0  0
    0.3696  -12.7626   16.2169 O   0  0  0  0  0  0  0  0  0  0  0  0
   -0.6895   -9.5676   17.3297 C   0  0  0  0  0  0  0  0  0  0  0  0
    0.8388   -5.8417   27.5264 C   0  0  0  0  0  0  0  0  0  0  0  0
   -2.0709   -7.6637   18.7817 C   0  0  0  0  0  0  0  0  0  0  0  0
   -0.5279   -8.2168   17.0717 C   0  0  0  0  0  0  0  0  0  0  0  0
    6.9694   -4.0191   27.8190 C   0  0  0  0  0  0  0  0  0  0  0  0
    5.1733   -4.5469   29.8123 C   0  0  0  0  0  0  0  0  0  0  0  0
   -1.7508  -11.3016   18.6072 C   0  0  0  0  0  0  0  0  0  0  0  0
    1.7497   -5.6771   26.4971 C   0  0  0  0  0  0  0  0  0  0  0  0
   -1.5799   -9.9322   18.3468 C   0  0  0  0  0  0  0  0  0  0  0  0
   -1.0871  -12.2214   17.8851 C   0  0  0  0  0  0  0  0  0  0  0  0
   -2.2706   -8.9669   19.0691 C   0  0  0  0  0  0  0  0  0  0  0  0
    3.0279   -5.3073   26.8197 C   0  0  0  0  0  0  0  0  0  0  0  0
    7.3282   -3.8948   29.1186 C   0  0  0  0  0  0  0  0  0  0  0  0
  1  3  4  0
  1  7  4  0
  2  3  1  0
  2  6  4  0
  2 16  4  0
  3 22  4  0
  4  9  4  0
  4 10  1  0
  4 20  4  0
  5 16  4  0
  5 23  4  0
  6 15  4  0
  7 12  4  0
  8 13  4  0
  8 14  4  0
  9 11  4  0
 11 14  4  0
 11 19  4  0
 12 18  4  0
 13 21  4  0
 15 23  4  0
 17 19  4  0
 17 20  4  0
 18 22  4  0
 19 21  4  0
M  END
$$$$

 Created by Python create_sdf_string function

 23 25  0  0  0  0  0  0  0  0999 V2000
    2.4610   -5.3070   29.1240 C   0  0  0  0  0  0  0  0  0  0  0  0
    4.7710   -4.6952   28.4803 C   0  0  0  0  0  0  0  0  0  0  0  0
    3.4047   -5.1087   28.1314 C   0  0  0  0  0  0  0  0  0  0  0  0
   -0.2234  -11.8615   16.8874 C   0  0  0  0  0  0  0  0  0  0  0  0
    6.4491   -4.1532   30.1213 C   0  0  0  0  0  0  0  0  0  0  0  0
    5.7060   -4.4340   27.4975 C   0  0  0  0  0  0  0  0  0  0  0  0
    1.1818   -5.6612   28.8399 C   0  0  0  0  0  0  0  0  0  0  0  0
   -1.2067   -7.3287   17.7772 C   0  0  0  0  0  0  0  0  0  0  0  0
   -0.0206  -10.5585   16.6210 C   0  0  0  0  0  0  0  0  0  0  0  0
    0.3696  -12.7626   16.2169 O   0  0  0  0  0  0  0  0  0  0  0  0
   -0.6895   -9.5676   17.3297 C   0  0  0  0  0  0  0  0  0  0  0  0
    0.8388   -5.8417   27.5264 C   0  0  0  0  0  0  0  0  0  0  0  0
   -2.0709   -7.6637   18.7817 C   0  0  0  0  0  0  0  0  0  0  0  0
   -0.5279   -8.2168   17.0717 C   0  0  0  0  0  0  0  0  0  0  0  0
    6.9694   -4.0191   27.8190 C   0  0  0  0  0  0  0  0  0  0  0  0
    5.1733   -4.5469   29.8123 C   0  0  0  0  0  0  0  0  0  0  0  0
   -1.7508  -11.3016   18.6072 C   0  0  0  0  0  0  0  0  0  0  0  0
    1.7497   -5.6771   26.4971 C   0  0  0  0  0  0  0  0  0  0  0  0
   -1.5799   -9.9322   18.3468 C   0  0  0  0  0  0  0  0  0  0  0  0
   -1.0871  -12.2214   17.8851 C   0  0  0  0  0  0  0  0  0  0  0  0
   -2.2706   -8.9669   19.0691 C   0  0  0  0  0  0  0  0  0  0  0  0
    3.0279   -5.3073   26.8197 C   0  0  0  0  0  0  0  0  0  0  0  0
    7.3282   -3.8948   29.1186 C   0  0  0  0  0  0  0  0  0  0  0  0
  1  3  4  0
  1  7  4  0
  2  3  1  0
  2  6  4  0
  2 16  4  0
  3 22  4  0
  4  9  4  0
  4 10  1  0
  4 20  4  0
  5 16  4  0
  5 23  4  0
  6 15  4  0
  7 12  4  0
  8 13  4  0
  8 14  4  0
  9 11  4  0
 11 14  4  0
 11 19  4  0
 12 18  4  0
 13 21  4  0
 15 23  4  0
 17 19  4  0
 17 20  4  0
 18 22  4  0
 19 21  4  0
M  END
$$$$

 Created by Python create_sdf_string function

 23 25  0  0  0  0  0  0  0  0999 V2000
    2.4610   -5.3070   29.1240 C   0  0  0  0  0  0  0  0  0  0  0  0
    4.7710   -4.6952   28.4803 C   0  0  0  0  0  0  0  0  0  0  0  0
    3.4047   -5.1087   28.1314 C   0  0  0  0  0  0  0  0  0  0  0  0
   -0.2234  -11.8615   16.8874 C   0  0  0  0  0  0  0  0  0  0  0  0
    6.4491   -4.1532   30.1213 C   0  0  0  0  0  0  0  0  0  0  0  0
    5.7060   -4.4340   27.4975 C   0  0  0  0  0  0  0  0  0  0  0  0
    1.1818   -5.6612   28.8399 C   0  0  0  0  0  0  0  0  0  0  0  0
   -1.2067   -7.3287   17.7772 C   0  0  0  0  0  0  0  0  0  0  0  0
   -0.0206  -10.5585   16.6210 C   0  0  0  0  0  0  0  0  0  0  0  0
    0.3696  -12.7626   16.2169 O   0  0  0  0  0  0  0  0  0  0  0  0
   -0.6895   -9.5676   17.3297 C   0  0  0  0  0  0  0  0  0  0  0  0
    0.8388   -5.8417   27.5264 C   0  0  0  0  0  0  0  0  0  0  0  0
   -2.0709   -7.6637   18.7817 C   0  0  0  0  0  0  0  0  0  0  0  0
   -0.5279   -8.2168   17.0717 C   0  0  0  0  0  0  0  0  0  0  0  0
    6.9694   -4.0191   27.8190 C   0  0  0  0  0  0  0  0  0  0  0  0
    5.1733   -4.5469   29.8123 C   0  0  0  0  0  0  0  0  0  0  0  0
   -1.7508  -11.3016   18.6072 C   0  0  0  0  0  0  0  0  0  0  0  0
    1.7497   -5.6771   26.4971 C   0  0  0  0  0  0  0  0  0  0  0  0
   -1.5799   -9.9322   18.3468 C   0  0  0  0  0  0  0  0  0  0  0  0
   -1.0871  -12.2214   17.8851 C   0  0  0  0  0  0  0  0  0  0  0  0
   -2.2706   -8.9669   19.0691 C   0  0  0  0  0  0  0  0  0  0  0  0
    3.0279   -5.3073   26.8197 C   0  0  0  0  0  0  0  0  0  0  0  0
    7.3282   -3.8948   29.1186 C   0  0  0  0  0  0  0  0  0  0  0  0
  1  3  4  0
  1  7  4  0
  2  3  1  0
  2  6  4  0
  2 16  4  0
  3 22  4  0
  4  9  4  0
  4 10  1  0
  4 20  4  0
  5 16  4  0
  5 23  4  0
  6 15  4  0
  7 12  4  0
  8 13  4  0
  8 14  4  0
  9 11  4  0
 11 14  4  0
 11 19  4  0
 12 18  4  0
 13 21  4  0
 15 23  4  0
 17 19  4  0
 17 20  4  0
 18 22  4  0
 19 21  4  0
M  END
$$$$

 Created by Python create_sdf_string function

 23 25  0  0  0  0  0  0  0  0999 V2000
    2.4610   -5.3070   29.1240 C   0  0  0  0  0  0  0  0  0  0  0  0
    4.7710   -4.6952   28.4803 C   0  0  0  0  0  0  0  0  0  0  0  0
    3.4047   -5.1087   28.1314 C   0  0  0  0  0  0  0  0  0  0  0  0
   -0.2234  -11.8615   16.8874 C   0  0  0  0  0  0  0  0  0  0  0  0
    6.4491   -4.1532   30.1213 C   0  0  0  0  0  0  0  0  0  0  0  0
    5.7060   -4.4340   27.4975 C   0  0  0  0  0  0  0  0  0  0  0  0
    1.1818   -5.6612   28.8399 C   0  0  0  0  0  0  0  0  0  0  0  0
   -1.2067   -7.3287   17.7772 C   0  0  0  0  0  0  0  0  0  0  0  0
   -0.0206  -10.5585   16.6210 C   0  0  0  0  0  0  0  0  0  0  0  0
    0.3696  -12.7626   16.2169 O   0  0  0  0  0  0  0  0  0  0  0  0
   -0.6895   -9.5676   17.3297 C   0  0  0  0  0  0  0  0  0  0  0  0
    0.8388   -5.8417   27.5264 C   0  0  0  0  0  0  0  0  0  0  0  0
   -2.0709   -7.6637   18.7817 C   0  0  0  0  0  0  0  0  0  0  0  0
   -0.5279   -8.2168   17.0717 C   0  0  0  0  0  0  0  0  0  0  0  0
    6.9694   -4.0191   27.8190 C   0  0  0  0  0  0  0  0  0  0  0  0
    5.1733   -4.5469   29.8123 C   0  0  0  0  0  0  0  0  0  0  0  0
   -1.7508  -11.3016   18.6072 C   0  0  0  0  0  0  0  0  0  0  0  0
    1.7497   -5.6771   26.4971 C   0  0  0  0  0  0  0  0  0  0  0  0
   -1.5799   -9.9322   18.3468 C   0  0  0  0  0  0  0  0  0  0  0  0
   -1.0871  -12.2214   17.8851 C   0  0  0  0  0  0  0  0  0  0  0  0
   -2.2706   -8.9669   19.0691 C   0  0  0  0  0  0  0  0  0  0  0  0
    3.0279   -5.3073   26.8197 C   0  0  0  0  0  0  0  0  0  0  0  0
    7.3282   -3.8948   29.1186 C   0  0  0  0  0  0  0  0  0  0  0  0
  1  3  4  0
  1  7  4  0
  2  3  1  0
  2  6  4  0
  2 16  4  0
  3 22  4  0
  4  9  4  0
  4 10  1  0
  4 20  4  0
  5 16  4  0
  5 23  4  0
  6 15  4  0
  7 12  4  0
  8 13  4  0
  8 14  4  0
  9 11  4  0
 11 14  4  0
 11 19  4  0
 12 18  4  0
 13 21  4  0
 15 23  4  0
 17 19  4  0
 17 20  4  0
 18 22  4  0
 19 21  4  0
M  END
$$$$

 Created by Python create_sdf_string function

 23 25  0  0  0  0  0  0  0  0999 V2000
    2.4610   -5.3070   29.1240 C   0  0  0  0  0  0  0  0  0  0  0  0
    4.7710   -4.6952   28.4803 C   0  0  0  0  0  0  0  0  0  0  0  0
    3.4047   -5.1087   28.1314 C   0  0  0  0  0  0  0  0  0  0  0  0
   -0.2234  -11.8615   16.8874 C   0  0  0  0  0  0  0  0  0  0  0  0
    6.4491   -4.1532   30.1213 C   0  0  0  0  0  0  0  0  0  0  0  0
    5.7060   -4.4340   27.4975 C   0  0  0  0  0  0  0  0  0  0  0  0
    1.1818   -5.6612   28.8399 C   0  0  0  0  0  0  0  0  0  0  0  0
   -1.2067   -7.3287   17.7772 C   0  0  0  0  0  0  0  0  0  0  0  0
   -0.0206  -10.5585   16.6210 C   0  0  0  0  0  0  0  0  0  0  0  0
    0.3696  -12.7626   16.2169 O   0  0  0  0  0  0  0  0  0  0  0  0
   -0.6895   -9.5676   17.3297 C   0  0  0  0  0  0  0  0  0  0  0  0
    0.8388   -5.8417   27.5264 C   0  0  0  0  0  0  0  0  0  0  0  0
   -2.0709   -7.6637   18.7817 C   0  0  0  0  0  0  0  0  0  0  0  0
   -0.5279   -8.2168   17.0717 C   0  0  0  0  0  0  0  0  0  0  0  0
    6.9694   -4.0191   27.8190 C   0  0  0  0  0  0  0  0  0  0  0  0
    5.1733   -4.5469   29.8123 C   0  0  0  0  0  0  0  0  0  0  0  0
   -1.7508  -11.3016   18.6072 C   0  0  0  0  0  0  0  0  0  0  0  0
    1.7497   -5.6771   26.4971 C   0  0  0  0  0  0  0  0  0  0  0  0
   -1.5799   -9.9322   18.3468 C   0  0  0  0  0  0  0  0  0  0  0  0
   -1.0871  -12.2214   17.8851 C   0  0  0  0  0  0  0  0  0  0  0  0
   -2.2706   -8.9669   19.0691 C   0  0  0  0  0  0  0  0  0  0  0  0
    3.0279   -5.3073   26.8197 C   0  0  0  0  0  0  0  0  0  0  0  0
    7.3282   -3.8948   29.1186 C   0  0  0  0  0  0  0  0  0  0  0  0
  1  3  4  0
  1  7  4  0
  2  3  1  0
  2  6  4  0
  2 16  4  0
  3 22  4  0
  4  9  4  0
  4 10  1  0
  4 20  4  0
  5 16  4  0
  5 23  4  0
  6 15  4  0
  7 12  4  0
  8 13  4  0
  8 14  4  0
  9 11  4  0
 11 14  4  0
 11 19  4  0
 12 18  4  0
 13 21  4  0
 15 23  4  0
 17 19  4  0
 17 20  4  0
 18 22  4  0
 19 21  4  0
M  END
$$$$

 Created by Python create_sdf_string function

 23 25  0  0  0  0  0  0  0  0999 V2000
    2.4610   -5.3070   29.1240 C   0  0  0  0  0  0  0  0  0  0  0  0
    4.7710   -4.6952   28.4803 C   0  0  0  0  0  0  0  0  0  0  0  0
    3.4047   -5.1087   28.1314 C   0  0  0  0  0  0  0  0  0  0  0  0
   -0.2234  -11.8615   16.8874 C   0  0  0  0  0  0  0  0  0  0  0  0
    6.4491   -4.1532   30.1213 C   0  0  0  0  0  0  0  0  0  0  0  0
    5.7060   -4.4340   27.4975 C   0  0  0  0  0  0  0  0  0  0  0  0
    1.1818   -5.6612   28.8399 C   0  0  0  0  0  0  0  0  0  0  0  0
   -1.2067   -7.3287   17.7772 C   0  0  0  0  0  0  0  0  0  0  0  0
   -0.0206  -10.5585   16.6210 C   0  0  0  0  0  0  0  0  0  0  0  0
    0.3696  -12.7626   16.2169 O   0  0  0  0  0  0  0  0  0  0  0  0
   -0.6895   -9.5676   17.3297 C   0  0  0  0  0  0  0  0  0  0  0  0
    0.8388   -5.8417   27.5264 C   0  0  0  0  0  0  0  0  0  0  0  0
   -2.0709   -7.6637   18.7817 C   0  0  0  0  0  0  0  0  0  0  0  0
   -0.5279   -8.2168   17.0717 C   0  0  0  0  0  0  0  0  0  0  0  0
    6.9694   -4.0191   27.8190 C   0  0  0  0  0  0  0  0  0  0  0  0
    5.1733   -4.5469   29.8123 C   0  0  0  0  0  0  0  0  0  0  0  0
   -1.7508  -11.3016   18.6072 C   0  0  0  0  0  0  0  0  0  0  0  0
    1.7497   -5.6771   26.4971 C   0  0  0  0  0  0  0  0  0  0  0  0
   -1.5799   -9.9322   18.3468 C   0  0  0  0  0  0  0  0  0  0  0  0
   -1.0871  -12.2214   17.8851 C   0  0  0  0  0  0  0  0  0  0  0  0
   -2.2706   -8.9669   19.0691 C   0  0  0  0  0  0  0  0  0  0  0  0
    3.0279   -5.3073   26.8197 C   0  0  0  0  0  0  0  0  0  0  0  0
    7.3282   -3.8948   29.1186 C   0  0  0  0  0  0  0  0  0  0  0  0
  1  3  4  0
  1  7  4  0
  2  3  1  0
  2  6  4  0
  2 16  4  0
  3 22  4  0
  4  9  4  0
  4 10  1  0
  4 20  4  0
  5 16  4  0
  5 23  4  0
  6 15  4  0
  7 12  4  0
  8 13  4  0
  8 14  4  0
  9 11  4  0
 11 14  4  0
 11 19  4  0
 12 18  4  0
 13 21  4  0
 15 23  4  0
 17 19  4  0
 17 20  4  0
 18 22  4  0
 19 21  4  0
M  END
$$$$

 Created by Python create_sdf_string function

 23 25  0  0  0  0  0  0  0  0999 V2000
    2.4610   -5.3070   29.1240 C   0  0  0  0  0  0  0  0  0  0  0  0
    4.7710   -4.6952   28.4803 C   0  0  0  0  0  0  0  0  0  0  0  0
    3.4047   -5.1087   28.1314 C   0  0  0  0  0  0  0  0  0  0  0  0
   -0.2234  -11.8615   16.8874 C   0  0  0  0  0  0  0  0  0  0  0  0
    6.4491   -4.1532   30.1213 C   0  0  0  0  0  0  0  0  0  0  0  0
    5.7060   -4.4340   27.4975 C   0  0  0  0  0  0  0  0  0  0  0  0
    1.1818   -5.6612   28.8399 C   0  0  0  0  0  0  0  0  0  0  0  0
   -1.2067   -7.3287   17.7772 C   0  0  0  0  0  0  0  0  0  0  0  0
   -0.0206  -10.5585   16.6210 C   0  0  0  0  0  0  0  0  0  0  0  0
    0.3696  -12.7626   16.2169 O   0  0  0  0  0  0  0  0  0  0  0  0
   -0.6895   -9.5676   17.3297 C   0  0  0  0  0  0  0  0  0  0  0  0
    0.8388   -5.8417   27.5264 C   0  0  0  0  0  0  0  0  0  0  0  0
   -2.0709   -7.6637   18.7817 C   0  0  0  0  0  0  0  0  0  0  0  0
   -0.5279   -8.2168   17.0717 C   0  0  0  0  0  0  0  0  0  0  0  0
    6.9694   -4.0191   27.8190 C   0  0  0  0  0  0  0  0  0  0  0  0
    5.1733   -4.5469   29.8123 C   0  0  0  0  0  0  0  0  0  0  0  0
   -1.7508  -11.3016   18.6072 C   0  0  0  0  0  0  0  0  0  0  0  0
    1.7497   -5.6771   26.4971 C   0  0  0  0  0  0  0  0  0  0  0  0
   -1.5799   -9.9322   18.3468 C   0  0  0  0  0  0  0  0  0  0  0  0
   -1.0871  -12.2214   17.8851 C   0  0  0  0  0  0  0  0  0  0  0  0
   -2.2706   -8.9669   19.0691 C   0  0  0  0  0  0  0  0  0  0  0  0
    3.0279   -5.3073   26.8197 C   0  0  0  0  0  0  0  0  0  0  0  0
    7.3282   -3.8948   29.1186 C   0  0  0  0  0  0  0  0  0  0  0  0
  1  3  4  0
  1  7  4  0
  2  3  1  0
  2  6  4  0
  2 16  4  0
  3 22  4  0
  4  9  4  0
  4 10  1  0
  4 20  4  0
  5 16  4  0
  5 23  4  0
  6 15  4  0
  7 12  4  0
  8 13  4  0
  8 14  4  0
  9 11  4  0
 11 14  4  0
 11 19  4  0
 12 18  4  0
 13 21  4  0
 15 23  4  0
 17 19  4  0
 17 20  4  0
 18 22  4  0
 19 21  4  0
M  END
$$$$

 Created by Python create_sdf_string function

 23 25  0  0  0  0  0  0  0  0999 V2000
    2.4610   -5.3070   29.1240 C   0  0  0  0  0  0  0  0  0  0  0  0
    4.7710   -4.6952   28.4803 C   0  0  0  0  0  0  0  0  0  0  0  0
    3.4047   -5.1087   28.1314 C   0  0  0  0  0  0  0  0  0  0  0  0
   -0.2234  -11.8615   16.8874 C   0  0  0  0  0  0  0  0  0  0  0  0
    6.4491   -4.1532   30.1213 C   0  0  0  0  0  0  0  0  0  0  0  0
    5.7060   -4.4340   27.4975 C   0  0  0  0  0  0  0  0  0  0  0  0
    1.1818   -5.6612   28.8399 C   0  0  0  0  0  0  0  0  0  0  0  0
   -1.2067   -7.3287   17.7772 C   0  0  0  0  0  0  0  0  0  0  0  0
   -0.0206  -10.5585   16.6210 C   0  0  0  0  0  0  0  0  0  0  0  0
    0.3696  -12.7626   16.2169 O   0  0  0  0  0  0  0  0  0  0  0  0
   -0.6895   -9.5676   17.3297 C   0  0  0  0  0  0  0  0  0  0  0  0
    0.8388   -5.8417   27.5264 C   0  0  0  0  0  0  0  0  0  0  0  0
   -2.0709   -7.6637   18.7817 C   0  0  0  0  0  0  0  0  0  0  0  0
   -0.5279   -8.2168   17.0717 C   0  0  0  0  0  0  0  0  0  0  0  0
    6.9694   -4.0191   27.8190 C   0  0  0  0  0  0  0  0  0  0  0  0
    5.1733   -4.5469   29.8123 C   0  0  0  0  0  0  0  0  0  0  0  0
   -1.7508  -11.3016   18.6072 C   0  0  0  0  0  0  0  0  0  0  0  0
    1.7497   -5.6771   26.4971 C   0  0  0  0  0  0  0  0  0  0  0  0
   -1.5799   -9.9322   18.3468 C   0  0  0  0  0  0  0  0  0  0  0  0
   -1.0871  -12.2214   17.8851 C   0  0  0  0  0  0  0  0  0  0  0  0
   -2.2706   -8.9669   19.0691 C   0  0  0  0  0  0  0  0  0  0  0  0
    3.0279   -5.3073   26.8197 C   0  0  0  0  0  0  0  0  0  0  0  0
    7.3282   -3.8948   29.1186 C   0  0  0  0  0  0  0  0  0  0  0  0
  1  3  4  0
  1  7  4  0
  2  3  1  0
  2  6  4  0
  2 16  4  0
  3 22  4  0
  4  9  4  0
  4 10  1  0
  4 20  4  0
  5 16  4  0
  5 23  4  0
  6 15  4  0
  7 12  4  0
  8 13  4  0
  8 14  4  0
  9 11  4  0
 11 14  4  0
 11 19  4  0
 12 18  4  0
 13 21  4  0
 15 23  4  0
 17 19  4  0
 17 20  4  0
 18 22  4  0
 19 21  4  0
M  END
$$$$

 Created by Python create_sdf_string function

 23 25  0  0  0  0  0  0  0  0999 V2000
    2.4610   -5.3070   29.1240 C   0  0  0  0  0  0  0  0  0  0  0  0
    4.7710   -4.6952   28.4803 C   0  0  0  0  0  0  0  0  0  0  0  0
    3.4047   -5.1087   28.1314 C   0  0  0  0  0  0  0  0  0  0  0  0
   -0.2234  -11.8615   16.8874 C   0  0  0  0  0  0  0  0  0  0  0  0
    6.4491   -4.1532   30.1213 C   0  0  0  0  0  0  0  0  0  0  0  0
    5.7060   -4.4340   27.4975 C   0  0  0  0  0  0  0  0  0  0  0  0
    1.1818   -5.6612   28.8399 C   0  0  0  0  0  0  0  0  0  0  0  0
   -1.2067   -7.3287   17.7772 C   0  0  0  0  0  0  0  0  0  0  0  0
   -0.0206  -10.5585   16.6210 C   0  0  0  0  0  0  0  0  0  0  0  0
    0.3696  -12.7626   16.2169 O   0  0  0  0  0  0  0  0  0  0  0  0
   -0.6895   -9.5676   17.3297 C   0  0  0  0  0  0  0  0  0  0  0  0
    0.8388   -5.8417   27.5264 C   0  0  0  0  0  0  0  0  0  0  0  0
   -2.0709   -7.6637   18.7817 C   0  0  0  0  0  0  0  0  0  0  0  0
   -0.5279   -8.2168   17.0717 C   0  0  0  0  0  0  0  0  0  0  0  0
    6.9694   -4.0191   27.8190 C   0  0  0  0  0  0  0  0  0  0  0  0
    5.1733   -4.5469   29.8123 C   0  0  0  0  0  0  0  0  0  0  0  0
   -1.7508  -11.3016   18.6072 C   0  0  0  0  0  0  0  0  0  0  0  0
    1.7497   -5.6771   26.4971 C   0  0  0  0  0  0  0  0  0  0  0  0
   -1.5799   -9.9322   18.3468 C   0  0  0  0  0  0  0  0  0  0  0  0
   -1.0871  -12.2214   17.8851 C   0  0  0  0  0  0  0  0  0  0  0  0
   -2.2706   -8.9669   19.0691 C   0  0  0  0  0  0  0  0  0  0  0  0
    3.0279   -5.3073   26.8197 C   0  0  0  0  0  0  0  0  0  0  0  0
    7.3282   -3.8948   29.1186 C   0  0  0  0  0  0  0  0  0  0  0  0
  1  3  4  0
  1  7  4  0
  2  3  1  0
  2  6  4  0
  2 16  4  0
  3 22  4  0
  4  9  4  0
  4 10  1  0
  4 20  4  0
  5 16  4  0
  5 23  4  0
  6 15  4  0
  7 12  4  0
  8 13  4  0
  8 14  4  0
  9 11  4  0
 11 14  4  0
 11 19  4  0
 12 18  4  0
 13 21  4  0
 15 23  4  0
 17 19  4  0
 17 20  4  0
 18 22  4  0
 19 21  4  0
M  END
$$$$

 Created by Python create_sdf_string function

 23 25  0  0  0  0  0  0  0  0999 V2000
    2.4610   -5.3070   29.1240 C   0  0  0  0  0  0  0  0  0  0  0  0
    4.7710   -4.6952   28.4803 C   0  0  0  0  0  0  0  0  0  0  0  0
    3.4047   -5.1087   28.1314 C   0  0  0  0  0  0  0  0  0  0  0  0
   -0.2234  -11.8615   16.8874 C   0  0  0  0  0  0  0  0  0  0  0  0
    6.4491   -4.1532   30.1213 C   0  0  0  0  0  0  0  0  0  0  0  0
    5.7060   -4.4340   27.4975 C   0  0  0  0  0  0  0  0  0  0  0  0
    1.1818   -5.6612   28.8399 C   0  0  0  0  0  0  0  0  0  0  0  0
   -1.2067   -7.3287   17.7772 C   0  0  0  0  0  0  0  0  0  0  0  0
   -0.0206  -10.5585   16.6210 C   0  0  0  0  0  0  0  0  0  0  0  0
    0.3696  -12.7626   16.2169 O   0  0  0  0  0  0  0  0  0  0  0  0
   -0.6895   -9.5676   17.3297 C   0  0  0  0  0  0  0  0  0  0  0  0
    0.8388   -5.8417   27.5264 C   0  0  0  0  0  0  0  0  0  0  0  0
   -2.0709   -7.6637   18.7817 C   0  0  0  0  0  0  0  0  0  0  0  0
   -0.5279   -8.2168   17.0717 C   0  0  0  0  0  0  0  0  0  0  0  0
    6.9694   -4.0191   27.8190 C   0  0  0  0  0  0  0  0  0  0  0  0
    5.1733   -4.5469   29.8123 C   0  0  0  0  0  0  0  0  0  0  0  0
   -1.7508  -11.3016   18.6072 C   0  0  0  0  0  0  0  0  0  0  0  0
    1.7497   -5.6771   26.4971 C   0  0  0  0  0  0  0  0  0  0  0  0
   -1.5799   -9.9322   18.3468 C   0  0  0  0  0  0  0  0  0  0  0  0
   -1.0871  -12.2214   17.8851 C   0  0  0  0  0  0  0  0  0  0  0  0
   -2.2706   -8.9669   19.0691 C   0  0  0  0  0  0  0  0  0  0  0  0
    3.0279   -5.3073   26.8197 C   0  0  0  0  0  0  0  0  0  0  0  0
    7.3282   -3.8948   29.1186 C   0  0  0  0  0  0  0  0  0  0  0  0
  1  3  4  0
  1  7  4  0
  2  3  1  0
  2  6  4  0
  2 16  4  0
  3 22  4  0
  4  9  4  0
  4 10  1  0
  4 20  4  0
  5 16  4  0
  5 23  4  0
  6 15  4  0
  7 12  4  0
  8 13  4  0
  8 14  4  0
  9 11  4  0
 11 14  4  0
 11 19  4  0
 12 18  4  0
 13 21  4  0
 15 23  4  0
 17 19  4  0
 17 20  4  0
 18 22  4  0
 19 21  4  0
M  END
$$$$

 Created by Python create_sdf_string function

 23 25  0  0  0  0  0  0  0  0999 V2000
    2.4610   -5.3070   29.1240 C   0  0  0  0  0  0  0  0  0  0  0  0
    4.7710   -4.6952   28.4803 C   0  0  0  0  0  0  0  0  0  0  0  0
    3.4047   -5.1087   28.1314 C   0  0  0  0  0  0  0  0  0  0  0  0
   -0.2234  -11.8615   16.8874 C   0  0  0  0  0  0  0  0  0  0  0  0
    6.4491   -4.1532   30.1213 C   0  0  0  0  0  0  0  0  0  0  0  0
    5.7060   -4.4340   27.4975 C   0  0  0  0  0  0  0  0  0  0  0  0
    1.1818   -5.6612   28.8399 C   0  0  0  0  0  0  0  0  0  0  0  0
   -1.2067   -7.3287   17.7772 C   0  0  0  0  0  0  0  0  0  0  0  0
   -0.0206  -10.5585   16.6210 C   0  0  0  0  0  0  0  0  0  0  0  0
    0.3696  -12.7626   16.2169 O   0  0  0  0  0  0  0  0  0  0  0  0
   -0.6895   -9.5676   17.3297 C   0  0  0  0  0  0  0  0  0  0  0  0
    0.8388   -5.8417   27.5264 C   0  0  0  0  0  0  0  0  0  0  0  0
   -2.0709   -7.6637   18.7817 C   0  0  0  0  0  0  0  0  0  0  0  0
   -0.5279   -8.2168   17.0717 C   0  0  0  0  0  0  0  0  0  0  0  0
    6.9694   -4.0191   27.8190 C   0  0  0  0  0  0  0  0  0  0  0  0
    5.1733   -4.5469   29.8123 C   0  0  0  0  0  0  0  0  0  0  0  0
   -1.7508  -11.3016   18.6072 C   0  0  0  0  0  0  0  0  0  0  0  0
    1.7497   -5.6771   26.4971 C   0  0  0  0  0  0  0  0  0  0  0  0
   -1.5799   -9.9322   18.3468 C   0  0  0  0  0  0  0  0  0  0  0  0
   -1.0871  -12.2214   17.8851 C   0  0  0  0  0  0  0  0  0  0  0  0
   -2.2706   -8.9669   19.0691 C   0  0  0  0  0  0  0  0  0  0  0  0
    3.0279   -5.3073   26.8197 C   0  0  0  0  0  0  0  0  0  0  0  0
    7.3282   -3.8948   29.1186 C   0  0  0  0  0  0  0  0  0  0  0  0
  1  3  4  0
  1  7  4  0
  2  3  1  0
  2  6  4  0
  2 16  4  0
  3 22  4  0
  4  9  4  0
  4 10  1  0
  4 20  4  0
  5 16  4  0
  5 23  4  0
  6 15  4  0
  7 12  4  0
  8 13  4  0
  8 14  4  0
  9 11  4  0
 11 14  4  0
 11 19  4  0
 12 18  4  0
 13 21  4  0
 15 23  4  0
 17 19  4  0
 17 20  4  0
 18 22  4  0
 19 21  4  0
M  END
$$$$

 Created by Python create_sdf_string function

 23 25  0  0  0  0  0  0  0  0999 V2000
    2.4610   -5.3070   29.1240 C   0  0  0  0  0  0  0  0  0  0  0  0
    4.7710   -4.6952   28.4803 C   0  0  0  0  0  0  0  0  0  0  0  0
    3.4047   -5.1087   28.1314 C   0  0  0  0  0  0  0  0  0  0  0  0
   -0.2234  -11.8615   16.8874 C   0  0  0  0  0  0  0  0  0  0  0  0
    6.4491   -4.1532   30.1213 C   0  0  0  0  0  0  0  0  0  0  0  0
    5.7060   -4.4340   27.4975 C   0  0  0  0  0  0  0  0  0  0  0  0
    1.1818   -5.6612   28.8399 C   0  0  0  0  0  0  0  0  0  0  0  0
   -1.2067   -7.3287   17.7772 C   0  0  0  0  0  0  0  0  0  0  0  0
   -0.0206  -10.5585   16.6210 C   0  0  0  0  0  0  0  0  0  0  0  0
    0.3696  -12.7626   16.2169 O   0  0  0  0  0  0  0  0  0  0  0  0
   -0.6895   -9.5676   17.3297 C   0  0  0  0  0  0  0  0  0  0  0  0
    0.8388   -5.8417   27.5264 C   0  0  0  0  0  0  0  0  0  0  0  0
   -2.0709   -7.6637   18.7817 C   0  0  0  0  0  0  0  0  0  0  0  0
   -0.5279   -8.2168   17.0717 C   0  0  0  0  0  0  0  0  0  0  0  0
    6.9694   -4.0191   27.8190 C   0  0  0  0  0  0  0  0  0  0  0  0
    5.1733   -4.5469   29.8123 C   0  0  0  0  0  0  0  0  0  0  0  0
   -1.7508  -11.3016   18.6072 C   0  0  0  0  0  0  0  0  0  0  0  0
    1.7497   -5.6771   26.4971 C   0  0  0  0  0  0  0  0  0  0  0  0
   -1.5799   -9.9322   18.3468 C   0  0  0  0  0  0  0  0  0  0  0  0
   -1.0871  -12.2214   17.8851 C   0  0  0  0  0  0  0  0  0  0  0  0
   -2.2706   -8.9669   19.0691 C   0  0  0  0  0  0  0  0  0  0  0  0
    3.0279   -5.3073   26.8197 C   0  0  0  0  0  0  0  0  0  0  0  0
    7.3282   -3.8948   29.1186 C   0  0  0  0  0  0  0  0  0  0  0  0
  1  3  4  0
  1  7  4  0
  2  3  1  0
  2  6  4  0
  2 16  4  0
  3 22  4  0
  4  9  4  0
  4 10  1  0
  4 20  4  0
  5 16  4  0
  5 23  4  0
  6 15  4  0
  7 12  4  0
  8 13  4  0
  8 14  4  0
  9 11  4  0
 11 14  4  0
 11 19  4  0
 12 18  4  0
 13 21  4  0
 15 23  4  0
 17 19  4  0
 17 20  4  0
 18 22  4  0
 19 21  4  0
M  END
$$$$

 Created by Python create_sdf_string function

 23 25  0  0  0  0  0  0  0  0999 V2000
    2.4610   -5.3070   29.1240 C   0  0  0  0  0  0  0  0  0  0  0  0
    4.7710   -4.6952   28.4803 C   0  0  0  0  0  0  0  0  0  0  0  0
    3.4047   -5.1087   28.1314 C   0  0  0  0  0  0  0  0  0  0  0  0
   -0.2234  -11.8615   16.8874 C   0  0  0  0  0  0  0  0  0  0  0  0
    6.4491   -4.1532   30.1213 C   0  0  0  0  0  0  0  0  0  0  0  0
    5.7060   -4.4340   27.4975 C   0  0  0  0  0  0  0  0  0  0  0  0
    1.1818   -5.6612   28.8399 C   0  0  0  0  0  0  0  0  0  0  0  0
   -1.2067   -7.3287   17.7772 C   0  0  0  0  0  0  0  0  0  0  0  0
   -0.0206  -10.5585   16.6210 C   0  0  0  0  0  0  0  0  0  0  0  0
    0.3696  -12.7626   16.2169 O   0  0  0  0  0  0  0  0  0  0  0  0
   -0.6895   -9.5676   17.3297 C   0  0  0  0  0  0  0  0  0  0  0  0
    0.8388   -5.8417   27.5264 C   0  0  0  0  0  0  0  0  0  0  0  0
   -2.0709   -7.6637   18.7817 C   0  0  0  0  0  0  0  0  0  0  0  0
   -0.5279   -8.2168   17.0717 C   0  0  0  0  0  0  0  0  0  0  0  0
    6.9694   -4.0191   27.8190 C   0  0  0  0  0  0  0  0  0  0  0  0
    5.1733   -4.5469   29.8123 C   0  0  0  0  0  0  0  0  0  0  0  0
   -1.7508  -11.3016   18.6072 C   0  0  0  0  0  0  0  0  0  0  0  0
    1.7497   -5.6771   26.4971 C   0  0  0  0  0  0  0  0  0  0  0  0
   -1.5799   -9.9322   18.3468 C   0  0  0  0  0  0  0  0  0  0  0  0
   -1.0871  -12.2214   17.8851 C   0  0  0  0  0  0  0  0  0  0  0  0
   -2.2706   -8.9669   19.0691 C   0  0  0  0  0  0  0  0  0  0  0  0
    3.0279   -5.3073   26.8197 C   0  0  0  0  0  0  0  0  0  0  0  0
    7.3282   -3.8948   29.1186 C   0  0  0  0  0  0  0  0  0  0  0  0
  1  3  4  0
  1  7  4  0
  2  3  1  0
  2  6  4  0
  2 16  4  0
  3 22  4  0
  4  9  4  0
  4 10  1  0
  4 20  4  0
  5 16  4  0
  5 23  4  0
  6 15  4  0
  7 12  4  0
  8 13  4  0
  8 14  4  0
  9 11  4  0
 11 14  4  0
 11 19  4  0
 12 18  4  0
 13 21  4  0
 15 23  4  0
 17 19  4  0
 17 20  4  0
 18 22  4  0
 19 21  4  0
M  END
$$$$

 Created by Python create_sdf_string function

 23 25  0  0  0  0  0  0  0  0999 V2000
    2.4610   -5.3070   29.1240 C   0  0  0  0  0  0  0  0  0  0  0  0
    4.7710   -4.6952   28.4803 C   0  0  0  0  0  0  0  0  0  0  0  0
    3.4047   -5.1087   28.1314 C   0  0  0  0  0  0  0  0  0  0  0  0
   -0.2234  -11.8615   16.8874 C   0  0  0  0  0  0  0  0  0  0  0  0
    6.4491   -4.1532   30.1213 C   0  0  0  0  0  0  0  0  0  0  0  0
    5.7060   -4.4340   27.4975 C   0  0  0  0  0  0  0  0  0  0  0  0
    1.1818   -5.6612   28.8399 C   0  0  0  0  0  0  0  0  0  0  0  0
   -1.2067   -7.3287   17.7772 C   0  0  0  0  0  0  0  0  0  0  0  0
   -0.0206  -10.5585   16.6210 C   0  0  0  0  0  0  0  0  0  0  0  0
    0.3696  -12.7626   16.2169 O   0  0  0  0  0  0  0  0  0  0  0  0
   -0.6895   -9.5676   17.3297 C   0  0  0  0  0  0  0  0  0  0  0  0
    0.8388   -5.8417   27.5264 C   0  0  0  0  0  0  0  0  0  0  0  0
   -2.0709   -7.6637   18.7817 C   0  0  0  0  0  0  0  0  0  0  0  0
   -0.5279   -8.2168   17.0717 C   0  0  0  0  0  0  0  0  0  0  0  0
    6.9694   -4.0191   27.8190 C   0  0  0  0  0  0  0  0  0  0  0  0
    5.1733   -4.5469   29.8123 C   0  0  0  0  0  0  0  0  0  0  0  0
   -1.7508  -11.3016   18.6072 C   0  0  0  0  0  0  0  0  0  0  0  0
    1.7497   -5.6771   26.4971 C   0  0  0  0  0  0  0  0  0  0  0  0
   -1.5799   -9.9322   18.3468 C   0  0  0  0  0  0  0  0  0  0  0  0
   -1.0871  -12.2214   17.8851 C   0  0  0  0  0  0  0  0  0  0  0  0
   -2.2706   -8.9669   19.0691 C   0  0  0  0  0  0  0  0  0  0  0  0
    3.0279   -5.3073   26.8197 C   0  0  0  0  0  0  0  0  0  0  0  0
    7.3282   -3.8948   29.1186 C   0  0  0  0  0  0  0  0  0  0  0  0
  1  3  4  0
  1  7  4  0
  2  3  1  0
  2  6  4  0
  2 16  4  0
  3 22  4  0
  4  9  4  0
  4 10  1  0
  4 20  4  0
  5 16  4  0
  5 23  4  0
  6 15  4  0
  7 12  4  0
  8 13  4  0
  8 14  4  0
  9 11  4  0
 11 14  4  0
 11 19  4  0
 12 18  4  0
 13 21  4  0
 15 23  4  0
 17 19  4  0
 17 20  4  0
 18 22  4  0
 19 21  4  0
M  END
$$$$

 Created by Python create_sdf_string function

 23 25  0  0  0  0  0  0  0  0999 V2000
    2.4610   -5.3070   29.1240 C   0  0  0  0  0  0  0  0  0  0  0  0
    4.7710   -4.6952   28.4803 C   0  0  0  0  0  0  0  0  0  0  0  0
    3.4047   -5.1087   28.1314 C   0  0  0  0  0  0  0  0  0  0  0  0
   -0.2234  -11.8615   16.8874 C   0  0  0  0  0  0  0  0  0  0  0  0
    6.4491   -4.1532   30.1213 C   0  0  0  0  0  0  0  0  0  0  0  0
    5.7060   -4.4340   27.4975 C   0  0  0  0  0  0  0  0  0  0  0  0
    1.1818   -5.6612   28.8399 C   0  0  0  0  0  0  0  0  0  0  0  0
   -1.2067   -7.3287   17.7772 C   0  0  0  0  0  0  0  0  0  0  0  0
   -0.0206  -10.5585   16.6210 C   0  0  0  0  0  0  0  0  0  0  0  0
    0.3696  -12.7626   16.2169 O   0  0  0  0  0  0  0  0  0  0  0  0
   -0.6895   -9.5676   17.3297 C   0  0  0  0  0  0  0  0  0  0  0  0
    0.8388   -5.8417   27.5264 C   0  0  0  0  0  0  0  0  0  0  0  0
   -2.0709   -7.6637   18.7817 C   0  0  0  0  0  0  0  0  0  0  0  0
   -0.5279   -8.2168   17.0717 C   0  0  0  0  0  0  0  0  0  0  0  0
    6.9694   -4.0191   27.8190 C   0  0  0  0  0  0  0  0  0  0  0  0
    5.1733   -4.5469   29.8123 C   0  0  0  0  0  0  0  0  0  0  0  0
   -1.7508  -11.3016   18.6072 C   0  0  0  0  0  0  0  0  0  0  0  0
    1.7497   -5.6771   26.4971 C   0  0  0  0  0  0  0  0  0  0  0  0
   -1.5799   -9.9322   18.3468 C   0  0  0  0  0  0  0  0  0  0  0  0
   -1.0871  -12.2214   17.8851 C   0  0  0  0  0  0  0  0  0  0  0  0
   -2.2706   -8.9669   19.0691 C   0  0  0  0  0  0  0  0  0  0  0  0
    3.0279   -5.3073   26.8197 C   0  0  0  0  0  0  0  0  0  0  0  0
    7.3282   -3.8948   29.1186 C   0  0  0  0  0  0  0  0  0  0  0  0
  1  3  4  0
  1  7  4  0
  2  3  1  0
  2  6  4  0
  2 16  4  0
  3 22  4  0
  4  9  4  0
  4 10  1  0
  4 20  4  0
  5 16  4  0
  5 23  4  0
  6 15  4  0
  7 12  4  0
  8 13  4  0
  8 14  4  0
  9 11  4  0
 11 14  4  0
 11 19  4  0
 12 18  4  0
 13 21  4  0
 15 23  4  0
 17 19  4  0
 17 20  4  0
 18 22  4  0
 19 21  4  0
M  END
$$$$

 Created by Python create_sdf_string function

 23 25  0  0  0  0  0  0  0  0999 V2000
    2.4610   -5.3070   29.1240 C   0  0  0  0  0  0  0  0  0  0  0  0
    4.7710   -4.6952   28.4803 C   0  0  0  0  0  0  0  0  0  0  0  0
    3.4047   -5.1087   28.1314 C   0  0  0  0  0  0  0  0  0  0  0  0
   -0.2234  -11.8615   16.8874 C   0  0  0  0  0  0  0  0  0  0  0  0
    6.4491   -4.1532   30.1213 C   0  0  0  0  0  0  0  0  0  0  0  0
    5.7060   -4.4340   27.4975 C   0  0  0  0  0  0  0  0  0  0  0  0
    1.1818   -5.6612   28.8399 C   0  0  0  0  0  0  0  0  0  0  0  0
   -1.2067   -7.3287   17.7772 C   0  0  0  0  0  0  0  0  0  0  0  0
   -0.0206  -10.5585   16.6210 C   0  0  0  0  0  0  0  0  0  0  0  0
    0.3696  -12.7626   16.2169 O   0  0  0  0  0  0  0  0  0  0  0  0
   -0.6895   -9.5676   17.3297 C   0  0  0  0  0  0  0  0  0  0  0  0
    0.8388   -5.8417   27.5264 C   0  0  0  0  0  0  0  0  0  0  0  0
   -2.0709   -7.6637   18.7817 C   0  0  0  0  0  0  0  0  0  0  0  0
   -0.5279   -8.2168   17.0717 C   0  0  0  0  0  0  0  0  0  0  0  0
    6.9694   -4.0191   27.8190 C   0  0  0  0  0  0  0  0  0  0  0  0
    5.1733   -4.5469   29.8123 C   0  0  0  0  0  0  0  0  0  0  0  0
   -1.7508  -11.3016   18.6072 C   0  0  0  0  0  0  0  0  0  0  0  0
    1.7497   -5.6771   26.4971 C   0  0  0  0  0  0  0  0  0  0  0  0
   -1.5799   -9.9322   18.3468 C   0  0  0  0  0  0  0  0  0  0  0  0
   -1.0871  -12.2214   17.8851 C   0  0  0  0  0  0  0  0  0  0  0  0
   -2.2706   -8.9669   19.0691 C   0  0  0  0  0  0  0  0  0  0  0  0
    3.0279   -5.3073   26.8197 C   0  0  0  0  0  0  0  0  0  0  0  0
    7.3282   -3.8948   29.1186 C   0  0  0  0  0  0  0  0  0  0  0  0
  1  3  4  0
  1  7  4  0
  2  3  1  0
  2  6  4  0
  2 16  4  0
  3 22  4  0
  4  9  4  0
  4 10  1  0
  4 20  4  0
  5 16  4  0
  5 23  4  0
  6 15  4  0
  7 12  4  0
  8 13  4  0
  8 14  4  0
  9 11  4  0
 11 14  4  0
 11 19  4  0
 12 18  4  0
 13 21  4  0
 15 23  4  0
 17 19  4  0
 17 20  4  0
 18 22  4  0
 19 21  4  0
M  END
$$$$

 Created by Python create_sdf_string function

 23 25  0  0  0  0  0  0  0  0999 V2000
    2.4610   -5.3070   29.1240 C   0  0  0  0  0  0  0  0  0  0  0  0
    4.7710   -4.6952   28.4803 C   0  0  0  0  0  0  0  0  0  0  0  0
    3.4047   -5.1087   28.1314 C   0  0  0  0  0  0  0  0  0  0  0  0
   -0.2234  -11.8615   16.8874 C   0  0  0  0  0  0  0  0  0  0  0  0
    6.4491   -4.1532   30.1213 C   0  0  0  0  0  0  0  0  0  0  0  0
    5.7060   -4.4340   27.4975 C   0  0  0  0  0  0  0  0  0  0  0  0
    1.1818   -5.6612   28.8399 C   0  0  0  0  0  0  0  0  0  0  0  0
   -1.2067   -7.3287   17.7772 C   0  0  0  0  0  0  0  0  0  0  0  0
   -0.0206  -10.5585   16.6210 C   0  0  0  0  0  0  0  0  0  0  0  0
    0.3696  -12.7626   16.2169 O   0  0  0  0  0  0  0  0  0  0  0  0
   -0.6895   -9.5676   17.3297 C   0  0  0  0  0  0  0  0  0  0  0  0
    0.8388   -5.8417   27.5264 C   0  0  0  0  0  0  0  0  0  0  0  0
   -2.0709   -7.6637   18.7817 C   0  0  0  0  0  0  0  0  0  0  0  0
   -0.5279   -8.2168   17.0717 C   0  0  0  0  0  0  0  0  0  0  0  0
    6.9694   -4.0191   27.8190 C   0  0  0  0  0  0  0  0  0  0  0  0
    5.1733   -4.5469   29.8123 C   0  0  0  0  0  0  0  0  0  0  0  0
   -1.7508  -11.3016   18.6072 C   0  0  0  0  0  0  0  0  0  0  0  0
    1.7497   -5.6771   26.4971 C   0  0  0  0  0  0  0  0  0  0  0  0
   -1.5799   -9.9322   18.3468 C   0  0  0  0  0  0  0  0  0  0  0  0
   -1.0871  -12.2214   17.8851 C   0  0  0  0  0  0  0  0  0  0  0  0
   -2.2706   -8.9669   19.0691 C   0  0  0  0  0  0  0  0  0  0  0  0
    3.0279   -5.3073   26.8197 C   0  0  0  0  0  0  0  0  0  0  0  0
    7.3282   -3.8948   29.1186 C   0  0  0  0  0  0  0  0  0  0  0  0
  1  3  4  0
  1  7  4  0
  2  3  1  0
  2  6  4  0
  2 16  4  0
  3 22  4  0
  4  9  4  0
  4 10  1  0
  4 20  4  0
  5 16  4  0
  5 23  4  0
  6 15  4  0
  7 12  4  0
  8 13  4  0
  8 14  4  0
  9 11  4  0
 11 14  4  0
 11 19  4  0
 12 18  4  0
 13 21  4  0
 15 23  4  0
 17 19  4  0
 17 20  4  0
 18 22  4  0
 19 21  4  0
M  END
$$$$

 Created by Python create_sdf_string function

 23 25  0  0  0  0  0  0  0  0999 V2000
    2.4610   -5.3070   29.1240 C   0  0  0  0  0  0  0  0  0  0  0  0
    4.7710   -4.6952   28.4803 C   0  0  0  0  0  0  0  0  0  0  0  0
    3.4047   -5.1087   28.1314 C   0  0  0  0  0  0  0  0  0  0  0  0
   -0.2234  -11.8615   16.8874 C   0  0  0  0  0  0  0  0  0  0  0  0
    6.4491   -4.1532   30.1213 C   0  0  0  0  0  0  0  0  0  0  0  0
    5.7060   -4.4340   27.4975 C   0  0  0  0  0  0  0  0  0  0  0  0
    1.1818   -5.6612   28.8399 C   0  0  0  0  0  0  0  0  0  0  0  0
   -1.2067   -7.3287   17.7772 C   0  0  0  0  0  0  0  0  0  0  0  0
   -0.0206  -10.5585   16.6210 C   0  0  0  0  0  0  0  0  0  0  0  0
    0.3696  -12.7626   16.2169 O   0  0  0  0  0  0  0  0  0  0  0  0
   -0.6895   -9.5676   17.3297 C   0  0  0  0  0  0  0  0  0  0  0  0
    0.8388   -5.8417   27.5264 C   0  0  0  0  0  0  0  0  0  0  0  0
   -2.0709   -7.6637   18.7817 C   0  0  0  0  0  0  0  0  0  0  0  0
   -0.5279   -8.2168   17.0717 C   0  0  0  0  0  0  0  0  0  0  0  0
    6.9694   -4.0191   27.8190 C   0  0  0  0  0  0  0  0  0  0  0  0
    5.1733   -4.5469   29.8123 C   0  0  0  0  0  0  0  0  0  0  0  0
   -1.7508  -11.3016   18.6072 C   0  0  0  0  0  0  0  0  0  0  0  0
    1.7497   -5.6771   26.4971 C   0  0  0  0  0  0  0  0  0  0  0  0
   -1.5799   -9.9322   18.3468 C   0  0  0  0  0  0  0  0  0  0  0  0
   -1.0871  -12.2214   17.8851 C   0  0  0  0  0  0  0  0  0  0  0  0
   -2.2706   -8.9669   19.0691 C   0  0  0  0  0  0  0  0  0  0  0  0
    3.0279   -5.3073   26.8197 C   0  0  0  0  0  0  0  0  0  0  0  0
    7.3282   -3.8948   29.1186 C   0  0  0  0  0  0  0  0  0  0  0  0
  1  3  4  0
  1  7  4  0
  2  3  1  0
  2  6  4  0
  2 16  4  0
  3 22  4  0
  4  9  4  0
  4 10  1  0
  4 20  4  0
  5 16  4  0
  5 23  4  0
  6 15  4  0
  7 12  4  0
  8 13  4  0
  8 14  4  0
  9 11  4  0
 11 14  4  0
 11 19  4  0
 12 18  4  0
 13 21  4  0
 15 23  4  0
 17 19  4  0
 17 20  4  0
 18 22  4  0
 19 21  4  0
M  END
$$$$

 Created by Python create_sdf_string function

 23 25  0  0  0  0  0  0  0  0999 V2000
    2.4610   -5.3070   29.1240 C   0  0  0  0  0  0  0  0  0  0  0  0
    4.7710   -4.6952   28.4803 C   0  0  0  0  0  0  0  0  0  0  0  0
    3.4047   -5.1087   28.1314 C   0  0  0  0  0  0  0  0  0  0  0  0
   -0.2234  -11.8615   16.8874 C   0  0  0  0  0  0  0  0  0  0  0  0
    6.4491   -4.1532   30.1213 C   0  0  0  0  0  0  0  0  0  0  0  0
    5.7060   -4.4340   27.4975 C   0  0  0  0  0  0  0  0  0  0  0  0
    1.1818   -5.6612   28.8399 C   0  0  0  0  0  0  0  0  0  0  0  0
   -1.2067   -7.3287   17.7772 C   0  0  0  0  0  0  0  0  0  0  0  0
   -0.0206  -10.5585   16.6210 C   0  0  0  0  0  0  0  0  0  0  0  0
    0.3696  -12.7626   16.2169 O   0  0  0  0  0  0  0  0  0  0  0  0
   -0.6895   -9.5676   17.3297 C   0  0  0  0  0  0  0  0  0  0  0  0
    0.8388   -5.8417   27.5264 C   0  0  0  0  0  0  0  0  0  0  0  0
   -2.0709   -7.6637   18.7817 C   0  0  0  0  0  0  0  0  0  0  0  0
   -0.5279   -8.2168   17.0717 C   0  0  0  0  0  0  0  0  0  0  0  0
    6.9694   -4.0191   27.8190 C   0  0  0  0  0  0  0  0  0  0  0  0
    5.1733   -4.5469   29.8123 C   0  0  0  0  0  0  0  0  0  0  0  0
   -1.7508  -11.3016   18.6072 C   0  0  0  0  0  0  0  0  0  0  0  0
    1.7497   -5.6771   26.4971 C   0  0  0  0  0  0  0  0  0  0  0  0
   -1.5799   -9.9322   18.3468 C   0  0  0  0  0  0  0  0  0  0  0  0
   -1.0871  -12.2214   17.8851 C   0  0  0  0  0  0  0  0  0  0  0  0
   -2.2706   -8.9669   19.0691 C   0  0  0  0  0  0  0  0  0  0  0  0
    3.0279   -5.3073   26.8197 C   0  0  0  0  0  0  0  0  0  0  0  0
    7.3282   -3.8948   29.1186 C   0  0  0  0  0  0  0  0  0  0  0  0
  1  3  4  0
  1  7  4  0
  2  3  1  0
  2  6  4  0
  2 16  4  0
  3 22  4  0
  4  9  4  0
  4 10  1  0
  4 20  4  0
  5 16  4  0
  5 23  4  0
  6 15  4  0
  7 12  4  0
  8 13  4  0
  8 14  4  0
  9 11  4  0
 11 14  4  0
 11 19  4  0
 12 18  4  0
 13 21  4  0
 15 23  4  0
 17 19  4  0
 17 20  4  0
 18 22  4  0
 19 21  4  0
M  END
$$$$

 Created by Python create_sdf_string function

 23 25  0  0  0  0  0  0  0  0999 V2000
    2.4610   -5.3070   29.1240 C   0  0  0  0  0  0  0  0  0  0  0  0
    4.7710   -4.6952   28.4803 C   0  0  0  0  0  0  0  0  0  0  0  0
    3.4047   -5.1087   28.1314 C   0  0  0  0  0  0  0  0  0  0  0  0
   -0.2234  -11.8615   16.8874 C   0  0  0  0  0  0  0  0  0  0  0  0
    6.4491   -4.1532   30.1213 C   0  0  0  0  0  0  0  0  0  0  0  0
    5.7060   -4.4340   27.4975 C   0  0  0  0  0  0  0  0  0  0  0  0
    1.1818   -5.6612   28.8399 C   0  0  0  0  0  0  0  0  0  0  0  0
   -1.2067   -7.3287   17.7772 C   0  0  0  0  0  0  0  0  0  0  0  0
   -0.0206  -10.5585   16.6210 C   0  0  0  0  0  0  0  0  0  0  0  0
    0.3696  -12.7626   16.2169 O   0  0  0  0  0  0  0  0  0  0  0  0
   -0.6895   -9.5676   17.3297 C   0  0  0  0  0  0  0  0  0  0  0  0
    0.8388   -5.8417   27.5264 C   0  0  0  0  0  0  0  0  0  0  0  0
   -2.0709   -7.6637   18.7817 C   0  0  0  0  0  0  0  0  0  0  0  0
   -0.5279   -8.2168   17.0717 C   0  0  0  0  0  0  0  0  0  0  0  0
    6.9694   -4.0191   27.8190 C   0  0  0  0  0  0  0  0  0  0  0  0
    5.1733   -4.5469   29.8123 C   0  0  0  0  0  0  0  0  0  0  0  0
   -1.7508  -11.3016   18.6072 C   0  0  0  0  0  0  0  0  0  0  0  0
    1.7497   -5.6771   26.4971 C   0  0  0  0  0  0  0  0  0  0  0  0
   -1.5799   -9.9322   18.3468 C   0  0  0  0  0  0  0  0  0  0  0  0
   -1.0871  -12.2214   17.8851 C   0  0  0  0  0  0  0  0  0  0  0  0
   -2.2706   -8.9669   19.0691 C   0  0  0  0  0  0  0  0  0  0  0  0
    3.0279   -5.3073   26.8197 C   0  0  0  0  0  0  0  0  0  0  0  0
    7.3282   -3.8948   29.1186 C   0  0  0  0  0  0  0  0  0  0  0  0
  1  3  4  0
  1  7  4  0
  2  3  1  0
  2  6  4  0
  2 16  4  0
  3 22  4  0
  4  9  4  0
  4 10  1  0
  4 20  4  0
  5 16  4  0
  5 23  4  0
  6 15  4  0
  7 12  4  0
  8 13  4  0
  8 14  4  0
  9 11  4  0
 11 14  4  0
 11 19  4  0
 12 18  4  0
 13 21  4  0
 15 23  4  0
 17 19  4  0
 17 20  4  0
 18 22  4  0
 19 21  4  0
M  END
$$$$

 Created by Python create_sdf_string function

 23 25  0  0  0  0  0  0  0  0999 V2000
    2.4610   -5.3070   29.1240 C   0  0  0  0  0  0  0  0  0  0  0  0
    4.7710   -4.6952   28.4803 C   0  0  0  0  0  0  0  0  0  0  0  0
    3.4047   -5.1087   28.1314 C   0  0  0  0  0  0  0  0  0  0  0  0
   -0.2234  -11.8615   16.8874 C   0  0  0  0  0  0  0  0  0  0  0  0
    6.4491   -4.1532   30.1213 C   0  0  0  0  0  0  0  0  0  0  0  0
    5.7060   -4.4340   27.4975 C   0  0  0  0  0  0  0  0  0  0  0  0
    1.1818   -5.6612   28.8399 C   0  0  0  0  0  0  0  0  0  0  0  0
   -1.2067   -7.3287   17.7772 C   0  0  0  0  0  0  0  0  0  0  0  0
   -0.0206  -10.5585   16.6210 C   0  0  0  0  0  0  0  0  0  0  0  0
    0.3696  -12.7626   16.2169 O   0  0  0  0  0  0  0  0  0  0  0  0
   -0.6895   -9.5676   17.3297 C   0  0  0  0  0  0  0  0  0  0  0  0
    0.8388   -5.8417   27.5264 C   0  0  0  0  0  0  0  0  0  0  0  0
   -2.0709   -7.6637   18.7817 C   0  0  0  0  0  0  0  0  0  0  0  0
   -0.5279   -8.2168   17.0717 C   0  0  0  0  0  0  0  0  0  0  0  0
    6.9694   -4.0191   27.8190 C   0  0  0  0  0  0  0  0  0  0  0  0
    5.1733   -4.5469   29.8123 C   0  0  0  0  0  0  0  0  0  0  0  0
   -1.7508  -11.3016   18.6072 C   0  0  0  0  0  0  0  0  0  0  0  0
    1.7497   -5.6771   26.4971 C   0  0  0  0  0  0  0  0  0  0  0  0
   -1.5799   -9.9322   18.3468 C   0  0  0  0  0  0  0  0  0  0  0  0
   -1.0871  -12.2214   17.8851 C   0  0  0  0  0  0  0  0  0  0  0  0
   -2.2706   -8.9669   19.0691 C   0  0  0  0  0  0  0  0  0  0  0  0
    3.0279   -5.3073   26.8197 C   0  0  0  0  0  0  0  0  0  0  0  0
    7.3282   -3.8948   29.1186 C   0  0  0  0  0  0  0  0  0  0  0  0
  1  3  4  0
  1  7  4  0
  2  3  1  0
  2  6  4  0
  2 16  4  0
  3 22  4  0
  4  9  4  0
  4 10  1  0
  4 20  4  0
  5 16  4  0
  5 23  4  0
  6 15  4  0
  7 12  4  0
  8 13  4  0
  8 14  4  0
  9 11  4  0
 11 14  4  0
 11 19  4  0
 12 18  4  0
 13 21  4  0
 15 23  4  0
 17 19  4  0
 17 20  4  0
 18 22  4  0
 19 21  4  0
M  END
$$$$

 Created by Python create_sdf_string function

 23 25  0  0  0  0  0  0  0  0999 V2000
    2.4610   -5.3070   29.1240 C   0  0  0  0  0  0  0  0  0  0  0  0
    4.7710   -4.6952   28.4803 C   0  0  0  0  0  0  0  0  0  0  0  0
    3.4047   -5.1087   28.1314 C   0  0  0  0  0  0  0  0  0  0  0  0
   -0.2234  -11.8615   16.8874 C   0  0  0  0  0  0  0  0  0  0  0  0
    6.4491   -4.1532   30.1213 C   0  0  0  0  0  0  0  0  0  0  0  0
    5.7060   -4.4340   27.4975 C   0  0  0  0  0  0  0  0  0  0  0  0
    1.1818   -5.6612   28.8399 C   0  0  0  0  0  0  0  0  0  0  0  0
   -1.2067   -7.3287   17.7772 C   0  0  0  0  0  0  0  0  0  0  0  0
   -0.0206  -10.5585   16.6210 C   0  0  0  0  0  0  0  0  0  0  0  0
    0.3696  -12.7626   16.2169 O   0  0  0  0  0  0  0  0  0  0  0  0
   -0.6895   -9.5676   17.3297 C   0  0  0  0  0  0  0  0  0  0  0  0
    0.8388   -5.8417   27.5264 C   0  0  0  0  0  0  0  0  0  0  0  0
   -2.0709   -7.6637   18.7817 C   0  0  0  0  0  0  0  0  0  0  0  0
   -0.5279   -8.2168   17.0717 C   0  0  0  0  0  0  0  0  0  0  0  0
    6.9694   -4.0191   27.8190 C   0  0  0  0  0  0  0  0  0  0  0  0
    5.1733   -4.5469   29.8123 C   0  0  0  0  0  0  0  0  0  0  0  0
   -1.7508  -11.3016   18.6072 C   0  0  0  0  0  0  0  0  0  0  0  0
    1.7497   -5.6771   26.4971 C   0  0  0  0  0  0  0  0  0  0  0  0
   -1.5799   -9.9322   18.3468 C   0  0  0  0  0  0  0  0  0  0  0  0
   -1.0871  -12.2214   17.8851 C   0  0  0  0  0  0  0  0  0  0  0  0
   -2.2706   -8.9669   19.0691 C   0  0  0  0  0  0  0  0  0  0  0  0
    3.0279   -5.3073   26.8197 C   0  0  0  0  0  0  0  0  0  0  0  0
    7.3282   -3.8948   29.1186 C   0  0  0  0  0  0  0  0  0  0  0  0
  1  3  4  0
  1  7  4  0
  2  3  1  0
  2  6  4  0
  2 16  4  0
  3 22  4  0
  4  9  4  0
  4 10  1  0
  4 20  4  0
  5 16  4  0
  5 23  4  0
  6 15  4  0
  7 12  4  0
  8 13  4  0
  8 14  4  0
  9 11  4  0
 11 14  4  0
 11 19  4  0
 12 18  4  0
 13 21  4  0
 15 23  4  0
 17 19  4  0
 17 20  4  0
 18 22  4  0
 19 21  4  0
M  END
$$$$

 Created by Python create_sdf_string function

 23 25  0  0  0  0  0  0  0  0999 V2000
    2.4610   -5.3070   29.1240 C   0  0  0  0  0  0  0  0  0  0  0  0
    4.7710   -4.6952   28.4803 C   0  0  0  0  0  0  0  0  0  0  0  0
    3.4047   -5.1087   28.1314 C   0  0  0  0  0  0  0  0  0  0  0  0
   -0.2234  -11.8615   16.8874 C   0  0  0  0  0  0  0  0  0  0  0  0
    6.4491   -4.1532   30.1213 C   0  0  0  0  0  0  0  0  0  0  0  0
    5.7060   -4.4340   27.4975 C   0  0  0  0  0  0  0  0  0  0  0  0
    1.1818   -5.6612   28.8399 C   0  0  0  0  0  0  0  0  0  0  0  0
   -1.2067   -7.3287   17.7772 C   0  0  0  0  0  0  0  0  0  0  0  0
   -0.0206  -10.5585   16.6210 C   0  0  0  0  0  0  0  0  0  0  0  0
    0.3696  -12.7626   16.2169 O   0  0  0  0  0  0  0  0  0  0  0  0
   -0.6895   -9.5676   17.3297 C   0  0  0  0  0  0  0  0  0  0  0  0
    0.8388   -5.8417   27.5264 C   0  0  0  0  0  0  0  0  0  0  0  0
   -2.0709   -7.6637   18.7817 C   0  0  0  0  0  0  0  0  0  0  0  0
   -0.5279   -8.2168   17.0717 C   0  0  0  0  0  0  0  0  0  0  0  0
    6.9694   -4.0191   27.8190 C   0  0  0  0  0  0  0  0  0  0  0  0
    5.1733   -4.5469   29.8123 C   0  0  0  0  0  0  0  0  0  0  0  0
   -1.7508  -11.3016   18.6072 C   0  0  0  0  0  0  0  0  0  0  0  0
    1.7497   -5.6771   26.4971 C   0  0  0  0  0  0  0  0  0  0  0  0
   -1.5799   -9.9322   18.3468 C   0  0  0  0  0  0  0  0  0  0  0  0
   -1.0871  -12.2214   17.8851 C   0  0  0  0  0  0  0  0  0  0  0  0
   -2.2706   -8.9669   19.0691 C   0  0  0  0  0  0  0  0  0  0  0  0
    3.0279   -5.3073   26.8197 C   0  0  0  0  0  0  0  0  0  0  0  0
    7.3282   -3.8948   29.1186 C   0  0  0  0  0  0  0  0  0  0  0  0
  1  3  4  0
  1  7  4  0
  2  3  1  0
  2  6  4  0
  2 16  4  0
  3 22  4  0
  4  9  4  0
  4 10  1  0
  4 20  4  0
  5 16  4  0
  5 23  4  0
  6 15  4  0
  7 12  4  0
  8 13  4  0
  8 14  4  0
  9 11  4  0
 11 14  4  0
 11 19  4  0
 12 18  4  0
 13 21  4  0
 15 23  4  0
 17 19  4  0
 17 20  4  0
 18 22  4  0
 19 21  4  0
M  END
$$$$

 Created by Python create_sdf_string function

 23 25  0  0  0  0  0  0  0  0999 V2000
    2.4610   -5.3070   29.1240 C   0  0  0  0  0  0  0  0  0  0  0  0
    4.7710   -4.6952   28.4803 C   0  0  0  0  0  0  0  0  0  0  0  0
    3.4047   -5.1087   28.1314 C   0  0  0  0  0  0  0  0  0  0  0  0
   -0.2234  -11.8615   16.8874 C   0  0  0  0  0  0  0  0  0  0  0  0
    6.4491   -4.1532   30.1213 C   0  0  0  0  0  0  0  0  0  0  0  0
    5.7060   -4.4340   27.4975 C   0  0  0  0  0  0  0  0  0  0  0  0
    1.1818   -5.6612   28.8399 C   0  0  0  0  0  0  0  0  0  0  0  0
   -1.2067   -7.3287   17.7772 C   0  0  0  0  0  0  0  0  0  0  0  0
   -0.0206  -10.5585   16.6210 C   0  0  0  0  0  0  0  0  0  0  0  0
    0.3696  -12.7626   16.2169 O   0  0  0  0  0  0  0  0  0  0  0  0
   -0.6895   -9.5676   17.3297 C   0  0  0  0  0  0  0  0  0  0  0  0
    0.8388   -5.8417   27.5264 C   0  0  0  0  0  0  0  0  0  0  0  0
   -2.0709   -7.6637   18.7817 C   0  0  0  0  0  0  0  0  0  0  0  0
   -0.5279   -8.2168   17.0717 C   0  0  0  0  0  0  0  0  0  0  0  0
    6.9694   -4.0191   27.8190 C   0  0  0  0  0  0  0  0  0  0  0  0
    5.1733   -4.5469   29.8123 C   0  0  0  0  0  0  0  0  0  0  0  0
   -1.7508  -11.3016   18.6072 C   0  0  0  0  0  0  0  0  0  0  0  0
    1.7497   -5.6771   26.4971 C   0  0  0  0  0  0  0  0  0  0  0  0
   -1.5799   -9.9322   18.3468 C   0  0  0  0  0  0  0  0  0  0  0  0
   -1.0871  -12.2214   17.8851 C   0  0  0  0  0  0  0  0  0  0  0  0
   -2.2706   -8.9669   19.0691 C   0  0  0  0  0  0  0  0  0  0  0  0
    3.0279   -5.3073   26.8197 C   0  0  0  0  0  0  0  0  0  0  0  0
    7.3282   -3.8948   29.1186 C   0  0  0  0  0  0  0  0  0  0  0  0
  1  3  4  0
  1  7  4  0
  2  3  1  0
  2  6  4  0
  2 16  4  0
  3 22  4  0
  4  9  4  0
  4 10  1  0
  4 20  4  0
  5 16  4  0
  5 23  4  0
  6 15  4  0
  7 12  4  0
  8 13  4  0
  8 14  4  0
  9 11  4  0
 11 14  4  0
 11 19  4  0
 12 18  4  0
 13 21  4  0
 15 23  4  0
 17 19  4  0
 17 20  4  0
 18 22  4  0
 19 21  4  0
M  END
$$$$

 Created by Python create_sdf_string function

 23 25  0  0  0  0  0  0  0  0999 V2000
    2.4610   -5.3070   29.1240 C   0  0  0  0  0  0  0  0  0  0  0  0
    4.7710   -4.6952   28.4803 C   0  0  0  0  0  0  0  0  0  0  0  0
    3.4047   -5.1087   28.1314 C   0  0  0  0  0  0  0  0  0  0  0  0
   -0.2234  -11.8615   16.8874 C   0  0  0  0  0  0  0  0  0  0  0  0
    6.4491   -4.1532   30.1213 C   0  0  0  0  0  0  0  0  0  0  0  0
    5.7060   -4.4340   27.4975 C   0  0  0  0  0  0  0  0  0  0  0  0
    1.1818   -5.6612   28.8399 C   0  0  0  0  0  0  0  0  0  0  0  0
   -1.2067   -7.3287   17.7772 C   0  0  0  0  0  0  0  0  0  0  0  0
   -0.0206  -10.5585   16.6210 C   0  0  0  0  0  0  0  0  0  0  0  0
    0.3696  -12.7626   16.2169 O   0  0  0  0  0  0  0  0  0  0  0  0
   -0.6895   -9.5676   17.3297 C   0  0  0  0  0  0  0  0  0  0  0  0
    0.8388   -5.8417   27.5264 C   0  0  0  0  0  0  0  0  0  0  0  0
   -2.0709   -7.6637   18.7817 C   0  0  0  0  0  0  0  0  0  0  0  0
   -0.5279   -8.2168   17.0717 C   0  0  0  0  0  0  0  0  0  0  0  0
    6.9694   -4.0191   27.8190 C   0  0  0  0  0  0  0  0  0  0  0  0
    5.1733   -4.5469   29.8123 C   0  0  0  0  0  0  0  0  0  0  0  0
   -1.7508  -11.3016   18.6072 C   0  0  0  0  0  0  0  0  0  0  0  0
    1.7497   -5.6771   26.4971 C   0  0  0  0  0  0  0  0  0  0  0  0
   -1.5799   -9.9322   18.3468 C   0  0  0  0  0  0  0  0  0  0  0  0
   -1.0871  -12.2214   17.8851 C   0  0  0  0  0  0  0  0  0  0  0  0
   -2.2706   -8.9669   19.0691 C   0  0  0  0  0  0  0  0  0  0  0  0
    3.0279   -5.3073   26.8197 C   0  0  0  0  0  0  0  0  0  0  0  0
    7.3282   -3.8948   29.1186 C   0  0  0  0  0  0  0  0  0  0  0  0
  1  3  4  0
  1  7  4  0
  2  3  1  0
  2  6  4  0
  2 16  4  0
  3 22  4  0
  4  9  4  0
  4 10  1  0
  4 20  4  0
  5 16  4  0
  5 23  4  0
  6 15  4  0
  7 12  4  0
  8 13  4  0
  8 14  4  0
  9 11  4  0
 11 14  4  0
 11 19  4  0
 12 18  4  0
 13 21  4  0
 15 23  4  0
 17 19  4  0
 17 20  4  0
 18 22  4  0
 19 21  4  0
M  END
$$$$

 Created by Python create_sdf_string function

 23 25  0  0  0  0  0  0  0  0999 V2000
    2.4610   -5.3070   29.1240 C   0  0  0  0  0  0  0  0  0  0  0  0
    4.7710   -4.6952   28.4803 C   0  0  0  0  0  0  0  0  0  0  0  0
    3.4047   -5.1087   28.1314 C   0  0  0  0  0  0  0  0  0  0  0  0
   -0.2234  -11.8615   16.8874 C   0  0  0  0  0  0  0  0  0  0  0  0
    6.4491   -4.1532   30.1213 C   0  0  0  0  0  0  0  0  0  0  0  0
    5.7060   -4.4340   27.4975 C   0  0  0  0  0  0  0  0  0  0  0  0
    1.1818   -5.6612   28.8399 C   0  0  0  0  0  0  0  0  0  0  0  0
   -1.2067   -7.3287   17.7772 C   0  0  0  0  0  0  0  0  0  0  0  0
   -0.0206  -10.5585   16.6210 C   0  0  0  0  0  0  0  0  0  0  0  0
    0.3696  -12.7626   16.2169 O   0  0  0  0  0  0  0  0  0  0  0  0
   -0.6895   -9.5676   17.3297 C   0  0  0  0  0  0  0  0  0  0  0  0
    0.8388   -5.8417   27.5264 C   0  0  0  0  0  0  0  0  0  0  0  0
   -2.0709   -7.6637   18.7817 C   0  0  0  0  0  0  0  0  0  0  0  0
   -0.5279   -8.2168   17.0717 C   0  0  0  0  0  0  0  0  0  0  0  0
    6.9694   -4.0191   27.8190 C   0  0  0  0  0  0  0  0  0  0  0  0
    5.1733   -4.5469   29.8123 C   0  0  0  0  0  0  0  0  0  0  0  0
   -1.7508  -11.3016   18.6072 C   0  0  0  0  0  0  0  0  0  0  0  0
    1.7497   -5.6771   26.4971 C   0  0  0  0  0  0  0  0  0  0  0  0
   -1.5799   -9.9322   18.3468 C   0  0  0  0  0  0  0  0  0  0  0  0
   -1.0871  -12.2214   17.8851 C   0  0  0  0  0  0  0  0  0  0  0  0
   -2.2706   -8.9669   19.0691 C   0  0  0  0  0  0  0  0  0  0  0  0
    3.0279   -5.3073   26.8197 C   0  0  0  0  0  0  0  0  0  0  0  0
    7.3282   -3.8948   29.1186 C   0  0  0  0  0  0  0  0  0  0  0  0
  1  3  4  0
  1  7  4  0
  2  3  1  0
  2  6  4  0
  2 16  4  0
  3 22  4  0
  4  9  4  0
  4 10  1  0
  4 20  4  0
  5 16  4  0
  5 23  4  0
  6 15  4  0
  7 12  4  0
  8 13  4  0
  8 14  4  0
  9 11  4  0
 11 14  4  0
 11 19  4  0
 12 18  4  0
 13 21  4  0
 15 23  4  0
 17 19  4  0
 17 20  4  0
 18 22  4  0
 19 21  4  0
M  END
$$$$

 Created by Python create_sdf_string function

 23 25  0  0  0  0  0  0  0  0999 V2000
    2.4610   -5.3070   29.1240 C   0  0  0  0  0  0  0  0  0  0  0  0
    4.7710   -4.6952   28.4803 C   0  0  0  0  0  0  0  0  0  0  0  0
    3.4047   -5.1087   28.1314 C   0  0  0  0  0  0  0  0  0  0  0  0
   -0.2234  -11.8615   16.8874 C   0  0  0  0  0  0  0  0  0  0  0  0
    6.4491   -4.1532   30.1213 C   0  0  0  0  0  0  0  0  0  0  0  0
    5.7060   -4.4340   27.4975 C   0  0  0  0  0  0  0  0  0  0  0  0
    1.1818   -5.6612   28.8399 C   0  0  0  0  0  0  0  0  0  0  0  0
   -1.2067   -7.3287   17.7772 C   0  0  0  0  0  0  0  0  0  0  0  0
   -0.0206  -10.5585   16.6210 C   0  0  0  0  0  0  0  0  0  0  0  0
    0.3696  -12.7626   16.2169 O   0  0  0  0  0  0  0  0  0  0  0  0
   -0.6895   -9.5676   17.3297 C   0  0  0  0  0  0  0  0  0  0  0  0
    0.8388   -5.8417   27.5264 C   0  0  0  0  0  0  0  0  0  0  0  0
   -2.0709   -7.6637   18.7817 C   0  0  0  0  0  0  0  0  0  0  0  0
   -0.5279   -8.2168   17.0717 C   0  0  0  0  0  0  0  0  0  0  0  0
    6.9694   -4.0191   27.8190 C   0  0  0  0  0  0  0  0  0  0  0  0
    5.1733   -4.5469   29.8123 C   0  0  0  0  0  0  0  0  0  0  0  0
   -1.7508  -11.3016   18.6072 C   0  0  0  0  0  0  0  0  0  0  0  0
    1.7497   -5.6771   26.4971 C   0  0  0  0  0  0  0  0  0  0  0  0
   -1.5799   -9.9322   18.3468 C   0  0  0  0  0  0  0  0  0  0  0  0
   -1.0871  -12.2214   17.8851 C   0  0  0  0  0  0  0  0  0  0  0  0
   -2.2706   -8.9669   19.0691 C   0  0  0  0  0  0  0  0  0  0  0  0
    3.0279   -5.3073   26.8197 C   0  0  0  0  0  0  0  0  0  0  0  0
    7.3282   -3.8948   29.1186 C   0  0  0  0  0  0  0  0  0  0  0  0
  1  3  4  0
  1  7  4  0
  2  3  1  0
  2  6  4  0
  2 16  4  0
  3 22  4  0
  4  9  4  0
  4 10  1  0
  4 20  4  0
  5 16  4  0
  5 23  4  0
  6 15  4  0
  7 12  4  0
  8 13  4  0
  8 14  4  0
  9 11  4  0
 11 14  4  0
 11 19  4  0
 12 18  4  0
 13 21  4  0
 15 23  4  0
 17 19  4  0
 17 20  4  0
 18 22  4  0
 19 21  4  0
M  END
$$$$

 Created by Python create_sdf_string function

 23 25  0  0  0  0  0  0  0  0999 V2000
    2.4610   -5.3070   29.1240 C   0  0  0  0  0  0  0  0  0  0  0  0
    4.7710   -4.6952   28.4803 C   0  0  0  0  0  0  0  0  0  0  0  0
    3.4047   -5.1087   28.1314 C   0  0  0  0  0  0  0  0  0  0  0  0
   -0.2234  -11.8615   16.8874 C   0  0  0  0  0  0  0  0  0  0  0  0
    6.4491   -4.1532   30.1213 C   0  0  0  0  0  0  0  0  0  0  0  0
    5.7060   -4.4340   27.4975 C   0  0  0  0  0  0  0  0  0  0  0  0
    1.1818   -5.6612   28.8399 C   0  0  0  0  0  0  0  0  0  0  0  0
   -1.2067   -7.3287   17.7772 C   0  0  0  0  0  0  0  0  0  0  0  0
   -0.0206  -10.5585   16.6210 C   0  0  0  0  0  0  0  0  0  0  0  0
    0.3696  -12.7626   16.2169 O   0  0  0  0  0  0  0  0  0  0  0  0
   -0.6895   -9.5676   17.3297 C   0  0  0  0  0  0  0  0  0  0  0  0
    0.8388   -5.8417   27.5264 C   0  0  0  0  0  0  0  0  0  0  0  0
   -2.0709   -7.6637   18.7817 C   0  0  0  0  0  0  0  0  0  0  0  0
   -0.5279   -8.2168   17.0717 C   0  0  0  0  0  0  0  0  0  0  0  0
    6.9694   -4.0191   27.8190 C   0  0  0  0  0  0  0  0  0  0  0  0
    5.1733   -4.5469   29.8123 C   0  0  0  0  0  0  0  0  0  0  0  0
   -1.7508  -11.3016   18.6072 C   0  0  0  0  0  0  0  0  0  0  0  0
    1.7497   -5.6771   26.4971 C   0  0  0  0  0  0  0  0  0  0  0  0
   -1.5799   -9.9322   18.3468 C   0  0  0  0  0  0  0  0  0  0  0  0
   -1.0871  -12.2214   17.8851 C   0  0  0  0  0  0  0  0  0  0  0  0
   -2.2706   -8.9669   19.0691 C   0  0  0  0  0  0  0  0  0  0  0  0
    3.0279   -5.3073   26.8197 C   0  0  0  0  0  0  0  0  0  0  0  0
    7.3282   -3.8948   29.1186 C   0  0  0  0  0  0  0  0  0  0  0  0
  1  3  4  0
  1  7  4  0
  2  3  1  0
  2  6  4  0
  2 16  4  0
  3 22  4  0
  4  9  4  0
  4 10  1  0
  4 20  4  0
  5 16  4  0
  5 23  4  0
  6 15  4  0
  7 12  4  0
  8 13  4  0
  8 14  4  0
  9 11  4  0
 11 14  4  0
 11 19  4  0
 12 18  4  0
 13 21  4  0
 15 23  4  0
 17 19  4  0
 17 20  4  0
 18 22  4  0
 19 21  4  0
M  END
$$$$

 Created by Python create_sdf_string function

 23 25  0  0  0  0  0  0  0  0999 V2000
    2.4610   -5.3070   29.1240 C   0  0  0  0  0  0  0  0  0  0  0  0
    4.7710   -4.6952   28.4803 C   0  0  0  0  0  0  0  0  0  0  0  0
    3.4047   -5.1087   28.1314 C   0  0  0  0  0  0  0  0  0  0  0  0
   -0.2234  -11.8615   16.8874 C   0  0  0  0  0  0  0  0  0  0  0  0
    6.4491   -4.1532   30.1213 C   0  0  0  0  0  0  0  0  0  0  0  0
    5.7060   -4.4340   27.4975 C   0  0  0  0  0  0  0  0  0  0  0  0
    1.1818   -5.6612   28.8399 C   0  0  0  0  0  0  0  0  0  0  0  0
   -1.2067   -7.3287   17.7772 C   0  0  0  0  0  0  0  0  0  0  0  0
   -0.0206  -10.5585   16.6210 C   0  0  0  0  0  0  0  0  0  0  0  0
    0.3696  -12.7626   16.2169 O   0  0  0  0  0  0  0  0  0  0  0  0
   -0.6895   -9.5676   17.3297 C   0  0  0  0  0  0  0  0  0  0  0  0
    0.8388   -5.8417   27.5264 C   0  0  0  0  0  0  0  0  0  0  0  0
   -2.0709   -7.6637   18.7817 C   0  0  0  0  0  0  0  0  0  0  0  0
   -0.5279   -8.2168   17.0717 C   0  0  0  0  0  0  0  0  0  0  0  0
    6.9694   -4.0191   27.8190 C   0  0  0  0  0  0  0  0  0  0  0  0
    5.1733   -4.5469   29.8123 C   0  0  0  0  0  0  0  0  0  0  0  0
   -1.7508  -11.3016   18.6072 C   0  0  0  0  0  0  0  0  0  0  0  0
    1.7497   -5.6771   26.4971 C   0  0  0  0  0  0  0  0  0  0  0  0
   -1.5799   -9.9322   18.3468 C   0  0  0  0  0  0  0  0  0  0  0  0
   -1.0871  -12.2214   17.8851 C   0  0  0  0  0  0  0  0  0  0  0  0
   -2.2706   -8.9669   19.0691 C   0  0  0  0  0  0  0  0  0  0  0  0
    3.0279   -5.3073   26.8197 C   0  0  0  0  0  0  0  0  0  0  0  0
    7.3282   -3.8948   29.1186 C   0  0  0  0  0  0  0  0  0  0  0  0
  1  3  4  0
  1  7  4  0
  2  3  1  0
  2  6  4  0
  2 16  4  0
  3 22  4  0
  4  9  4  0
  4 10  1  0
  4 20  4  0
  5 16  4  0
  5 23  4  0
  6 15  4  0
  7 12  4  0
  8 13  4  0
  8 14  4  0
  9 11  4  0
 11 14  4  0
 11 19  4  0
 12 18  4  0
 13 21  4  0
 15 23  4  0
 17 19  4  0
 17 20  4  0
 18 22  4  0
 19 21  4  0
M  END
$$$$

 Created by Python create_sdf_string function

 23 25  0  0  0  0  0  0  0  0999 V2000
    2.4610   -5.3070   29.1240 C   0  0  0  0  0  0  0  0  0  0  0  0
    4.7710   -4.6952   28.4803 C   0  0  0  0  0  0  0  0  0  0  0  0
    3.4047   -5.1087   28.1314 C   0  0  0  0  0  0  0  0  0  0  0  0
   -0.2234  -11.8615   16.8874 C   0  0  0  0  0  0  0  0  0  0  0  0
    6.4491   -4.1532   30.1213 C   0  0  0  0  0  0  0  0  0  0  0  0
    5.7060   -4.4340   27.4975 C   0  0  0  0  0  0  0  0  0  0  0  0
    1.1818   -5.6612   28.8399 C   0  0  0  0  0  0  0  0  0  0  0  0
   -1.2067   -7.3287   17.7772 C   0  0  0  0  0  0  0  0  0  0  0  0
   -0.0206  -10.5585   16.6210 C   0  0  0  0  0  0  0  0  0  0  0  0
    0.3696  -12.7626   16.2169 O   0  0  0  0  0  0  0  0  0  0  0  0
   -0.6895   -9.5676   17.3297 C   0  0  0  0  0  0  0  0  0  0  0  0
    0.8388   -5.8417   27.5264 C   0  0  0  0  0  0  0  0  0  0  0  0
   -2.0709   -7.6637   18.7817 C   0  0  0  0  0  0  0  0  0  0  0  0
   -0.5279   -8.2168   17.0717 C   0  0  0  0  0  0  0  0  0  0  0  0
    6.9694   -4.0191   27.8190 C   0  0  0  0  0  0  0  0  0  0  0  0
    5.1733   -4.5469   29.8123 C   0  0  0  0  0  0  0  0  0  0  0  0
   -1.7508  -11.3016   18.6072 C   0  0  0  0  0  0  0  0  0  0  0  0
    1.7497   -5.6771   26.4971 C   0  0  0  0  0  0  0  0  0  0  0  0
   -1.5799   -9.9322   18.3468 C   0  0  0  0  0  0  0  0  0  0  0  0
   -1.0871  -12.2214   17.8851 C   0  0  0  0  0  0  0  0  0  0  0  0
   -2.2706   -8.9669   19.0691 C   0  0  0  0  0  0  0  0  0  0  0  0
    3.0279   -5.3073   26.8197 C   0  0  0  0  0  0  0  0  0  0  0  0
    7.3282   -3.8948   29.1186 C   0  0  0  0  0  0  0  0  0  0  0  0
  1  3  4  0
  1  7  4  0
  2  3  1  0
  2  6  4  0
  2 16  4  0
  3 22  4  0
  4  9  4  0
  4 10  1  0
  4 20  4  0
  5 16  4  0
  5 23  4  0
  6 15  4  0
  7 12  4  0
  8 13  4  0
  8 14  4  0
  9 11  4  0
 11 14  4  0
 11 19  4  0
 12 18  4  0
 13 21  4  0
 15 23  4  0
 17 19  4  0
 17 20  4  0
 18 22  4  0
 19 21  4  0
M  END
$$$$

 Created by Python create_sdf_string function

 23 25  0  0  0  0  0  0  0  0999 V2000
    2.4610   -5.3070   29.1240 C   0  0  0  0  0  0  0  0  0  0  0  0
    4.7710   -4.6952   28.4803 C   0  0  0  0  0  0  0  0  0  0  0  0
    3.4047   -5.1087   28.1314 C   0  0  0  0  0  0  0  0  0  0  0  0
   -0.2234  -11.8615   16.8874 C   0  0  0  0  0  0  0  0  0  0  0  0
    6.4491   -4.1532   30.1213 C   0  0  0  0  0  0  0  0  0  0  0  0
    5.7060   -4.4340   27.4975 C   0  0  0  0  0  0  0  0  0  0  0  0
    1.1818   -5.6612   28.8399 C   0  0  0  0  0  0  0  0  0  0  0  0
   -1.2067   -7.3287   17.7772 C   0  0  0  0  0  0  0  0  0  0  0  0
   -0.0206  -10.5585   16.6210 C   0  0  0  0  0  0  0  0  0  0  0  0
    0.3696  -12.7626   16.2169 O   0  0  0  0  0  0  0  0  0  0  0  0
   -0.6895   -9.5676   17.3297 C   0  0  0  0  0  0  0  0  0  0  0  0
    0.8388   -5.8417   27.5264 C   0  0  0  0  0  0  0  0  0  0  0  0
   -2.0709   -7.6637   18.7817 C   0  0  0  0  0  0  0  0  0  0  0  0
   -0.5279   -8.2168   17.0717 C   0  0  0  0  0  0  0  0  0  0  0  0
    6.9694   -4.0191   27.8190 C   0  0  0  0  0  0  0  0  0  0  0  0
    5.1733   -4.5469   29.8123 C   0  0  0  0  0  0  0  0  0  0  0  0
   -1.7508  -11.3016   18.6072 C   0  0  0  0  0  0  0  0  0  0  0  0
    1.7497   -5.6771   26.4971 C   0  0  0  0  0  0  0  0  0  0  0  0
   -1.5799   -9.9322   18.3468 C   0  0  0  0  0  0  0  0  0  0  0  0
   -1.0871  -12.2214   17.8851 C   0  0  0  0  0  0  0  0  0  0  0  0
   -2.2706   -8.9669   19.0691 C   0  0  0  0  0  0  0  0  0  0  0  0
    3.0279   -5.3073   26.8197 C   0  0  0  0  0  0  0  0  0  0  0  0
    7.3282   -3.8948   29.1186 C   0  0  0  0  0  0  0  0  0  0  0  0
  1  3  4  0
  1  7  4  0
  2  3  1  0
  2  6  4  0
  2 16  4  0
  3 22  4  0
  4  9  4  0
  4 10  1  0
  4 20  4  0
  5 16  4  0
  5 23  4  0
  6 15  4  0
  7 12  4  0
  8 13  4  0
  8 14  4  0
  9 11  4  0
 11 14  4  0
 11 19  4  0
 12 18  4  0
 13 21  4  0
 15 23  4  0
 17 19  4  0
 17 20  4  0
 18 22  4  0
 19 21  4  0
M  END
$$$$

 Created by Python create_sdf_string function

 23 25  0  0  0  0  0  0  0  0999 V2000
    2.4610   -5.3070   29.1240 C   0  0  0  0  0  0  0  0  0  0  0  0
    4.7710   -4.6952   28.4803 C   0  0  0  0  0  0  0  0  0  0  0  0
    3.4047   -5.1087   28.1314 C   0  0  0  0  0  0  0  0  0  0  0  0
   -0.2234  -11.8615   16.8874 C   0  0  0  0  0  0  0  0  0  0  0  0
    6.4491   -4.1532   30.1213 C   0  0  0  0  0  0  0  0  0  0  0  0
    5.7060   -4.4340   27.4975 C   0  0  0  0  0  0  0  0  0  0  0  0
    1.1818   -5.6612   28.8399 C   0  0  0  0  0  0  0  0  0  0  0  0
   -1.2067   -7.3287   17.7772 C   0  0  0  0  0  0  0  0  0  0  0  0
   -0.0206  -10.5585   16.6210 C   0  0  0  0  0  0  0  0  0  0  0  0
    0.3696  -12.7626   16.2169 O   0  0  0  0  0  0  0  0  0  0  0  0
   -0.6895   -9.5676   17.3297 C   0  0  0  0  0  0  0  0  0  0  0  0
    0.8388   -5.8417   27.5264 C   0  0  0  0  0  0  0  0  0  0  0  0
   -2.0709   -7.6637   18.7817 C   0  0  0  0  0  0  0  0  0  0  0  0
   -0.5279   -8.2168   17.0717 C   0  0  0  0  0  0  0  0  0  0  0  0
    6.9694   -4.0191   27.8190 C   0  0  0  0  0  0  0  0  0  0  0  0
    5.1733   -4.5469   29.8123 C   0  0  0  0  0  0  0  0  0  0  0  0
   -1.7508  -11.3016   18.6072 C   0  0  0  0  0  0  0  0  0  0  0  0
    1.7497   -5.6771   26.4971 C   0  0  0  0  0  0  0  0  0  0  0  0
   -1.5799   -9.9322   18.3468 C   0  0  0  0  0  0  0  0  0  0  0  0
   -1.0871  -12.2214   17.8851 C   0  0  0  0  0  0  0  0  0  0  0  0
   -2.2706   -8.9669   19.0691 C   0  0  0  0  0  0  0  0  0  0  0  0
    3.0279   -5.3073   26.8197 C   0  0  0  0  0  0  0  0  0  0  0  0
    7.3282   -3.8948   29.1186 C   0  0  0  0  0  0  0  0  0  0  0  0
  1  3  4  0
  1  7  4  0
  2  3  1  0
  2  6  4  0
  2 16  4  0
  3 22  4  0
  4  9  4  0
  4 10  1  0
  4 20  4  0
  5 16  4  0
  5 23  4  0
  6 15  4  0
  7 12  4  0
  8 13  4  0
  8 14  4  0
  9 11  4  0
 11 14  4  0
 11 19  4  0
 12 18  4  0
 13 21  4  0
 15 23  4  0
 17 19  4  0
 17 20  4  0
 18 22  4  0
 19 21  4  0
M  END
$$$$

 Created by Python create_sdf_string function

 23 25  0  0  0  0  0  0  0  0999 V2000
    2.4610   -5.3070   29.1240 C   0  0  0  0  0  0  0  0  0  0  0  0
    4.7710   -4.6952   28.4803 C   0  0  0  0  0  0  0  0  0  0  0  0
    3.4047   -5.1087   28.1314 C   0  0  0  0  0  0  0  0  0  0  0  0
   -0.2234  -11.8615   16.8874 C   0  0  0  0  0  0  0  0  0  0  0  0
    6.4491   -4.1532   30.1213 C   0  0  0  0  0  0  0  0  0  0  0  0
    5.7060   -4.4340   27.4975 C   0  0  0  0  0  0  0  0  0  0  0  0
    1.1818   -5.6612   28.8399 C   0  0  0  0  0  0  0  0  0  0  0  0
   -1.2067   -7.3287   17.7772 C   0  0  0  0  0  0  0  0  0  0  0  0
   -0.0206  -10.5585   16.6210 C   0  0  0  0  0  0  0  0  0  0  0  0
    0.3696  -12.7626   16.2169 O   0  0  0  0  0  0  0  0  0  0  0  0
   -0.6895   -9.5676   17.3297 C   0  0  0  0  0  0  0  0  0  0  0  0
    0.8388   -5.8417   27.5264 C   0  0  0  0  0  0  0  0  0  0  0  0
   -2.0709   -7.6637   18.7817 C   0  0  0  0  0  0  0  0  0  0  0  0
   -0.5279   -8.2168   17.0717 C   0  0  0  0  0  0  0  0  0  0  0  0
    6.9694   -4.0191   27.8190 C   0  0  0  0  0  0  0  0  0  0  0  0
    5.1733   -4.5469   29.8123 C   0  0  0  0  0  0  0  0  0  0  0  0
   -1.7508  -11.3016   18.6072 C   0  0  0  0  0  0  0  0  0  0  0  0
    1.7497   -5.6771   26.4971 C   0  0  0  0  0  0  0  0  0  0  0  0
   -1.5799   -9.9322   18.3468 C   0  0  0  0  0  0  0  0  0  0  0  0
   -1.0871  -12.2214   17.8851 C   0  0  0  0  0  0  0  0  0  0  0  0
   -2.2706   -8.9669   19.0691 C   0  0  0  0  0  0  0  0  0  0  0  0
    3.0279   -5.3073   26.8197 C   0  0  0  0  0  0  0  0  0  0  0  0
    7.3282   -3.8948   29.1186 C   0  0  0  0  0  0  0  0  0  0  0  0
  1  3  4  0
  1  7  4  0
  2  3  1  0
  2  6  4  0
  2 16  4  0
  3 22  4  0
  4  9  4  0
  4 10  1  0
  4 20  4  0
  5 16  4  0
  5 23  4  0
  6 15  4  0
  7 12  4  0
  8 13  4  0
  8 14  4  0
  9 11  4  0
 11 14  4  0
 11 19  4  0
 12 18  4  0
 13 21  4  0
 15 23  4  0
 17 19  4  0
 17 20  4  0
 18 22  4  0
 19 21  4  0
M  END
$$$$

 Created by Python create_sdf_string function

 23 25  0  0  0  0  0  0  0  0999 V2000
    2.4610   -5.3070   29.1240 C   0  0  0  0  0  0  0  0  0  0  0  0
    4.7710   -4.6952   28.4803 C   0  0  0  0  0  0  0  0  0  0  0  0
    3.4047   -5.1087   28.1314 C   0  0  0  0  0  0  0  0  0  0  0  0
   -0.2234  -11.8615   16.8874 C   0  0  0  0  0  0  0  0  0  0  0  0
    6.4491   -4.1532   30.1213 C   0  0  0  0  0  0  0  0  0  0  0  0
    5.7060   -4.4340   27.4975 C   0  0  0  0  0  0  0  0  0  0  0  0
    1.1818   -5.6612   28.8399 C   0  0  0  0  0  0  0  0  0  0  0  0
   -1.2067   -7.3287   17.7772 C   0  0  0  0  0  0  0  0  0  0  0  0
   -0.0206  -10.5585   16.6210 C   0  0  0  0  0  0  0  0  0  0  0  0
    0.3696  -12.7626   16.2169 O   0  0  0  0  0  0  0  0  0  0  0  0
   -0.6895   -9.5676   17.3297 C   0  0  0  0  0  0  0  0  0  0  0  0
    0.8388   -5.8417   27.5264 C   0  0  0  0  0  0  0  0  0  0  0  0
   -2.0709   -7.6637   18.7817 C   0  0  0  0  0  0  0  0  0  0  0  0
   -0.5279   -8.2168   17.0717 C   0  0  0  0  0  0  0  0  0  0  0  0
    6.9694   -4.0191   27.8190 C   0  0  0  0  0  0  0  0  0  0  0  0
    5.1733   -4.5469   29.8123 C   0  0  0  0  0  0  0  0  0  0  0  0
   -1.7508  -11.3016   18.6072 C   0  0  0  0  0  0  0  0  0  0  0  0
    1.7497   -5.6771   26.4971 C   0  0  0  0  0  0  0  0  0  0  0  0
   -1.5799   -9.9322   18.3468 C   0  0  0  0  0  0  0  0  0  0  0  0
   -1.0871  -12.2214   17.8851 C   0  0  0  0  0  0  0  0  0  0  0  0
   -2.2706   -8.9669   19.0691 C   0  0  0  0  0  0  0  0  0  0  0  0
    3.0279   -5.3073   26.8197 C   0  0  0  0  0  0  0  0  0  0  0  0
    7.3282   -3.8948   29.1186 C   0  0  0  0  0  0  0  0  0  0  0  0
  1  3  4  0
  1  7  4  0
  2  3  1  0
  2  6  4  0
  2 16  4  0
  3 22  4  0
  4  9  4  0
  4 10  1  0
  4 20  4  0
  5 16  4  0
  5 23  4  0
  6 15  4  0
  7 12  4  0
  8 13  4  0
  8 14  4  0
  9 11  4  0
 11 14  4  0
 11 19  4  0
 12 18  4  0
 13 21  4  0
 15 23  4  0
 17 19  4  0
 17 20  4  0
 18 22  4  0
 19 21  4  0
M  END
$$$$

 Created by Python create_sdf_string function

 23 25  0  0  0  0  0  0  0  0999 V2000
    2.4610   -5.3070   29.1240 C   0  0  0  0  0  0  0  0  0  0  0  0
    4.7710   -4.6952   28.4803 C   0  0  0  0  0  0  0  0  0  0  0  0
    3.4047   -5.1087   28.1314 C   0  0  0  0  0  0  0  0  0  0  0  0
   -0.2234  -11.8615   16.8874 C   0  0  0  0  0  0  0  0  0  0  0  0
    6.4491   -4.1532   30.1213 C   0  0  0  0  0  0  0  0  0  0  0  0
    5.7060   -4.4340   27.4975 C   0  0  0  0  0  0  0  0  0  0  0  0
    1.1818   -5.6612   28.8399 C   0  0  0  0  0  0  0  0  0  0  0  0
   -1.2067   -7.3287   17.7772 C   0  0  0  0  0  0  0  0  0  0  0  0
   -0.0206  -10.5585   16.6210 C   0  0  0  0  0  0  0  0  0  0  0  0
    0.3696  -12.7626   16.2169 O   0  0  0  0  0  0  0  0  0  0  0  0
   -0.6895   -9.5676   17.3297 C   0  0  0  0  0  0  0  0  0  0  0  0
    0.8388   -5.8417   27.5264 C   0  0  0  0  0  0  0  0  0  0  0  0
   -2.0709   -7.6637   18.7817 C   0  0  0  0  0  0  0  0  0  0  0  0
   -0.5279   -8.2168   17.0717 C   0  0  0  0  0  0  0  0  0  0  0  0
    6.9694   -4.0191   27.8190 C   0  0  0  0  0  0  0  0  0  0  0  0
    5.1733   -4.5469   29.8123 C   0  0  0  0  0  0  0  0  0  0  0  0
   -1.7508  -11.3016   18.6072 C   0  0  0  0  0  0  0  0  0  0  0  0
    1.7497   -5.6771   26.4971 C   0  0  0  0  0  0  0  0  0  0  0  0
   -1.5799   -9.9322   18.3468 C   0  0  0  0  0  0  0  0  0  0  0  0
   -1.0871  -12.2214   17.8851 C   0  0  0  0  0  0  0  0  0  0  0  0
   -2.2706   -8.9669   19.0691 C   0  0  0  0  0  0  0  0  0  0  0  0
    3.0279   -5.3073   26.8197 C   0  0  0  0  0  0  0  0  0  0  0  0
    7.3282   -3.8948   29.1186 C   0  0  0  0  0  0  0  0  0  0  0  0
  1  3  4  0
  1  7  4  0
  2  3  1  0
  2  6  4  0
  2 16  4  0
  3 22  4  0
  4  9  4  0
  4 10  1  0
  4 20  4  0
  5 16  4  0
  5 23  4  0
  6 15  4  0
  7 12  4  0
  8 13  4  0
  8 14  4  0
  9 11  4  0
 11 14  4  0
 11 19  4  0
 12 18  4  0
 13 21  4  0
 15 23  4  0
 17 19  4  0
 17 20  4  0
 18 22  4  0
 19 21  4  0
M  END
$$$$

 Created by Python create_sdf_string function

 23 25  0  0  0  0  0  0  0  0999 V2000
    2.4610   -5.3070   29.1240 C   0  0  0  0  0  0  0  0  0  0  0  0
    4.7710   -4.6952   28.4803 C   0  0  0  0  0  0  0  0  0  0  0  0
    3.4047   -5.1087   28.1314 C   0  0  0  0  0  0  0  0  0  0  0  0
   -0.2234  -11.8615   16.8874 C   0  0  0  0  0  0  0  0  0  0  0  0
    6.4491   -4.1532   30.1213 C   0  0  0  0  0  0  0  0  0  0  0  0
    5.7060   -4.4340   27.4975 C   0  0  0  0  0  0  0  0  0  0  0  0
    1.1818   -5.6612   28.8399 C   0  0  0  0  0  0  0  0  0  0  0  0
   -1.2067   -7.3287   17.7772 C   0  0  0  0  0  0  0  0  0  0  0  0
   -0.0206  -10.5585   16.6210 C   0  0  0  0  0  0  0  0  0  0  0  0
    0.3696  -12.7626   16.2169 O   0  0  0  0  0  0  0  0  0  0  0  0
   -0.6895   -9.5676   17.3297 C   0  0  0  0  0  0  0  0  0  0  0  0
    0.8388   -5.8417   27.5264 C   0  0  0  0  0  0  0  0  0  0  0  0
   -2.0709   -7.6637   18.7817 C   0  0  0  0  0  0  0  0  0  0  0  0
   -0.5279   -8.2168   17.0717 C   0  0  0  0  0  0  0  0  0  0  0  0
    6.9694   -4.0191   27.8190 C   0  0  0  0  0  0  0  0  0  0  0  0
    5.1733   -4.5469   29.8123 C   0  0  0  0  0  0  0  0  0  0  0  0
   -1.7508  -11.3016   18.6072 C   0  0  0  0  0  0  0  0  0  0  0  0
    1.7497   -5.6771   26.4971 C   0  0  0  0  0  0  0  0  0  0  0  0
   -1.5799   -9.9322   18.3468 C   0  0  0  0  0  0  0  0  0  0  0  0
   -1.0871  -12.2214   17.8851 C   0  0  0  0  0  0  0  0  0  0  0  0
   -2.2706   -8.9669   19.0691 C   0  0  0  0  0  0  0  0  0  0  0  0
    3.0279   -5.3073   26.8197 C   0  0  0  0  0  0  0  0  0  0  0  0
    7.3282   -3.8948   29.1186 C   0  0  0  0  0  0  0  0  0  0  0  0
  1  3  4  0
  1  7  4  0
  2  3  1  0
  2  6  4  0
  2 16  4  0
  3 22  4  0
  4  9  4  0
  4 10  1  0
  4 20  4  0
  5 16  4  0
  5 23  4  0
  6 15  4  0
  7 12  4  0
  8 13  4  0
  8 14  4  0
  9 11  4  0
 11 14  4  0
 11 19  4  0
 12 18  4  0
 13 21  4  0
 15 23  4  0
 17 19  4  0
 17 20  4  0
 18 22  4  0
 19 21  4  0
M  END
$$$$

 Created by Python create_sdf_string function

 23 25  0  0  0  0  0  0  0  0999 V2000
    2.4610   -5.3070   29.1240 C   0  0  0  0  0  0  0  0  0  0  0  0
    4.7710   -4.6952   28.4803 C   0  0  0  0  0  0  0  0  0  0  0  0
    3.4047   -5.1087   28.1314 C   0  0  0  0  0  0  0  0  0  0  0  0
   -0.2234  -11.8615   16.8874 C   0  0  0  0  0  0  0  0  0  0  0  0
    6.4491   -4.1532   30.1213 C   0  0  0  0  0  0  0  0  0  0  0  0
    5.7060   -4.4340   27.4975 C   0  0  0  0  0  0  0  0  0  0  0  0
    1.1818   -5.6612   28.8399 C   0  0  0  0  0  0  0  0  0  0  0  0
   -1.2067   -7.3287   17.7772 C   0  0  0  0  0  0  0  0  0  0  0  0
   -0.0206  -10.5585   16.6210 C   0  0  0  0  0  0  0  0  0  0  0  0
    0.3696  -12.7626   16.2169 O   0  0  0  0  0  0  0  0  0  0  0  0
   -0.6895   -9.5676   17.3297 C   0  0  0  0  0  0  0  0  0  0  0  0
    0.8388   -5.8417   27.5264 C   0  0  0  0  0  0  0  0  0  0  0  0
   -2.0709   -7.6637   18.7817 C   0  0  0  0  0  0  0  0  0  0  0  0
   -0.5279   -8.2168   17.0717 C   0  0  0  0  0  0  0  0  0  0  0  0
    6.9694   -4.0191   27.8190 C   0  0  0  0  0  0  0  0  0  0  0  0
    5.1733   -4.5469   29.8123 C   0  0  0  0  0  0  0  0  0  0  0  0
   -1.7508  -11.3016   18.6072 C   0  0  0  0  0  0  0  0  0  0  0  0
    1.7497   -5.6771   26.4971 C   0  0  0  0  0  0  0  0  0  0  0  0
   -1.5799   -9.9322   18.3468 C   0  0  0  0  0  0  0  0  0  0  0  0
   -1.0871  -12.2214   17.8851 C   0  0  0  0  0  0  0  0  0  0  0  0
   -2.2706   -8.9669   19.0691 C   0  0  0  0  0  0  0  0  0  0  0  0
    3.0279   -5.3073   26.8197 C   0  0  0  0  0  0  0  0  0  0  0  0
    7.3282   -3.8948   29.1186 C   0  0  0  0  0  0  0  0  0  0  0  0
  1  3  4  0
  1  7  4  0
  2  3  1  0
  2  6  4  0
  2 16  4  0
  3 22  4  0
  4  9  4  0
  4 10  1  0
  4 20  4  0
  5 16  4  0
  5 23  4  0
  6 15  4  0
  7 12  4  0
  8 13  4  0
  8 14  4  0
  9 11  4  0
 11 14  4  0
 11 19  4  0
 12 18  4  0
 13 21  4  0
 15 23  4  0
 17 19  4  0
 17 20  4  0
 18 22  4  0
 19 21  4  0
M  END
$$$$

 Created by Python create_sdf_string function

 23 25  0  0  0  0  0  0  0  0999 V2000
    2.4610   -5.3070   29.1240 C   0  0  0  0  0  0  0  0  0  0  0  0
    4.7710   -4.6952   28.4803 C   0  0  0  0  0  0  0  0  0  0  0  0
    3.4047   -5.1087   28.1314 C   0  0  0  0  0  0  0  0  0  0  0  0
   -0.2234  -11.8615   16.8874 C   0  0  0  0  0  0  0  0  0  0  0  0
    6.4491   -4.1532   30.1213 C   0  0  0  0  0  0  0  0  0  0  0  0
    5.7060   -4.4340   27.4975 C   0  0  0  0  0  0  0  0  0  0  0  0
    1.1818   -5.6612   28.8399 C   0  0  0  0  0  0  0  0  0  0  0  0
   -1.2067   -7.3287   17.7772 C   0  0  0  0  0  0  0  0  0  0  0  0
   -0.0206  -10.5585   16.6210 C   0  0  0  0  0  0  0  0  0  0  0  0
    0.3696  -12.7626   16.2169 O   0  0  0  0  0  0  0  0  0  0  0  0
   -0.6895   -9.5676   17.3297 C   0  0  0  0  0  0  0  0  0  0  0  0
    0.8388   -5.8417   27.5264 C   0  0  0  0  0  0  0  0  0  0  0  0
   -2.0709   -7.6637   18.7817 C   0  0  0  0  0  0  0  0  0  0  0  0
   -0.5279   -8.2168   17.0717 C   0  0  0  0  0  0  0  0  0  0  0  0
    6.9694   -4.0191   27.8190 C   0  0  0  0  0  0  0  0  0  0  0  0
    5.1733   -4.5469   29.8123 C   0  0  0  0  0  0  0  0  0  0  0  0
   -1.7508  -11.3016   18.6072 C   0  0  0  0  0  0  0  0  0  0  0  0
    1.7497   -5.6771   26.4971 C   0  0  0  0  0  0  0  0  0  0  0  0
   -1.5799   -9.9322   18.3468 C   0  0  0  0  0  0  0  0  0  0  0  0
   -1.0871  -12.2214   17.8851 C   0  0  0  0  0  0  0  0  0  0  0  0
   -2.2706   -8.9669   19.0691 C   0  0  0  0  0  0  0  0  0  0  0  0
    3.0279   -5.3073   26.8197 C   0  0  0  0  0  0  0  0  0  0  0  0
    7.3282   -3.8948   29.1186 C   0  0  0  0  0  0  0  0  0  0  0  0
  1  3  4  0
  1  7  4  0
  2  3  1  0
  2  6  4  0
  2 16  4  0
  3 22  4  0
  4  9  4  0
  4 10  1  0
  4 20  4  0
  5 16  4  0
  5 23  4  0
  6 15  4  0
  7 12  4  0
  8 13  4  0
  8 14  4  0
  9 11  4  0
 11 14  4  0
 11 19  4  0
 12 18  4  0
 13 21  4  0
 15 23  4  0
 17 19  4  0
 17 20  4  0
 18 22  4  0
 19 21  4  0
M  END
$$$$

 Created by Python create_sdf_string function

 23 25  0  0  0  0  0  0  0  0999 V2000
    2.4610   -5.3070   29.1240 C   0  0  0  0  0  0  0  0  0  0  0  0
    4.7710   -4.6952   28.4803 C   0  0  0  0  0  0  0  0  0  0  0  0
    3.4047   -5.1087   28.1314 C   0  0  0  0  0  0  0  0  0  0  0  0
   -0.2234  -11.8615   16.8874 C   0  0  0  0  0  0  0  0  0  0  0  0
    6.4491   -4.1532   30.1213 C   0  0  0  0  0  0  0  0  0  0  0  0
    5.7060   -4.4340   27.4975 C   0  0  0  0  0  0  0  0  0  0  0  0
    1.1818   -5.6612   28.8399 C   0  0  0  0  0  0  0  0  0  0  0  0
   -1.2067   -7.3287   17.7772 C   0  0  0  0  0  0  0  0  0  0  0  0
   -0.0206  -10.5585   16.6210 C   0  0  0  0  0  0  0  0  0  0  0  0
    0.3696  -12.7626   16.2169 O   0  0  0  0  0  0  0  0  0  0  0  0
   -0.6895   -9.5676   17.3297 C   0  0  0  0  0  0  0  0  0  0  0  0
    0.8388   -5.8417   27.5264 C   0  0  0  0  0  0  0  0  0  0  0  0
   -2.0709   -7.6637   18.7817 C   0  0  0  0  0  0  0  0  0  0  0  0
   -0.5279   -8.2168   17.0717 C   0  0  0  0  0  0  0  0  0  0  0  0
    6.9694   -4.0191   27.8190 C   0  0  0  0  0  0  0  0  0  0  0  0
    5.1733   -4.5469   29.8123 C   0  0  0  0  0  0  0  0  0  0  0  0
   -1.7508  -11.3016   18.6072 C   0  0  0  0  0  0  0  0  0  0  0  0
    1.7497   -5.6771   26.4971 C   0  0  0  0  0  0  0  0  0  0  0  0
   -1.5799   -9.9322   18.3468 C   0  0  0  0  0  0  0  0  0  0  0  0
   -1.0871  -12.2214   17.8851 C   0  0  0  0  0  0  0  0  0  0  0  0
   -2.2706   -8.9669   19.0691 C   0  0  0  0  0  0  0  0  0  0  0  0
    3.0279   -5.3073   26.8197 C   0  0  0  0  0  0  0  0  0  0  0  0
    7.3282   -3.8948   29.1186 C   0  0  0  0  0  0  0  0  0  0  0  0
  1  3  4  0
  1  7  4  0
  2  3  1  0
  2  6  4  0
  2 16  4  0
  3 22  4  0
  4  9  4  0
  4 10  1  0
  4 20  4  0
  5 16  4  0
  5 23  4  0
  6 15  4  0
  7 12  4  0
  8 13  4  0
  8 14  4  0
  9 11  4  0
 11 14  4  0
 11 19  4  0
 12 18  4  0
 13 21  4  0
 15 23  4  0
 17 19  4  0
 17 20  4  0
 18 22  4  0
 19 21  4  0
M  END
$$$$

 Created by Python create_sdf_string function

 23 25  0  0  0  0  0  0  0  0999 V2000
    2.4610   -5.3070   29.1240 C   0  0  0  0  0  0  0  0  0  0  0  0
    4.7710   -4.6952   28.4803 C   0  0  0  0  0  0  0  0  0  0  0  0
    3.4047   -5.1087   28.1314 C   0  0  0  0  0  0  0  0  0  0  0  0
   -0.2234  -11.8615   16.8874 C   0  0  0  0  0  0  0  0  0  0  0  0
    6.4491   -4.1532   30.1213 C   0  0  0  0  0  0  0  0  0  0  0  0
    5.7060   -4.4340   27.4975 C   0  0  0  0  0  0  0  0  0  0  0  0
    1.1818   -5.6612   28.8399 C   0  0  0  0  0  0  0  0  0  0  0  0
   -1.2067   -7.3287   17.7772 C   0  0  0  0  0  0  0  0  0  0  0  0
   -0.0206  -10.5585   16.6210 C   0  0  0  0  0  0  0  0  0  0  0  0
    0.3696  -12.7626   16.2169 O   0  0  0  0  0  0  0  0  0  0  0  0
   -0.6895   -9.5676   17.3297 C   0  0  0  0  0  0  0  0  0  0  0  0
    0.8388   -5.8417   27.5264 C   0  0  0  0  0  0  0  0  0  0  0  0
   -2.0709   -7.6637   18.7817 C   0  0  0  0  0  0  0  0  0  0  0  0
   -0.5279   -8.2168   17.0717 C   0  0  0  0  0  0  0  0  0  0  0  0
    6.9694   -4.0191   27.8190 C   0  0  0  0  0  0  0  0  0  0  0  0
    5.1733   -4.5469   29.8123 C   0  0  0  0  0  0  0  0  0  0  0  0
   -1.7508  -11.3016   18.6072 C   0  0  0  0  0  0  0  0  0  0  0  0
    1.7497   -5.6771   26.4971 C   0  0  0  0  0  0  0  0  0  0  0  0
   -1.5799   -9.9322   18.3468 C   0  0  0  0  0  0  0  0  0  0  0  0
   -1.0871  -12.2214   17.8851 C   0  0  0  0  0  0  0  0  0  0  0  0
   -2.2706   -8.9669   19.0691 C   0  0  0  0  0  0  0  0  0  0  0  0
    3.0279   -5.3073   26.8197 C   0  0  0  0  0  0  0  0  0  0  0  0
    7.3282   -3.8948   29.1186 C   0  0  0  0  0  0  0  0  0  0  0  0
  1  3  4  0
  1  7  4  0
  2  3  1  0
  2  6  4  0
  2 16  4  0
  3 22  4  0
  4  9  4  0
  4 10  1  0
  4 20  4  0
  5 16  4  0
  5 23  4  0
  6 15  4  0
  7 12  4  0
  8 13  4  0
  8 14  4  0
  9 11  4  0
 11 14  4  0
 11 19  4  0
 12 18  4  0
 13 21  4  0
 15 23  4  0
 17 19  4  0
 17 20  4  0
 18 22  4  0
 19 21  4  0
M  END
$$$$

 Created by Python create_sdf_string function

 23 25  0  0  0  0  0  0  0  0999 V2000
    2.4610   -5.3070   29.1240 C   0  0  0  0  0  0  0  0  0  0  0  0
    4.7710   -4.6952   28.4803 C   0  0  0  0  0  0  0  0  0  0  0  0
    3.4047   -5.1087   28.1314 C   0  0  0  0  0  0  0  0  0  0  0  0
   -0.2234  -11.8615   16.8874 C   0  0  0  0  0  0  0  0  0  0  0  0
    6.4491   -4.1532   30.1213 C   0  0  0  0  0  0  0  0  0  0  0  0
    5.7060   -4.4340   27.4975 C   0  0  0  0  0  0  0  0  0  0  0  0
    1.1818   -5.6612   28.8399 C   0  0  0  0  0  0  0  0  0  0  0  0
   -1.2067   -7.3287   17.7772 C   0  0  0  0  0  0  0  0  0  0  0  0
   -0.0206  -10.5585   16.6210 C   0  0  0  0  0  0  0  0  0  0  0  0
    0.3696  -12.7626   16.2169 O   0  0  0  0  0  0  0  0  0  0  0  0
   -0.6895   -9.5676   17.3297 C   0  0  0  0  0  0  0  0  0  0  0  0
    0.8388   -5.8417   27.5264 C   0  0  0  0  0  0  0  0  0  0  0  0
   -2.0709   -7.6637   18.7817 C   0  0  0  0  0  0  0  0  0  0  0  0
   -0.5279   -8.2168   17.0717 C   0  0  0  0  0  0  0  0  0  0  0  0
    6.9694   -4.0191   27.8190 C   0  0  0  0  0  0  0  0  0  0  0  0
    5.1733   -4.5469   29.8123 C   0  0  0  0  0  0  0  0  0  0  0  0
   -1.7508  -11.3016   18.6072 C   0  0  0  0  0  0  0  0  0  0  0  0
    1.7497   -5.6771   26.4971 C   0  0  0  0  0  0  0  0  0  0  0  0
   -1.5799   -9.9322   18.3468 C   0  0  0  0  0  0  0  0  0  0  0  0
   -1.0871  -12.2214   17.8851 C   0  0  0  0  0  0  0  0  0  0  0  0
   -2.2706   -8.9669   19.0691 C   0  0  0  0  0  0  0  0  0  0  0  0
    3.0279   -5.3073   26.8197 C   0  0  0  0  0  0  0  0  0  0  0  0
    7.3282   -3.8948   29.1186 C   0  0  0  0  0  0  0  0  0  0  0  0
  1  3  4  0
  1  7  4  0
  2  3  1  0
  2  6  4  0
  2 16  4  0
  3 22  4  0
  4  9  4  0
  4 10  1  0
  4 20  4  0
  5 16  4  0
  5 23  4  0
  6 15  4  0
  7 12  4  0
  8 13  4  0
  8 14  4  0
  9 11  4  0
 11 14  4  0
 11 19  4  0
 12 18  4  0
 13 21  4  0
 15 23  4  0
 17 19  4  0
 17 20  4  0
 18 22  4  0
 19 21  4  0
M  END
$$$$

 Created by Python create_sdf_string function

 23 25  0  0  0  0  0  0  0  0999 V2000
    2.4610   -5.3070   29.1240 C   0  0  0  0  0  0  0  0  0  0  0  0
    4.7710   -4.6952   28.4803 C   0  0  0  0  0  0  0  0  0  0  0  0
    3.4047   -5.1087   28.1314 C   0  0  0  0  0  0  0  0  0  0  0  0
   -0.2234  -11.8615   16.8874 C   0  0  0  0  0  0  0  0  0  0  0  0
    6.4491   -4.1532   30.1213 C   0  0  0  0  0  0  0  0  0  0  0  0
    5.7060   -4.4340   27.4975 C   0  0  0  0  0  0  0  0  0  0  0  0
    1.1818   -5.6612   28.8399 C   0  0  0  0  0  0  0  0  0  0  0  0
   -1.2067   -7.3287   17.7772 C   0  0  0  0  0  0  0  0  0  0  0  0
   -0.0206  -10.5585   16.6210 C   0  0  0  0  0  0  0  0  0  0  0  0
    0.3696  -12.7626   16.2169 O   0  0  0  0  0  0  0  0  0  0  0  0
   -0.6895   -9.5676   17.3297 C   0  0  0  0  0  0  0  0  0  0  0  0
    0.8388   -5.8417   27.5264 C   0  0  0  0  0  0  0  0  0  0  0  0
   -2.0709   -7.6637   18.7817 C   0  0  0  0  0  0  0  0  0  0  0  0
   -0.5279   -8.2168   17.0717 C   0  0  0  0  0  0  0  0  0  0  0  0
    6.9694   -4.0191   27.8190 C   0  0  0  0  0  0  0  0  0  0  0  0
    5.1733   -4.5469   29.8123 C   0  0  0  0  0  0  0  0  0  0  0  0
   -1.7508  -11.3016   18.6072 C   0  0  0  0  0  0  0  0  0  0  0  0
    1.7497   -5.6771   26.4971 C   0  0  0  0  0  0  0  0  0  0  0  0
   -1.5799   -9.9322   18.3468 C   0  0  0  0  0  0  0  0  0  0  0  0
   -1.0871  -12.2214   17.8851 C   0  0  0  0  0  0  0  0  0  0  0  0
   -2.2706   -8.9669   19.0691 C   0  0  0  0  0  0  0  0  0  0  0  0
    3.0279   -5.3073   26.8197 C   0  0  0  0  0  0  0  0  0  0  0  0
    7.3282   -3.8948   29.1186 C   0  0  0  0  0  0  0  0  0  0  0  0
  1  3  4  0
  1  7  4  0
  2  3  1  0
  2  6  4  0
  2 16  4  0
  3 22  4  0
  4  9  4  0
  4 10  1  0
  4 20  4  0
  5 16  4  0
  5 23  4  0
  6 15  4  0
  7 12  4  0
  8 13  4  0
  8 14  4  0
  9 11  4  0
 11 14  4  0
 11 19  4  0
 12 18  4  0
 13 21  4  0
 15 23  4  0
 17 19  4  0
 17 20  4  0
 18 22  4  0
 19 21  4  0
M  END
$$$$

 Created by Python create_sdf_string function

 23 25  0  0  0  0  0  0  0  0999 V2000
    2.4610   -5.3070   29.1240 C   0  0  0  0  0  0  0  0  0  0  0  0
    4.7710   -4.6952   28.4803 C   0  0  0  0  0  0  0  0  0  0  0  0
    3.4047   -5.1087   28.1314 C   0  0  0  0  0  0  0  0  0  0  0  0
   -0.2234  -11.8615   16.8874 C   0  0  0  0  0  0  0  0  0  0  0  0
    6.4491   -4.1532   30.1213 C   0  0  0  0  0  0  0  0  0  0  0  0
    5.7060   -4.4340   27.4975 C   0  0  0  0  0  0  0  0  0  0  0  0
    1.1818   -5.6612   28.8399 C   0  0  0  0  0  0  0  0  0  0  0  0
   -1.2067   -7.3287   17.7772 C   0  0  0  0  0  0  0  0  0  0  0  0
   -0.0206  -10.5585   16.6210 C   0  0  0  0  0  0  0  0  0  0  0  0
    0.3696  -12.7626   16.2169 O   0  0  0  0  0  0  0  0  0  0  0  0
   -0.6895   -9.5676   17.3297 C   0  0  0  0  0  0  0  0  0  0  0  0
    0.8388   -5.8417   27.5264 C   0  0  0  0  0  0  0  0  0  0  0  0
   -2.0709   -7.6637   18.7817 C   0  0  0  0  0  0  0  0  0  0  0  0
   -0.5279   -8.2168   17.0717 C   0  0  0  0  0  0  0  0  0  0  0  0
    6.9694   -4.0191   27.8190 C   0  0  0  0  0  0  0  0  0  0  0  0
    5.1733   -4.5469   29.8123 C   0  0  0  0  0  0  0  0  0  0  0  0
   -1.7508  -11.3016   18.6072 C   0  0  0  0  0  0  0  0  0  0  0  0
    1.7497   -5.6771   26.4971 C   0  0  0  0  0  0  0  0  0  0  0  0
   -1.5799   -9.9322   18.3468 C   0  0  0  0  0  0  0  0  0  0  0  0
   -1.0871  -12.2214   17.8851 C   0  0  0  0  0  0  0  0  0  0  0  0
   -2.2706   -8.9669   19.0691 C   0  0  0  0  0  0  0  0  0  0  0  0
    3.0279   -5.3073   26.8197 C   0  0  0  0  0  0  0  0  0  0  0  0
    7.3282   -3.8948   29.1186 C   0  0  0  0  0  0  0  0  0  0  0  0
  1  3  4  0
  1  7  4  0
  2  3  1  0
  2  6  4  0
  2 16  4  0
  3 22  4  0
  4  9  4  0
  4 10  1  0
  4 20  4  0
  5 16  4  0
  5 23  4  0
  6 15  4  0
  7 12  4  0
  8 13  4  0
  8 14  4  0
  9 11  4  0
 11 14  4  0
 11 19  4  0
 12 18  4  0
 13 21  4  0
 15 23  4  0
 17 19  4  0
 17 20  4  0
 18 22  4  0
 19 21  4  0
M  END
$$$$

 Created by Python create_sdf_string function

 23 25  0  0  0  0  0  0  0  0999 V2000
    2.4610   -5.3070   29.1240 C   0  0  0  0  0  0  0  0  0  0  0  0
    4.7710   -4.6952   28.4803 C   0  0  0  0  0  0  0  0  0  0  0  0
    3.4047   -5.1087   28.1314 C   0  0  0  0  0  0  0  0  0  0  0  0
   -0.2234  -11.8615   16.8874 C   0  0  0  0  0  0  0  0  0  0  0  0
    6.4491   -4.1532   30.1213 C   0  0  0  0  0  0  0  0  0  0  0  0
    5.7060   -4.4340   27.4975 C   0  0  0  0  0  0  0  0  0  0  0  0
    1.1818   -5.6612   28.8399 C   0  0  0  0  0  0  0  0  0  0  0  0
   -1.2067   -7.3287   17.7772 C   0  0  0  0  0  0  0  0  0  0  0  0
   -0.0206  -10.5585   16.6210 C   0  0  0  0  0  0  0  0  0  0  0  0
    0.3696  -12.7626   16.2169 O   0  0  0  0  0  0  0  0  0  0  0  0
   -0.6895   -9.5676   17.3297 C   0  0  0  0  0  0  0  0  0  0  0  0
    0.8388   -5.8417   27.5264 C   0  0  0  0  0  0  0  0  0  0  0  0
   -2.0709   -7.6637   18.7817 C   0  0  0  0  0  0  0  0  0  0  0  0
   -0.5279   -8.2168   17.0717 C   0  0  0  0  0  0  0  0  0  0  0  0
    6.9694   -4.0191   27.8190 C   0  0  0  0  0  0  0  0  0  0  0  0
    5.1733   -4.5469   29.8123 C   0  0  0  0  0  0  0  0  0  0  0  0
   -1.7508  -11.3016   18.6072 C   0  0  0  0  0  0  0  0  0  0  0  0
    1.7497   -5.6771   26.4971 C   0  0  0  0  0  0  0  0  0  0  0  0
   -1.5799   -9.9322   18.3468 C   0  0  0  0  0  0  0  0  0  0  0  0
   -1.0871  -12.2214   17.8851 C   0  0  0  0  0  0  0  0  0  0  0  0
   -2.2706   -8.9669   19.0691 C   0  0  0  0  0  0  0  0  0  0  0  0
    3.0279   -5.3073   26.8197 C   0  0  0  0  0  0  0  0  0  0  0  0
    7.3282   -3.8948   29.1186 C   0  0  0  0  0  0  0  0  0  0  0  0
  1  3  4  0
  1  7  4  0
  2  3  1  0
  2  6  4  0
  2 16  4  0
  3 22  4  0
  4  9  4  0
  4 10  1  0
  4 20  4  0
  5 16  4  0
  5 23  4  0
  6 15  4  0
  7 12  4  0
  8 13  4  0
  8 14  4  0
  9 11  4  0
 11 14  4  0
 11 19  4  0
 12 18  4  0
 13 21  4  0
 15 23  4  0
 17 19  4  0
 17 20  4  0
 18 22  4  0
 19 21  4  0
M  END
$$$$

 Created by Python create_sdf_string function

 23 25  0  0  0  0  0  0  0  0999 V2000
    2.4610   -5.3070   29.1240 C   0  0  0  0  0  0  0  0  0  0  0  0
    4.7710   -4.6952   28.4803 C   0  0  0  0  0  0  0  0  0  0  0  0
    3.4047   -5.1087   28.1314 C   0  0  0  0  0  0  0  0  0  0  0  0
   -0.2234  -11.8615   16.8874 C   0  0  0  0  0  0  0  0  0  0  0  0
    6.4491   -4.1532   30.1213 C   0  0  0  0  0  0  0  0  0  0  0  0
    5.7060   -4.4340   27.4975 C   0  0  0  0  0  0  0  0  0  0  0  0
    1.1818   -5.6612   28.8399 C   0  0  0  0  0  0  0  0  0  0  0  0
   -1.2067   -7.3287   17.7772 C   0  0  0  0  0  0  0  0  0  0  0  0
   -0.0206  -10.5585   16.6210 C   0  0  0  0  0  0  0  0  0  0  0  0
    0.3696  -12.7626   16.2169 O   0  0  0  0  0  0  0  0  0  0  0  0
   -0.6895   -9.5676   17.3297 C   0  0  0  0  0  0  0  0  0  0  0  0
    0.8388   -5.8417   27.5264 C   0  0  0  0  0  0  0  0  0  0  0  0
   -2.0709   -7.6637   18.7817 C   0  0  0  0  0  0  0  0  0  0  0  0
   -0.5279   -8.2168   17.0717 C   0  0  0  0  0  0  0  0  0  0  0  0
    6.9694   -4.0191   27.8190 C   0  0  0  0  0  0  0  0  0  0  0  0
    5.1733   -4.5469   29.8123 C   0  0  0  0  0  0  0  0  0  0  0  0
   -1.7508  -11.3016   18.6072 C   0  0  0  0  0  0  0  0  0  0  0  0
    1.7497   -5.6771   26.4971 C   0  0  0  0  0  0  0  0  0  0  0  0
   -1.5799   -9.9322   18.3468 C   0  0  0  0  0  0  0  0  0  0  0  0
   -1.0871  -12.2214   17.8851 C   0  0  0  0  0  0  0  0  0  0  0  0
   -2.2706   -8.9669   19.0691 C   0  0  0  0  0  0  0  0  0  0  0  0
    3.0279   -5.3073   26.8197 C   0  0  0  0  0  0  0  0  0  0  0  0
    7.3282   -3.8948   29.1186 C   0  0  0  0  0  0  0  0  0  0  0  0
  1  3  4  0
  1  7  4  0
  2  3  1  0
  2  6  4  0
  2 16  4  0
  3 22  4  0
  4  9  4  0
  4 10  1  0
  4 20  4  0
  5 16  4  0
  5 23  4  0
  6 15  4  0
  7 12  4  0
  8 13  4  0
  8 14  4  0
  9 11  4  0
 11 14  4  0
 11 19  4  0
 12 18  4  0
 13 21  4  0
 15 23  4  0
 17 19  4  0
 17 20  4  0
 18 22  4  0
 19 21  4  0
M  END
$$$$

 Created by Python create_sdf_string function

 23 25  0  0  0  0  0  0  0  0999 V2000
    2.4610   -5.3070   29.1240 C   0  0  0  0  0  0  0  0  0  0  0  0
    4.7710   -4.6952   28.4803 C   0  0  0  0  0  0  0  0  0  0  0  0
    3.4047   -5.1087   28.1314 C   0  0  0  0  0  0  0  0  0  0  0  0
   -0.2234  -11.8615   16.8874 C   0  0  0  0  0  0  0  0  0  0  0  0
    6.4491   -4.1532   30.1213 C   0  0  0  0  0  0  0  0  0  0  0  0
    5.7060   -4.4340   27.4975 C   0  0  0  0  0  0  0  0  0  0  0  0
    1.1818   -5.6612   28.8399 C   0  0  0  0  0  0  0  0  0  0  0  0
   -1.2067   -7.3287   17.7772 C   0  0  0  0  0  0  0  0  0  0  0  0
   -0.0206  -10.5585   16.6210 C   0  0  0  0  0  0  0  0  0  0  0  0
    0.3696  -12.7626   16.2169 O   0  0  0  0  0  0  0  0  0  0  0  0
   -0.6895   -9.5676   17.3297 C   0  0  0  0  0  0  0  0  0  0  0  0
    0.8388   -5.8417   27.5264 C   0  0  0  0  0  0  0  0  0  0  0  0
   -2.0709   -7.6637   18.7817 C   0  0  0  0  0  0  0  0  0  0  0  0
   -0.5279   -8.2168   17.0717 C   0  0  0  0  0  0  0  0  0  0  0  0
    6.9694   -4.0191   27.8190 C   0  0  0  0  0  0  0  0  0  0  0  0
    5.1733   -4.5469   29.8123 C   0  0  0  0  0  0  0  0  0  0  0  0
   -1.7508  -11.3016   18.6072 C   0  0  0  0  0  0  0  0  0  0  0  0
    1.7497   -5.6771   26.4971 C   0  0  0  0  0  0  0  0  0  0  0  0
   -1.5799   -9.9322   18.3468 C   0  0  0  0  0  0  0  0  0  0  0  0
   -1.0871  -12.2214   17.8851 C   0  0  0  0  0  0  0  0  0  0  0  0
   -2.2706   -8.9669   19.0691 C   0  0  0  0  0  0  0  0  0  0  0  0
    3.0279   -5.3073   26.8197 C   0  0  0  0  0  0  0  0  0  0  0  0
    7.3282   -3.8948   29.1186 C   0  0  0  0  0  0  0  0  0  0  0  0
  1  3  4  0
  1  7  4  0
  2  3  1  0
  2  6  4  0
  2 16  4  0
  3 22  4  0
  4  9  4  0
  4 10  1  0
  4 20  4  0
  5 16  4  0
  5 23  4  0
  6 15  4  0
  7 12  4  0
  8 13  4  0
  8 14  4  0
  9 11  4  0
 11 14  4  0
 11 19  4  0
 12 18  4  0
 13 21  4  0
 15 23  4  0
 17 19  4  0
 17 20  4  0
 18 22  4  0
 19 21  4  0
M  END
$$$$

 Created by Python create_sdf_string function

 23 25  0  0  0  0  0  0  0  0999 V2000
    2.4610   -5.3070   29.1240 C   0  0  0  0  0  0  0  0  0  0  0  0
    4.7710   -4.6952   28.4803 C   0  0  0  0  0  0  0  0  0  0  0  0
    3.4047   -5.1087   28.1314 C   0  0  0  0  0  0  0  0  0  0  0  0
   -0.2234  -11.8615   16.8874 C   0  0  0  0  0  0  0  0  0  0  0  0
    6.4491   -4.1532   30.1213 C   0  0  0  0  0  0  0  0  0  0  0  0
    5.7060   -4.4340   27.4975 C   0  0  0  0  0  0  0  0  0  0  0  0
    1.1818   -5.6612   28.8399 C   0  0  0  0  0  0  0  0  0  0  0  0
   -1.2067   -7.3287   17.7772 C   0  0  0  0  0  0  0  0  0  0  0  0
   -0.0206  -10.5585   16.6210 C   0  0  0  0  0  0  0  0  0  0  0  0
    0.3696  -12.7626   16.2169 O   0  0  0  0  0  0  0  0  0  0  0  0
   -0.6895   -9.5676   17.3297 C   0  0  0  0  0  0  0  0  0  0  0  0
    0.8388   -5.8417   27.5264 C   0  0  0  0  0  0  0  0  0  0  0  0
   -2.0709   -7.6637   18.7817 C   0  0  0  0  0  0  0  0  0  0  0  0
   -0.5279   -8.2168   17.0717 C   0  0  0  0  0  0  0  0  0  0  0  0
    6.9694   -4.0191   27.8190 C   0  0  0  0  0  0  0  0  0  0  0  0
    5.1733   -4.5469   29.8123 C   0  0  0  0  0  0  0  0  0  0  0  0
   -1.7508  -11.3016   18.6072 C   0  0  0  0  0  0  0  0  0  0  0  0
    1.7497   -5.6771   26.4971 C   0  0  0  0  0  0  0  0  0  0  0  0
   -1.5799   -9.9322   18.3468 C   0  0  0  0  0  0  0  0  0  0  0  0
   -1.0871  -12.2214   17.8851 C   0  0  0  0  0  0  0  0  0  0  0  0
   -2.2706   -8.9669   19.0691 C   0  0  0  0  0  0  0  0  0  0  0  0
    3.0279   -5.3073   26.8197 C   0  0  0  0  0  0  0  0  0  0  0  0
    7.3282   -3.8948   29.1186 C   0  0  0  0  0  0  0  0  0  0  0  0
  1  3  4  0
  1  7  4  0
  2  3  1  0
  2  6  4  0
  2 16  4  0
  3 22  4  0
  4  9  4  0
  4 10  1  0
  4 20  4  0
  5 16  4  0
  5 23  4  0
  6 15  4  0
  7 12  4  0
  8 13  4  0
  8 14  4  0
  9 11  4  0
 11 14  4  0
 11 19  4  0
 12 18  4  0
 13 21  4  0
 15 23  4  0
 17 19  4  0
 17 20  4  0
 18 22  4  0
 19 21  4  0
M  END
$$$$

 Created by Python create_sdf_string function

 23 25  0  0  0  0  0  0  0  0999 V2000
    2.4610   -5.3070   29.1240 C   0  0  0  0  0  0  0  0  0  0  0  0
    4.7710   -4.6952   28.4803 C   0  0  0  0  0  0  0  0  0  0  0  0
    3.4047   -5.1087   28.1314 C   0  0  0  0  0  0  0  0  0  0  0  0
   -0.2234  -11.8615   16.8874 C   0  0  0  0  0  0  0  0  0  0  0  0
    6.4491   -4.1532   30.1213 C   0  0  0  0  0  0  0  0  0  0  0  0
    5.7060   -4.4340   27.4975 C   0  0  0  0  0  0  0  0  0  0  0  0
    1.1818   -5.6612   28.8399 C   0  0  0  0  0  0  0  0  0  0  0  0
   -1.2067   -7.3287   17.7772 C   0  0  0  0  0  0  0  0  0  0  0  0
   -0.0206  -10.5585   16.6210 C   0  0  0  0  0  0  0  0  0  0  0  0
    0.3696  -12.7626   16.2169 O   0  0  0  0  0  0  0  0  0  0  0  0
   -0.6895   -9.5676   17.3297 C   0  0  0  0  0  0  0  0  0  0  0  0
    0.8388   -5.8417   27.5264 C   0  0  0  0  0  0  0  0  0  0  0  0
   -2.0709   -7.6637   18.7817 C   0  0  0  0  0  0  0  0  0  0  0  0
   -0.5279   -8.2168   17.0717 C   0  0  0  0  0  0  0  0  0  0  0  0
    6.9694   -4.0191   27.8190 C   0  0  0  0  0  0  0  0  0  0  0  0
    5.1733   -4.5469   29.8123 C   0  0  0  0  0  0  0  0  0  0  0  0
   -1.7508  -11.3016   18.6072 C   0  0  0  0  0  0  0  0  0  0  0  0
    1.7497   -5.6771   26.4971 C   0  0  0  0  0  0  0  0  0  0  0  0
   -1.5799   -9.9322   18.3468 C   0  0  0  0  0  0  0  0  0  0  0  0
   -1.0871  -12.2214   17.8851 C   0  0  0  0  0  0  0  0  0  0  0  0
   -2.2706   -8.9669   19.0691 C   0  0  0  0  0  0  0  0  0  0  0  0
    3.0279   -5.3073   26.8197 C   0  0  0  0  0  0  0  0  0  0  0  0
    7.3282   -3.8948   29.1186 C   0  0  0  0  0  0  0  0  0  0  0  0
  1  3  4  0
  1  7  4  0
  2  3  1  0
  2  6  4  0
  2 16  4  0
  3 22  4  0
  4  9  4  0
  4 10  1  0
  4 20  4  0
  5 16  4  0
  5 23  4  0
  6 15  4  0
  7 12  4  0
  8 13  4  0
  8 14  4  0
  9 11  4  0
 11 14  4  0
 11 19  4  0
 12 18  4  0
 13 21  4  0
 15 23  4  0
 17 19  4  0
 17 20  4  0
 18 22  4  0
 19 21  4  0
M  END
$$$$

 Created by Python create_sdf_string function

 23 25  0  0  0  0  0  0  0  0999 V2000
    2.4610   -5.3070   29.1240 C   0  0  0  0  0  0  0  0  0  0  0  0
    4.7710   -4.6952   28.4803 C   0  0  0  0  0  0  0  0  0  0  0  0
    3.4047   -5.1087   28.1314 C   0  0  0  0  0  0  0  0  0  0  0  0
   -0.2234  -11.8615   16.8874 C   0  0  0  0  0  0  0  0  0  0  0  0
    6.4491   -4.1532   30.1213 C   0  0  0  0  0  0  0  0  0  0  0  0
    5.7060   -4.4340   27.4975 C   0  0  0  0  0  0  0  0  0  0  0  0
    1.1818   -5.6612   28.8399 C   0  0  0  0  0  0  0  0  0  0  0  0
   -1.2067   -7.3287   17.7772 C   0  0  0  0  0  0  0  0  0  0  0  0
   -0.0206  -10.5585   16.6210 C   0  0  0  0  0  0  0  0  0  0  0  0
    0.3696  -12.7626   16.2169 O   0  0  0  0  0  0  0  0  0  0  0  0
   -0.6895   -9.5676   17.3297 C   0  0  0  0  0  0  0  0  0  0  0  0
    0.8388   -5.8417   27.5264 C   0  0  0  0  0  0  0  0  0  0  0  0
   -2.0709   -7.6637   18.7817 C   0  0  0  0  0  0  0  0  0  0  0  0
   -0.5279   -8.2168   17.0717 C   0  0  0  0  0  0  0  0  0  0  0  0
    6.9694   -4.0191   27.8190 C   0  0  0  0  0  0  0  0  0  0  0  0
    5.1733   -4.5469   29.8123 C   0  0  0  0  0  0  0  0  0  0  0  0
   -1.7508  -11.3016   18.6072 C   0  0  0  0  0  0  0  0  0  0  0  0
    1.7497   -5.6771   26.4971 C   0  0  0  0  0  0  0  0  0  0  0  0
   -1.5799   -9.9322   18.3468 C   0  0  0  0  0  0  0  0  0  0  0  0
   -1.0871  -12.2214   17.8851 C   0  0  0  0  0  0  0  0  0  0  0  0
   -2.2706   -8.9669   19.0691 C   0  0  0  0  0  0  0  0  0  0  0  0
    3.0279   -5.3073   26.8197 C   0  0  0  0  0  0  0  0  0  0  0  0
    7.3282   -3.8948   29.1186 C   0  0  0  0  0  0  0  0  0  0  0  0
  1  3  4  0
  1  7  4  0
  2  3  1  0
  2  6  4  0
  2 16  4  0
  3 22  4  0
  4  9  4  0
  4 10  1  0
  4 20  4  0
  5 16  4  0
  5 23  4  0
  6 15  4  0
  7 12  4  0
  8 13  4  0
  8 14  4  0
  9 11  4  0
 11 14  4  0
 11 19  4  0
 12 18  4  0
 13 21  4  0
 15 23  4  0
 17 19  4  0
 17 20  4  0
 18 22  4  0
 19 21  4  0
M  END
$$$$

 Created by Python create_sdf_string function

 23 25  0  0  0  0  0  0  0  0999 V2000
    2.4610   -5.3070   29.1240 C   0  0  0  0  0  0  0  0  0  0  0  0
    4.7710   -4.6952   28.4803 C   0  0  0  0  0  0  0  0  0  0  0  0
    3.4047   -5.1087   28.1314 C   0  0  0  0  0  0  0  0  0  0  0  0
   -0.2234  -11.8615   16.8874 C   0  0  0  0  0  0  0  0  0  0  0  0
    6.4491   -4.1532   30.1213 C   0  0  0  0  0  0  0  0  0  0  0  0
    5.7060   -4.4340   27.4975 C   0  0  0  0  0  0  0  0  0  0  0  0
    1.1818   -5.6612   28.8399 C   0  0  0  0  0  0  0  0  0  0  0  0
   -1.2067   -7.3287   17.7772 C   0  0  0  0  0  0  0  0  0  0  0  0
   -0.0206  -10.5585   16.6210 C   0  0  0  0  0  0  0  0  0  0  0  0
    0.3696  -12.7626   16.2169 O   0  0  0  0  0  0  0  0  0  0  0  0
   -0.6895   -9.5676   17.3297 C   0  0  0  0  0  0  0  0  0  0  0  0
    0.8388   -5.8417   27.5264 C   0  0  0  0  0  0  0  0  0  0  0  0
   -2.0709   -7.6637   18.7817 C   0  0  0  0  0  0  0  0  0  0  0  0
   -0.5279   -8.2168   17.0717 C   0  0  0  0  0  0  0  0  0  0  0  0
    6.9694   -4.0191   27.8190 C   0  0  0  0  0  0  0  0  0  0  0  0
    5.1733   -4.5469   29.8123 C   0  0  0  0  0  0  0  0  0  0  0  0
   -1.7508  -11.3016   18.6072 C   0  0  0  0  0  0  0  0  0  0  0  0
    1.7497   -5.6771   26.4971 C   0  0  0  0  0  0  0  0  0  0  0  0
   -1.5799   -9.9322   18.3468 C   0  0  0  0  0  0  0  0  0  0  0  0
   -1.0871  -12.2214   17.8851 C   0  0  0  0  0  0  0  0  0  0  0  0
   -2.2706   -8.9669   19.0691 C   0  0  0  0  0  0  0  0  0  0  0  0
    3.0279   -5.3073   26.8197 C   0  0  0  0  0  0  0  0  0  0  0  0
    7.3282   -3.8948   29.1186 C   0  0  0  0  0  0  0  0  0  0  0  0
  1  3  4  0
  1  7  4  0
  2  3  1  0
  2  6  4  0
  2 16  4  0
  3 22  4  0
  4  9  4  0
  4 10  1  0
  4 20  4  0
  5 16  4  0
  5 23  4  0
  6 15  4  0
  7 12  4  0
  8 13  4  0
  8 14  4  0
  9 11  4  0
 11 14  4  0
 11 19  4  0
 12 18  4  0
 13 21  4  0
 15 23  4  0
 17 19  4  0
 17 20  4  0
 18 22  4  0
 19 21  4  0
M  END
$$$$

 Created by Python create_sdf_string function

 23 25  0  0  0  0  0  0  0  0999 V2000
    2.4610   -5.3070   29.1240 C   0  0  0  0  0  0  0  0  0  0  0  0
    4.7710   -4.6952   28.4803 C   0  0  0  0  0  0  0  0  0  0  0  0
    3.4047   -5.1087   28.1314 C   0  0  0  0  0  0  0  0  0  0  0  0
   -0.2234  -11.8615   16.8874 C   0  0  0  0  0  0  0  0  0  0  0  0
    6.4491   -4.1532   30.1213 C   0  0  0  0  0  0  0  0  0  0  0  0
    5.7060   -4.4340   27.4975 C   0  0  0  0  0  0  0  0  0  0  0  0
    1.1818   -5.6612   28.8399 C   0  0  0  0  0  0  0  0  0  0  0  0
   -1.2067   -7.3287   17.7772 C   0  0  0  0  0  0  0  0  0  0  0  0
   -0.0206  -10.5585   16.6210 C   0  0  0  0  0  0  0  0  0  0  0  0
    0.3696  -12.7626   16.2169 O   0  0  0  0  0  0  0  0  0  0  0  0
   -0.6895   -9.5676   17.3297 C   0  0  0  0  0  0  0  0  0  0  0  0
    0.8388   -5.8417   27.5264 C   0  0  0  0  0  0  0  0  0  0  0  0
   -2.0709   -7.6637   18.7817 C   0  0  0  0  0  0  0  0  0  0  0  0
   -0.5279   -8.2168   17.0717 C   0  0  0  0  0  0  0  0  0  0  0  0
    6.9694   -4.0191   27.8190 C   0  0  0  0  0  0  0  0  0  0  0  0
    5.1733   -4.5469   29.8123 C   0  0  0  0  0  0  0  0  0  0  0  0
   -1.7508  -11.3016   18.6072 C   0  0  0  0  0  0  0  0  0  0  0  0
    1.7497   -5.6771   26.4971 C   0  0  0  0  0  0  0  0  0  0  0  0
   -1.5799   -9.9322   18.3468 C   0  0  0  0  0  0  0  0  0  0  0  0
   -1.0871  -12.2214   17.8851 C   0  0  0  0  0  0  0  0  0  0  0  0
   -2.2706   -8.9669   19.0691 C   0  0  0  0  0  0  0  0  0  0  0  0
    3.0279   -5.3073   26.8197 C   0  0  0  0  0  0  0  0  0  0  0  0
    7.3282   -3.8948   29.1186 C   0  0  0  0  0  0  0  0  0  0  0  0
  1  3  4  0
  1  7  4  0
  2  3  1  0
  2  6  4  0
  2 16  4  0
  3 22  4  0
  4  9  4  0
  4 10  1  0
  4 20  4  0
  5 16  4  0
  5 23  4  0
  6 15  4  0
  7 12  4  0
  8 13  4  0
  8 14  4  0
  9 11  4  0
 11 14  4  0
 11 19  4  0
 12 18  4  0
 13 21  4  0
 15 23  4  0
 17 19  4  0
 17 20  4  0
 18 22  4  0
 19 21  4  0
M  END
$$$$

 Created by Python create_sdf_string function

 23 25  0  0  0  0  0  0  0  0999 V2000
    2.4610   -5.3070   29.1240 C   0  0  0  0  0  0  0  0  0  0  0  0
    4.7710   -4.6952   28.4803 C   0  0  0  0  0  0  0  0  0  0  0  0
    3.4047   -5.1087   28.1314 C   0  0  0  0  0  0  0  0  0  0  0  0
   -0.2234  -11.8615   16.8874 C   0  0  0  0  0  0  0  0  0  0  0  0
    6.4491   -4.1532   30.1213 C   0  0  0  0  0  0  0  0  0  0  0  0
    5.7060   -4.4340   27.4975 C   0  0  0  0  0  0  0  0  0  0  0  0
    1.1818   -5.6612   28.8399 C   0  0  0  0  0  0  0  0  0  0  0  0
   -1.2067   -7.3287   17.7772 C   0  0  0  0  0  0  0  0  0  0  0  0
   -0.0206  -10.5585   16.6210 C   0  0  0  0  0  0  0  0  0  0  0  0
    0.3696  -12.7626   16.2169 O   0  0  0  0  0  0  0  0  0  0  0  0
   -0.6895   -9.5676   17.3297 C   0  0  0  0  0  0  0  0  0  0  0  0
    0.8388   -5.8417   27.5264 C   0  0  0  0  0  0  0  0  0  0  0  0
   -2.0709   -7.6637   18.7817 C   0  0  0  0  0  0  0  0  0  0  0  0
   -0.5279   -8.2168   17.0717 C   0  0  0  0  0  0  0  0  0  0  0  0
    6.9694   -4.0191   27.8190 C   0  0  0  0  0  0  0  0  0  0  0  0
    5.1733   -4.5469   29.8123 C   0  0  0  0  0  0  0  0  0  0  0  0
   -1.7508  -11.3016   18.6072 C   0  0  0  0  0  0  0  0  0  0  0  0
    1.7497   -5.6771   26.4971 C   0  0  0  0  0  0  0  0  0  0  0  0
   -1.5799   -9.9322   18.3468 C   0  0  0  0  0  0  0  0  0  0  0  0
   -1.0871  -12.2214   17.8851 C   0  0  0  0  0  0  0  0  0  0  0  0
   -2.2706   -8.9669   19.0691 C   0  0  0  0  0  0  0  0  0  0  0  0
    3.0279   -5.3073   26.8197 C   0  0  0  0  0  0  0  0  0  0  0  0
    7.3282   -3.8948   29.1186 C   0  0  0  0  0  0  0  0  0  0  0  0
  1  3  4  0
  1  7  4  0
  2  3  1  0
  2  6  4  0
  2 16  4  0
  3 22  4  0
  4  9  4  0
  4 10  1  0
  4 20  4  0
  5 16  4  0
  5 23  4  0
  6 15  4  0
  7 12  4  0
  8 13  4  0
  8 14  4  0
  9 11  4  0
 11 14  4  0
 11 19  4  0
 12 18  4  0
 13 21  4  0
 15 23  4  0
 17 19  4  0
 17 20  4  0
 18 22  4  0
 19 21  4  0
M  END
$$$$

 Created by Python create_sdf_string function

 23 25  0  0  0  0  0  0  0  0999 V2000
    2.4610   -5.3070   29.1240 C   0  0  0  0  0  0  0  0  0  0  0  0
    4.7710   -4.6952   28.4803 C   0  0  0  0  0  0  0  0  0  0  0  0
    3.4047   -5.1087   28.1314 C   0  0  0  0  0  0  0  0  0  0  0  0
   -0.2234  -11.8615   16.8874 C   0  0  0  0  0  0  0  0  0  0  0  0
    6.4491   -4.1532   30.1213 C   0  0  0  0  0  0  0  0  0  0  0  0
    5.7060   -4.4340   27.4975 C   0  0  0  0  0  0  0  0  0  0  0  0
    1.1818   -5.6612   28.8399 C   0  0  0  0  0  0  0  0  0  0  0  0
   -1.2067   -7.3287   17.7772 C   0  0  0  0  0  0  0  0  0  0  0  0
   -0.0206  -10.5585   16.6210 C   0  0  0  0  0  0  0  0  0  0  0  0
    0.3696  -12.7626   16.2169 O   0  0  0  0  0  0  0  0  0  0  0  0
   -0.6895   -9.5676   17.3297 C   0  0  0  0  0  0  0  0  0  0  0  0
    0.8388   -5.8417   27.5264 C   0  0  0  0  0  0  0  0  0  0  0  0
   -2.0709   -7.6637   18.7817 C   0  0  0  0  0  0  0  0  0  0  0  0
   -0.5279   -8.2168   17.0717 C   0  0  0  0  0  0  0  0  0  0  0  0
    6.9694   -4.0191   27.8190 C   0  0  0  0  0  0  0  0  0  0  0  0
    5.1733   -4.5469   29.8123 C   0  0  0  0  0  0  0  0  0  0  0  0
   -1.7508  -11.3016   18.6072 C   0  0  0  0  0  0  0  0  0  0  0  0
    1.7497   -5.6771   26.4971 C   0  0  0  0  0  0  0  0  0  0  0  0
   -1.5799   -9.9322   18.3468 C   0  0  0  0  0  0  0  0  0  0  0  0
   -1.0871  -12.2214   17.8851 C   0  0  0  0  0  0  0  0  0  0  0  0
   -2.2706   -8.9669   19.0691 C   0  0  0  0  0  0  0  0  0  0  0  0
    3.0279   -5.3073   26.8197 C   0  0  0  0  0  0  0  0  0  0  0  0
    7.3282   -3.8948   29.1186 C   0  0  0  0  0  0  0  0  0  0  0  0
  1  3  4  0
  1  7  4  0
  2  3  1  0
  2  6  4  0
  2 16  4  0
  3 22  4  0
  4  9  4  0
  4 10  1  0
  4 20  4  0
  5 16  4  0
  5 23  4  0
  6 15  4  0
  7 12  4  0
  8 13  4  0
  8 14  4  0
  9 11  4  0
 11 14  4  0
 11 19  4  0
 12 18  4  0
 13 21  4  0
 15 23  4  0
 17 19  4  0
 17 20  4  0
 18 22  4  0
 19 21  4  0
M  END
$$$$

 Created by Python create_sdf_string function

 23 25  0  0  0  0  0  0  0  0999 V2000
    2.4610   -5.3070   29.1240 C   0  0  0  0  0  0  0  0  0  0  0  0
    4.7710   -4.6952   28.4803 C   0  0  0  0  0  0  0  0  0  0  0  0
    3.4047   -5.1087   28.1314 C   0  0  0  0  0  0  0  0  0  0  0  0
   -0.2234  -11.8615   16.8874 C   0  0  0  0  0  0  0  0  0  0  0  0
    6.4491   -4.1532   30.1213 C   0  0  0  0  0  0  0  0  0  0  0  0
    5.7060   -4.4340   27.4975 C   0  0  0  0  0  0  0  0  0  0  0  0
    1.1818   -5.6612   28.8399 C   0  0  0  0  0  0  0  0  0  0  0  0
   -1.2067   -7.3287   17.7772 C   0  0  0  0  0  0  0  0  0  0  0  0
   -0.0206  -10.5585   16.6210 C   0  0  0  0  0  0  0  0  0  0  0  0
    0.3696  -12.7626   16.2169 O   0  0  0  0  0  0  0  0  0  0  0  0
   -0.6895   -9.5676   17.3297 C   0  0  0  0  0  0  0  0  0  0  0  0
    0.8388   -5.8417   27.5264 C   0  0  0  0  0  0  0  0  0  0  0  0
   -2.0709   -7.6637   18.7817 C   0  0  0  0  0  0  0  0  0  0  0  0
   -0.5279   -8.2168   17.0717 C   0  0  0  0  0  0  0  0  0  0  0  0
    6.9694   -4.0191   27.8190 C   0  0  0  0  0  0  0  0  0  0  0  0
    5.1733   -4.5469   29.8123 C   0  0  0  0  0  0  0  0  0  0  0  0
   -1.7508  -11.3016   18.6072 C   0  0  0  0  0  0  0  0  0  0  0  0
    1.7497   -5.6771   26.4971 C   0  0  0  0  0  0  0  0  0  0  0  0
   -1.5799   -9.9322   18.3468 C   0  0  0  0  0  0  0  0  0  0  0  0
   -1.0871  -12.2214   17.8851 C   0  0  0  0  0  0  0  0  0  0  0  0
   -2.2706   -8.9669   19.0691 C   0  0  0  0  0  0  0  0  0  0  0  0
    3.0279   -5.3073   26.8197 C   0  0  0  0  0  0  0  0  0  0  0  0
    7.3282   -3.8948   29.1186 C   0  0  0  0  0  0  0  0  0  0  0  0
  1  3  4  0
  1  7  4  0
  2  3  1  0
  2  6  4  0
  2 16  4  0
  3 22  4  0
  4  9  4  0
  4 10  1  0
  4 20  4  0
  5 16  4  0
  5 23  4  0
  6 15  4  0
  7 12  4  0
  8 13  4  0
  8 14  4  0
  9 11  4  0
 11 14  4  0
 11 19  4  0
 12 18  4  0
 13 21  4  0
 15 23  4  0
 17 19  4  0
 17 20  4  0
 18 22  4  0
 19 21  4  0
M  END
$$$$

 Created by Python create_sdf_string function

 23 25  0  0  0  0  0  0  0  0999 V2000
    2.4610   -5.3070   29.1240 C   0  0  0  0  0  0  0  0  0  0  0  0
    4.7710   -4.6952   28.4803 C   0  0  0  0  0  0  0  0  0  0  0  0
    3.4047   -5.1087   28.1314 C   0  0  0  0  0  0  0  0  0  0  0  0
   -0.2234  -11.8615   16.8874 C   0  0  0  0  0  0  0  0  0  0  0  0
    6.4491   -4.1532   30.1213 C   0  0  0  0  0  0  0  0  0  0  0  0
    5.7060   -4.4340   27.4975 C   0  0  0  0  0  0  0  0  0  0  0  0
    1.1818   -5.6612   28.8399 C   0  0  0  0  0  0  0  0  0  0  0  0
   -1.2067   -7.3287   17.7772 C   0  0  0  0  0  0  0  0  0  0  0  0
   -0.0206  -10.5585   16.6210 C   0  0  0  0  0  0  0  0  0  0  0  0
    0.3696  -12.7626   16.2169 O   0  0  0  0  0  0  0  0  0  0  0  0
   -0.6895   -9.5676   17.3297 C   0  0  0  0  0  0  0  0  0  0  0  0
    0.8388   -5.8417   27.5264 C   0  0  0  0  0  0  0  0  0  0  0  0
   -2.0709   -7.6637   18.7817 C   0  0  0  0  0  0  0  0  0  0  0  0
   -0.5279   -8.2168   17.0717 C   0  0  0  0  0  0  0  0  0  0  0  0
    6.9694   -4.0191   27.8190 C   0  0  0  0  0  0  0  0  0  0  0  0
    5.1733   -4.5469   29.8123 C   0  0  0  0  0  0  0  0  0  0  0  0
   -1.7508  -11.3016   18.6072 C   0  0  0  0  0  0  0  0  0  0  0  0
    1.7497   -5.6771   26.4971 C   0  0  0  0  0  0  0  0  0  0  0  0
   -1.5799   -9.9322   18.3468 C   0  0  0  0  0  0  0  0  0  0  0  0
   -1.0871  -12.2214   17.8851 C   0  0  0  0  0  0  0  0  0  0  0  0
   -2.2706   -8.9669   19.0691 C   0  0  0  0  0  0  0  0  0  0  0  0
    3.0279   -5.3073   26.8197 C   0  0  0  0  0  0  0  0  0  0  0  0
    7.3282   -3.8948   29.1186 C   0  0  0  0  0  0  0  0  0  0  0  0
  1  3  4  0
  1  7  4  0
  2  3  1  0
  2  6  4  0
  2 16  4  0
  3 22  4  0
  4  9  4  0
  4 10  1  0
  4 20  4  0
  5 16  4  0
  5 23  4  0
  6 15  4  0
  7 12  4  0
  8 13  4  0
  8 14  4  0
  9 11  4  0
 11 14  4  0
 11 19  4  0
 12 18  4  0
 13 21  4  0
 15 23  4  0
 17 19  4  0
 17 20  4  0
 18 22  4  0
 19 21  4  0
M  END
$$$$

 Created by Python create_sdf_string function

 23 25  0  0  0  0  0  0  0  0999 V2000
    2.4610   -5.3070   29.1240 C   0  0  0  0  0  0  0  0  0  0  0  0
    4.7710   -4.6952   28.4803 C   0  0  0  0  0  0  0  0  0  0  0  0
    3.4047   -5.1087   28.1314 C   0  0  0  0  0  0  0  0  0  0  0  0
   -0.2234  -11.8615   16.8874 C   0  0  0  0  0  0  0  0  0  0  0  0
    6.4491   -4.1532   30.1213 C   0  0  0  0  0  0  0  0  0  0  0  0
    5.7060   -4.4340   27.4975 C   0  0  0  0  0  0  0  0  0  0  0  0
    1.1818   -5.6612   28.8399 C   0  0  0  0  0  0  0  0  0  0  0  0
   -1.2067   -7.3287   17.7772 C   0  0  0  0  0  0  0  0  0  0  0  0
   -0.0206  -10.5585   16.6210 C   0  0  0  0  0  0  0  0  0  0  0  0
    0.3696  -12.7626   16.2169 O   0  0  0  0  0  0  0  0  0  0  0  0
   -0.6895   -9.5676   17.3297 C   0  0  0  0  0  0  0  0  0  0  0  0
    0.8388   -5.8417   27.5264 C   0  0  0  0  0  0  0  0  0  0  0  0
   -2.0709   -7.6637   18.7817 C   0  0  0  0  0  0  0  0  0  0  0  0
   -0.5279   -8.2168   17.0717 C   0  0  0  0  0  0  0  0  0  0  0  0
    6.9694   -4.0191   27.8190 C   0  0  0  0  0  0  0  0  0  0  0  0
    5.1733   -4.5469   29.8123 C   0  0  0  0  0  0  0  0  0  0  0  0
   -1.7508  -11.3016   18.6072 C   0  0  0  0  0  0  0  0  0  0  0  0
    1.7497   -5.6771   26.4971 C   0  0  0  0  0  0  0  0  0  0  0  0
   -1.5799   -9.9322   18.3468 C   0  0  0  0  0  0  0  0  0  0  0  0
   -1.0871  -12.2214   17.8851 C   0  0  0  0  0  0  0  0  0  0  0  0
   -2.2706   -8.9669   19.0691 C   0  0  0  0  0  0  0  0  0  0  0  0
    3.0279   -5.3073   26.8197 C   0  0  0  0  0  0  0  0  0  0  0  0
    7.3282   -3.8948   29.1186 C   0  0  0  0  0  0  0  0  0  0  0  0
  1  3  4  0
  1  7  4  0
  2  3  1  0
  2  6  4  0
  2 16  4  0
  3 22  4  0
  4  9  4  0
  4 10  1  0
  4 20  4  0
  5 16  4  0
  5 23  4  0
  6 15  4  0
  7 12  4  0
  8 13  4  0
  8 14  4  0
  9 11  4  0
 11 14  4  0
 11 19  4  0
 12 18  4  0
 13 21  4  0
 15 23  4  0
 17 19  4  0
 17 20  4  0
 18 22  4  0
 19 21  4  0
M  END
$$$$

 Created by Python create_sdf_string function

 23 25  0  0  0  0  0  0  0  0999 V2000
    2.4610   -5.3070   29.1240 C   0  0  0  0  0  0  0  0  0  0  0  0
    4.7710   -4.6952   28.4803 C   0  0  0  0  0  0  0  0  0  0  0  0
    3.4047   -5.1087   28.1314 C   0  0  0  0  0  0  0  0  0  0  0  0
   -0.2234  -11.8615   16.8874 C   0  0  0  0  0  0  0  0  0  0  0  0
    6.4491   -4.1532   30.1213 C   0  0  0  0  0  0  0  0  0  0  0  0
    5.7060   -4.4340   27.4975 C   0  0  0  0  0  0  0  0  0  0  0  0
    1.1818   -5.6612   28.8399 C   0  0  0  0  0  0  0  0  0  0  0  0
   -1.2067   -7.3287   17.7772 C   0  0  0  0  0  0  0  0  0  0  0  0
   -0.0206  -10.5585   16.6210 C   0  0  0  0  0  0  0  0  0  0  0  0
    0.3696  -12.7626   16.2169 O   0  0  0  0  0  0  0  0  0  0  0  0
   -0.6895   -9.5676   17.3297 C   0  0  0  0  0  0  0  0  0  0  0  0
    0.8388   -5.8417   27.5264 C   0  0  0  0  0  0  0  0  0  0  0  0
   -2.0709   -7.6637   18.7817 C   0  0  0  0  0  0  0  0  0  0  0  0
   -0.5279   -8.2168   17.0717 C   0  0  0  0  0  0  0  0  0  0  0  0
    6.9694   -4.0191   27.8190 C   0  0  0  0  0  0  0  0  0  0  0  0
    5.1733   -4.5469   29.8123 C   0  0  0  0  0  0  0  0  0  0  0  0
   -1.7508  -11.3016   18.6072 C   0  0  0  0  0  0  0  0  0  0  0  0
    1.7497   -5.6771   26.4971 C   0  0  0  0  0  0  0  0  0  0  0  0
   -1.5799   -9.9322   18.3468 C   0  0  0  0  0  0  0  0  0  0  0  0
   -1.0871  -12.2214   17.8851 C   0  0  0  0  0  0  0  0  0  0  0  0
   -2.2706   -8.9669   19.0691 C   0  0  0  0  0  0  0  0  0  0  0  0
    3.0279   -5.3073   26.8197 C   0  0  0  0  0  0  0  0  0  0  0  0
    7.3282   -3.8948   29.1186 C   0  0  0  0  0  0  0  0  0  0  0  0
  1  3  4  0
  1  7  4  0
  2  3  1  0
  2  6  4  0
  2 16  4  0
  3 22  4  0
  4  9  4  0
  4 10  1  0
  4 20  4  0
  5 16  4  0
  5 23  4  0
  6 15  4  0
  7 12  4  0
  8 13  4  0
  8 14  4  0
  9 11  4  0
 11 14  4  0
 11 19  4  0
 12 18  4  0
 13 21  4  0
 15 23  4  0
 17 19  4  0
 17 20  4  0
 18 22  4  0
 19 21  4  0
M  END
$$$$

 Created by Python create_sdf_string function

 23 25  0  0  0  0  0  0  0  0999 V2000
    2.4610   -5.3070   29.1240 C   0  0  0  0  0  0  0  0  0  0  0  0
    4.7710   -4.6952   28.4803 C   0  0  0  0  0  0  0  0  0  0  0  0
    3.4047   -5.1087   28.1314 C   0  0  0  0  0  0  0  0  0  0  0  0
   -0.2234  -11.8615   16.8874 C   0  0  0  0  0  0  0  0  0  0  0  0
    6.4491   -4.1532   30.1213 C   0  0  0  0  0  0  0  0  0  0  0  0
    5.7060   -4.4340   27.4975 C   0  0  0  0  0  0  0  0  0  0  0  0
    1.1818   -5.6612   28.8399 C   0  0  0  0  0  0  0  0  0  0  0  0
   -1.2067   -7.3287   17.7772 C   0  0  0  0  0  0  0  0  0  0  0  0
   -0.0206  -10.5585   16.6210 C   0  0  0  0  0  0  0  0  0  0  0  0
    0.3696  -12.7626   16.2169 O   0  0  0  0  0  0  0  0  0  0  0  0
   -0.6895   -9.5676   17.3297 C   0  0  0  0  0  0  0  0  0  0  0  0
    0.8388   -5.8417   27.5264 C   0  0  0  0  0  0  0  0  0  0  0  0
   -2.0709   -7.6637   18.7817 C   0  0  0  0  0  0  0  0  0  0  0  0
   -0.5279   -8.2168   17.0717 C   0  0  0  0  0  0  0  0  0  0  0  0
    6.9694   -4.0191   27.8190 C   0  0  0  0  0  0  0  0  0  0  0  0
    5.1733   -4.5469   29.8123 C   0  0  0  0  0  0  0  0  0  0  0  0
   -1.7508  -11.3016   18.6072 C   0  0  0  0  0  0  0  0  0  0  0  0
    1.7497   -5.6771   26.4971 C   0  0  0  0  0  0  0  0  0  0  0  0
   -1.5799   -9.9322   18.3468 C   0  0  0  0  0  0  0  0  0  0  0  0
   -1.0871  -12.2214   17.8851 C   0  0  0  0  0  0  0  0  0  0  0  0
   -2.2706   -8.9669   19.0691 C   0  0  0  0  0  0  0  0  0  0  0  0
    3.0279   -5.3073   26.8197 C   0  0  0  0  0  0  0  0  0  0  0  0
    7.3282   -3.8948   29.1186 C   0  0  0  0  0  0  0  0  0  0  0  0
  1  3  4  0
  1  7  4  0
  2  3  1  0
  2  6  4  0
  2 16  4  0
  3 22  4  0
  4  9  4  0
  4 10  1  0
  4 20  4  0
  5 16  4  0
  5 23  4  0
  6 15  4  0
  7 12  4  0
  8 13  4  0
  8 14  4  0
  9 11  4  0
 11 14  4  0
 11 19  4  0
 12 18  4  0
 13 21  4  0
 15 23  4  0
 17 19  4  0
 17 20  4  0
 18 22  4  0
 19 21  4  0
M  END
$$$$

 Created by Python create_sdf_string function

 23 25  0  0  0  0  0  0  0  0999 V2000
    2.4610   -5.3070   29.1240 C   0  0  0  0  0  0  0  0  0  0  0  0
    4.7710   -4.6952   28.4803 C   0  0  0  0  0  0  0  0  0  0  0  0
    3.4047   -5.1087   28.1314 C   0  0  0  0  0  0  0  0  0  0  0  0
   -0.2234  -11.8615   16.8874 C   0  0  0  0  0  0  0  0  0  0  0  0
    6.4491   -4.1532   30.1213 C   0  0  0  0  0  0  0  0  0  0  0  0
    5.7060   -4.4340   27.4975 C   0  0  0  0  0  0  0  0  0  0  0  0
    1.1818   -5.6612   28.8399 C   0  0  0  0  0  0  0  0  0  0  0  0
   -1.2067   -7.3287   17.7772 C   0  0  0  0  0  0  0  0  0  0  0  0
   -0.0206  -10.5585   16.6210 C   0  0  0  0  0  0  0  0  0  0  0  0
    0.3696  -12.7626   16.2169 O   0  0  0  0  0  0  0  0  0  0  0  0
   -0.6895   -9.5676   17.3297 C   0  0  0  0  0  0  0  0  0  0  0  0
    0.8388   -5.8417   27.5264 C   0  0  0  0  0  0  0  0  0  0  0  0
   -2.0709   -7.6637   18.7817 C   0  0  0  0  0  0  0  0  0  0  0  0
   -0.5279   -8.2168   17.0717 C   0  0  0  0  0  0  0  0  0  0  0  0
    6.9694   -4.0191   27.8190 C   0  0  0  0  0  0  0  0  0  0  0  0
    5.1733   -4.5469   29.8123 C   0  0  0  0  0  0  0  0  0  0  0  0
   -1.7508  -11.3016   18.6072 C   0  0  0  0  0  0  0  0  0  0  0  0
    1.7497   -5.6771   26.4971 C   0  0  0  0  0  0  0  0  0  0  0  0
   -1.5799   -9.9322   18.3468 C   0  0  0  0  0  0  0  0  0  0  0  0
   -1.0871  -12.2214   17.8851 C   0  0  0  0  0  0  0  0  0  0  0  0
   -2.2706   -8.9669   19.0691 C   0  0  0  0  0  0  0  0  0  0  0  0
    3.0279   -5.3073   26.8197 C   0  0  0  0  0  0  0  0  0  0  0  0
    7.3282   -3.8948   29.1186 C   0  0  0  0  0  0  0  0  0  0  0  0
  1  3  4  0
  1  7  4  0
  2  3  1  0
  2  6  4  0
  2 16  4  0
  3 22  4  0
  4  9  4  0
  4 10  1  0
  4 20  4  0
  5 16  4  0
  5 23  4  0
  6 15  4  0
  7 12  4  0
  8 13  4  0
  8 14  4  0
  9 11  4  0
 11 14  4  0
 11 19  4  0
 12 18  4  0
 13 21  4  0
 15 23  4  0
 17 19  4  0
 17 20  4  0
 18 22  4  0
 19 21  4  0
M  END
$$$$

 Created by Python create_sdf_string function

 23 25  0  0  0  0  0  0  0  0999 V2000
    2.4610   -5.3070   29.1240 C   0  0  0  0  0  0  0  0  0  0  0  0
    4.7710   -4.6952   28.4803 C   0  0  0  0  0  0  0  0  0  0  0  0
    3.4047   -5.1087   28.1314 C   0  0  0  0  0  0  0  0  0  0  0  0
   -0.2234  -11.8615   16.8874 C   0  0  0  0  0  0  0  0  0  0  0  0
    6.4491   -4.1532   30.1213 C   0  0  0  0  0  0  0  0  0  0  0  0
    5.7060   -4.4340   27.4975 C   0  0  0  0  0  0  0  0  0  0  0  0
    1.1818   -5.6612   28.8399 C   0  0  0  0  0  0  0  0  0  0  0  0
   -1.2067   -7.3287   17.7772 C   0  0  0  0  0  0  0  0  0  0  0  0
   -0.0206  -10.5585   16.6210 C   0  0  0  0  0  0  0  0  0  0  0  0
    0.3696  -12.7626   16.2169 O   0  0  0  0  0  0  0  0  0  0  0  0
   -0.6895   -9.5676   17.3297 C   0  0  0  0  0  0  0  0  0  0  0  0
    0.8388   -5.8417   27.5264 C   0  0  0  0  0  0  0  0  0  0  0  0
   -2.0709   -7.6637   18.7817 C   0  0  0  0  0  0  0  0  0  0  0  0
   -0.5279   -8.2168   17.0717 C   0  0  0  0  0  0  0  0  0  0  0  0
    6.9694   -4.0191   27.8190 C   0  0  0  0  0  0  0  0  0  0  0  0
    5.1733   -4.5469   29.8123 C   0  0  0  0  0  0  0  0  0  0  0  0
   -1.7508  -11.3016   18.6072 C   0  0  0  0  0  0  0  0  0  0  0  0
    1.7497   -5.6771   26.4971 C   0  0  0  0  0  0  0  0  0  0  0  0
   -1.5799   -9.9322   18.3468 C   0  0  0  0  0  0  0  0  0  0  0  0
   -1.0871  -12.2214   17.8851 C   0  0  0  0  0  0  0  0  0  0  0  0
   -2.2706   -8.9669   19.0691 C   0  0  0  0  0  0  0  0  0  0  0  0
    3.0279   -5.3073   26.8197 C   0  0  0  0  0  0  0  0  0  0  0  0
    7.3282   -3.8948   29.1186 C   0  0  0  0  0  0  0  0  0  0  0  0
  1  3  4  0
  1  7  4  0
  2  3  1  0
  2  6  4  0
  2 16  4  0
  3 22  4  0
  4  9  4  0
  4 10  1  0
  4 20  4  0
  5 16  4  0
  5 23  4  0
  6 15  4  0
  7 12  4  0
  8 13  4  0
  8 14  4  0
  9 11  4  0
 11 14  4  0
 11 19  4  0
 12 18  4  0
 13 21  4  0
 15 23  4  0
 17 19  4  0
 17 20  4  0
 18 22  4  0
 19 21  4  0
M  END
$$$$

 Created by Python create_sdf_string function

 23 25  0  0  0  0  0  0  0  0999 V2000
    2.4610   -5.3070   29.1240 C   0  0  0  0  0  0  0  0  0  0  0  0
    4.7710   -4.6952   28.4803 C   0  0  0  0  0  0  0  0  0  0  0  0
    3.4047   -5.1087   28.1314 C   0  0  0  0  0  0  0  0  0  0  0  0
   -0.2234  -11.8615   16.8874 C   0  0  0  0  0  0  0  0  0  0  0  0
    6.4491   -4.1532   30.1213 C   0  0  0  0  0  0  0  0  0  0  0  0
    5.7060   -4.4340   27.4975 C   0  0  0  0  0  0  0  0  0  0  0  0
    1.1818   -5.6612   28.8399 C   0  0  0  0  0  0  0  0  0  0  0  0
   -1.2067   -7.3287   17.7772 C   0  0  0  0  0  0  0  0  0  0  0  0
   -0.0206  -10.5585   16.6210 C   0  0  0  0  0  0  0  0  0  0  0  0
    0.3696  -12.7626   16.2169 O   0  0  0  0  0  0  0  0  0  0  0  0
   -0.6895   -9.5676   17.3297 C   0  0  0  0  0  0  0  0  0  0  0  0
    0.8388   -5.8417   27.5264 C   0  0  0  0  0  0  0  0  0  0  0  0
   -2.0709   -7.6637   18.7817 C   0  0  0  0  0  0  0  0  0  0  0  0
   -0.5279   -8.2168   17.0717 C   0  0  0  0  0  0  0  0  0  0  0  0
    6.9694   -4.0191   27.8190 C   0  0  0  0  0  0  0  0  0  0  0  0
    5.1733   -4.5469   29.8123 C   0  0  0  0  0  0  0  0  0  0  0  0
   -1.7508  -11.3016   18.6072 C   0  0  0  0  0  0  0  0  0  0  0  0
    1.7497   -5.6771   26.4971 C   0  0  0  0  0  0  0  0  0  0  0  0
   -1.5799   -9.9322   18.3468 C   0  0  0  0  0  0  0  0  0  0  0  0
   -1.0871  -12.2214   17.8851 C   0  0  0  0  0  0  0  0  0  0  0  0
   -2.2706   -8.9669   19.0691 C   0  0  0  0  0  0  0  0  0  0  0  0
    3.0279   -5.3073   26.8197 C   0  0  0  0  0  0  0  0  0  0  0  0
    7.3282   -3.8948   29.1186 C   0  0  0  0  0  0  0  0  0  0  0  0
  1  3  4  0
  1  7  4  0
  2  3  1  0
  2  6  4  0
  2 16  4  0
  3 22  4  0
  4  9  4  0
  4 10  1  0
  4 20  4  0
  5 16  4  0
  5 23  4  0
  6 15  4  0
  7 12  4  0
  8 13  4  0
  8 14  4  0
  9 11  4  0
 11 14  4  0
 11 19  4  0
 12 18  4  0
 13 21  4  0
 15 23  4  0
 17 19  4  0
 17 20  4  0
 18 22  4  0
 19 21  4  0
M  END
$$$$

 Created by Python create_sdf_string function

 23 25  0  0  0  0  0  0  0  0999 V2000
    2.4610   -5.3070   29.1240 C   0  0  0  0  0  0  0  0  0  0  0  0
    4.7710   -4.6952   28.4803 C   0  0  0  0  0  0  0  0  0  0  0  0
    3.4047   -5.1087   28.1314 C   0  0  0  0  0  0  0  0  0  0  0  0
   -0.2234  -11.8615   16.8874 C   0  0  0  0  0  0  0  0  0  0  0  0
    6.4491   -4.1532   30.1213 C   0  0  0  0  0  0  0  0  0  0  0  0
    5.7060   -4.4340   27.4975 C   0  0  0  0  0  0  0  0  0  0  0  0
    1.1818   -5.6612   28.8399 C   0  0  0  0  0  0  0  0  0  0  0  0
   -1.2067   -7.3287   17.7772 C   0  0  0  0  0  0  0  0  0  0  0  0
   -0.0206  -10.5585   16.6210 C   0  0  0  0  0  0  0  0  0  0  0  0
    0.3696  -12.7626   16.2169 O   0  0  0  0  0  0  0  0  0  0  0  0
   -0.6895   -9.5676   17.3297 C   0  0  0  0  0  0  0  0  0  0  0  0
    0.8388   -5.8417   27.5264 C   0  0  0  0  0  0  0  0  0  0  0  0
   -2.0709   -7.6637   18.7817 C   0  0  0  0  0  0  0  0  0  0  0  0
   -0.5279   -8.2168   17.0717 C   0  0  0  0  0  0  0  0  0  0  0  0
    6.9694   -4.0191   27.8190 C   0  0  0  0  0  0  0  0  0  0  0  0
    5.1733   -4.5469   29.8123 C   0  0  0  0  0  0  0  0  0  0  0  0
   -1.7508  -11.3016   18.6072 C   0  0  0  0  0  0  0  0  0  0  0  0
    1.7497   -5.6771   26.4971 C   0  0  0  0  0  0  0  0  0  0  0  0
   -1.5799   -9.9322   18.3468 C   0  0  0  0  0  0  0  0  0  0  0  0
   -1.0871  -12.2214   17.8851 C   0  0  0  0  0  0  0  0  0  0  0  0
   -2.2706   -8.9669   19.0691 C   0  0  0  0  0  0  0  0  0  0  0  0
    3.0279   -5.3073   26.8197 C   0  0  0  0  0  0  0  0  0  0  0  0
    7.3282   -3.8948   29.1186 C   0  0  0  0  0  0  0  0  0  0  0  0
  1  3  4  0
  1  7  4  0
  2  3  1  0
  2  6  4  0
  2 16  4  0
  3 22  4  0
  4  9  4  0
  4 10  1  0
  4 20  4  0
  5 16  4  0
  5 23  4  0
  6 15  4  0
  7 12  4  0
  8 13  4  0
  8 14  4  0
  9 11  4  0
 11 14  4  0
 11 19  4  0
 12 18  4  0
 13 21  4  0
 15 23  4  0
 17 19  4  0
 17 20  4  0
 18 22  4  0
 19 21  4  0
M  END
$$$$

 Created by Python create_sdf_string function

 23 25  0  0  0  0  0  0  0  0999 V2000
    2.4610   -5.3070   29.1240 C   0  0  0  0  0  0  0  0  0  0  0  0
    4.7710   -4.6952   28.4803 C   0  0  0  0  0  0  0  0  0  0  0  0
    3.4047   -5.1087   28.1314 C   0  0  0  0  0  0  0  0  0  0  0  0
   -0.2234  -11.8615   16.8874 C   0  0  0  0  0  0  0  0  0  0  0  0
    6.4491   -4.1532   30.1213 C   0  0  0  0  0  0  0  0  0  0  0  0
    5.7060   -4.4340   27.4975 C   0  0  0  0  0  0  0  0  0  0  0  0
    1.1818   -5.6612   28.8399 C   0  0  0  0  0  0  0  0  0  0  0  0
   -1.2067   -7.3287   17.7772 C   0  0  0  0  0  0  0  0  0  0  0  0
   -0.0206  -10.5585   16.6210 C   0  0  0  0  0  0  0  0  0  0  0  0
    0.3696  -12.7626   16.2169 O   0  0  0  0  0  0  0  0  0  0  0  0
   -0.6895   -9.5676   17.3297 C   0  0  0  0  0  0  0  0  0  0  0  0
    0.8388   -5.8417   27.5264 C   0  0  0  0  0  0  0  0  0  0  0  0
   -2.0709   -7.6637   18.7817 C   0  0  0  0  0  0  0  0  0  0  0  0
   -0.5279   -8.2168   17.0717 C   0  0  0  0  0  0  0  0  0  0  0  0
    6.9694   -4.0191   27.8190 C   0  0  0  0  0  0  0  0  0  0  0  0
    5.1733   -4.5469   29.8123 C   0  0  0  0  0  0  0  0  0  0  0  0
   -1.7508  -11.3016   18.6072 C   0  0  0  0  0  0  0  0  0  0  0  0
    1.7497   -5.6771   26.4971 C   0  0  0  0  0  0  0  0  0  0  0  0
   -1.5799   -9.9322   18.3468 C   0  0  0  0  0  0  0  0  0  0  0  0
   -1.0871  -12.2214   17.8851 C   0  0  0  0  0  0  0  0  0  0  0  0
   -2.2706   -8.9669   19.0691 C   0  0  0  0  0  0  0  0  0  0  0  0
    3.0279   -5.3073   26.8197 C   0  0  0  0  0  0  0  0  0  0  0  0
    7.3282   -3.8948   29.1186 C   0  0  0  0  0  0  0  0  0  0  0  0
  1  3  4  0
  1  7  4  0
  2  3  1  0
  2  6  4  0
  2 16  4  0
  3 22  4  0
  4  9  4  0
  4 10  1  0
  4 20  4  0
  5 16  4  0
  5 23  4  0
  6 15  4  0
  7 12  4  0
  8 13  4  0
  8 14  4  0
  9 11  4  0
 11 14  4  0
 11 19  4  0
 12 18  4  0
 13 21  4  0
 15 23  4  0
 17 19  4  0
 17 20  4  0
 18 22  4  0
 19 21  4  0
M  END
$$$$

 Created by Python create_sdf_string function

 23 25  0  0  0  0  0  0  0  0999 V2000
    2.4610   -5.3070   29.1240 C   0  0  0  0  0  0  0  0  0  0  0  0
    4.7710   -4.6952   28.4803 C   0  0  0  0  0  0  0  0  0  0  0  0
    3.4047   -5.1087   28.1314 C   0  0  0  0  0  0  0  0  0  0  0  0
   -0.2234  -11.8615   16.8874 C   0  0  0  0  0  0  0  0  0  0  0  0
    6.4491   -4.1532   30.1213 C   0  0  0  0  0  0  0  0  0  0  0  0
    5.7060   -4.4340   27.4975 C   0  0  0  0  0  0  0  0  0  0  0  0
    1.1818   -5.6612   28.8399 C   0  0  0  0  0  0  0  0  0  0  0  0
   -1.2067   -7.3287   17.7772 C   0  0  0  0  0  0  0  0  0  0  0  0
   -0.0206  -10.5585   16.6210 C   0  0  0  0  0  0  0  0  0  0  0  0
    0.3696  -12.7626   16.2169 O   0  0  0  0  0  0  0  0  0  0  0  0
   -0.6895   -9.5676   17.3297 C   0  0  0  0  0  0  0  0  0  0  0  0
    0.8388   -5.8417   27.5264 C   0  0  0  0  0  0  0  0  0  0  0  0
   -2.0709   -7.6637   18.7817 C   0  0  0  0  0  0  0  0  0  0  0  0
   -0.5279   -8.2168   17.0717 C   0  0  0  0  0  0  0  0  0  0  0  0
    6.9694   -4.0191   27.8190 C   0  0  0  0  0  0  0  0  0  0  0  0
    5.1733   -4.5469   29.8123 C   0  0  0  0  0  0  0  0  0  0  0  0
   -1.7508  -11.3016   18.6072 C   0  0  0  0  0  0  0  0  0  0  0  0
    1.7497   -5.6771   26.4971 C   0  0  0  0  0  0  0  0  0  0  0  0
   -1.5799   -9.9322   18.3468 C   0  0  0  0  0  0  0  0  0  0  0  0
   -1.0871  -12.2214   17.8851 C   0  0  0  0  0  0  0  0  0  0  0  0
   -2.2706   -8.9669   19.0691 C   0  0  0  0  0  0  0  0  0  0  0  0
    3.0279   -5.3073   26.8197 C   0  0  0  0  0  0  0  0  0  0  0  0
    7.3282   -3.8948   29.1186 C   0  0  0  0  0  0  0  0  0  0  0  0
  1  3  4  0
  1  7  4  0
  2  3  1  0
  2  6  4  0
  2 16  4  0
  3 22  4  0
  4  9  4  0
  4 10  1  0
  4 20  4  0
  5 16  4  0
  5 23  4  0
  6 15  4  0
  7 12  4  0
  8 13  4  0
  8 14  4  0
  9 11  4  0
 11 14  4  0
 11 19  4  0
 12 18  4  0
 13 21  4  0
 15 23  4  0
 17 19  4  0
 17 20  4  0
 18 22  4  0
 19 21  4  0
M  END
$$$$

 Created by Python create_sdf_string function

 23 25  0  0  0  0  0  0  0  0999 V2000
    2.4610   -5.3070   29.1240 C   0  0  0  0  0  0  0  0  0  0  0  0
    4.7710   -4.6952   28.4803 C   0  0  0  0  0  0  0  0  0  0  0  0
    3.4047   -5.1087   28.1314 C   0  0  0  0  0  0  0  0  0  0  0  0
   -0.2234  -11.8615   16.8874 C   0  0  0  0  0  0  0  0  0  0  0  0
    6.4491   -4.1532   30.1213 C   0  0  0  0  0  0  0  0  0  0  0  0
    5.7060   -4.4340   27.4975 C   0  0  0  0  0  0  0  0  0  0  0  0
    1.1818   -5.6612   28.8399 C   0  0  0  0  0  0  0  0  0  0  0  0
   -1.2067   -7.3287   17.7772 C   0  0  0  0  0  0  0  0  0  0  0  0
   -0.0206  -10.5585   16.6210 C   0  0  0  0  0  0  0  0  0  0  0  0
    0.3696  -12.7626   16.2169 O   0  0  0  0  0  0  0  0  0  0  0  0
   -0.6895   -9.5676   17.3297 C   0  0  0  0  0  0  0  0  0  0  0  0
    0.8388   -5.8417   27.5264 C   0  0  0  0  0  0  0  0  0  0  0  0
   -2.0709   -7.6637   18.7817 C   0  0  0  0  0  0  0  0  0  0  0  0
   -0.5279   -8.2168   17.0717 C   0  0  0  0  0  0  0  0  0  0  0  0
    6.9694   -4.0191   27.8190 C   0  0  0  0  0  0  0  0  0  0  0  0
    5.1733   -4.5469   29.8123 C   0  0  0  0  0  0  0  0  0  0  0  0
   -1.7508  -11.3016   18.6072 C   0  0  0  0  0  0  0  0  0  0  0  0
    1.7497   -5.6771   26.4971 C   0  0  0  0  0  0  0  0  0  0  0  0
   -1.5799   -9.9322   18.3468 C   0  0  0  0  0  0  0  0  0  0  0  0
   -1.0871  -12.2214   17.8851 C   0  0  0  0  0  0  0  0  0  0  0  0
   -2.2706   -8.9669   19.0691 C   0  0  0  0  0  0  0  0  0  0  0  0
    3.0279   -5.3073   26.8197 C   0  0  0  0  0  0  0  0  0  0  0  0
    7.3282   -3.8948   29.1186 C   0  0  0  0  0  0  0  0  0  0  0  0
  1  3  4  0
  1  7  4  0
  2  3  1  0
  2  6  4  0
  2 16  4  0
  3 22  4  0
  4  9  4  0
  4 10  1  0
  4 20  4  0
  5 16  4  0
  5 23  4  0
  6 15  4  0
  7 12  4  0
  8 13  4  0
  8 14  4  0
  9 11  4  0
 11 14  4  0
 11 19  4  0
 12 18  4  0
 13 21  4  0
 15 23  4  0
 17 19  4  0
 17 20  4  0
 18 22  4  0
 19 21  4  0
M  END
$$$$

 Created by Python create_sdf_string function

 23 25  0  0  0  0  0  0  0  0999 V2000
    2.4610   -5.3070   29.1240 C   0  0  0  0  0  0  0  0  0  0  0  0
    4.7710   -4.6952   28.4803 C   0  0  0  0  0  0  0  0  0  0  0  0
    3.4047   -5.1087   28.1314 C   0  0  0  0  0  0  0  0  0  0  0  0
   -0.2234  -11.8615   16.8874 C   0  0  0  0  0  0  0  0  0  0  0  0
    6.4491   -4.1532   30.1213 C   0  0  0  0  0  0  0  0  0  0  0  0
    5.7060   -4.4340   27.4975 C   0  0  0  0  0  0  0  0  0  0  0  0
    1.1818   -5.6612   28.8399 C   0  0  0  0  0  0  0  0  0  0  0  0
   -1.2067   -7.3287   17.7772 C   0  0  0  0  0  0  0  0  0  0  0  0
   -0.0206  -10.5585   16.6210 C   0  0  0  0  0  0  0  0  0  0  0  0
    0.3696  -12.7626   16.2169 O   0  0  0  0  0  0  0  0  0  0  0  0
   -0.6895   -9.5676   17.3297 C   0  0  0  0  0  0  0  0  0  0  0  0
    0.8388   -5.8417   27.5264 C   0  0  0  0  0  0  0  0  0  0  0  0
   -2.0709   -7.6637   18.7817 C   0  0  0  0  0  0  0  0  0  0  0  0
   -0.5279   -8.2168   17.0717 C   0  0  0  0  0  0  0  0  0  0  0  0
    6.9694   -4.0191   27.8190 C   0  0  0  0  0  0  0  0  0  0  0  0
    5.1733   -4.5469   29.8123 C   0  0  0  0  0  0  0  0  0  0  0  0
   -1.7508  -11.3016   18.6072 C   0  0  0  0  0  0  0  0  0  0  0  0
    1.7497   -5.6771   26.4971 C   0  0  0  0  0  0  0  0  0  0  0  0
   -1.5799   -9.9322   18.3468 C   0  0  0  0  0  0  0  0  0  0  0  0
   -1.0871  -12.2214   17.8851 C   0  0  0  0  0  0  0  0  0  0  0  0
   -2.2706   -8.9669   19.0691 C   0  0  0  0  0  0  0  0  0  0  0  0
    3.0279   -5.3073   26.8197 C   0  0  0  0  0  0  0  0  0  0  0  0
    7.3282   -3.8948   29.1186 C   0  0  0  0  0  0  0  0  0  0  0  0
  1  3  4  0
  1  7  4  0
  2  3  1  0
  2  6  4  0
  2 16  4  0
  3 22  4  0
  4  9  4  0
  4 10  1  0
  4 20  4  0
  5 16  4  0
  5 23  4  0
  6 15  4  0
  7 12  4  0
  8 13  4  0
  8 14  4  0
  9 11  4  0
 11 14  4  0
 11 19  4  0
 12 18  4  0
 13 21  4  0
 15 23  4  0
 17 19  4  0
 17 20  4  0
 18 22  4  0
 19 21  4  0
M  END
$$$$

 Created by Python create_sdf_string function

 23 25  0  0  0  0  0  0  0  0999 V2000
    2.4610   -5.3070   29.1240 C   0  0  0  0  0  0  0  0  0  0  0  0
    4.7710   -4.6952   28.4803 C   0  0  0  0  0  0  0  0  0  0  0  0
    3.4047   -5.1087   28.1314 C   0  0  0  0  0  0  0  0  0  0  0  0
   -0.2234  -11.8615   16.8874 C   0  0  0  0  0  0  0  0  0  0  0  0
    6.4491   -4.1532   30.1213 C   0  0  0  0  0  0  0  0  0  0  0  0
    5.7060   -4.4340   27.4975 C   0  0  0  0  0  0  0  0  0  0  0  0
    1.1818   -5.6612   28.8399 C   0  0  0  0  0  0  0  0  0  0  0  0
   -1.2067   -7.3287   17.7772 C   0  0  0  0  0  0  0  0  0  0  0  0
   -0.0206  -10.5585   16.6210 C   0  0  0  0  0  0  0  0  0  0  0  0
    0.3696  -12.7626   16.2169 O   0  0  0  0  0  0  0  0  0  0  0  0
   -0.6895   -9.5676   17.3297 C   0  0  0  0  0  0  0  0  0  0  0  0
    0.8388   -5.8417   27.5264 C   0  0  0  0  0  0  0  0  0  0  0  0
   -2.0709   -7.6637   18.7817 C   0  0  0  0  0  0  0  0  0  0  0  0
   -0.5279   -8.2168   17.0717 C   0  0  0  0  0  0  0  0  0  0  0  0
    6.9694   -4.0191   27.8190 C   0  0  0  0  0  0  0  0  0  0  0  0
    5.1733   -4.5469   29.8123 C   0  0  0  0  0  0  0  0  0  0  0  0
   -1.7508  -11.3016   18.6072 C   0  0  0  0  0  0  0  0  0  0  0  0
    1.7497   -5.6771   26.4971 C   0  0  0  0  0  0  0  0  0  0  0  0
   -1.5799   -9.9322   18.3468 C   0  0  0  0  0  0  0  0  0  0  0  0
   -1.0871  -12.2214   17.8851 C   0  0  0  0  0  0  0  0  0  0  0  0
   -2.2706   -8.9669   19.0691 C   0  0  0  0  0  0  0  0  0  0  0  0
    3.0279   -5.3073   26.8197 C   0  0  0  0  0  0  0  0  0  0  0  0
    7.3282   -3.8948   29.1186 C   0  0  0  0  0  0  0  0  0  0  0  0
  1  3  4  0
  1  7  4  0
  2  3  1  0
  2  6  4  0
  2 16  4  0
  3 22  4  0
  4  9  4  0
  4 10  1  0
  4 20  4  0
  5 16  4  0
  5 23  4  0
  6 15  4  0
  7 12  4  0
  8 13  4  0
  8 14  4  0
  9 11  4  0
 11 14  4  0
 11 19  4  0
 12 18  4  0
 13 21  4  0
 15 23  4  0
 17 19  4  0
 17 20  4  0
 18 22  4  0
 19 21  4  0
M  END
$$$$

 Created by Python create_sdf_string function

 23 25  0  0  0  0  0  0  0  0999 V2000
    2.4610   -5.3070   29.1240 C   0  0  0  0  0  0  0  0  0  0  0  0
    4.7710   -4.6952   28.4803 C   0  0  0  0  0  0  0  0  0  0  0  0
    3.4047   -5.1087   28.1314 C   0  0  0  0  0  0  0  0  0  0  0  0
   -0.2234  -11.8615   16.8874 C   0  0  0  0  0  0  0  0  0  0  0  0
    6.4491   -4.1532   30.1213 C   0  0  0  0  0  0  0  0  0  0  0  0
    5.7060   -4.4340   27.4975 C   0  0  0  0  0  0  0  0  0  0  0  0
    1.1818   -5.6612   28.8399 C   0  0  0  0  0  0  0  0  0  0  0  0
   -1.2067   -7.3287   17.7772 C   0  0  0  0  0  0  0  0  0  0  0  0
   -0.0206  -10.5585   16.6210 C   0  0  0  0  0  0  0  0  0  0  0  0
    0.3696  -12.7626   16.2169 O   0  0  0  0  0  0  0  0  0  0  0  0
   -0.6895   -9.5676   17.3297 C   0  0  0  0  0  0  0  0  0  0  0  0
    0.8388   -5.8417   27.5264 C   0  0  0  0  0  0  0  0  0  0  0  0
   -2.0709   -7.6637   18.7817 C   0  0  0  0  0  0  0  0  0  0  0  0
   -0.5279   -8.2168   17.0717 C   0  0  0  0  0  0  0  0  0  0  0  0
    6.9694   -4.0191   27.8190 C   0  0  0  0  0  0  0  0  0  0  0  0
    5.1733   -4.5469   29.8123 C   0  0  0  0  0  0  0  0  0  0  0  0
   -1.7508  -11.3016   18.6072 C   0  0  0  0  0  0  0  0  0  0  0  0
    1.7497   -5.6771   26.4971 C   0  0  0  0  0  0  0  0  0  0  0  0
   -1.5799   -9.9322   18.3468 C   0  0  0  0  0  0  0  0  0  0  0  0
   -1.0871  -12.2214   17.8851 C   0  0  0  0  0  0  0  0  0  0  0  0
   -2.2706   -8.9669   19.0691 C   0  0  0  0  0  0  0  0  0  0  0  0
    3.0279   -5.3073   26.8197 C   0  0  0  0  0  0  0  0  0  0  0  0
    7.3282   -3.8948   29.1186 C   0  0  0  0  0  0  0  0  0  0  0  0
  1  3  4  0
  1  7  4  0
  2  3  1  0
  2  6  4  0
  2 16  4  0
  3 22  4  0
  4  9  4  0
  4 10  1  0
  4 20  4  0
  5 16  4  0
  5 23  4  0
  6 15  4  0
  7 12  4  0
  8 13  4  0
  8 14  4  0
  9 11  4  0
 11 14  4  0
 11 19  4  0
 12 18  4  0
 13 21  4  0
 15 23  4  0
 17 19  4  0
 17 20  4  0
 18 22  4  0
 19 21  4  0
M  END
$$$$

 Created by Python create_sdf_string function

 23 25  0  0  0  0  0  0  0  0999 V2000
    2.4610   -5.3070   29.1240 C   0  0  0  0  0  0  0  0  0  0  0  0
    4.7710   -4.6952   28.4803 C   0  0  0  0  0  0  0  0  0  0  0  0
    3.4047   -5.1087   28.1314 C   0  0  0  0  0  0  0  0  0  0  0  0
   -0.2234  -11.8615   16.8874 C   0  0  0  0  0  0  0  0  0  0  0  0
    6.4491   -4.1532   30.1213 C   0  0  0  0  0  0  0  0  0  0  0  0
    5.7060   -4.4340   27.4975 C   0  0  0  0  0  0  0  0  0  0  0  0
    1.1818   -5.6612   28.8399 C   0  0  0  0  0  0  0  0  0  0  0  0
   -1.2067   -7.3287   17.7772 C   0  0  0  0  0  0  0  0  0  0  0  0
   -0.0206  -10.5585   16.6210 C   0  0  0  0  0  0  0  0  0  0  0  0
    0.3696  -12.7626   16.2169 O   0  0  0  0  0  0  0  0  0  0  0  0
   -0.6895   -9.5676   17.3297 C   0  0  0  0  0  0  0  0  0  0  0  0
    0.8388   -5.8417   27.5264 C   0  0  0  0  0  0  0  0  0  0  0  0
   -2.0709   -7.6637   18.7817 C   0  0  0  0  0  0  0  0  0  0  0  0
   -0.5279   -8.2168   17.0717 C   0  0  0  0  0  0  0  0  0  0  0  0
    6.9694   -4.0191   27.8190 C   0  0  0  0  0  0  0  0  0  0  0  0
    5.1733   -4.5469   29.8123 C   0  0  0  0  0  0  0  0  0  0  0  0
   -1.7508  -11.3016   18.6072 C   0  0  0  0  0  0  0  0  0  0  0  0
    1.7497   -5.6771   26.4971 C   0  0  0  0  0  0  0  0  0  0  0  0
   -1.5799   -9.9322   18.3468 C   0  0  0  0  0  0  0  0  0  0  0  0
   -1.0871  -12.2214   17.8851 C   0  0  0  0  0  0  0  0  0  0  0  0
   -2.2706   -8.9669   19.0691 C   0  0  0  0  0  0  0  0  0  0  0  0
    3.0279   -5.3073   26.8197 C   0  0  0  0  0  0  0  0  0  0  0  0
    7.3282   -3.8948   29.1186 C   0  0  0  0  0  0  0  0  0  0  0  0
  1  3  4  0
  1  7  4  0
  2  3  1  0
  2  6  4  0
  2 16  4  0
  3 22  4  0
  4  9  4  0
  4 10  1  0
  4 20  4  0
  5 16  4  0
  5 23  4  0
  6 15  4  0
  7 12  4  0
  8 13  4  0
  8 14  4  0
  9 11  4  0
 11 14  4  0
 11 19  4  0
 12 18  4  0
 13 21  4  0
 15 23  4  0
 17 19  4  0
 17 20  4  0
 18 22  4  0
 19 21  4  0
M  END
$$$$

 Created by Python create_sdf_string function

 23 25  0  0  0  0  0  0  0  0999 V2000
    2.4610   -5.3070   29.1240 C   0  0  0  0  0  0  0  0  0  0  0  0
    4.7710   -4.6952   28.4803 C   0  0  0  0  0  0  0  0  0  0  0  0
    3.4047   -5.1087   28.1314 C   0  0  0  0  0  0  0  0  0  0  0  0
   -0.2234  -11.8615   16.8874 C   0  0  0  0  0  0  0  0  0  0  0  0
    6.4491   -4.1532   30.1213 C   0  0  0  0  0  0  0  0  0  0  0  0
    5.7060   -4.4340   27.4975 C   0  0  0  0  0  0  0  0  0  0  0  0
    1.1818   -5.6612   28.8399 C   0  0  0  0  0  0  0  0  0  0  0  0
   -1.2067   -7.3287   17.7772 C   0  0  0  0  0  0  0  0  0  0  0  0
   -0.0206  -10.5585   16.6210 C   0  0  0  0  0  0  0  0  0  0  0  0
    0.3696  -12.7626   16.2169 O   0  0  0  0  0  0  0  0  0  0  0  0
   -0.6895   -9.5676   17.3297 C   0  0  0  0  0  0  0  0  0  0  0  0
    0.8388   -5.8417   27.5264 C   0  0  0  0  0  0  0  0  0  0  0  0
   -2.0709   -7.6637   18.7817 C   0  0  0  0  0  0  0  0  0  0  0  0
   -0.5279   -8.2168   17.0717 C   0  0  0  0  0  0  0  0  0  0  0  0
    6.9694   -4.0191   27.8190 C   0  0  0  0  0  0  0  0  0  0  0  0
    5.1733   -4.5469   29.8123 C   0  0  0  0  0  0  0  0  0  0  0  0
   -1.7508  -11.3016   18.6072 C   0  0  0  0  0  0  0  0  0  0  0  0
    1.7497   -5.6771   26.4971 C   0  0  0  0  0  0  0  0  0  0  0  0
   -1.5799   -9.9322   18.3468 C   0  0  0  0  0  0  0  0  0  0  0  0
   -1.0871  -12.2214   17.8851 C   0  0  0  0  0  0  0  0  0  0  0  0
   -2.2706   -8.9669   19.0691 C   0  0  0  0  0  0  0  0  0  0  0  0
    3.0279   -5.3073   26.8197 C   0  0  0  0  0  0  0  0  0  0  0  0
    7.3282   -3.8948   29.1186 C   0  0  0  0  0  0  0  0  0  0  0  0
  1  3  4  0
  1  7  4  0
  2  3  1  0
  2  6  4  0
  2 16  4  0
  3 22  4  0
  4  9  4  0
  4 10  1  0
  4 20  4  0
  5 16  4  0
  5 23  4  0
  6 15  4  0
  7 12  4  0
  8 13  4  0
  8 14  4  0
  9 11  4  0
 11 14  4  0
 11 19  4  0
 12 18  4  0
 13 21  4  0
 15 23  4  0
 17 19  4  0
 17 20  4  0
 18 22  4  0
 19 21  4  0
M  END
$$$$

 Created by Python create_sdf_string function

 23 25  0  0  0  0  0  0  0  0999 V2000
    2.4610   -5.3070   29.1240 C   0  0  0  0  0  0  0  0  0  0  0  0
    4.7710   -4.6952   28.4803 C   0  0  0  0  0  0  0  0  0  0  0  0
    3.4047   -5.1087   28.1314 C   0  0  0  0  0  0  0  0  0  0  0  0
   -0.2234  -11.8615   16.8874 C   0  0  0  0  0  0  0  0  0  0  0  0
    6.4491   -4.1532   30.1213 C   0  0  0  0  0  0  0  0  0  0  0  0
    5.7060   -4.4340   27.4975 C   0  0  0  0  0  0  0  0  0  0  0  0
    1.1818   -5.6612   28.8399 C   0  0  0  0  0  0  0  0  0  0  0  0
   -1.2067   -7.3287   17.7772 C   0  0  0  0  0  0  0  0  0  0  0  0
   -0.0206  -10.5585   16.6210 C   0  0  0  0  0  0  0  0  0  0  0  0
    0.3696  -12.7626   16.2169 O   0  0  0  0  0  0  0  0  0  0  0  0
   -0.6895   -9.5676   17.3297 C   0  0  0  0  0  0  0  0  0  0  0  0
    0.8388   -5.8417   27.5264 C   0  0  0  0  0  0  0  0  0  0  0  0
   -2.0709   -7.6637   18.7817 C   0  0  0  0  0  0  0  0  0  0  0  0
   -0.5279   -8.2168   17.0717 C   0  0  0  0  0  0  0  0  0  0  0  0
    6.9694   -4.0191   27.8190 C   0  0  0  0  0  0  0  0  0  0  0  0
    5.1733   -4.5469   29.8123 C   0  0  0  0  0  0  0  0  0  0  0  0
   -1.7508  -11.3016   18.6072 C   0  0  0  0  0  0  0  0  0  0  0  0
    1.7497   -5.6771   26.4971 C   0  0  0  0  0  0  0  0  0  0  0  0
   -1.5799   -9.9322   18.3468 C   0  0  0  0  0  0  0  0  0  0  0  0
   -1.0871  -12.2214   17.8851 C   0  0  0  0  0  0  0  0  0  0  0  0
   -2.2706   -8.9669   19.0691 C   0  0  0  0  0  0  0  0  0  0  0  0
    3.0279   -5.3073   26.8197 C   0  0  0  0  0  0  0  0  0  0  0  0
    7.3282   -3.8948   29.1186 C   0  0  0  0  0  0  0  0  0  0  0  0
  1  3  4  0
  1  7  4  0
  2  3  1  0
  2  6  4  0
  2 16  4  0
  3 22  4  0
  4  9  4  0
  4 10  1  0
  4 20  4  0
  5 16  4  0
  5 23  4  0
  6 15  4  0
  7 12  4  0
  8 13  4  0
  8 14  4  0
  9 11  4  0
 11 14  4  0
 11 19  4  0
 12 18  4  0
 13 21  4  0
 15 23  4  0
 17 19  4  0
 17 20  4  0
 18 22  4  0
 19 21  4  0
M  END
$$$$

 Created by Python create_sdf_string function

 23 25  0  0  0  0  0  0  0  0999 V2000
    2.4610   -5.3070   29.1240 C   0  0  0  0  0  0  0  0  0  0  0  0
    4.7710   -4.6952   28.4803 C   0  0  0  0  0  0  0  0  0  0  0  0
    3.4047   -5.1087   28.1314 C   0  0  0  0  0  0  0  0  0  0  0  0
   -0.2234  -11.8615   16.8874 C   0  0  0  0  0  0  0  0  0  0  0  0
    6.4491   -4.1532   30.1213 C   0  0  0  0  0  0  0  0  0  0  0  0
    5.7060   -4.4340   27.4975 C   0  0  0  0  0  0  0  0  0  0  0  0
    1.1818   -5.6612   28.8399 C   0  0  0  0  0  0  0  0  0  0  0  0
   -1.2067   -7.3287   17.7772 C   0  0  0  0  0  0  0  0  0  0  0  0
   -0.0206  -10.5585   16.6210 C   0  0  0  0  0  0  0  0  0  0  0  0
    0.3696  -12.7626   16.2169 O   0  0  0  0  0  0  0  0  0  0  0  0
   -0.6895   -9.5676   17.3297 C   0  0  0  0  0  0  0  0  0  0  0  0
    0.8388   -5.8417   27.5264 C   0  0  0  0  0  0  0  0  0  0  0  0
   -2.0709   -7.6637   18.7817 C   0  0  0  0  0  0  0  0  0  0  0  0
   -0.5279   -8.2168   17.0717 C   0  0  0  0  0  0  0  0  0  0  0  0
    6.9694   -4.0191   27.8190 C   0  0  0  0  0  0  0  0  0  0  0  0
    5.1733   -4.5469   29.8123 C   0  0  0  0  0  0  0  0  0  0  0  0
   -1.7508  -11.3016   18.6072 C   0  0  0  0  0  0  0  0  0  0  0  0
    1.7497   -5.6771   26.4971 C   0  0  0  0  0  0  0  0  0  0  0  0
   -1.5799   -9.9322   18.3468 C   0  0  0  0  0  0  0  0  0  0  0  0
   -1.0871  -12.2214   17.8851 C   0  0  0  0  0  0  0  0  0  0  0  0
   -2.2706   -8.9669   19.0691 C   0  0  0  0  0  0  0  0  0  0  0  0
    3.0279   -5.3073   26.8197 C   0  0  0  0  0  0  0  0  0  0  0  0
    7.3282   -3.8948   29.1186 C   0  0  0  0  0  0  0  0  0  0  0  0
  1  3  4  0
  1  7  4  0
  2  3  1  0
  2  6  4  0
  2 16  4  0
  3 22  4  0
  4  9  4  0
  4 10  1  0
  4 20  4  0
  5 16  4  0
  5 23  4  0
  6 15  4  0
  7 12  4  0
  8 13  4  0
  8 14  4  0
  9 11  4  0
 11 14  4  0
 11 19  4  0
 12 18  4  0
 13 21  4  0
 15 23  4  0
 17 19  4  0
 17 20  4  0
 18 22  4  0
 19 21  4  0
M  END
$$$$

 Created by Python create_sdf_string function

 23 25  0  0  0  0  0  0  0  0999 V2000
    2.4610   -5.3070   29.1240 C   0  0  0  0  0  0  0  0  0  0  0  0
    4.7710   -4.6952   28.4803 C   0  0  0  0  0  0  0  0  0  0  0  0
    3.4047   -5.1087   28.1314 C   0  0  0  0  0  0  0  0  0  0  0  0
   -0.2234  -11.8615   16.8874 C   0  0  0  0  0  0  0  0  0  0  0  0
    6.4491   -4.1532   30.1213 C   0  0  0  0  0  0  0  0  0  0  0  0
    5.7060   -4.4340   27.4975 C   0  0  0  0  0  0  0  0  0  0  0  0
    1.1818   -5.6612   28.8399 C   0  0  0  0  0  0  0  0  0  0  0  0
   -1.2067   -7.3287   17.7772 C   0  0  0  0  0  0  0  0  0  0  0  0
   -0.0206  -10.5585   16.6210 C   0  0  0  0  0  0  0  0  0  0  0  0
    0.3696  -12.7626   16.2169 O   0  0  0  0  0  0  0  0  0  0  0  0
   -0.6895   -9.5676   17.3297 C   0  0  0  0  0  0  0  0  0  0  0  0
    0.8388   -5.8417   27.5264 C   0  0  0  0  0  0  0  0  0  0  0  0
   -2.0709   -7.6637   18.7817 C   0  0  0  0  0  0  0  0  0  0  0  0
   -0.5279   -8.2168   17.0717 C   0  0  0  0  0  0  0  0  0  0  0  0
    6.9694   -4.0191   27.8190 C   0  0  0  0  0  0  0  0  0  0  0  0
    5.1733   -4.5469   29.8123 C   0  0  0  0  0  0  0  0  0  0  0  0
   -1.7508  -11.3016   18.6072 C   0  0  0  0  0  0  0  0  0  0  0  0
    1.7497   -5.6771   26.4971 C   0  0  0  0  0  0  0  0  0  0  0  0
   -1.5799   -9.9322   18.3468 C   0  0  0  0  0  0  0  0  0  0  0  0
   -1.0871  -12.2214   17.8851 C   0  0  0  0  0  0  0  0  0  0  0  0
   -2.2706   -8.9669   19.0691 C   0  0  0  0  0  0  0  0  0  0  0  0
    3.0279   -5.3073   26.8197 C   0  0  0  0  0  0  0  0  0  0  0  0
    7.3282   -3.8948   29.1186 C   0  0  0  0  0  0  0  0  0  0  0  0
  1  3  4  0
  1  7  4  0
  2  3  1  0
  2  6  4  0
  2 16  4  0
  3 22  4  0
  4  9  4  0
  4 10  1  0
  4 20  4  0
  5 16  4  0
  5 23  4  0
  6 15  4  0
  7 12  4  0
  8 13  4  0
  8 14  4  0
  9 11  4  0
 11 14  4  0
 11 19  4  0
 12 18  4  0
 13 21  4  0
 15 23  4  0
 17 19  4  0
 17 20  4  0
 18 22  4  0
 19 21  4  0
M  END
$$$$

 Created by Python create_sdf_string function

 23 25  0  0  0  0  0  0  0  0999 V2000
    2.4610   -5.3070   29.1240 C   0  0  0  0  0  0  0  0  0  0  0  0
    4.7710   -4.6952   28.4803 C   0  0  0  0  0  0  0  0  0  0  0  0
    3.4047   -5.1087   28.1314 C   0  0  0  0  0  0  0  0  0  0  0  0
   -0.2234  -11.8615   16.8874 C   0  0  0  0  0  0  0  0  0  0  0  0
    6.4491   -4.1532   30.1213 C   0  0  0  0  0  0  0  0  0  0  0  0
    5.7060   -4.4340   27.4975 C   0  0  0  0  0  0  0  0  0  0  0  0
    1.1818   -5.6612   28.8399 C   0  0  0  0  0  0  0  0  0  0  0  0
   -1.2067   -7.3287   17.7772 C   0  0  0  0  0  0  0  0  0  0  0  0
   -0.0206  -10.5585   16.6210 C   0  0  0  0  0  0  0  0  0  0  0  0
    0.3696  -12.7626   16.2169 O   0  0  0  0  0  0  0  0  0  0  0  0
   -0.6895   -9.5676   17.3297 C   0  0  0  0  0  0  0  0  0  0  0  0
    0.8388   -5.8417   27.5264 C   0  0  0  0  0  0  0  0  0  0  0  0
   -2.0709   -7.6637   18.7817 C   0  0  0  0  0  0  0  0  0  0  0  0
   -0.5279   -8.2168   17.0717 C   0  0  0  0  0  0  0  0  0  0  0  0
    6.9694   -4.0191   27.8190 C   0  0  0  0  0  0  0  0  0  0  0  0
    5.1733   -4.5469   29.8123 C   0  0  0  0  0  0  0  0  0  0  0  0
   -1.7508  -11.3016   18.6072 C   0  0  0  0  0  0  0  0  0  0  0  0
    1.7497   -5.6771   26.4971 C   0  0  0  0  0  0  0  0  0  0  0  0
   -1.5799   -9.9322   18.3468 C   0  0  0  0  0  0  0  0  0  0  0  0
   -1.0871  -12.2214   17.8851 C   0  0  0  0  0  0  0  0  0  0  0  0
   -2.2706   -8.9669   19.0691 C   0  0  0  0  0  0  0  0  0  0  0  0
    3.0279   -5.3073   26.8197 C   0  0  0  0  0  0  0  0  0  0  0  0
    7.3282   -3.8948   29.1186 C   0  0  0  0  0  0  0  0  0  0  0  0
  1  3  4  0
  1  7  4  0
  2  3  1  0
  2  6  4  0
  2 16  4  0
  3 22  4  0
  4  9  4  0
  4 10  1  0
  4 20  4  0
  5 16  4  0
  5 23  4  0
  6 15  4  0
  7 12  4  0
  8 13  4  0
  8 14  4  0
  9 11  4  0
 11 14  4  0
 11 19  4  0
 12 18  4  0
 13 21  4  0
 15 23  4  0
 17 19  4  0
 17 20  4  0
 18 22  4  0
 19 21  4  0
M  END
$$$$

 Created by Python create_sdf_string function

 23 25  0  0  0  0  0  0  0  0999 V2000
    2.4610   -5.3070   29.1240 C   0  0  0  0  0  0  0  0  0  0  0  0
    4.7710   -4.6952   28.4803 C   0  0  0  0  0  0  0  0  0  0  0  0
    3.4047   -5.1087   28.1314 C   0  0  0  0  0  0  0  0  0  0  0  0
   -0.2234  -11.8615   16.8874 C   0  0  0  0  0  0  0  0  0  0  0  0
    6.4491   -4.1532   30.1213 C   0  0  0  0  0  0  0  0  0  0  0  0
    5.7060   -4.4340   27.4975 C   0  0  0  0  0  0  0  0  0  0  0  0
    1.1818   -5.6612   28.8399 C   0  0  0  0  0  0  0  0  0  0  0  0
   -1.2067   -7.3287   17.7772 C   0  0  0  0  0  0  0  0  0  0  0  0
   -0.0206  -10.5585   16.6210 C   0  0  0  0  0  0  0  0  0  0  0  0
    0.3696  -12.7626   16.2169 O   0  0  0  0  0  0  0  0  0  0  0  0
   -0.6895   -9.5676   17.3297 C   0  0  0  0  0  0  0  0  0  0  0  0
    0.8388   -5.8417   27.5264 C   0  0  0  0  0  0  0  0  0  0  0  0
   -2.0709   -7.6637   18.7817 C   0  0  0  0  0  0  0  0  0  0  0  0
   -0.5279   -8.2168   17.0717 C   0  0  0  0  0  0  0  0  0  0  0  0
    6.9694   -4.0191   27.8190 C   0  0  0  0  0  0  0  0  0  0  0  0
    5.1733   -4.5469   29.8123 C   0  0  0  0  0  0  0  0  0  0  0  0
   -1.7508  -11.3016   18.6072 C   0  0  0  0  0  0  0  0  0  0  0  0
    1.7497   -5.6771   26.4971 C   0  0  0  0  0  0  0  0  0  0  0  0
   -1.5799   -9.9322   18.3468 C   0  0  0  0  0  0  0  0  0  0  0  0
   -1.0871  -12.2214   17.8851 C   0  0  0  0  0  0  0  0  0  0  0  0
   -2.2706   -8.9669   19.0691 C   0  0  0  0  0  0  0  0  0  0  0  0
    3.0279   -5.3073   26.8197 C   0  0  0  0  0  0  0  0  0  0  0  0
    7.3282   -3.8948   29.1186 C   0  0  0  0  0  0  0  0  0  0  0  0
  1  3  4  0
  1  7  4  0
  2  3  1  0
  2  6  4  0
  2 16  4  0
  3 22  4  0
  4  9  4  0
  4 10  1  0
  4 20  4  0
  5 16  4  0
  5 23  4  0
  6 15  4  0
  7 12  4  0
  8 13  4  0
  8 14  4  0
  9 11  4  0
 11 14  4  0
 11 19  4  0
 12 18  4  0
 13 21  4  0
 15 23  4  0
 17 19  4  0
 17 20  4  0
 18 22  4  0
 19 21  4  0
M  END
$$$$

 Created by Python create_sdf_string function

 23 25  0  0  0  0  0  0  0  0999 V2000
    2.4610   -5.3070   29.1240 C   0  0  0  0  0  0  0  0  0  0  0  0
    4.7710   -4.6952   28.4803 C   0  0  0  0  0  0  0  0  0  0  0  0
    3.4047   -5.1087   28.1314 C   0  0  0  0  0  0  0  0  0  0  0  0
   -0.2234  -11.8615   16.8874 C   0  0  0  0  0  0  0  0  0  0  0  0
    6.4491   -4.1532   30.1213 C   0  0  0  0  0  0  0  0  0  0  0  0
    5.7060   -4.4340   27.4975 C   0  0  0  0  0  0  0  0  0  0  0  0
    1.1818   -5.6612   28.8399 C   0  0  0  0  0  0  0  0  0  0  0  0
   -1.2067   -7.3287   17.7772 C   0  0  0  0  0  0  0  0  0  0  0  0
   -0.0206  -10.5585   16.6210 C   0  0  0  0  0  0  0  0  0  0  0  0
    0.3696  -12.7626   16.2169 O   0  0  0  0  0  0  0  0  0  0  0  0
   -0.6895   -9.5676   17.3297 C   0  0  0  0  0  0  0  0  0  0  0  0
    0.8388   -5.8417   27.5264 C   0  0  0  0  0  0  0  0  0  0  0  0
   -2.0709   -7.6637   18.7817 C   0  0  0  0  0  0  0  0  0  0  0  0
   -0.5279   -8.2168   17.0717 C   0  0  0  0  0  0  0  0  0  0  0  0
    6.9694   -4.0191   27.8190 C   0  0  0  0  0  0  0  0  0  0  0  0
    5.1733   -4.5469   29.8123 C   0  0  0  0  0  0  0  0  0  0  0  0
   -1.7508  -11.3016   18.6072 C   0  0  0  0  0  0  0  0  0  0  0  0
    1.7497   -5.6771   26.4971 C   0  0  0  0  0  0  0  0  0  0  0  0
   -1.5799   -9.9322   18.3468 C   0  0  0  0  0  0  0  0  0  0  0  0
   -1.0871  -12.2214   17.8851 C   0  0  0  0  0  0  0  0  0  0  0  0
   -2.2706   -8.9669   19.0691 C   0  0  0  0  0  0  0  0  0  0  0  0
    3.0279   -5.3073   26.8197 C   0  0  0  0  0  0  0  0  0  0  0  0
    7.3282   -3.8948   29.1186 C   0  0  0  0  0  0  0  0  0  0  0  0
  1  3  4  0
  1  7  4  0
  2  3  1  0
  2  6  4  0
  2 16  4  0
  3 22  4  0
  4  9  4  0
  4 10  1  0
  4 20  4  0
  5 16  4  0
  5 23  4  0
  6 15  4  0
  7 12  4  0
  8 13  4  0
  8 14  4  0
  9 11  4  0
 11 14  4  0
 11 19  4  0
 12 18  4  0
 13 21  4  0
 15 23  4  0
 17 19  4  0
 17 20  4  0
 18 22  4  0
 19 21  4  0
M  END
$$$$

 Created by Python create_sdf_string function

 23 25  0  0  0  0  0  0  0  0999 V2000
    2.4610   -5.3070   29.1240 C   0  0  0  0  0  0  0  0  0  0  0  0
    4.7710   -4.6952   28.4803 C   0  0  0  0  0  0  0  0  0  0  0  0
    3.4047   -5.1087   28.1314 C   0  0  0  0  0  0  0  0  0  0  0  0
   -0.2234  -11.8615   16.8874 C   0  0  0  0  0  0  0  0  0  0  0  0
    6.4491   -4.1532   30.1213 C   0  0  0  0  0  0  0  0  0  0  0  0
    5.7060   -4.4340   27.4975 C   0  0  0  0  0  0  0  0  0  0  0  0
    1.1818   -5.6612   28.8399 C   0  0  0  0  0  0  0  0  0  0  0  0
   -1.2067   -7.3287   17.7772 C   0  0  0  0  0  0  0  0  0  0  0  0
   -0.0206  -10.5585   16.6210 C   0  0  0  0  0  0  0  0  0  0  0  0
    0.3696  -12.7626   16.2169 O   0  0  0  0  0  0  0  0  0  0  0  0
   -0.6895   -9.5676   17.3297 C   0  0  0  0  0  0  0  0  0  0  0  0
    0.8388   -5.8417   27.5264 C   0  0  0  0  0  0  0  0  0  0  0  0
   -2.0709   -7.6637   18.7817 C   0  0  0  0  0  0  0  0  0  0  0  0
   -0.5279   -8.2168   17.0717 C   0  0  0  0  0  0  0  0  0  0  0  0
    6.9694   -4.0191   27.8190 C   0  0  0  0  0  0  0  0  0  0  0  0
    5.1733   -4.5469   29.8123 C   0  0  0  0  0  0  0  0  0  0  0  0
   -1.7508  -11.3016   18.6072 C   0  0  0  0  0  0  0  0  0  0  0  0
    1.7497   -5.6771   26.4971 C   0  0  0  0  0  0  0  0  0  0  0  0
   -1.5799   -9.9322   18.3468 C   0  0  0  0  0  0  0  0  0  0  0  0
   -1.0871  -12.2214   17.8851 C   0  0  0  0  0  0  0  0  0  0  0  0
   -2.2706   -8.9669   19.0691 C   0  0  0  0  0  0  0  0  0  0  0  0
    3.0279   -5.3073   26.8197 C   0  0  0  0  0  0  0  0  0  0  0  0
    7.3282   -3.8948   29.1186 C   0  0  0  0  0  0  0  0  0  0  0  0
  1  3  4  0
  1  7  4  0
  2  3  1  0
  2  6  4  0
  2 16  4  0
  3 22  4  0
  4  9  4  0
  4 10  1  0
  4 20  4  0
  5 16  4  0
  5 23  4  0
  6 15  4  0
  7 12  4  0
  8 13  4  0
  8 14  4  0
  9 11  4  0
 11 14  4  0
 11 19  4  0
 12 18  4  0
 13 21  4  0
 15 23  4  0
 17 19  4  0
 17 20  4  0
 18 22  4  0
 19 21  4  0
M  END
$$$$

 Created by Python create_sdf_string function

 23 25  0  0  0  0  0  0  0  0999 V2000
    2.4610   -5.3070   29.1240 C   0  0  0  0  0  0  0  0  0  0  0  0
    4.7710   -4.6952   28.4803 C   0  0  0  0  0  0  0  0  0  0  0  0
    3.4047   -5.1087   28.1314 C   0  0  0  0  0  0  0  0  0  0  0  0
   -0.2234  -11.8615   16.8874 C   0  0  0  0  0  0  0  0  0  0  0  0
    6.4491   -4.1532   30.1213 C   0  0  0  0  0  0  0  0  0  0  0  0
    5.7060   -4.4340   27.4975 C   0  0  0  0  0  0  0  0  0  0  0  0
    1.1818   -5.6612   28.8399 C   0  0  0  0  0  0  0  0  0  0  0  0
   -1.2067   -7.3287   17.7772 C   0  0  0  0  0  0  0  0  0  0  0  0
   -0.0206  -10.5585   16.6210 C   0  0  0  0  0  0  0  0  0  0  0  0
    0.3696  -12.7626   16.2169 O   0  0  0  0  0  0  0  0  0  0  0  0
   -0.6895   -9.5676   17.3297 C   0  0  0  0  0  0  0  0  0  0  0  0
    0.8388   -5.8417   27.5264 C   0  0  0  0  0  0  0  0  0  0  0  0
   -2.0709   -7.6637   18.7817 C   0  0  0  0  0  0  0  0  0  0  0  0
   -0.5279   -8.2168   17.0717 C   0  0  0  0  0  0  0  0  0  0  0  0
    6.9694   -4.0191   27.8190 C   0  0  0  0  0  0  0  0  0  0  0  0
    5.1733   -4.5469   29.8123 C   0  0  0  0  0  0  0  0  0  0  0  0
   -1.7508  -11.3016   18.6072 C   0  0  0  0  0  0  0  0  0  0  0  0
    1.7497   -5.6771   26.4971 C   0  0  0  0  0  0  0  0  0  0  0  0
   -1.5799   -9.9322   18.3468 C   0  0  0  0  0  0  0  0  0  0  0  0
   -1.0871  -12.2214   17.8851 C   0  0  0  0  0  0  0  0  0  0  0  0
   -2.2706   -8.9669   19.0691 C   0  0  0  0  0  0  0  0  0  0  0  0
    3.0279   -5.3073   26.8197 C   0  0  0  0  0  0  0  0  0  0  0  0
    7.3282   -3.8948   29.1186 C   0  0  0  0  0  0  0  0  0  0  0  0
  1  3  4  0
  1  7  4  0
  2  3  1  0
  2  6  4  0
  2 16  4  0
  3 22  4  0
  4  9  4  0
  4 10  1  0
  4 20  4  0
  5 16  4  0
  5 23  4  0
  6 15  4  0
  7 12  4  0
  8 13  4  0
  8 14  4  0
  9 11  4  0
 11 14  4  0
 11 19  4  0
 12 18  4  0
 13 21  4  0
 15 23  4  0
 17 19  4  0
 17 20  4  0
 18 22  4  0
 19 21  4  0
M  END
$$$$

 Created by Python create_sdf_string function

 23 25  0  0  0  0  0  0  0  0999 V2000
    2.4610   -5.3070   29.1240 C   0  0  0  0  0  0  0  0  0  0  0  0
    4.7710   -4.6952   28.4803 C   0  0  0  0  0  0  0  0  0  0  0  0
    3.4047   -5.1087   28.1314 C   0  0  0  0  0  0  0  0  0  0  0  0
   -0.2234  -11.8615   16.8874 C   0  0  0  0  0  0  0  0  0  0  0  0
    6.4491   -4.1532   30.1213 C   0  0  0  0  0  0  0  0  0  0  0  0
    5.7060   -4.4340   27.4975 C   0  0  0  0  0  0  0  0  0  0  0  0
    1.1818   -5.6612   28.8399 C   0  0  0  0  0  0  0  0  0  0  0  0
   -1.2067   -7.3287   17.7772 C   0  0  0  0  0  0  0  0  0  0  0  0
   -0.0206  -10.5585   16.6210 C   0  0  0  0  0  0  0  0  0  0  0  0
    0.3696  -12.7626   16.2169 O   0  0  0  0  0  0  0  0  0  0  0  0
   -0.6895   -9.5676   17.3297 C   0  0  0  0  0  0  0  0  0  0  0  0
    0.8388   -5.8417   27.5264 C   0  0  0  0  0  0  0  0  0  0  0  0
   -2.0709   -7.6637   18.7817 C   0  0  0  0  0  0  0  0  0  0  0  0
   -0.5279   -8.2168   17.0717 C   0  0  0  0  0  0  0  0  0  0  0  0
    6.9694   -4.0191   27.8190 C   0  0  0  0  0  0  0  0  0  0  0  0
    5.1733   -4.5469   29.8123 C   0  0  0  0  0  0  0  0  0  0  0  0
   -1.7508  -11.3016   18.6072 C   0  0  0  0  0  0  0  0  0  0  0  0
    1.7497   -5.6771   26.4971 C   0  0  0  0  0  0  0  0  0  0  0  0
   -1.5799   -9.9322   18.3468 C   0  0  0  0  0  0  0  0  0  0  0  0
   -1.0871  -12.2214   17.8851 C   0  0  0  0  0  0  0  0  0  0  0  0
   -2.2706   -8.9669   19.0691 C   0  0  0  0  0  0  0  0  0  0  0  0
    3.0279   -5.3073   26.8197 C   0  0  0  0  0  0  0  0  0  0  0  0
    7.3282   -3.8948   29.1186 C   0  0  0  0  0  0  0  0  0  0  0  0
  1  3  4  0
  1  7  4  0
  2  3  1  0
  2  6  4  0
  2 16  4  0
  3 22  4  0
  4  9  4  0
  4 10  1  0
  4 20  4  0
  5 16  4  0
  5 23  4  0
  6 15  4  0
  7 12  4  0
  8 13  4  0
  8 14  4  0
  9 11  4  0
 11 14  4  0
 11 19  4  0
 12 18  4  0
 13 21  4  0
 15 23  4  0
 17 19  4  0
 17 20  4  0
 18 22  4  0
 19 21  4  0
M  END
$$$$

 Created by Python create_sdf_string function

 23 25  0  0  0  0  0  0  0  0999 V2000
    2.4610   -5.3070   29.1240 C   0  0  0  0  0  0  0  0  0  0  0  0
    4.7710   -4.6952   28.4803 C   0  0  0  0  0  0  0  0  0  0  0  0
    3.4047   -5.1087   28.1314 C   0  0  0  0  0  0  0  0  0  0  0  0
   -0.2234  -11.8615   16.8874 C   0  0  0  0  0  0  0  0  0  0  0  0
    6.4491   -4.1532   30.1213 C   0  0  0  0  0  0  0  0  0  0  0  0
    5.7060   -4.4340   27.4975 C   0  0  0  0  0  0  0  0  0  0  0  0
    1.1818   -5.6612   28.8399 C   0  0  0  0  0  0  0  0  0  0  0  0
   -1.2067   -7.3287   17.7772 C   0  0  0  0  0  0  0  0  0  0  0  0
   -0.0206  -10.5585   16.6210 C   0  0  0  0  0  0  0  0  0  0  0  0
    0.3696  -12.7626   16.2169 O   0  0  0  0  0  0  0  0  0  0  0  0
   -0.6895   -9.5676   17.3297 C   0  0  0  0  0  0  0  0  0  0  0  0
    0.8388   -5.8417   27.5264 C   0  0  0  0  0  0  0  0  0  0  0  0
   -2.0709   -7.6637   18.7817 C   0  0  0  0  0  0  0  0  0  0  0  0
   -0.5279   -8.2168   17.0717 C   0  0  0  0  0  0  0  0  0  0  0  0
    6.9694   -4.0191   27.8190 C   0  0  0  0  0  0  0  0  0  0  0  0
    5.1733   -4.5469   29.8123 C   0  0  0  0  0  0  0  0  0  0  0  0
   -1.7508  -11.3016   18.6072 C   0  0  0  0  0  0  0  0  0  0  0  0
    1.7497   -5.6771   26.4971 C   0  0  0  0  0  0  0  0  0  0  0  0
   -1.5799   -9.9322   18.3468 C   0  0  0  0  0  0  0  0  0  0  0  0
   -1.0871  -12.2214   17.8851 C   0  0  0  0  0  0  0  0  0  0  0  0
   -2.2706   -8.9669   19.0691 C   0  0  0  0  0  0  0  0  0  0  0  0
    3.0279   -5.3073   26.8197 C   0  0  0  0  0  0  0  0  0  0  0  0
    7.3282   -3.8948   29.1186 C   0  0  0  0  0  0  0  0  0  0  0  0
  1  3  4  0
  1  7  4  0
  2  3  1  0
  2  6  4  0
  2 16  4  0
  3 22  4  0
  4  9  4  0
  4 10  1  0
  4 20  4  0
  5 16  4  0
  5 23  4  0
  6 15  4  0
  7 12  4  0
  8 13  4  0
  8 14  4  0
  9 11  4  0
 11 14  4  0
 11 19  4  0
 12 18  4  0
 13 21  4  0
 15 23  4  0
 17 19  4  0
 17 20  4  0
 18 22  4  0
 19 21  4  0
M  END
$$$$

 Created by Python create_sdf_string function

 23 25  0  0  0  0  0  0  0  0999 V2000
    2.4610   -5.3070   29.1240 C   0  0  0  0  0  0  0  0  0  0  0  0
    4.7710   -4.6952   28.4803 C   0  0  0  0  0  0  0  0  0  0  0  0
    3.4047   -5.1087   28.1314 C   0  0  0  0  0  0  0  0  0  0  0  0
   -0.2234  -11.8615   16.8874 C   0  0  0  0  0  0  0  0  0  0  0  0
    6.4491   -4.1532   30.1213 C   0  0  0  0  0  0  0  0  0  0  0  0
    5.7060   -4.4340   27.4975 C   0  0  0  0  0  0  0  0  0  0  0  0
    1.1818   -5.6612   28.8399 C   0  0  0  0  0  0  0  0  0  0  0  0
   -1.2067   -7.3287   17.7772 C   0  0  0  0  0  0  0  0  0  0  0  0
   -0.0206  -10.5585   16.6210 C   0  0  0  0  0  0  0  0  0  0  0  0
    0.3696  -12.7626   16.2169 O   0  0  0  0  0  0  0  0  0  0  0  0
   -0.6895   -9.5676   17.3297 C   0  0  0  0  0  0  0  0  0  0  0  0
    0.8388   -5.8417   27.5264 C   0  0  0  0  0  0  0  0  0  0  0  0
   -2.0709   -7.6637   18.7817 C   0  0  0  0  0  0  0  0  0  0  0  0
   -0.5279   -8.2168   17.0717 C   0  0  0  0  0  0  0  0  0  0  0  0
    6.9694   -4.0191   27.8190 C   0  0  0  0  0  0  0  0  0  0  0  0
    5.1733   -4.5469   29.8123 C   0  0  0  0  0  0  0  0  0  0  0  0
   -1.7508  -11.3016   18.6072 C   0  0  0  0  0  0  0  0  0  0  0  0
    1.7497   -5.6771   26.4971 C   0  0  0  0  0  0  0  0  0  0  0  0
   -1.5799   -9.9322   18.3468 C   0  0  0  0  0  0  0  0  0  0  0  0
   -1.0871  -12.2214   17.8851 C   0  0  0  0  0  0  0  0  0  0  0  0
   -2.2706   -8.9669   19.0691 C   0  0  0  0  0  0  0  0  0  0  0  0
    3.0279   -5.3073   26.8197 C   0  0  0  0  0  0  0  0  0  0  0  0
    7.3282   -3.8948   29.1186 C   0  0  0  0  0  0  0  0  0  0  0  0
  1  3  4  0
  1  7  4  0
  2  3  1  0
  2  6  4  0
  2 16  4  0
  3 22  4  0
  4  9  4  0
  4 10  1  0
  4 20  4  0
  5 16  4  0
  5 23  4  0
  6 15  4  0
  7 12  4  0
  8 13  4  0
  8 14  4  0
  9 11  4  0
 11 14  4  0
 11 19  4  0
 12 18  4  0
 13 21  4  0
 15 23  4  0
 17 19  4  0
 17 20  4  0
 18 22  4  0
 19 21  4  0
M  END
$$$$

 Created by Python create_sdf_string function

 23 25  0  0  0  0  0  0  0  0999 V2000
    2.4610   -5.3070   29.1240 C   0  0  0  0  0  0  0  0  0  0  0  0
    4.7710   -4.6952   28.4803 C   0  0  0  0  0  0  0  0  0  0  0  0
    3.4047   -5.1087   28.1314 C   0  0  0  0  0  0  0  0  0  0  0  0
   -0.2234  -11.8615   16.8874 C   0  0  0  0  0  0  0  0  0  0  0  0
    6.4491   -4.1532   30.1213 C   0  0  0  0  0  0  0  0  0  0  0  0
    5.7060   -4.4340   27.4975 C   0  0  0  0  0  0  0  0  0  0  0  0
    1.1818   -5.6612   28.8399 C   0  0  0  0  0  0  0  0  0  0  0  0
   -1.2067   -7.3287   17.7772 C   0  0  0  0  0  0  0  0  0  0  0  0
   -0.0206  -10.5585   16.6210 C   0  0  0  0  0  0  0  0  0  0  0  0
    0.3696  -12.7626   16.2169 O   0  0  0  0  0  0  0  0  0  0  0  0
   -0.6895   -9.5676   17.3297 C   0  0  0  0  0  0  0  0  0  0  0  0
    0.8388   -5.8417   27.5264 C   0  0  0  0  0  0  0  0  0  0  0  0
   -2.0709   -7.6637   18.7817 C   0  0  0  0  0  0  0  0  0  0  0  0
   -0.5279   -8.2168   17.0717 C   0  0  0  0  0  0  0  0  0  0  0  0
    6.9694   -4.0191   27.8190 C   0  0  0  0  0  0  0  0  0  0  0  0
    5.1733   -4.5469   29.8123 C   0  0  0  0  0  0  0  0  0  0  0  0
   -1.7508  -11.3016   18.6072 C   0  0  0  0  0  0  0  0  0  0  0  0
    1.7497   -5.6771   26.4971 C   0  0  0  0  0  0  0  0  0  0  0  0
   -1.5799   -9.9322   18.3468 C   0  0  0  0  0  0  0  0  0  0  0  0
   -1.0871  -12.2214   17.8851 C   0  0  0  0  0  0  0  0  0  0  0  0
   -2.2706   -8.9669   19.0691 C   0  0  0  0  0  0  0  0  0  0  0  0
    3.0279   -5.3073   26.8197 C   0  0  0  0  0  0  0  0  0  0  0  0
    7.3282   -3.8948   29.1186 C   0  0  0  0  0  0  0  0  0  0  0  0
  1  3  4  0
  1  7  4  0
  2  3  1  0
  2  6  4  0
  2 16  4  0
  3 22  4  0
  4  9  4  0
  4 10  1  0
  4 20  4  0
  5 16  4  0
  5 23  4  0
  6 15  4  0
  7 12  4  0
  8 13  4  0
  8 14  4  0
  9 11  4  0
 11 14  4  0
 11 19  4  0
 12 18  4  0
 13 21  4  0
 15 23  4  0
 17 19  4  0
 17 20  4  0
 18 22  4  0
 19 21  4  0
M  END
$$$$

 Created by Python create_sdf_string function

 23 25  0  0  0  0  0  0  0  0999 V2000
    2.4610   -5.3070   29.1240 C   0  0  0  0  0  0  0  0  0  0  0  0
    4.7710   -4.6952   28.4803 C   0  0  0  0  0  0  0  0  0  0  0  0
    3.4047   -5.1087   28.1314 C   0  0  0  0  0  0  0  0  0  0  0  0
   -0.2234  -11.8615   16.8874 C   0  0  0  0  0  0  0  0  0  0  0  0
    6.4491   -4.1532   30.1213 C   0  0  0  0  0  0  0  0  0  0  0  0
    5.7060   -4.4340   27.4975 C   0  0  0  0  0  0  0  0  0  0  0  0
    1.1818   -5.6612   28.8399 C   0  0  0  0  0  0  0  0  0  0  0  0
   -1.2067   -7.3287   17.7772 C   0  0  0  0  0  0  0  0  0  0  0  0
   -0.0206  -10.5585   16.6210 C   0  0  0  0  0  0  0  0  0  0  0  0
    0.3696  -12.7626   16.2169 O   0  0  0  0  0  0  0  0  0  0  0  0
   -0.6895   -9.5676   17.3297 C   0  0  0  0  0  0  0  0  0  0  0  0
    0.8388   -5.8417   27.5264 C   0  0  0  0  0  0  0  0  0  0  0  0
   -2.0709   -7.6637   18.7817 C   0  0  0  0  0  0  0  0  0  0  0  0
   -0.5279   -8.2168   17.0717 C   0  0  0  0  0  0  0  0  0  0  0  0
    6.9694   -4.0191   27.8190 C   0  0  0  0  0  0  0  0  0  0  0  0
    5.1733   -4.5469   29.8123 C   0  0  0  0  0  0  0  0  0  0  0  0
   -1.7508  -11.3016   18.6072 C   0  0  0  0  0  0  0  0  0  0  0  0
    1.7497   -5.6771   26.4971 C   0  0  0  0  0  0  0  0  0  0  0  0
   -1.5799   -9.9322   18.3468 C   0  0  0  0  0  0  0  0  0  0  0  0
   -1.0871  -12.2214   17.8851 C   0  0  0  0  0  0  0  0  0  0  0  0
   -2.2706   -8.9669   19.0691 C   0  0  0  0  0  0  0  0  0  0  0  0
    3.0279   -5.3073   26.8197 C   0  0  0  0  0  0  0  0  0  0  0  0
    7.3282   -3.8948   29.1186 C   0  0  0  0  0  0  0  0  0  0  0  0
  1  3  4  0
  1  7  4  0
  2  3  1  0
  2  6  4  0
  2 16  4  0
  3 22  4  0
  4  9  4  0
  4 10  1  0
  4 20  4  0
  5 16  4  0
  5 23  4  0
  6 15  4  0
  7 12  4  0
  8 13  4  0
  8 14  4  0
  9 11  4  0
 11 14  4  0
 11 19  4  0
 12 18  4  0
 13 21  4  0
 15 23  4  0
 17 19  4  0
 17 20  4  0
 18 22  4  0
 19 21  4  0
M  END
$$$$

 Created by Python create_sdf_string function

 23 25  0  0  0  0  0  0  0  0999 V2000
    2.4610   -5.3070   29.1240 C   0  0  0  0  0  0  0  0  0  0  0  0
    4.7710   -4.6952   28.4803 C   0  0  0  0  0  0  0  0  0  0  0  0
    3.4047   -5.1087   28.1314 C   0  0  0  0  0  0  0  0  0  0  0  0
   -0.2234  -11.8615   16.8874 C   0  0  0  0  0  0  0  0  0  0  0  0
    6.4491   -4.1532   30.1213 C   0  0  0  0  0  0  0  0  0  0  0  0
    5.7060   -4.4340   27.4975 C   0  0  0  0  0  0  0  0  0  0  0  0
    1.1818   -5.6612   28.8399 C   0  0  0  0  0  0  0  0  0  0  0  0
   -1.2067   -7.3287   17.7772 C   0  0  0  0  0  0  0  0  0  0  0  0
   -0.0206  -10.5585   16.6210 C   0  0  0  0  0  0  0  0  0  0  0  0
    0.3696  -12.7626   16.2169 O   0  0  0  0  0  0  0  0  0  0  0  0
   -0.6895   -9.5676   17.3297 C   0  0  0  0  0  0  0  0  0  0  0  0
    0.8388   -5.8417   27.5264 C   0  0  0  0  0  0  0  0  0  0  0  0
   -2.0709   -7.6637   18.7817 C   0  0  0  0  0  0  0  0  0  0  0  0
   -0.5279   -8.2168   17.0717 C   0  0  0  0  0  0  0  0  0  0  0  0
    6.9694   -4.0191   27.8190 C   0  0  0  0  0  0  0  0  0  0  0  0
    5.1733   -4.5469   29.8123 C   0  0  0  0  0  0  0  0  0  0  0  0
   -1.7508  -11.3016   18.6072 C   0  0  0  0  0  0  0  0  0  0  0  0
    1.7497   -5.6771   26.4971 C   0  0  0  0  0  0  0  0  0  0  0  0
   -1.5799   -9.9322   18.3468 C   0  0  0  0  0  0  0  0  0  0  0  0
   -1.0871  -12.2214   17.8851 C   0  0  0  0  0  0  0  0  0  0  0  0
   -2.2706   -8.9669   19.0691 C   0  0  0  0  0  0  0  0  0  0  0  0
    3.0279   -5.3073   26.8197 C   0  0  0  0  0  0  0  0  0  0  0  0
    7.3282   -3.8948   29.1186 C   0  0  0  0  0  0  0  0  0  0  0  0
  1  3  4  0
  1  7  4  0
  2  3  1  0
  2  6  4  0
  2 16  4  0
  3 22  4  0
  4  9  4  0
  4 10  1  0
  4 20  4  0
  5 16  4  0
  5 23  4  0
  6 15  4  0
  7 12  4  0
  8 13  4  0
  8 14  4  0
  9 11  4  0
 11 14  4  0
 11 19  4  0
 12 18  4  0
 13 21  4  0
 15 23  4  0
 17 19  4  0
 17 20  4  0
 18 22  4  0
 19 21  4  0
M  END
$$$$

 Created by Python create_sdf_string function

 23 25  0  0  0  0  0  0  0  0999 V2000
    2.4610   -5.3070   29.1240 C   0  0  0  0  0  0  0  0  0  0  0  0
    4.7710   -4.6952   28.4803 C   0  0  0  0  0  0  0  0  0  0  0  0
    3.4047   -5.1087   28.1314 C   0  0  0  0  0  0  0  0  0  0  0  0
   -0.2234  -11.8615   16.8874 C   0  0  0  0  0  0  0  0  0  0  0  0
    6.4491   -4.1532   30.1213 C   0  0  0  0  0  0  0  0  0  0  0  0
    5.7060   -4.4340   27.4975 C   0  0  0  0  0  0  0  0  0  0  0  0
    1.1818   -5.6612   28.8399 C   0  0  0  0  0  0  0  0  0  0  0  0
   -1.2067   -7.3287   17.7772 C   0  0  0  0  0  0  0  0  0  0  0  0
   -0.0206  -10.5585   16.6210 C   0  0  0  0  0  0  0  0  0  0  0  0
    0.3696  -12.7626   16.2169 O   0  0  0  0  0  0  0  0  0  0  0  0
   -0.6895   -9.5676   17.3297 C   0  0  0  0  0  0  0  0  0  0  0  0
    0.8388   -5.8417   27.5264 C   0  0  0  0  0  0  0  0  0  0  0  0
   -2.0709   -7.6637   18.7817 C   0  0  0  0  0  0  0  0  0  0  0  0
   -0.5279   -8.2168   17.0717 C   0  0  0  0  0  0  0  0  0  0  0  0
    6.9694   -4.0191   27.8190 C   0  0  0  0  0  0  0  0  0  0  0  0
    5.1733   -4.5469   29.8123 C   0  0  0  0  0  0  0  0  0  0  0  0
   -1.7508  -11.3016   18.6072 C   0  0  0  0  0  0  0  0  0  0  0  0
    1.7497   -5.6771   26.4971 C   0  0  0  0  0  0  0  0  0  0  0  0
   -1.5799   -9.9322   18.3468 C   0  0  0  0  0  0  0  0  0  0  0  0
   -1.0871  -12.2214   17.8851 C   0  0  0  0  0  0  0  0  0  0  0  0
   -2.2706   -8.9669   19.0691 C   0  0  0  0  0  0  0  0  0  0  0  0
    3.0279   -5.3073   26.8197 C   0  0  0  0  0  0  0  0  0  0  0  0
    7.3282   -3.8948   29.1186 C   0  0  0  0  0  0  0  0  0  0  0  0
  1  3  4  0
  1  7  4  0
  2  3  1  0
  2  6  4  0
  2 16  4  0
  3 22  4  0
  4  9  4  0
  4 10  1  0
  4 20  4  0
  5 16  4  0
  5 23  4  0
  6 15  4  0
  7 12  4  0
  8 13  4  0
  8 14  4  0
  9 11  4  0
 11 14  4  0
 11 19  4  0
 12 18  4  0
 13 21  4  0
 15 23  4  0
 17 19  4  0
 17 20  4  0
 18 22  4  0
 19 21  4  0
M  END
$$$$

 Created by Python create_sdf_string function

 23 25  0  0  0  0  0  0  0  0999 V2000
    2.4610   -5.3070   29.1240 C   0  0  0  0  0  0  0  0  0  0  0  0
    4.7710   -4.6952   28.4803 C   0  0  0  0  0  0  0  0  0  0  0  0
    3.4047   -5.1087   28.1314 C   0  0  0  0  0  0  0  0  0  0  0  0
   -0.2234  -11.8615   16.8874 C   0  0  0  0  0  0  0  0  0  0  0  0
    6.4491   -4.1532   30.1213 C   0  0  0  0  0  0  0  0  0  0  0  0
    5.7060   -4.4340   27.4975 C   0  0  0  0  0  0  0  0  0  0  0  0
    1.1818   -5.6612   28.8399 C   0  0  0  0  0  0  0  0  0  0  0  0
   -1.2067   -7.3287   17.7772 C   0  0  0  0  0  0  0  0  0  0  0  0
   -0.0206  -10.5585   16.6210 C   0  0  0  0  0  0  0  0  0  0  0  0
    0.3696  -12.7626   16.2169 O   0  0  0  0  0  0  0  0  0  0  0  0
   -0.6895   -9.5676   17.3297 C   0  0  0  0  0  0  0  0  0  0  0  0
    0.8388   -5.8417   27.5264 C   0  0  0  0  0  0  0  0  0  0  0  0
   -2.0709   -7.6637   18.7817 C   0  0  0  0  0  0  0  0  0  0  0  0
   -0.5279   -8.2168   17.0717 C   0  0  0  0  0  0  0  0  0  0  0  0
    6.9694   -4.0191   27.8190 C   0  0  0  0  0  0  0  0  0  0  0  0
    5.1733   -4.5469   29.8123 C   0  0  0  0  0  0  0  0  0  0  0  0
   -1.7508  -11.3016   18.6072 C   0  0  0  0  0  0  0  0  0  0  0  0
    1.7497   -5.6771   26.4971 C   0  0  0  0  0  0  0  0  0  0  0  0
   -1.5799   -9.9322   18.3468 C   0  0  0  0  0  0  0  0  0  0  0  0
   -1.0871  -12.2214   17.8851 C   0  0  0  0  0  0  0  0  0  0  0  0
   -2.2706   -8.9669   19.0691 C   0  0  0  0  0  0  0  0  0  0  0  0
    3.0279   -5.3073   26.8197 C   0  0  0  0  0  0  0  0  0  0  0  0
    7.3282   -3.8948   29.1186 C   0  0  0  0  0  0  0  0  0  0  0  0
  1  3  4  0
  1  7  4  0
  2  3  1  0
  2  6  4  0
  2 16  4  0
  3 22  4  0
  4  9  4  0
  4 10  1  0
  4 20  4  0
  5 16  4  0
  5 23  4  0
  6 15  4  0
  7 12  4  0
  8 13  4  0
  8 14  4  0
  9 11  4  0
 11 14  4  0
 11 19  4  0
 12 18  4  0
 13 21  4  0
 15 23  4  0
 17 19  4  0
 17 20  4  0
 18 22  4  0
 19 21  4  0
M  END
$$$$

 Created by Python create_sdf_string function

 23 25  0  0  0  0  0  0  0  0999 V2000
    2.4610   -5.3070   29.1240 C   0  0  0  0  0  0  0  0  0  0  0  0
    4.7710   -4.6952   28.4803 C   0  0  0  0  0  0  0  0  0  0  0  0
    3.4047   -5.1087   28.1314 C   0  0  0  0  0  0  0  0  0  0  0  0
   -0.2234  -11.8615   16.8874 C   0  0  0  0  0  0  0  0  0  0  0  0
    6.4491   -4.1532   30.1213 C   0  0  0  0  0  0  0  0  0  0  0  0
    5.7060   -4.4340   27.4975 C   0  0  0  0  0  0  0  0  0  0  0  0
    1.1818   -5.6612   28.8399 C   0  0  0  0  0  0  0  0  0  0  0  0
   -1.2067   -7.3287   17.7772 C   0  0  0  0  0  0  0  0  0  0  0  0
   -0.0206  -10.5585   16.6210 C   0  0  0  0  0  0  0  0  0  0  0  0
    0.3696  -12.7626   16.2169 O   0  0  0  0  0  0  0  0  0  0  0  0
   -0.6895   -9.5676   17.3297 C   0  0  0  0  0  0  0  0  0  0  0  0
    0.8388   -5.8417   27.5264 C   0  0  0  0  0  0  0  0  0  0  0  0
   -2.0709   -7.6637   18.7817 C   0  0  0  0  0  0  0  0  0  0  0  0
   -0.5279   -8.2168   17.0717 C   0  0  0  0  0  0  0  0  0  0  0  0
    6.9694   -4.0191   27.8190 C   0  0  0  0  0  0  0  0  0  0  0  0
    5.1733   -4.5469   29.8123 C   0  0  0  0  0  0  0  0  0  0  0  0
   -1.7508  -11.3016   18.6072 C   0  0  0  0  0  0  0  0  0  0  0  0
    1.7497   -5.6771   26.4971 C   0  0  0  0  0  0  0  0  0  0  0  0
   -1.5799   -9.9322   18.3468 C   0  0  0  0  0  0  0  0  0  0  0  0
   -1.0871  -12.2214   17.8851 C   0  0  0  0  0  0  0  0  0  0  0  0
   -2.2706   -8.9669   19.0691 C   0  0  0  0  0  0  0  0  0  0  0  0
    3.0279   -5.3073   26.8197 C   0  0  0  0  0  0  0  0  0  0  0  0
    7.3282   -3.8948   29.1186 C   0  0  0  0  0  0  0  0  0  0  0  0
  1  3  4  0
  1  7  4  0
  2  3  1  0
  2  6  4  0
  2 16  4  0
  3 22  4  0
  4  9  4  0
  4 10  1  0
  4 20  4  0
  5 16  4  0
  5 23  4  0
  6 15  4  0
  7 12  4  0
  8 13  4  0
  8 14  4  0
  9 11  4  0
 11 14  4  0
 11 19  4  0
 12 18  4  0
 13 21  4  0
 15 23  4  0
 17 19  4  0
 17 20  4  0
 18 22  4  0
 19 21  4  0
M  END
$$$$

 Created by Python create_sdf_string function

 23 25  0  0  0  0  0  0  0  0999 V2000
    2.4610   -5.3070   29.1240 C   0  0  0  0  0  0  0  0  0  0  0  0
    4.7710   -4.6952   28.4803 C   0  0  0  0  0  0  0  0  0  0  0  0
    3.4047   -5.1087   28.1314 C   0  0  0  0  0  0  0  0  0  0  0  0
   -0.2234  -11.8615   16.8874 C   0  0  0  0  0  0  0  0  0  0  0  0
    6.4491   -4.1532   30.1213 C   0  0  0  0  0  0  0  0  0  0  0  0
    5.7060   -4.4340   27.4975 C   0  0  0  0  0  0  0  0  0  0  0  0
    1.1818   -5.6612   28.8399 C   0  0  0  0  0  0  0  0  0  0  0  0
   -1.2067   -7.3287   17.7772 C   0  0  0  0  0  0  0  0  0  0  0  0
   -0.0206  -10.5585   16.6210 C   0  0  0  0  0  0  0  0  0  0  0  0
    0.3696  -12.7626   16.2169 O   0  0  0  0  0  0  0  0  0  0  0  0
   -0.6895   -9.5676   17.3297 C   0  0  0  0  0  0  0  0  0  0  0  0
    0.8388   -5.8417   27.5264 C   0  0  0  0  0  0  0  0  0  0  0  0
   -2.0709   -7.6637   18.7817 C   0  0  0  0  0  0  0  0  0  0  0  0
   -0.5279   -8.2168   17.0717 C   0  0  0  0  0  0  0  0  0  0  0  0
    6.9694   -4.0191   27.8190 C   0  0  0  0  0  0  0  0  0  0  0  0
    5.1733   -4.5469   29.8123 C   0  0  0  0  0  0  0  0  0  0  0  0
   -1.7508  -11.3016   18.6072 C   0  0  0  0  0  0  0  0  0  0  0  0
    1.7497   -5.6771   26.4971 C   0  0  0  0  0  0  0  0  0  0  0  0
   -1.5799   -9.9322   18.3468 C   0  0  0  0  0  0  0  0  0  0  0  0
   -1.0871  -12.2214   17.8851 C   0  0  0  0  0  0  0  0  0  0  0  0
   -2.2706   -8.9669   19.0691 C   0  0  0  0  0  0  0  0  0  0  0  0
    3.0279   -5.3073   26.8197 C   0  0  0  0  0  0  0  0  0  0  0  0
    7.3282   -3.8948   29.1186 C   0  0  0  0  0  0  0  0  0  0  0  0
  1  3  4  0
  1  7  4  0
  2  3  1  0
  2  6  4  0
  2 16  4  0
  3 22  4  0
  4  9  4  0
  4 10  1  0
  4 20  4  0
  5 16  4  0
  5 23  4  0
  6 15  4  0
  7 12  4  0
  8 13  4  0
  8 14  4  0
  9 11  4  0
 11 14  4  0
 11 19  4  0
 12 18  4  0
 13 21  4  0
 15 23  4  0
 17 19  4  0
 17 20  4  0
 18 22  4  0
 19 21  4  0
M  END
$$$$

 Created by Python create_sdf_string function

 23 25  0  0  0  0  0  0  0  0999 V2000
    2.4610   -5.3070   29.1240 C   0  0  0  0  0  0  0  0  0  0  0  0
    4.7710   -4.6952   28.4803 C   0  0  0  0  0  0  0  0  0  0  0  0
    3.4047   -5.1087   28.1314 C   0  0  0  0  0  0  0  0  0  0  0  0
   -0.2234  -11.8615   16.8874 C   0  0  0  0  0  0  0  0  0  0  0  0
    6.4491   -4.1532   30.1213 C   0  0  0  0  0  0  0  0  0  0  0  0
    5.7060   -4.4340   27.4975 C   0  0  0  0  0  0  0  0  0  0  0  0
    1.1818   -5.6612   28.8399 C   0  0  0  0  0  0  0  0  0  0  0  0
   -1.2067   -7.3287   17.7772 C   0  0  0  0  0  0  0  0  0  0  0  0
   -0.0206  -10.5585   16.6210 C   0  0  0  0  0  0  0  0  0  0  0  0
    0.3696  -12.7626   16.2169 O   0  0  0  0  0  0  0  0  0  0  0  0
   -0.6895   -9.5676   17.3297 C   0  0  0  0  0  0  0  0  0  0  0  0
    0.8388   -5.8417   27.5264 C   0  0  0  0  0  0  0  0  0  0  0  0
   -2.0709   -7.6637   18.7817 C   0  0  0  0  0  0  0  0  0  0  0  0
   -0.5279   -8.2168   17.0717 C   0  0  0  0  0  0  0  0  0  0  0  0
    6.9694   -4.0191   27.8190 C   0  0  0  0  0  0  0  0  0  0  0  0
    5.1733   -4.5469   29.8123 C   0  0  0  0  0  0  0  0  0  0  0  0
   -1.7508  -11.3016   18.6072 C   0  0  0  0  0  0  0  0  0  0  0  0
    1.7497   -5.6771   26.4971 C   0  0  0  0  0  0  0  0  0  0  0  0
   -1.5799   -9.9322   18.3468 C   0  0  0  0  0  0  0  0  0  0  0  0
   -1.0871  -12.2214   17.8851 C   0  0  0  0  0  0  0  0  0  0  0  0
   -2.2706   -8.9669   19.0691 C   0  0  0  0  0  0  0  0  0  0  0  0
    3.0279   -5.3073   26.8197 C   0  0  0  0  0  0  0  0  0  0  0  0
    7.3282   -3.8948   29.1186 C   0  0  0  0  0  0  0  0  0  0  0  0
  1  3  4  0
  1  7  4  0
  2  3  1  0
  2  6  4  0
  2 16  4  0
  3 22  4  0
  4  9  4  0
  4 10  1  0
  4 20  4  0
  5 16  4  0
  5 23  4  0
  6 15  4  0
  7 12  4  0
  8 13  4  0
  8 14  4  0
  9 11  4  0
 11 14  4  0
 11 19  4  0
 12 18  4  0
 13 21  4  0
 15 23  4  0
 17 19  4  0
 17 20  4  0
 18 22  4  0
 19 21  4  0
M  END
$$$$

 Created by Python create_sdf_string function

 23 25  0  0  0  0  0  0  0  0999 V2000
    2.4610   -5.3070   29.1240 C   0  0  0  0  0  0  0  0  0  0  0  0
    4.7710   -4.6952   28.4803 C   0  0  0  0  0  0  0  0  0  0  0  0
    3.4047   -5.1087   28.1314 C   0  0  0  0  0  0  0  0  0  0  0  0
   -0.2234  -11.8615   16.8874 C   0  0  0  0  0  0  0  0  0  0  0  0
    6.4491   -4.1532   30.1213 C   0  0  0  0  0  0  0  0  0  0  0  0
    5.7060   -4.4340   27.4975 C   0  0  0  0  0  0  0  0  0  0  0  0
    1.1818   -5.6612   28.8399 C   0  0  0  0  0  0  0  0  0  0  0  0
   -1.2067   -7.3287   17.7772 C   0  0  0  0  0  0  0  0  0  0  0  0
   -0.0206  -10.5585   16.6210 C   0  0  0  0  0  0  0  0  0  0  0  0
    0.3696  -12.7626   16.2169 O   0  0  0  0  0  0  0  0  0  0  0  0
   -0.6895   -9.5676   17.3297 C   0  0  0  0  0  0  0  0  0  0  0  0
    0.8388   -5.8417   27.5264 C   0  0  0  0  0  0  0  0  0  0  0  0
   -2.0709   -7.6637   18.7817 C   0  0  0  0  0  0  0  0  0  0  0  0
   -0.5279   -8.2168   17.0717 C   0  0  0  0  0  0  0  0  0  0  0  0
    6.9694   -4.0191   27.8190 C   0  0  0  0  0  0  0  0  0  0  0  0
    5.1733   -4.5469   29.8123 C   0  0  0  0  0  0  0  0  0  0  0  0
   -1.7508  -11.3016   18.6072 C   0  0  0  0  0  0  0  0  0  0  0  0
    1.7497   -5.6771   26.4971 C   0  0  0  0  0  0  0  0  0  0  0  0
   -1.5799   -9.9322   18.3468 C   0  0  0  0  0  0  0  0  0  0  0  0
   -1.0871  -12.2214   17.8851 C   0  0  0  0  0  0  0  0  0  0  0  0
   -2.2706   -8.9669   19.0691 C   0  0  0  0  0  0  0  0  0  0  0  0
    3.0279   -5.3073   26.8197 C   0  0  0  0  0  0  0  0  0  0  0  0
    7.3282   -3.8948   29.1186 C   0  0  0  0  0  0  0  0  0  0  0  0
  1  3  4  0
  1  7  4  0
  2  3  1  0
  2  6  4  0
  2 16  4  0
  3 22  4  0
  4  9  4  0
  4 10  1  0
  4 20  4  0
  5 16  4  0
  5 23  4  0
  6 15  4  0
  7 12  4  0
  8 13  4  0
  8 14  4  0
  9 11  4  0
 11 14  4  0
 11 19  4  0
 12 18  4  0
 13 21  4  0
 15 23  4  0
 17 19  4  0
 17 20  4  0
 18 22  4  0
 19 21  4  0
M  END
$$$$

 Created by Python create_sdf_string function

 23 25  0  0  0  0  0  0  0  0999 V2000
    2.4610   -5.3070   29.1240 C   0  0  0  0  0  0  0  0  0  0  0  0
    4.7710   -4.6952   28.4803 C   0  0  0  0  0  0  0  0  0  0  0  0
    3.4047   -5.1087   28.1314 C   0  0  0  0  0  0  0  0  0  0  0  0
   -0.2234  -11.8615   16.8874 C   0  0  0  0  0  0  0  0  0  0  0  0
    6.4491   -4.1532   30.1213 C   0  0  0  0  0  0  0  0  0  0  0  0
    5.7060   -4.4340   27.4975 C   0  0  0  0  0  0  0  0  0  0  0  0
    1.1818   -5.6612   28.8399 C   0  0  0  0  0  0  0  0  0  0  0  0
   -1.2067   -7.3287   17.7772 C   0  0  0  0  0  0  0  0  0  0  0  0
   -0.0206  -10.5585   16.6210 C   0  0  0  0  0  0  0  0  0  0  0  0
    0.3696  -12.7626   16.2169 O   0  0  0  0  0  0  0  0  0  0  0  0
   -0.6895   -9.5676   17.3297 C   0  0  0  0  0  0  0  0  0  0  0  0
    0.8388   -5.8417   27.5264 C   0  0  0  0  0  0  0  0  0  0  0  0
   -2.0709   -7.6637   18.7817 C   0  0  0  0  0  0  0  0  0  0  0  0
   -0.5279   -8.2168   17.0717 C   0  0  0  0  0  0  0  0  0  0  0  0
    6.9694   -4.0191   27.8190 C   0  0  0  0  0  0  0  0  0  0  0  0
    5.1733   -4.5469   29.8123 C   0  0  0  0  0  0  0  0  0  0  0  0
   -1.7508  -11.3016   18.6072 C   0  0  0  0  0  0  0  0  0  0  0  0
    1.7497   -5.6771   26.4971 C   0  0  0  0  0  0  0  0  0  0  0  0
   -1.5799   -9.9322   18.3468 C   0  0  0  0  0  0  0  0  0  0  0  0
   -1.0871  -12.2214   17.8851 C   0  0  0  0  0  0  0  0  0  0  0  0
   -2.2706   -8.9669   19.0691 C   0  0  0  0  0  0  0  0  0  0  0  0
    3.0279   -5.3073   26.8197 C   0  0  0  0  0  0  0  0  0  0  0  0
    7.3282   -3.8948   29.1186 C   0  0  0  0  0  0  0  0  0  0  0  0
  1  3  4  0
  1  7  4  0
  2  3  1  0
  2  6  4  0
  2 16  4  0
  3 22  4  0
  4  9  4  0
  4 10  1  0
  4 20  4  0
  5 16  4  0
  5 23  4  0
  6 15  4  0
  7 12  4  0
  8 13  4  0
  8 14  4  0
  9 11  4  0
 11 14  4  0
 11 19  4  0
 12 18  4  0
 13 21  4  0
 15 23  4  0
 17 19  4  0
 17 20  4  0
 18 22  4  0
 19 21  4  0
M  END
$$$$

 Created by Python create_sdf_string function

 23 25  0  0  0  0  0  0  0  0999 V2000
    2.4610   -5.3070   29.1240 C   0  0  0  0  0  0  0  0  0  0  0  0
    4.7710   -4.6952   28.4803 C   0  0  0  0  0  0  0  0  0  0  0  0
    3.4047   -5.1087   28.1314 C   0  0  0  0  0  0  0  0  0  0  0  0
   -0.2234  -11.8615   16.8874 C   0  0  0  0  0  0  0  0  0  0  0  0
    6.4491   -4.1532   30.1213 C   0  0  0  0  0  0  0  0  0  0  0  0
    5.7060   -4.4340   27.4975 C   0  0  0  0  0  0  0  0  0  0  0  0
    1.1818   -5.6612   28.8399 C   0  0  0  0  0  0  0  0  0  0  0  0
   -1.2067   -7.3287   17.7772 C   0  0  0  0  0  0  0  0  0  0  0  0
   -0.0206  -10.5585   16.6210 C   0  0  0  0  0  0  0  0  0  0  0  0
    0.3696  -12.7626   16.2169 O   0  0  0  0  0  0  0  0  0  0  0  0
   -0.6895   -9.5676   17.3297 C   0  0  0  0  0  0  0  0  0  0  0  0
    0.8388   -5.8417   27.5264 C   0  0  0  0  0  0  0  0  0  0  0  0
   -2.0709   -7.6637   18.7817 C   0  0  0  0  0  0  0  0  0  0  0  0
   -0.5279   -8.2168   17.0717 C   0  0  0  0  0  0  0  0  0  0  0  0
    6.9694   -4.0191   27.8190 C   0  0  0  0  0  0  0  0  0  0  0  0
    5.1733   -4.5469   29.8123 C   0  0  0  0  0  0  0  0  0  0  0  0
   -1.7508  -11.3016   18.6072 C   0  0  0  0  0  0  0  0  0  0  0  0
    1.7497   -5.6771   26.4971 C   0  0  0  0  0  0  0  0  0  0  0  0
   -1.5799   -9.9322   18.3468 C   0  0  0  0  0  0  0  0  0  0  0  0
   -1.0871  -12.2214   17.8851 C   0  0  0  0  0  0  0  0  0  0  0  0
   -2.2706   -8.9669   19.0691 C   0  0  0  0  0  0  0  0  0  0  0  0
    3.0279   -5.3073   26.8197 C   0  0  0  0  0  0  0  0  0  0  0  0
    7.3282   -3.8948   29.1186 C   0  0  0  0  0  0  0  0  0  0  0  0
  1  3  4  0
  1  7  4  0
  2  3  1  0
  2  6  4  0
  2 16  4  0
  3 22  4  0
  4  9  4  0
  4 10  1  0
  4 20  4  0
  5 16  4  0
  5 23  4  0
  6 15  4  0
  7 12  4  0
  8 13  4  0
  8 14  4  0
  9 11  4  0
 11 14  4  0
 11 19  4  0
 12 18  4  0
 13 21  4  0
 15 23  4  0
 17 19  4  0
 17 20  4  0
 18 22  4  0
 19 21  4  0
M  END
$$$$

 Created by Python create_sdf_string function

 23 25  0  0  0  0  0  0  0  0999 V2000
    2.4610   -5.3070   29.1240 C   0  0  0  0  0  0  0  0  0  0  0  0
    4.7710   -4.6952   28.4803 C   0  0  0  0  0  0  0  0  0  0  0  0
    3.4047   -5.1087   28.1314 C   0  0  0  0  0  0  0  0  0  0  0  0
   -0.2234  -11.8615   16.8874 C   0  0  0  0  0  0  0  0  0  0  0  0
    6.4491   -4.1532   30.1213 C   0  0  0  0  0  0  0  0  0  0  0  0
    5.7060   -4.4340   27.4975 C   0  0  0  0  0  0  0  0  0  0  0  0
    1.1818   -5.6612   28.8399 C   0  0  0  0  0  0  0  0  0  0  0  0
   -1.2067   -7.3287   17.7772 C   0  0  0  0  0  0  0  0  0  0  0  0
   -0.0206  -10.5585   16.6210 C   0  0  0  0  0  0  0  0  0  0  0  0
    0.3696  -12.7626   16.2169 O   0  0  0  0  0  0  0  0  0  0  0  0
   -0.6895   -9.5676   17.3297 C   0  0  0  0  0  0  0  0  0  0  0  0
    0.8388   -5.8417   27.5264 C   0  0  0  0  0  0  0  0  0  0  0  0
   -2.0709   -7.6637   18.7817 C   0  0  0  0  0  0  0  0  0  0  0  0
   -0.5279   -8.2168   17.0717 C   0  0  0  0  0  0  0  0  0  0  0  0
    6.9694   -4.0191   27.8190 C   0  0  0  0  0  0  0  0  0  0  0  0
    5.1733   -4.5469   29.8123 C   0  0  0  0  0  0  0  0  0  0  0  0
   -1.7508  -11.3016   18.6072 C   0  0  0  0  0  0  0  0  0  0  0  0
    1.7497   -5.6771   26.4971 C   0  0  0  0  0  0  0  0  0  0  0  0
   -1.5799   -9.9322   18.3468 C   0  0  0  0  0  0  0  0  0  0  0  0
   -1.0871  -12.2214   17.8851 C   0  0  0  0  0  0  0  0  0  0  0  0
   -2.2706   -8.9669   19.0691 C   0  0  0  0  0  0  0  0  0  0  0  0
    3.0279   -5.3073   26.8197 C   0  0  0  0  0  0  0  0  0  0  0  0
    7.3282   -3.8948   29.1186 C   0  0  0  0  0  0  0  0  0  0  0  0
  1  3  4  0
  1  7  4  0
  2  3  1  0
  2  6  4  0
  2 16  4  0
  3 22  4  0
  4  9  4  0
  4 10  1  0
  4 20  4  0
  5 16  4  0
  5 23  4  0
  6 15  4  0
  7 12  4  0
  8 13  4  0
  8 14  4  0
  9 11  4  0
 11 14  4  0
 11 19  4  0
 12 18  4  0
 13 21  4  0
 15 23  4  0
 17 19  4  0
 17 20  4  0
 18 22  4  0
 19 21  4  0
M  END
$$$$

 Created by Python create_sdf_string function

 23 25  0  0  0  0  0  0  0  0999 V2000
    2.4610   -5.3070   29.1240 C   0  0  0  0  0  0  0  0  0  0  0  0
    4.7710   -4.6952   28.4803 C   0  0  0  0  0  0  0  0  0  0  0  0
    3.4047   -5.1087   28.1314 C   0  0  0  0  0  0  0  0  0  0  0  0
   -0.2234  -11.8615   16.8874 C   0  0  0  0  0  0  0  0  0  0  0  0
    6.4491   -4.1532   30.1213 C   0  0  0  0  0  0  0  0  0  0  0  0
    5.7060   -4.4340   27.4975 C   0  0  0  0  0  0  0  0  0  0  0  0
    1.1818   -5.6612   28.8399 C   0  0  0  0  0  0  0  0  0  0  0  0
   -1.2067   -7.3287   17.7772 C   0  0  0  0  0  0  0  0  0  0  0  0
   -0.0206  -10.5585   16.6210 C   0  0  0  0  0  0  0  0  0  0  0  0
    0.3696  -12.7626   16.2169 O   0  0  0  0  0  0  0  0  0  0  0  0
   -0.6895   -9.5676   17.3297 C   0  0  0  0  0  0  0  0  0  0  0  0
    0.8388   -5.8417   27.5264 C   0  0  0  0  0  0  0  0  0  0  0  0
   -2.0709   -7.6637   18.7817 C   0  0  0  0  0  0  0  0  0  0  0  0
   -0.5279   -8.2168   17.0717 C   0  0  0  0  0  0  0  0  0  0  0  0
    6.9694   -4.0191   27.8190 C   0  0  0  0  0  0  0  0  0  0  0  0
    5.1733   -4.5469   29.8123 C   0  0  0  0  0  0  0  0  0  0  0  0
   -1.7508  -11.3016   18.6072 C   0  0  0  0  0  0  0  0  0  0  0  0
    1.7497   -5.6771   26.4971 C   0  0  0  0  0  0  0  0  0  0  0  0
   -1.5799   -9.9322   18.3468 C   0  0  0  0  0  0  0  0  0  0  0  0
   -1.0871  -12.2214   17.8851 C   0  0  0  0  0  0  0  0  0  0  0  0
   -2.2706   -8.9669   19.0691 C   0  0  0  0  0  0  0  0  0  0  0  0
    3.0279   -5.3073   26.8197 C   0  0  0  0  0  0  0  0  0  0  0  0
    7.3282   -3.8948   29.1186 C   0  0  0  0  0  0  0  0  0  0  0  0
  1  3  4  0
  1  7  4  0
  2  3  1  0
  2  6  4  0
  2 16  4  0
  3 22  4  0
  4  9  4  0
  4 10  1  0
  4 20  4  0
  5 16  4  0
  5 23  4  0
  6 15  4  0
  7 12  4  0
  8 13  4  0
  8 14  4  0
  9 11  4  0
 11 14  4  0
 11 19  4  0
 12 18  4  0
 13 21  4  0
 15 23  4  0
 17 19  4  0
 17 20  4  0
 18 22  4  0
 19 21  4  0
M  END
$$$$

 Created by Python create_sdf_string function

 23 25  0  0  0  0  0  0  0  0999 V2000
    2.4610   -5.3070   29.1240 C   0  0  0  0  0  0  0  0  0  0  0  0
    4.7710   -4.6952   28.4803 C   0  0  0  0  0  0  0  0  0  0  0  0
    3.4047   -5.1087   28.1314 C   0  0  0  0  0  0  0  0  0  0  0  0
   -0.2234  -11.8615   16.8874 C   0  0  0  0  0  0  0  0  0  0  0  0
    6.4491   -4.1532   30.1213 C   0  0  0  0  0  0  0  0  0  0  0  0
    5.7060   -4.4340   27.4975 C   0  0  0  0  0  0  0  0  0  0  0  0
    1.1818   -5.6612   28.8399 C   0  0  0  0  0  0  0  0  0  0  0  0
   -1.2067   -7.3287   17.7772 C   0  0  0  0  0  0  0  0  0  0  0  0
   -0.0206  -10.5585   16.6210 C   0  0  0  0  0  0  0  0  0  0  0  0
    0.3696  -12.7626   16.2169 O   0  0  0  0  0  0  0  0  0  0  0  0
   -0.6895   -9.5676   17.3297 C   0  0  0  0  0  0  0  0  0  0  0  0
    0.8388   -5.8417   27.5264 C   0  0  0  0  0  0  0  0  0  0  0  0
   -2.0709   -7.6637   18.7817 C   0  0  0  0  0  0  0  0  0  0  0  0
   -0.5279   -8.2168   17.0717 C   0  0  0  0  0  0  0  0  0  0  0  0
    6.9694   -4.0191   27.8190 C   0  0  0  0  0  0  0  0  0  0  0  0
    5.1733   -4.5469   29.8123 C   0  0  0  0  0  0  0  0  0  0  0  0
   -1.7508  -11.3016   18.6072 C   0  0  0  0  0  0  0  0  0  0  0  0
    1.7497   -5.6771   26.4971 C   0  0  0  0  0  0  0  0  0  0  0  0
   -1.5799   -9.9322   18.3468 C   0  0  0  0  0  0  0  0  0  0  0  0
   -1.0871  -12.2214   17.8851 C   0  0  0  0  0  0  0  0  0  0  0  0
   -2.2706   -8.9669   19.0691 C   0  0  0  0  0  0  0  0  0  0  0  0
    3.0279   -5.3073   26.8197 C   0  0  0  0  0  0  0  0  0  0  0  0
    7.3282   -3.8948   29.1186 C   0  0  0  0  0  0  0  0  0  0  0  0
  1  3  4  0
  1  7  4  0
  2  3  1  0
  2  6  4  0
  2 16  4  0
  3 22  4  0
  4  9  4  0
  4 10  1  0
  4 20  4  0
  5 16  4  0
  5 23  4  0
  6 15  4  0
  7 12  4  0
  8 13  4  0
  8 14  4  0
  9 11  4  0
 11 14  4  0
 11 19  4  0
 12 18  4  0
 13 21  4  0
 15 23  4  0
 17 19  4  0
 17 20  4  0
 18 22  4  0
 19 21  4  0
M  END
$$$$

 Created by Python create_sdf_string function

 23 25  0  0  0  0  0  0  0  0999 V2000
    2.4610   -5.3070   29.1240 C   0  0  0  0  0  0  0  0  0  0  0  0
    4.7710   -4.6952   28.4803 C   0  0  0  0  0  0  0  0  0  0  0  0
    3.4047   -5.1087   28.1314 C   0  0  0  0  0  0  0  0  0  0  0  0
   -0.2234  -11.8615   16.8874 C   0  0  0  0  0  0  0  0  0  0  0  0
    6.4491   -4.1532   30.1213 C   0  0  0  0  0  0  0  0  0  0  0  0
    5.7060   -4.4340   27.4975 C   0  0  0  0  0  0  0  0  0  0  0  0
    1.1818   -5.6612   28.8399 C   0  0  0  0  0  0  0  0  0  0  0  0
   -1.2067   -7.3287   17.7772 C   0  0  0  0  0  0  0  0  0  0  0  0
   -0.0206  -10.5585   16.6210 C   0  0  0  0  0  0  0  0  0  0  0  0
    0.3696  -12.7626   16.2169 O   0  0  0  0  0  0  0  0  0  0  0  0
   -0.6895   -9.5676   17.3297 C   0  0  0  0  0  0  0  0  0  0  0  0
    0.8388   -5.8417   27.5264 C   0  0  0  0  0  0  0  0  0  0  0  0
   -2.0709   -7.6637   18.7817 C   0  0  0  0  0  0  0  0  0  0  0  0
   -0.5279   -8.2168   17.0717 C   0  0  0  0  0  0  0  0  0  0  0  0
    6.9694   -4.0191   27.8190 C   0  0  0  0  0  0  0  0  0  0  0  0
    5.1733   -4.5469   29.8123 C   0  0  0  0  0  0  0  0  0  0  0  0
   -1.7508  -11.3016   18.6072 C   0  0  0  0  0  0  0  0  0  0  0  0
    1.7497   -5.6771   26.4971 C   0  0  0  0  0  0  0  0  0  0  0  0
   -1.5799   -9.9322   18.3468 C   0  0  0  0  0  0  0  0  0  0  0  0
   -1.0871  -12.2214   17.8851 C   0  0  0  0  0  0  0  0  0  0  0  0
   -2.2706   -8.9669   19.0691 C   0  0  0  0  0  0  0  0  0  0  0  0
    3.0279   -5.3073   26.8197 C   0  0  0  0  0  0  0  0  0  0  0  0
    7.3282   -3.8948   29.1186 C   0  0  0  0  0  0  0  0  0  0  0  0
  1  3  4  0
  1  7  4  0
  2  3  1  0
  2  6  4  0
  2 16  4  0
  3 22  4  0
  4  9  4  0
  4 10  1  0
  4 20  4  0
  5 16  4  0
  5 23  4  0
  6 15  4  0
  7 12  4  0
  8 13  4  0
  8 14  4  0
  9 11  4  0
 11 14  4  0
 11 19  4  0
 12 18  4  0
 13 21  4  0
 15 23  4  0
 17 19  4  0
 17 20  4  0
 18 22  4  0
 19 21  4  0
M  END
$$$$

 Created by Python create_sdf_string function

 23 25  0  0  0  0  0  0  0  0999 V2000
    2.4610   -5.3070   29.1240 C   0  0  0  0  0  0  0  0  0  0  0  0
    4.7710   -4.6952   28.4803 C   0  0  0  0  0  0  0  0  0  0  0  0
    3.4047   -5.1087   28.1314 C   0  0  0  0  0  0  0  0  0  0  0  0
   -0.2234  -11.8615   16.8874 C   0  0  0  0  0  0  0  0  0  0  0  0
    6.4491   -4.1532   30.1213 C   0  0  0  0  0  0  0  0  0  0  0  0
    5.7060   -4.4340   27.4975 C   0  0  0  0  0  0  0  0  0  0  0  0
    1.1818   -5.6612   28.8399 C   0  0  0  0  0  0  0  0  0  0  0  0
   -1.2067   -7.3287   17.7772 C   0  0  0  0  0  0  0  0  0  0  0  0
   -0.0206  -10.5585   16.6210 C   0  0  0  0  0  0  0  0  0  0  0  0
    0.3696  -12.7626   16.2169 O   0  0  0  0  0  0  0  0  0  0  0  0
   -0.6895   -9.5676   17.3297 C   0  0  0  0  0  0  0  0  0  0  0  0
    0.8388   -5.8417   27.5264 C   0  0  0  0  0  0  0  0  0  0  0  0
   -2.0709   -7.6637   18.7817 C   0  0  0  0  0  0  0  0  0  0  0  0
   -0.5279   -8.2168   17.0717 C   0  0  0  0  0  0  0  0  0  0  0  0
    6.9694   -4.0191   27.8190 C   0  0  0  0  0  0  0  0  0  0  0  0
    5.1733   -4.5469   29.8123 C   0  0  0  0  0  0  0  0  0  0  0  0
   -1.7508  -11.3016   18.6072 C   0  0  0  0  0  0  0  0  0  0  0  0
    1.7497   -5.6771   26.4971 C   0  0  0  0  0  0  0  0  0  0  0  0
   -1.5799   -9.9322   18.3468 C   0  0  0  0  0  0  0  0  0  0  0  0
   -1.0871  -12.2214   17.8851 C   0  0  0  0  0  0  0  0  0  0  0  0
   -2.2706   -8.9669   19.0691 C   0  0  0  0  0  0  0  0  0  0  0  0
    3.0279   -5.3073   26.8197 C   0  0  0  0  0  0  0  0  0  0  0  0
    7.3282   -3.8948   29.1186 C   0  0  0  0  0  0  0  0  0  0  0  0
  1  3  4  0
  1  7  4  0
  2  3  1  0
  2  6  4  0
  2 16  4  0
  3 22  4  0
  4  9  4  0
  4 10  1  0
  4 20  4  0
  5 16  4  0
  5 23  4  0
  6 15  4  0
  7 12  4  0
  8 13  4  0
  8 14  4  0
  9 11  4  0
 11 14  4  0
 11 19  4  0
 12 18  4  0
 13 21  4  0
 15 23  4  0
 17 19  4  0
 17 20  4  0
 18 22  4  0
 19 21  4  0
M  END
$$$$

 Created by Python create_sdf_string function

 23 25  0  0  0  0  0  0  0  0999 V2000
    2.4610   -5.3070   29.1240 C   0  0  0  0  0  0  0  0  0  0  0  0
    4.7710   -4.6952   28.4803 C   0  0  0  0  0  0  0  0  0  0  0  0
    3.4047   -5.1087   28.1314 C   0  0  0  0  0  0  0  0  0  0  0  0
   -0.2234  -11.8615   16.8874 C   0  0  0  0  0  0  0  0  0  0  0  0
    6.4491   -4.1532   30.1213 C   0  0  0  0  0  0  0  0  0  0  0  0
    5.7060   -4.4340   27.4975 C   0  0  0  0  0  0  0  0  0  0  0  0
    1.1818   -5.6612   28.8399 C   0  0  0  0  0  0  0  0  0  0  0  0
   -1.2067   -7.3287   17.7772 C   0  0  0  0  0  0  0  0  0  0  0  0
   -0.0206  -10.5585   16.6210 C   0  0  0  0  0  0  0  0  0  0  0  0
    0.3696  -12.7626   16.2169 O   0  0  0  0  0  0  0  0  0  0  0  0
   -0.6895   -9.5676   17.3297 C   0  0  0  0  0  0  0  0  0  0  0  0
    0.8388   -5.8417   27.5264 C   0  0  0  0  0  0  0  0  0  0  0  0
   -2.0709   -7.6637   18.7817 C   0  0  0  0  0  0  0  0  0  0  0  0
   -0.5279   -8.2168   17.0717 C   0  0  0  0  0  0  0  0  0  0  0  0
    6.9694   -4.0191   27.8190 C   0  0  0  0  0  0  0  0  0  0  0  0
    5.1733   -4.5469   29.8123 C   0  0  0  0  0  0  0  0  0  0  0  0
   -1.7508  -11.3016   18.6072 C   0  0  0  0  0  0  0  0  0  0  0  0
    1.7497   -5.6771   26.4971 C   0  0  0  0  0  0  0  0  0  0  0  0
   -1.5799   -9.9322   18.3468 C   0  0  0  0  0  0  0  0  0  0  0  0
   -1.0871  -12.2214   17.8851 C   0  0  0  0  0  0  0  0  0  0  0  0
   -2.2706   -8.9669   19.0691 C   0  0  0  0  0  0  0  0  0  0  0  0
    3.0279   -5.3073   26.8197 C   0  0  0  0  0  0  0  0  0  0  0  0
    7.3282   -3.8948   29.1186 C   0  0  0  0  0  0  0  0  0  0  0  0
  1  3  4  0
  1  7  4  0
  2  3  1  0
  2  6  4  0
  2 16  4  0
  3 22  4  0
  4  9  4  0
  4 10  1  0
  4 20  4  0
  5 16  4  0
  5 23  4  0
  6 15  4  0
  7 12  4  0
  8 13  4  0
  8 14  4  0
  9 11  4  0
 11 14  4  0
 11 19  4  0
 12 18  4  0
 13 21  4  0
 15 23  4  0
 17 19  4  0
 17 20  4  0
 18 22  4  0
 19 21  4  0
M  END
$$$$

 Created by Python create_sdf_string function

 23 25  0  0  0  0  0  0  0  0999 V2000
    2.4610   -5.3070   29.1240 C   0  0  0  0  0  0  0  0  0  0  0  0
    4.7710   -4.6952   28.4803 C   0  0  0  0  0  0  0  0  0  0  0  0
    3.4047   -5.1087   28.1314 C   0  0  0  0  0  0  0  0  0  0  0  0
   -0.2234  -11.8615   16.8874 C   0  0  0  0  0  0  0  0  0  0  0  0
    6.4491   -4.1532   30.1213 C   0  0  0  0  0  0  0  0  0  0  0  0
    5.7060   -4.4340   27.4975 C   0  0  0  0  0  0  0  0  0  0  0  0
    1.1818   -5.6612   28.8399 C   0  0  0  0  0  0  0  0  0  0  0  0
   -1.2067   -7.3287   17.7772 C   0  0  0  0  0  0  0  0  0  0  0  0
   -0.0206  -10.5585   16.6210 C   0  0  0  0  0  0  0  0  0  0  0  0
    0.3696  -12.7626   16.2169 O   0  0  0  0  0  0  0  0  0  0  0  0
   -0.6895   -9.5676   17.3297 C   0  0  0  0  0  0  0  0  0  0  0  0
    0.8388   -5.8417   27.5264 C   0  0  0  0  0  0  0  0  0  0  0  0
   -2.0709   -7.6637   18.7817 C   0  0  0  0  0  0  0  0  0  0  0  0
   -0.5279   -8.2168   17.0717 C   0  0  0  0  0  0  0  0  0  0  0  0
    6.9694   -4.0191   27.8190 C   0  0  0  0  0  0  0  0  0  0  0  0
    5.1733   -4.5469   29.8123 C   0  0  0  0  0  0  0  0  0  0  0  0
   -1.7508  -11.3016   18.6072 C   0  0  0  0  0  0  0  0  0  0  0  0
    1.7497   -5.6771   26.4971 C   0  0  0  0  0  0  0  0  0  0  0  0
   -1.5799   -9.9322   18.3468 C   0  0  0  0  0  0  0  0  0  0  0  0
   -1.0871  -12.2214   17.8851 C   0  0  0  0  0  0  0  0  0  0  0  0
   -2.2706   -8.9669   19.0691 C   0  0  0  0  0  0  0  0  0  0  0  0
    3.0279   -5.3073   26.8197 C   0  0  0  0  0  0  0  0  0  0  0  0
    7.3282   -3.8948   29.1186 C   0  0  0  0  0  0  0  0  0  0  0  0
  1  3  4  0
  1  7  4  0
  2  3  1  0
  2  6  4  0
  2 16  4  0
  3 22  4  0
  4  9  4  0
  4 10  1  0
  4 20  4  0
  5 16  4  0
  5 23  4  0
  6 15  4  0
  7 12  4  0
  8 13  4  0
  8 14  4  0
  9 11  4  0
 11 14  4  0
 11 19  4  0
 12 18  4  0
 13 21  4  0
 15 23  4  0
 17 19  4  0
 17 20  4  0
 18 22  4  0
 19 21  4  0
M  END
$$$$

 Created by Python create_sdf_string function

 23 25  0  0  0  0  0  0  0  0999 V2000
    2.4610   -5.3070   29.1240 C   0  0  0  0  0  0  0  0  0  0  0  0
    4.7710   -4.6952   28.4803 C   0  0  0  0  0  0  0  0  0  0  0  0
    3.4047   -5.1087   28.1314 C   0  0  0  0  0  0  0  0  0  0  0  0
   -0.2234  -11.8615   16.8874 C   0  0  0  0  0  0  0  0  0  0  0  0
    6.4491   -4.1532   30.1213 C   0  0  0  0  0  0  0  0  0  0  0  0
    5.7060   -4.4340   27.4975 C   0  0  0  0  0  0  0  0  0  0  0  0
    1.1818   -5.6612   28.8399 C   0  0  0  0  0  0  0  0  0  0  0  0
   -1.2067   -7.3287   17.7772 C   0  0  0  0  0  0  0  0  0  0  0  0
   -0.0206  -10.5585   16.6210 C   0  0  0  0  0  0  0  0  0  0  0  0
    0.3696  -12.7626   16.2169 O   0  0  0  0  0  0  0  0  0  0  0  0
   -0.6895   -9.5676   17.3297 C   0  0  0  0  0  0  0  0  0  0  0  0
    0.8388   -5.8417   27.5264 C   0  0  0  0  0  0  0  0  0  0  0  0
   -2.0709   -7.6637   18.7817 C   0  0  0  0  0  0  0  0  0  0  0  0
   -0.5279   -8.2168   17.0717 C   0  0  0  0  0  0  0  0  0  0  0  0
    6.9694   -4.0191   27.8190 C   0  0  0  0  0  0  0  0  0  0  0  0
    5.1733   -4.5469   29.8123 C   0  0  0  0  0  0  0  0  0  0  0  0
   -1.7508  -11.3016   18.6072 C   0  0  0  0  0  0  0  0  0  0  0  0
    1.7497   -5.6771   26.4971 C   0  0  0  0  0  0  0  0  0  0  0  0
   -1.5799   -9.9322   18.3468 C   0  0  0  0  0  0  0  0  0  0  0  0
   -1.0871  -12.2214   17.8851 C   0  0  0  0  0  0  0  0  0  0  0  0
   -2.2706   -8.9669   19.0691 C   0  0  0  0  0  0  0  0  0  0  0  0
    3.0279   -5.3073   26.8197 C   0  0  0  0  0  0  0  0  0  0  0  0
    7.3282   -3.8948   29.1186 C   0  0  0  0  0  0  0  0  0  0  0  0
  1  3  4  0
  1  7  4  0
  2  3  1  0
  2  6  4  0
  2 16  4  0
  3 22  4  0
  4  9  4  0
  4 10  1  0
  4 20  4  0
  5 16  4  0
  5 23  4  0
  6 15  4  0
  7 12  4  0
  8 13  4  0
  8 14  4  0
  9 11  4  0
 11 14  4  0
 11 19  4  0
 12 18  4  0
 13 21  4  0
 15 23  4  0
 17 19  4  0
 17 20  4  0
 18 22  4  0
 19 21  4  0
M  END
$$$$

 Created by Python create_sdf_string function

 23 25  0  0  0  0  0  0  0  0999 V2000
    2.4610   -5.3070   29.1240 C   0  0  0  0  0  0  0  0  0  0  0  0
    4.7710   -4.6952   28.4803 C   0  0  0  0  0  0  0  0  0  0  0  0
    3.4047   -5.1087   28.1314 C   0  0  0  0  0  0  0  0  0  0  0  0
   -0.2234  -11.8615   16.8874 C   0  0  0  0  0  0  0  0  0  0  0  0
    6.4491   -4.1532   30.1213 C   0  0  0  0  0  0  0  0  0  0  0  0
    5.7060   -4.4340   27.4975 C   0  0  0  0  0  0  0  0  0  0  0  0
    1.1818   -5.6612   28.8399 C   0  0  0  0  0  0  0  0  0  0  0  0
   -1.2067   -7.3287   17.7772 C   0  0  0  0  0  0  0  0  0  0  0  0
   -0.0206  -10.5585   16.6210 C   0  0  0  0  0  0  0  0  0  0  0  0
    0.3696  -12.7626   16.2169 O   0  0  0  0  0  0  0  0  0  0  0  0
   -0.6895   -9.5676   17.3297 C   0  0  0  0  0  0  0  0  0  0  0  0
    0.8388   -5.8417   27.5264 C   0  0  0  0  0  0  0  0  0  0  0  0
   -2.0709   -7.6637   18.7817 C   0  0  0  0  0  0  0  0  0  0  0  0
   -0.5279   -8.2168   17.0717 C   0  0  0  0  0  0  0  0  0  0  0  0
    6.9694   -4.0191   27.8190 C   0  0  0  0  0  0  0  0  0  0  0  0
    5.1733   -4.5469   29.8123 C   0  0  0  0  0  0  0  0  0  0  0  0
   -1.7508  -11.3016   18.6072 C   0  0  0  0  0  0  0  0  0  0  0  0
    1.7497   -5.6771   26.4971 C   0  0  0  0  0  0  0  0  0  0  0  0
   -1.5799   -9.9322   18.3468 C   0  0  0  0  0  0  0  0  0  0  0  0
   -1.0871  -12.2214   17.8851 C   0  0  0  0  0  0  0  0  0  0  0  0
   -2.2706   -8.9669   19.0691 C   0  0  0  0  0  0  0  0  0  0  0  0
    3.0279   -5.3073   26.8197 C   0  0  0  0  0  0  0  0  0  0  0  0
    7.3282   -3.8948   29.1186 C   0  0  0  0  0  0  0  0  0  0  0  0
  1  3  4  0
  1  7  4  0
  2  3  1  0
  2  6  4  0
  2 16  4  0
  3 22  4  0
  4  9  4  0
  4 10  1  0
  4 20  4  0
  5 16  4  0
  5 23  4  0
  6 15  4  0
  7 12  4  0
  8 13  4  0
  8 14  4  0
  9 11  4  0
 11 14  4  0
 11 19  4  0
 12 18  4  0
 13 21  4  0
 15 23  4  0
 17 19  4  0
 17 20  4  0
 18 22  4  0
 19 21  4  0
M  END
$$$$

 Created by Python create_sdf_string function

 23 25  0  0  0  0  0  0  0  0999 V2000
    2.4610   -5.3070   29.1240 C   0  0  0  0  0  0  0  0  0  0  0  0
    4.7710   -4.6952   28.4803 C   0  0  0  0  0  0  0  0  0  0  0  0
    3.4047   -5.1087   28.1314 C   0  0  0  0  0  0  0  0  0  0  0  0
   -0.2234  -11.8615   16.8874 C   0  0  0  0  0  0  0  0  0  0  0  0
    6.4491   -4.1532   30.1213 C   0  0  0  0  0  0  0  0  0  0  0  0
    5.7060   -4.4340   27.4975 C   0  0  0  0  0  0  0  0  0  0  0  0
    1.1818   -5.6612   28.8399 C   0  0  0  0  0  0  0  0  0  0  0  0
   -1.2067   -7.3287   17.7772 C   0  0  0  0  0  0  0  0  0  0  0  0
   -0.0206  -10.5585   16.6210 C   0  0  0  0  0  0  0  0  0  0  0  0
    0.3696  -12.7626   16.2169 O   0  0  0  0  0  0  0  0  0  0  0  0
   -0.6895   -9.5676   17.3297 C   0  0  0  0  0  0  0  0  0  0  0  0
    0.8388   -5.8417   27.5264 C   0  0  0  0  0  0  0  0  0  0  0  0
   -2.0709   -7.6637   18.7817 C   0  0  0  0  0  0  0  0  0  0  0  0
   -0.5279   -8.2168   17.0717 C   0  0  0  0  0  0  0  0  0  0  0  0
    6.9694   -4.0191   27.8190 C   0  0  0  0  0  0  0  0  0  0  0  0
    5.1733   -4.5469   29.8123 C   0  0  0  0  0  0  0  0  0  0  0  0
   -1.7508  -11.3016   18.6072 C   0  0  0  0  0  0  0  0  0  0  0  0
    1.7497   -5.6771   26.4971 C   0  0  0  0  0  0  0  0  0  0  0  0
   -1.5799   -9.9322   18.3468 C   0  0  0  0  0  0  0  0  0  0  0  0
   -1.0871  -12.2214   17.8851 C   0  0  0  0  0  0  0  0  0  0  0  0
   -2.2706   -8.9669   19.0691 C   0  0  0  0  0  0  0  0  0  0  0  0
    3.0279   -5.3073   26.8197 C   0  0  0  0  0  0  0  0  0  0  0  0
    7.3282   -3.8948   29.1186 C   0  0  0  0  0  0  0  0  0  0  0  0
  1  3  4  0
  1  7  4  0
  2  3  1  0
  2  6  4  0
  2 16  4  0
  3 22  4  0
  4  9  4  0
  4 10  1  0
  4 20  4  0
  5 16  4  0
  5 23  4  0
  6 15  4  0
  7 12  4  0
  8 13  4  0
  8 14  4  0
  9 11  4  0
 11 14  4  0
 11 19  4  0
 12 18  4  0
 13 21  4  0
 15 23  4  0
 17 19  4  0
 17 20  4  0
 18 22  4  0
 19 21  4  0
M  END
$$$$

 Created by Python create_sdf_string function

 23 25  0  0  0  0  0  0  0  0999 V2000
    2.4610   -5.3070   29.1240 C   0  0  0  0  0  0  0  0  0  0  0  0
    4.7710   -4.6952   28.4803 C   0  0  0  0  0  0  0  0  0  0  0  0
    3.4047   -5.1087   28.1314 C   0  0  0  0  0  0  0  0  0  0  0  0
   -0.2234  -11.8615   16.8874 C   0  0  0  0  0  0  0  0  0  0  0  0
    6.4491   -4.1532   30.1213 C   0  0  0  0  0  0  0  0  0  0  0  0
    5.7060   -4.4340   27.4975 C   0  0  0  0  0  0  0  0  0  0  0  0
    1.1818   -5.6612   28.8399 C   0  0  0  0  0  0  0  0  0  0  0  0
   -1.2067   -7.3287   17.7772 C   0  0  0  0  0  0  0  0  0  0  0  0
   -0.0206  -10.5585   16.6210 C   0  0  0  0  0  0  0  0  0  0  0  0
    0.3696  -12.7626   16.2169 O   0  0  0  0  0  0  0  0  0  0  0  0
   -0.6895   -9.5676   17.3297 C   0  0  0  0  0  0  0  0  0  0  0  0
    0.8388   -5.8417   27.5264 C   0  0  0  0  0  0  0  0  0  0  0  0
   -2.0709   -7.6637   18.7817 C   0  0  0  0  0  0  0  0  0  0  0  0
   -0.5279   -8.2168   17.0717 C   0  0  0  0  0  0  0  0  0  0  0  0
    6.9694   -4.0191   27.8190 C   0  0  0  0  0  0  0  0  0  0  0  0
    5.1733   -4.5469   29.8123 C   0  0  0  0  0  0  0  0  0  0  0  0
   -1.7508  -11.3016   18.6072 C   0  0  0  0  0  0  0  0  0  0  0  0
    1.7497   -5.6771   26.4971 C   0  0  0  0  0  0  0  0  0  0  0  0
   -1.5799   -9.9322   18.3468 C   0  0  0  0  0  0  0  0  0  0  0  0
   -1.0871  -12.2214   17.8851 C   0  0  0  0  0  0  0  0  0  0  0  0
   -2.2706   -8.9669   19.0691 C   0  0  0  0  0  0  0  0  0  0  0  0
    3.0279   -5.3073   26.8197 C   0  0  0  0  0  0  0  0  0  0  0  0
    7.3282   -3.8948   29.1186 C   0  0  0  0  0  0  0  0  0  0  0  0
  1  3  4  0
  1  7  4  0
  2  3  1  0
  2  6  4  0
  2 16  4  0
  3 22  4  0
  4  9  4  0
  4 10  1  0
  4 20  4  0
  5 16  4  0
  5 23  4  0
  6 15  4  0
  7 12  4  0
  8 13  4  0
  8 14  4  0
  9 11  4  0
 11 14  4  0
 11 19  4  0
 12 18  4  0
 13 21  4  0
 15 23  4  0
 17 19  4  0
 17 20  4  0
 18 22  4  0
 19 21  4  0
M  END
$$$$

 Created by Python create_sdf_string function

 23 25  0  0  0  0  0  0  0  0999 V2000
    2.4610   -5.3070   29.1240 C   0  0  0  0  0  0  0  0  0  0  0  0
    4.7710   -4.6952   28.4803 C   0  0  0  0  0  0  0  0  0  0  0  0
    3.4047   -5.1087   28.1314 C   0  0  0  0  0  0  0  0  0  0  0  0
   -0.2234  -11.8615   16.8874 C   0  0  0  0  0  0  0  0  0  0  0  0
    6.4491   -4.1532   30.1213 C   0  0  0  0  0  0  0  0  0  0  0  0
    5.7060   -4.4340   27.4975 C   0  0  0  0  0  0  0  0  0  0  0  0
    1.1818   -5.6612   28.8399 C   0  0  0  0  0  0  0  0  0  0  0  0
   -1.2067   -7.3287   17.7772 C   0  0  0  0  0  0  0  0  0  0  0  0
   -0.0206  -10.5585   16.6210 C   0  0  0  0  0  0  0  0  0  0  0  0
    0.3696  -12.7626   16.2169 O   0  0  0  0  0  0  0  0  0  0  0  0
   -0.6895   -9.5676   17.3297 C   0  0  0  0  0  0  0  0  0  0  0  0
    0.8388   -5.8417   27.5264 C   0  0  0  0  0  0  0  0  0  0  0  0
   -2.0709   -7.6637   18.7817 C   0  0  0  0  0  0  0  0  0  0  0  0
   -0.5279   -8.2168   17.0717 C   0  0  0  0  0  0  0  0  0  0  0  0
    6.9694   -4.0191   27.8190 C   0  0  0  0  0  0  0  0  0  0  0  0
    5.1733   -4.5469   29.8123 C   0  0  0  0  0  0  0  0  0  0  0  0
   -1.7508  -11.3016   18.6072 C   0  0  0  0  0  0  0  0  0  0  0  0
    1.7497   -5.6771   26.4971 C   0  0  0  0  0  0  0  0  0  0  0  0
   -1.5799   -9.9322   18.3468 C   0  0  0  0  0  0  0  0  0  0  0  0
   -1.0871  -12.2214   17.8851 C   0  0  0  0  0  0  0  0  0  0  0  0
   -2.2706   -8.9669   19.0691 C   0  0  0  0  0  0  0  0  0  0  0  0
    3.0279   -5.3073   26.8197 C   0  0  0  0  0  0  0  0  0  0  0  0
    7.3282   -3.8948   29.1186 C   0  0  0  0  0  0  0  0  0  0  0  0
  1  3  4  0
  1  7  4  0
  2  3  1  0
  2  6  4  0
  2 16  4  0
  3 22  4  0
  4  9  4  0
  4 10  1  0
  4 20  4  0
  5 16  4  0
  5 23  4  0
  6 15  4  0
  7 12  4  0
  8 13  4  0
  8 14  4  0
  9 11  4  0
 11 14  4  0
 11 19  4  0
 12 18  4  0
 13 21  4  0
 15 23  4  0
 17 19  4  0
 17 20  4  0
 18 22  4  0
 19 21  4  0
M  END
$$$$

 Created by Python create_sdf_string function

 23 25  0  0  0  0  0  0  0  0999 V2000
    2.4610   -5.3070   29.1240 C   0  0  0  0  0  0  0  0  0  0  0  0
    4.7710   -4.6952   28.4803 C   0  0  0  0  0  0  0  0  0  0  0  0
    3.4047   -5.1087   28.1314 C   0  0  0  0  0  0  0  0  0  0  0  0
   -0.2234  -11.8615   16.8874 C   0  0  0  0  0  0  0  0  0  0  0  0
    6.4491   -4.1532   30.1213 C   0  0  0  0  0  0  0  0  0  0  0  0
    5.7060   -4.4340   27.4975 C   0  0  0  0  0  0  0  0  0  0  0  0
    1.1818   -5.6612   28.8399 C   0  0  0  0  0  0  0  0  0  0  0  0
   -1.2067   -7.3287   17.7772 C   0  0  0  0  0  0  0  0  0  0  0  0
   -0.0206  -10.5585   16.6210 C   0  0  0  0  0  0  0  0  0  0  0  0
    0.3696  -12.7626   16.2169 O   0  0  0  0  0  0  0  0  0  0  0  0
   -0.6895   -9.5676   17.3297 C   0  0  0  0  0  0  0  0  0  0  0  0
    0.8388   -5.8417   27.5264 C   0  0  0  0  0  0  0  0  0  0  0  0
   -2.0709   -7.6637   18.7817 C   0  0  0  0  0  0  0  0  0  0  0  0
   -0.5279   -8.2168   17.0717 C   0  0  0  0  0  0  0  0  0  0  0  0
    6.9694   -4.0191   27.8190 C   0  0  0  0  0  0  0  0  0  0  0  0
    5.1733   -4.5469   29.8123 C   0  0  0  0  0  0  0  0  0  0  0  0
   -1.7508  -11.3016   18.6072 C   0  0  0  0  0  0  0  0  0  0  0  0
    1.7497   -5.6771   26.4971 C   0  0  0  0  0  0  0  0  0  0  0  0
   -1.5799   -9.9322   18.3468 C   0  0  0  0  0  0  0  0  0  0  0  0
   -1.0871  -12.2214   17.8851 C   0  0  0  0  0  0  0  0  0  0  0  0
   -2.2706   -8.9669   19.0691 C   0  0  0  0  0  0  0  0  0  0  0  0
    3.0279   -5.3073   26.8197 C   0  0  0  0  0  0  0  0  0  0  0  0
    7.3282   -3.8948   29.1186 C   0  0  0  0  0  0  0  0  0  0  0  0
  1  3  4  0
  1  7  4  0
  2  3  1  0
  2  6  4  0
  2 16  4  0
  3 22  4  0
  4  9  4  0
  4 10  1  0
  4 20  4  0
  5 16  4  0
  5 23  4  0
  6 15  4  0
  7 12  4  0
  8 13  4  0
  8 14  4  0
  9 11  4  0
 11 14  4  0
 11 19  4  0
 12 18  4  0
 13 21  4  0
 15 23  4  0
 17 19  4  0
 17 20  4  0
 18 22  4  0
 19 21  4  0
M  END
$$$$

 Created by Python create_sdf_string function

 23 25  0  0  0  0  0  0  0  0999 V2000
    2.4610   -5.3070   29.1240 C   0  0  0  0  0  0  0  0  0  0  0  0
    4.7710   -4.6952   28.4803 C   0  0  0  0  0  0  0  0  0  0  0  0
    3.4047   -5.1087   28.1314 C   0  0  0  0  0  0  0  0  0  0  0  0
   -0.2234  -11.8615   16.8874 C   0  0  0  0  0  0  0  0  0  0  0  0
    6.4491   -4.1532   30.1213 C   0  0  0  0  0  0  0  0  0  0  0  0
    5.7060   -4.4340   27.4975 C   0  0  0  0  0  0  0  0  0  0  0  0
    1.1818   -5.6612   28.8399 C   0  0  0  0  0  0  0  0  0  0  0  0
   -1.2067   -7.3287   17.7772 C   0  0  0  0  0  0  0  0  0  0  0  0
   -0.0206  -10.5585   16.6210 C   0  0  0  0  0  0  0  0  0  0  0  0
    0.3696  -12.7626   16.2169 O   0  0  0  0  0  0  0  0  0  0  0  0
   -0.6895   -9.5676   17.3297 C   0  0  0  0  0  0  0  0  0  0  0  0
    0.8388   -5.8417   27.5264 C   0  0  0  0  0  0  0  0  0  0  0  0
   -2.0709   -7.6637   18.7817 C   0  0  0  0  0  0  0  0  0  0  0  0
   -0.5279   -8.2168   17.0717 C   0  0  0  0  0  0  0  0  0  0  0  0
    6.9694   -4.0191   27.8190 C   0  0  0  0  0  0  0  0  0  0  0  0
    5.1733   -4.5469   29.8123 C   0  0  0  0  0  0  0  0  0  0  0  0
   -1.7508  -11.3016   18.6072 C   0  0  0  0  0  0  0  0  0  0  0  0
    1.7497   -5.6771   26.4971 C   0  0  0  0  0  0  0  0  0  0  0  0
   -1.5799   -9.9322   18.3468 C   0  0  0  0  0  0  0  0  0  0  0  0
   -1.0871  -12.2214   17.8851 C   0  0  0  0  0  0  0  0  0  0  0  0
   -2.2706   -8.9669   19.0691 C   0  0  0  0  0  0  0  0  0  0  0  0
    3.0279   -5.3073   26.8197 C   0  0  0  0  0  0  0  0  0  0  0  0
    7.3282   -3.8948   29.1186 C   0  0  0  0  0  0  0  0  0  0  0  0
  1  3  4  0
  1  7  4  0
  2  3  1  0
  2  6  4  0
  2 16  4  0
  3 22  4  0
  4  9  4  0
  4 10  1  0
  4 20  4  0
  5 16  4  0
  5 23  4  0
  6 15  4  0
  7 12  4  0
  8 13  4  0
  8 14  4  0
  9 11  4  0
 11 14  4  0
 11 19  4  0
 12 18  4  0
 13 21  4  0
 15 23  4  0
 17 19  4  0
 17 20  4  0
 18 22  4  0
 19 21  4  0
M  END
$$$$

 Created by Python create_sdf_string function

 23 25  0  0  0  0  0  0  0  0999 V2000
    2.4610   -5.3070   29.1240 C   0  0  0  0  0  0  0  0  0  0  0  0
    4.7710   -4.6952   28.4803 C   0  0  0  0  0  0  0  0  0  0  0  0
    3.4047   -5.1087   28.1314 C   0  0  0  0  0  0  0  0  0  0  0  0
   -0.2234  -11.8615   16.8874 C   0  0  0  0  0  0  0  0  0  0  0  0
    6.4491   -4.1532   30.1213 C   0  0  0  0  0  0  0  0  0  0  0  0
    5.7060   -4.4340   27.4975 C   0  0  0  0  0  0  0  0  0  0  0  0
    1.1818   -5.6612   28.8399 C   0  0  0  0  0  0  0  0  0  0  0  0
   -1.2067   -7.3287   17.7772 C   0  0  0  0  0  0  0  0  0  0  0  0
   -0.0206  -10.5585   16.6210 C   0  0  0  0  0  0  0  0  0  0  0  0
    0.3696  -12.7626   16.2169 O   0  0  0  0  0  0  0  0  0  0  0  0
   -0.6895   -9.5676   17.3297 C   0  0  0  0  0  0  0  0  0  0  0  0
    0.8388   -5.8417   27.5264 C   0  0  0  0  0  0  0  0  0  0  0  0
   -2.0709   -7.6637   18.7817 C   0  0  0  0  0  0  0  0  0  0  0  0
   -0.5279   -8.2168   17.0717 C   0  0  0  0  0  0  0  0  0  0  0  0
    6.9694   -4.0191   27.8190 C   0  0  0  0  0  0  0  0  0  0  0  0
    5.1733   -4.5469   29.8123 C   0  0  0  0  0  0  0  0  0  0  0  0
   -1.7508  -11.3016   18.6072 C   0  0  0  0  0  0  0  0  0  0  0  0
    1.7497   -5.6771   26.4971 C   0  0  0  0  0  0  0  0  0  0  0  0
   -1.5799   -9.9322   18.3468 C   0  0  0  0  0  0  0  0  0  0  0  0
   -1.0871  -12.2214   17.8851 C   0  0  0  0  0  0  0  0  0  0  0  0
   -2.2706   -8.9669   19.0691 C   0  0  0  0  0  0  0  0  0  0  0  0
    3.0279   -5.3073   26.8197 C   0  0  0  0  0  0  0  0  0  0  0  0
    7.3282   -3.8948   29.1186 C   0  0  0  0  0  0  0  0  0  0  0  0
  1  3  4  0
  1  7  4  0
  2  3  1  0
  2  6  4  0
  2 16  4  0
  3 22  4  0
  4  9  4  0
  4 10  1  0
  4 20  4  0
  5 16  4  0
  5 23  4  0
  6 15  4  0
  7 12  4  0
  8 13  4  0
  8 14  4  0
  9 11  4  0
 11 14  4  0
 11 19  4  0
 12 18  4  0
 13 21  4  0
 15 23  4  0
 17 19  4  0
 17 20  4  0
 18 22  4  0
 19 21  4  0
M  END
$$$$

 Created by Python create_sdf_string function

 23 25  0  0  0  0  0  0  0  0999 V2000
    2.4610   -5.3070   29.1240 C   0  0  0  0  0  0  0  0  0  0  0  0
    4.7710   -4.6952   28.4803 C   0  0  0  0  0  0  0  0  0  0  0  0
    3.4047   -5.1087   28.1314 C   0  0  0  0  0  0  0  0  0  0  0  0
   -0.2234  -11.8615   16.8874 C   0  0  0  0  0  0  0  0  0  0  0  0
    6.4491   -4.1532   30.1213 C   0  0  0  0  0  0  0  0  0  0  0  0
    5.7060   -4.4340   27.4975 C   0  0  0  0  0  0  0  0  0  0  0  0
    1.1818   -5.6612   28.8399 C   0  0  0  0  0  0  0  0  0  0  0  0
   -1.2067   -7.3287   17.7772 C   0  0  0  0  0  0  0  0  0  0  0  0
   -0.0206  -10.5585   16.6210 C   0  0  0  0  0  0  0  0  0  0  0  0
    0.3696  -12.7626   16.2169 O   0  0  0  0  0  0  0  0  0  0  0  0
   -0.6895   -9.5676   17.3297 C   0  0  0  0  0  0  0  0  0  0  0  0
    0.8388   -5.8417   27.5264 C   0  0  0  0  0  0  0  0  0  0  0  0
   -2.0709   -7.6637   18.7817 C   0  0  0  0  0  0  0  0  0  0  0  0
   -0.5279   -8.2168   17.0717 C   0  0  0  0  0  0  0  0  0  0  0  0
    6.9694   -4.0191   27.8190 C   0  0  0  0  0  0  0  0  0  0  0  0
    5.1733   -4.5469   29.8123 C   0  0  0  0  0  0  0  0  0  0  0  0
   -1.7508  -11.3016   18.6072 C   0  0  0  0  0  0  0  0  0  0  0  0
    1.7497   -5.6771   26.4971 C   0  0  0  0  0  0  0  0  0  0  0  0
   -1.5799   -9.9322   18.3468 C   0  0  0  0  0  0  0  0  0  0  0  0
   -1.0871  -12.2214   17.8851 C   0  0  0  0  0  0  0  0  0  0  0  0
   -2.2706   -8.9669   19.0691 C   0  0  0  0  0  0  0  0  0  0  0  0
    3.0279   -5.3073   26.8197 C   0  0  0  0  0  0  0  0  0  0  0  0
    7.3282   -3.8948   29.1186 C   0  0  0  0  0  0  0  0  0  0  0  0
  1  3  4  0
  1  7  4  0
  2  3  1  0
  2  6  4  0
  2 16  4  0
  3 22  4  0
  4  9  4  0
  4 10  1  0
  4 20  4  0
  5 16  4  0
  5 23  4  0
  6 15  4  0
  7 12  4  0
  8 13  4  0
  8 14  4  0
  9 11  4  0
 11 14  4  0
 11 19  4  0
 12 18  4  0
 13 21  4  0
 15 23  4  0
 17 19  4  0
 17 20  4  0
 18 22  4  0
 19 21  4  0
M  END
$$$$

 Created by Python create_sdf_string function

 23 25  0  0  0  0  0  0  0  0999 V2000
    2.4610   -5.3070   29.1240 C   0  0  0  0  0  0  0  0  0  0  0  0
    4.7710   -4.6952   28.4803 C   0  0  0  0  0  0  0  0  0  0  0  0
    3.4047   -5.1087   28.1314 C   0  0  0  0  0  0  0  0  0  0  0  0
   -0.2234  -11.8615   16.8874 C   0  0  0  0  0  0  0  0  0  0  0  0
    6.4491   -4.1532   30.1213 C   0  0  0  0  0  0  0  0  0  0  0  0
    5.7060   -4.4340   27.4975 C   0  0  0  0  0  0  0  0  0  0  0  0
    1.1818   -5.6612   28.8399 C   0  0  0  0  0  0  0  0  0  0  0  0
   -1.2067   -7.3287   17.7772 C   0  0  0  0  0  0  0  0  0  0  0  0
   -0.0206  -10.5585   16.6210 C   0  0  0  0  0  0  0  0  0  0  0  0
    0.3696  -12.7626   16.2169 O   0  0  0  0  0  0  0  0  0  0  0  0
   -0.6895   -9.5676   17.3297 C   0  0  0  0  0  0  0  0  0  0  0  0
    0.8388   -5.8417   27.5264 C   0  0  0  0  0  0  0  0  0  0  0  0
   -2.0709   -7.6637   18.7817 C   0  0  0  0  0  0  0  0  0  0  0  0
   -0.5279   -8.2168   17.0717 C   0  0  0  0  0  0  0  0  0  0  0  0
    6.9694   -4.0191   27.8190 C   0  0  0  0  0  0  0  0  0  0  0  0
    5.1733   -4.5469   29.8123 C   0  0  0  0  0  0  0  0  0  0  0  0
   -1.7508  -11.3016   18.6072 C   0  0  0  0  0  0  0  0  0  0  0  0
    1.7497   -5.6771   26.4971 C   0  0  0  0  0  0  0  0  0  0  0  0
   -1.5799   -9.9322   18.3468 C   0  0  0  0  0  0  0  0  0  0  0  0
   -1.0871  -12.2214   17.8851 C   0  0  0  0  0  0  0  0  0  0  0  0
   -2.2706   -8.9669   19.0691 C   0  0  0  0  0  0  0  0  0  0  0  0
    3.0279   -5.3073   26.8197 C   0  0  0  0  0  0  0  0  0  0  0  0
    7.3282   -3.8948   29.1186 C   0  0  0  0  0  0  0  0  0  0  0  0
  1  3  4  0
  1  7  4  0
  2  3  1  0
  2  6  4  0
  2 16  4  0
  3 22  4  0
  4  9  4  0
  4 10  1  0
  4 20  4  0
  5 16  4  0
  5 23  4  0
  6 15  4  0
  7 12  4  0
  8 13  4  0
  8 14  4  0
  9 11  4  0
 11 14  4  0
 11 19  4  0
 12 18  4  0
 13 21  4  0
 15 23  4  0
 17 19  4  0
 17 20  4  0
 18 22  4  0
 19 21  4  0
M  END
$$$$

 Created by Python create_sdf_string function

 23 25  0  0  0  0  0  0  0  0999 V2000
    2.4610   -5.3070   29.1240 C   0  0  0  0  0  0  0  0  0  0  0  0
    4.7710   -4.6952   28.4803 C   0  0  0  0  0  0  0  0  0  0  0  0
    3.4047   -5.1087   28.1314 C   0  0  0  0  0  0  0  0  0  0  0  0
   -0.2234  -11.8615   16.8874 C   0  0  0  0  0  0  0  0  0  0  0  0
    6.4491   -4.1532   30.1213 C   0  0  0  0  0  0  0  0  0  0  0  0
    5.7060   -4.4340   27.4975 C   0  0  0  0  0  0  0  0  0  0  0  0
    1.1818   -5.6612   28.8399 C   0  0  0  0  0  0  0  0  0  0  0  0
   -1.2067   -7.3287   17.7772 C   0  0  0  0  0  0  0  0  0  0  0  0
   -0.0206  -10.5585   16.6210 C   0  0  0  0  0  0  0  0  0  0  0  0
    0.3696  -12.7626   16.2169 O   0  0  0  0  0  0  0  0  0  0  0  0
   -0.6895   -9.5676   17.3297 C   0  0  0  0  0  0  0  0  0  0  0  0
    0.8388   -5.8417   27.5264 C   0  0  0  0  0  0  0  0  0  0  0  0
   -2.0709   -7.6637   18.7817 C   0  0  0  0  0  0  0  0  0  0  0  0
   -0.5279   -8.2168   17.0717 C   0  0  0  0  0  0  0  0  0  0  0  0
    6.9694   -4.0191   27.8190 C   0  0  0  0  0  0  0  0  0  0  0  0
    5.1733   -4.5469   29.8123 C   0  0  0  0  0  0  0  0  0  0  0  0
   -1.7508  -11.3016   18.6072 C   0  0  0  0  0  0  0  0  0  0  0  0
    1.7497   -5.6771   26.4971 C   0  0  0  0  0  0  0  0  0  0  0  0
   -1.5799   -9.9322   18.3468 C   0  0  0  0  0  0  0  0  0  0  0  0
   -1.0871  -12.2214   17.8851 C   0  0  0  0  0  0  0  0  0  0  0  0
   -2.2706   -8.9669   19.0691 C   0  0  0  0  0  0  0  0  0  0  0  0
    3.0279   -5.3073   26.8197 C   0  0  0  0  0  0  0  0  0  0  0  0
    7.3282   -3.8948   29.1186 C   0  0  0  0  0  0  0  0  0  0  0  0
  1  3  4  0
  1  7  4  0
  2  3  1  0
  2  6  4  0
  2 16  4  0
  3 22  4  0
  4  9  4  0
  4 10  1  0
  4 20  4  0
  5 16  4  0
  5 23  4  0
  6 15  4  0
  7 12  4  0
  8 13  4  0
  8 14  4  0
  9 11  4  0
 11 14  4  0
 11 19  4  0
 12 18  4  0
 13 21  4  0
 15 23  4  0
 17 19  4  0
 17 20  4  0
 18 22  4  0
 19 21  4  0
M  END
$$$$

 Created by Python create_sdf_string function

 23 25  0  0  0  0  0  0  0  0999 V2000
    2.4610   -5.3070   29.1240 C   0  0  0  0  0  0  0  0  0  0  0  0
    4.7710   -4.6952   28.4803 C   0  0  0  0  0  0  0  0  0  0  0  0
    3.4047   -5.1087   28.1314 C   0  0  0  0  0  0  0  0  0  0  0  0
   -0.2234  -11.8615   16.8874 C   0  0  0  0  0  0  0  0  0  0  0  0
    6.4491   -4.1532   30.1213 C   0  0  0  0  0  0  0  0  0  0  0  0
    5.7060   -4.4340   27.4975 C   0  0  0  0  0  0  0  0  0  0  0  0
    1.1818   -5.6612   28.8399 C   0  0  0  0  0  0  0  0  0  0  0  0
   -1.2067   -7.3287   17.7772 C   0  0  0  0  0  0  0  0  0  0  0  0
   -0.0206  -10.5585   16.6210 C   0  0  0  0  0  0  0  0  0  0  0  0
    0.3696  -12.7626   16.2169 O   0  0  0  0  0  0  0  0  0  0  0  0
   -0.6895   -9.5676   17.3297 C   0  0  0  0  0  0  0  0  0  0  0  0
    0.8388   -5.8417   27.5264 C   0  0  0  0  0  0  0  0  0  0  0  0
   -2.0709   -7.6637   18.7817 C   0  0  0  0  0  0  0  0  0  0  0  0
   -0.5279   -8.2168   17.0717 C   0  0  0  0  0  0  0  0  0  0  0  0
    6.9694   -4.0191   27.8190 C   0  0  0  0  0  0  0  0  0  0  0  0
    5.1733   -4.5469   29.8123 C   0  0  0  0  0  0  0  0  0  0  0  0
   -1.7508  -11.3016   18.6072 C   0  0  0  0  0  0  0  0  0  0  0  0
    1.7497   -5.6771   26.4971 C   0  0  0  0  0  0  0  0  0  0  0  0
   -1.5799   -9.9322   18.3468 C   0  0  0  0  0  0  0  0  0  0  0  0
   -1.0871  -12.2214   17.8851 C   0  0  0  0  0  0  0  0  0  0  0  0
   -2.2706   -8.9669   19.0691 C   0  0  0  0  0  0  0  0  0  0  0  0
    3.0279   -5.3073   26.8197 C   0  0  0  0  0  0  0  0  0  0  0  0
    7.3282   -3.8948   29.1186 C   0  0  0  0  0  0  0  0  0  0  0  0
  1  3  4  0
  1  7  4  0
  2  3  1  0
  2  6  4  0
  2 16  4  0
  3 22  4  0
  4  9  4  0
  4 10  1  0
  4 20  4  0
  5 16  4  0
  5 23  4  0
  6 15  4  0
  7 12  4  0
  8 13  4  0
  8 14  4  0
  9 11  4  0
 11 14  4  0
 11 19  4  0
 12 18  4  0
 13 21  4  0
 15 23  4  0
 17 19  4  0
 17 20  4  0
 18 22  4  0
 19 21  4  0
M  END
$$$$

 Created by Python create_sdf_string function

 23 25  0  0  0  0  0  0  0  0999 V2000
    2.4610   -5.3070   29.1240 C   0  0  0  0  0  0  0  0  0  0  0  0
    4.7710   -4.6952   28.4803 C   0  0  0  0  0  0  0  0  0  0  0  0
    3.4047   -5.1087   28.1314 C   0  0  0  0  0  0  0  0  0  0  0  0
   -0.2234  -11.8615   16.8874 C   0  0  0  0  0  0  0  0  0  0  0  0
    6.4491   -4.1532   30.1213 C   0  0  0  0  0  0  0  0  0  0  0  0
    5.7060   -4.4340   27.4975 C   0  0  0  0  0  0  0  0  0  0  0  0
    1.1818   -5.6612   28.8399 C   0  0  0  0  0  0  0  0  0  0  0  0
   -1.2067   -7.3287   17.7772 C   0  0  0  0  0  0  0  0  0  0  0  0
   -0.0206  -10.5585   16.6210 C   0  0  0  0  0  0  0  0  0  0  0  0
    0.3696  -12.7626   16.2169 O   0  0  0  0  0  0  0  0  0  0  0  0
   -0.6895   -9.5676   17.3297 C   0  0  0  0  0  0  0  0  0  0  0  0
    0.8388   -5.8417   27.5264 C   0  0  0  0  0  0  0  0  0  0  0  0
   -2.0709   -7.6637   18.7817 C   0  0  0  0  0  0  0  0  0  0  0  0
   -0.5279   -8.2168   17.0717 C   0  0  0  0  0  0  0  0  0  0  0  0
    6.9694   -4.0191   27.8190 C   0  0  0  0  0  0  0  0  0  0  0  0
    5.1733   -4.5469   29.8123 C   0  0  0  0  0  0  0  0  0  0  0  0
   -1.7508  -11.3016   18.6072 C   0  0  0  0  0  0  0  0  0  0  0  0
    1.7497   -5.6771   26.4971 C   0  0  0  0  0  0  0  0  0  0  0  0
   -1.5799   -9.9322   18.3468 C   0  0  0  0  0  0  0  0  0  0  0  0
   -1.0871  -12.2214   17.8851 C   0  0  0  0  0  0  0  0  0  0  0  0
   -2.2706   -8.9669   19.0691 C   0  0  0  0  0  0  0  0  0  0  0  0
    3.0279   -5.3073   26.8197 C   0  0  0  0  0  0  0  0  0  0  0  0
    7.3282   -3.8948   29.1186 C   0  0  0  0  0  0  0  0  0  0  0  0
  1  3  4  0
  1  7  4  0
  2  3  1  0
  2  6  4  0
  2 16  4  0
  3 22  4  0
  4  9  4  0
  4 10  1  0
  4 20  4  0
  5 16  4  0
  5 23  4  0
  6 15  4  0
  7 12  4  0
  8 13  4  0
  8 14  4  0
  9 11  4  0
 11 14  4  0
 11 19  4  0
 12 18  4  0
 13 21  4  0
 15 23  4  0
 17 19  4  0
 17 20  4  0
 18 22  4  0
 19 21  4  0
M  END
$$$$

 Created by Python create_sdf_string function

 23 25  0  0  0  0  0  0  0  0999 V2000
    2.4610   -5.3070   29.1240 C   0  0  0  0  0  0  0  0  0  0  0  0
    4.7710   -4.6952   28.4803 C   0  0  0  0  0  0  0  0  0  0  0  0
    3.4047   -5.1087   28.1314 C   0  0  0  0  0  0  0  0  0  0  0  0
   -0.2234  -11.8615   16.8874 C   0  0  0  0  0  0  0  0  0  0  0  0
    6.4491   -4.1532   30.1213 C   0  0  0  0  0  0  0  0  0  0  0  0
    5.7060   -4.4340   27.4975 C   0  0  0  0  0  0  0  0  0  0  0  0
    1.1818   -5.6612   28.8399 C   0  0  0  0  0  0  0  0  0  0  0  0
   -1.2067   -7.3287   17.7772 C   0  0  0  0  0  0  0  0  0  0  0  0
   -0.0206  -10.5585   16.6210 C   0  0  0  0  0  0  0  0  0  0  0  0
    0.3696  -12.7626   16.2169 O   0  0  0  0  0  0  0  0  0  0  0  0
   -0.6895   -9.5676   17.3297 C   0  0  0  0  0  0  0  0  0  0  0  0
    0.8388   -5.8417   27.5264 C   0  0  0  0  0  0  0  0  0  0  0  0
   -2.0709   -7.6637   18.7817 C   0  0  0  0  0  0  0  0  0  0  0  0
   -0.5279   -8.2168   17.0717 C   0  0  0  0  0  0  0  0  0  0  0  0
    6.9694   -4.0191   27.8190 C   0  0  0  0  0  0  0  0  0  0  0  0
    5.1733   -4.5469   29.8123 C   0  0  0  0  0  0  0  0  0  0  0  0
   -1.7508  -11.3016   18.6072 C   0  0  0  0  0  0  0  0  0  0  0  0
    1.7497   -5.6771   26.4971 C   0  0  0  0  0  0  0  0  0  0  0  0
   -1.5799   -9.9322   18.3468 C   0  0  0  0  0  0  0  0  0  0  0  0
   -1.0871  -12.2214   17.8851 C   0  0  0  0  0  0  0  0  0  0  0  0
   -2.2706   -8.9669   19.0691 C   0  0  0  0  0  0  0  0  0  0  0  0
    3.0279   -5.3073   26.8197 C   0  0  0  0  0  0  0  0  0  0  0  0
    7.3282   -3.8948   29.1186 C   0  0  0  0  0  0  0  0  0  0  0  0
  1  3  4  0
  1  7  4  0
  2  3  1  0
  2  6  4  0
  2 16  4  0
  3 22  4  0
  4  9  4  0
  4 10  1  0
  4 20  4  0
  5 16  4  0
  5 23  4  0
  6 15  4  0
  7 12  4  0
  8 13  4  0
  8 14  4  0
  9 11  4  0
 11 14  4  0
 11 19  4  0
 12 18  4  0
 13 21  4  0
 15 23  4  0
 17 19  4  0
 17 20  4  0
 18 22  4  0
 19 21  4  0
M  END
$$$$

 Created by Python create_sdf_string function

 23 25  0  0  0  0  0  0  0  0999 V2000
    2.4610   -5.3070   29.1240 C   0  0  0  0  0  0  0  0  0  0  0  0
    4.7710   -4.6952   28.4803 C   0  0  0  0  0  0  0  0  0  0  0  0
    3.4047   -5.1087   28.1314 C   0  0  0  0  0  0  0  0  0  0  0  0
   -0.2234  -11.8615   16.8874 C   0  0  0  0  0  0  0  0  0  0  0  0
    6.4491   -4.1532   30.1213 C   0  0  0  0  0  0  0  0  0  0  0  0
    5.7060   -4.4340   27.4975 C   0  0  0  0  0  0  0  0  0  0  0  0
    1.1818   -5.6612   28.8399 C   0  0  0  0  0  0  0  0  0  0  0  0
   -1.2067   -7.3287   17.7772 C   0  0  0  0  0  0  0  0  0  0  0  0
   -0.0206  -10.5585   16.6210 C   0  0  0  0  0  0  0  0  0  0  0  0
    0.3696  -12.7626   16.2169 O   0  0  0  0  0  0  0  0  0  0  0  0
   -0.6895   -9.5676   17.3297 C   0  0  0  0  0  0  0  0  0  0  0  0
    0.8388   -5.8417   27.5264 C   0  0  0  0  0  0  0  0  0  0  0  0
   -2.0709   -7.6637   18.7817 C   0  0  0  0  0  0  0  0  0  0  0  0
   -0.5279   -8.2168   17.0717 C   0  0  0  0  0  0  0  0  0  0  0  0
    6.9694   -4.0191   27.8190 C   0  0  0  0  0  0  0  0  0  0  0  0
    5.1733   -4.5469   29.8123 C   0  0  0  0  0  0  0  0  0  0  0  0
   -1.7508  -11.3016   18.6072 C   0  0  0  0  0  0  0  0  0  0  0  0
    1.7497   -5.6771   26.4971 C   0  0  0  0  0  0  0  0  0  0  0  0
   -1.5799   -9.9322   18.3468 C   0  0  0  0  0  0  0  0  0  0  0  0
   -1.0871  -12.2214   17.8851 C   0  0  0  0  0  0  0  0  0  0  0  0
   -2.2706   -8.9669   19.0691 C   0  0  0  0  0  0  0  0  0  0  0  0
    3.0279   -5.3073   26.8197 C   0  0  0  0  0  0  0  0  0  0  0  0
    7.3282   -3.8948   29.1186 C   0  0  0  0  0  0  0  0  0  0  0  0
  1  3  4  0
  1  7  4  0
  2  3  1  0
  2  6  4  0
  2 16  4  0
  3 22  4  0
  4  9  4  0
  4 10  1  0
  4 20  4  0
  5 16  4  0
  5 23  4  0
  6 15  4  0
  7 12  4  0
  8 13  4  0
  8 14  4  0
  9 11  4  0
 11 14  4  0
 11 19  4  0
 12 18  4  0
 13 21  4  0
 15 23  4  0
 17 19  4  0
 17 20  4  0
 18 22  4  0
 19 21  4  0
M  END
$$$$

 Created by Python create_sdf_string function

 23 25  0  0  0  0  0  0  0  0999 V2000
    2.4610   -5.3070   29.1240 C   0  0  0  0  0  0  0  0  0  0  0  0
    4.7710   -4.6952   28.4803 C   0  0  0  0  0  0  0  0  0  0  0  0
    3.4047   -5.1087   28.1314 C   0  0  0  0  0  0  0  0  0  0  0  0
   -0.2234  -11.8615   16.8874 C   0  0  0  0  0  0  0  0  0  0  0  0
    6.4491   -4.1532   30.1213 C   0  0  0  0  0  0  0  0  0  0  0  0
    5.7060   -4.4340   27.4975 C   0  0  0  0  0  0  0  0  0  0  0  0
    1.1818   -5.6612   28.8399 C   0  0  0  0  0  0  0  0  0  0  0  0
   -1.2067   -7.3287   17.7772 C   0  0  0  0  0  0  0  0  0  0  0  0
   -0.0206  -10.5585   16.6210 C   0  0  0  0  0  0  0  0  0  0  0  0
    0.3696  -12.7626   16.2169 O   0  0  0  0  0  0  0  0  0  0  0  0
   -0.6895   -9.5676   17.3297 C   0  0  0  0  0  0  0  0  0  0  0  0
    0.8388   -5.8417   27.5264 C   0  0  0  0  0  0  0  0  0  0  0  0
   -2.0709   -7.6637   18.7817 C   0  0  0  0  0  0  0  0  0  0  0  0
   -0.5279   -8.2168   17.0717 C   0  0  0  0  0  0  0  0  0  0  0  0
    6.9694   -4.0191   27.8190 C   0  0  0  0  0  0  0  0  0  0  0  0
    5.1733   -4.5469   29.8123 C   0  0  0  0  0  0  0  0  0  0  0  0
   -1.7508  -11.3016   18.6072 C   0  0  0  0  0  0  0  0  0  0  0  0
    1.7497   -5.6771   26.4971 C   0  0  0  0  0  0  0  0  0  0  0  0
   -1.5799   -9.9322   18.3468 C   0  0  0  0  0  0  0  0  0  0  0  0
   -1.0871  -12.2214   17.8851 C   0  0  0  0  0  0  0  0  0  0  0  0
   -2.2706   -8.9669   19.0691 C   0  0  0  0  0  0  0  0  0  0  0  0
    3.0279   -5.3073   26.8197 C   0  0  0  0  0  0  0  0  0  0  0  0
    7.3282   -3.8948   29.1186 C   0  0  0  0  0  0  0  0  0  0  0  0
  1  3  4  0
  1  7  4  0
  2  3  1  0
  2  6  4  0
  2 16  4  0
  3 22  4  0
  4  9  4  0
  4 10  1  0
  4 20  4  0
  5 16  4  0
  5 23  4  0
  6 15  4  0
  7 12  4  0
  8 13  4  0
  8 14  4  0
  9 11  4  0
 11 14  4  0
 11 19  4  0
 12 18  4  0
 13 21  4  0
 15 23  4  0
 17 19  4  0
 17 20  4  0
 18 22  4  0
 19 21  4  0
M  END
$$$$

 Created by Python create_sdf_string function

 23 25  0  0  0  0  0  0  0  0999 V2000
    2.4610   -5.3070   29.1240 C   0  0  0  0  0  0  0  0  0  0  0  0
    4.7710   -4.6952   28.4803 C   0  0  0  0  0  0  0  0  0  0  0  0
    3.4047   -5.1087   28.1314 C   0  0  0  0  0  0  0  0  0  0  0  0
   -0.2234  -11.8615   16.8874 C   0  0  0  0  0  0  0  0  0  0  0  0
    6.4491   -4.1532   30.1213 C   0  0  0  0  0  0  0  0  0  0  0  0
    5.7060   -4.4340   27.4975 C   0  0  0  0  0  0  0  0  0  0  0  0
    1.1818   -5.6612   28.8399 C   0  0  0  0  0  0  0  0  0  0  0  0
   -1.2067   -7.3287   17.7772 C   0  0  0  0  0  0  0  0  0  0  0  0
   -0.0206  -10.5585   16.6210 C   0  0  0  0  0  0  0  0  0  0  0  0
    0.3696  -12.7626   16.2169 O   0  0  0  0  0  0  0  0  0  0  0  0
   -0.6895   -9.5676   17.3297 C   0  0  0  0  0  0  0  0  0  0  0  0
    0.8388   -5.8417   27.5264 C   0  0  0  0  0  0  0  0  0  0  0  0
   -2.0709   -7.6637   18.7817 C   0  0  0  0  0  0  0  0  0  0  0  0
   -0.5279   -8.2168   17.0717 C   0  0  0  0  0  0  0  0  0  0  0  0
    6.9694   -4.0191   27.8190 C   0  0  0  0  0  0  0  0  0  0  0  0
    5.1733   -4.5469   29.8123 C   0  0  0  0  0  0  0  0  0  0  0  0
   -1.7508  -11.3016   18.6072 C   0  0  0  0  0  0  0  0  0  0  0  0
    1.7497   -5.6771   26.4971 C   0  0  0  0  0  0  0  0  0  0  0  0
   -1.5799   -9.9322   18.3468 C   0  0  0  0  0  0  0  0  0  0  0  0
   -1.0871  -12.2214   17.8851 C   0  0  0  0  0  0  0  0  0  0  0  0
   -2.2706   -8.9669   19.0691 C   0  0  0  0  0  0  0  0  0  0  0  0
    3.0279   -5.3073   26.8197 C   0  0  0  0  0  0  0  0  0  0  0  0
    7.3282   -3.8948   29.1186 C   0  0  0  0  0  0  0  0  0  0  0  0
  1  3  4  0
  1  7  4  0
  2  3  1  0
  2  6  4  0
  2 16  4  0
  3 22  4  0
  4  9  4  0
  4 10  1  0
  4 20  4  0
  5 16  4  0
  5 23  4  0
  6 15  4  0
  7 12  4  0
  8 13  4  0
  8 14  4  0
  9 11  4  0
 11 14  4  0
 11 19  4  0
 12 18  4  0
 13 21  4  0
 15 23  4  0
 17 19  4  0
 17 20  4  0
 18 22  4  0
 19 21  4  0
M  END
$$$$

 Created by Python create_sdf_string function

 23 25  0  0  0  0  0  0  0  0999 V2000
    2.4610   -5.3070   29.1240 C   0  0  0  0  0  0  0  0  0  0  0  0
    4.7710   -4.6952   28.4803 C   0  0  0  0  0  0  0  0  0  0  0  0
    3.4047   -5.1087   28.1314 C   0  0  0  0  0  0  0  0  0  0  0  0
   -0.2234  -11.8615   16.8874 C   0  0  0  0  0  0  0  0  0  0  0  0
    6.4491   -4.1532   30.1213 C   0  0  0  0  0  0  0  0  0  0  0  0
    5.7060   -4.4340   27.4975 C   0  0  0  0  0  0  0  0  0  0  0  0
    1.1818   -5.6612   28.8399 C   0  0  0  0  0  0  0  0  0  0  0  0
   -1.2067   -7.3287   17.7772 C   0  0  0  0  0  0  0  0  0  0  0  0
   -0.0206  -10.5585   16.6210 C   0  0  0  0  0  0  0  0  0  0  0  0
    0.3696  -12.7626   16.2169 O   0  0  0  0  0  0  0  0  0  0  0  0
   -0.6895   -9.5676   17.3297 C   0  0  0  0  0  0  0  0  0  0  0  0
    0.8388   -5.8417   27.5264 C   0  0  0  0  0  0  0  0  0  0  0  0
   -2.0709   -7.6637   18.7817 C   0  0  0  0  0  0  0  0  0  0  0  0
   -0.5279   -8.2168   17.0717 C   0  0  0  0  0  0  0  0  0  0  0  0
    6.9694   -4.0191   27.8190 C   0  0  0  0  0  0  0  0  0  0  0  0
    5.1733   -4.5469   29.8123 C   0  0  0  0  0  0  0  0  0  0  0  0
   -1.7508  -11.3016   18.6072 C   0  0  0  0  0  0  0  0  0  0  0  0
    1.7497   -5.6771   26.4971 C   0  0  0  0  0  0  0  0  0  0  0  0
   -1.5799   -9.9322   18.3468 C   0  0  0  0  0  0  0  0  0  0  0  0
   -1.0871  -12.2214   17.8851 C   0  0  0  0  0  0  0  0  0  0  0  0
   -2.2706   -8.9669   19.0691 C   0  0  0  0  0  0  0  0  0  0  0  0
    3.0279   -5.3073   26.8197 C   0  0  0  0  0  0  0  0  0  0  0  0
    7.3282   -3.8948   29.1186 C   0  0  0  0  0  0  0  0  0  0  0  0
  1  3  4  0
  1  7  4  0
  2  3  1  0
  2  6  4  0
  2 16  4  0
  3 22  4  0
  4  9  4  0
  4 10  1  0
  4 20  4  0
  5 16  4  0
  5 23  4  0
  6 15  4  0
  7 12  4  0
  8 13  4  0
  8 14  4  0
  9 11  4  0
 11 14  4  0
 11 19  4  0
 12 18  4  0
 13 21  4  0
 15 23  4  0
 17 19  4  0
 17 20  4  0
 18 22  4  0
 19 21  4  0
M  END
$$$$

 Created by Python create_sdf_string function

 23 25  0  0  0  0  0  0  0  0999 V2000
    2.4610   -5.3070   29.1240 C   0  0  0  0  0  0  0  0  0  0  0  0
    4.7710   -4.6952   28.4803 C   0  0  0  0  0  0  0  0  0  0  0  0
    3.4047   -5.1087   28.1314 C   0  0  0  0  0  0  0  0  0  0  0  0
   -0.2234  -11.8615   16.8874 C   0  0  0  0  0  0  0  0  0  0  0  0
    6.4491   -4.1532   30.1213 C   0  0  0  0  0  0  0  0  0  0  0  0
    5.7060   -4.4340   27.4975 C   0  0  0  0  0  0  0  0  0  0  0  0
    1.1818   -5.6612   28.8399 C   0  0  0  0  0  0  0  0  0  0  0  0
   -1.2067   -7.3287   17.7772 C   0  0  0  0  0  0  0  0  0  0  0  0
   -0.0206  -10.5585   16.6210 C   0  0  0  0  0  0  0  0  0  0  0  0
    0.3696  -12.7626   16.2169 O   0  0  0  0  0  0  0  0  0  0  0  0
   -0.6895   -9.5676   17.3297 C   0  0  0  0  0  0  0  0  0  0  0  0
    0.8388   -5.8417   27.5264 C   0  0  0  0  0  0  0  0  0  0  0  0
   -2.0709   -7.6637   18.7817 C   0  0  0  0  0  0  0  0  0  0  0  0
   -0.5279   -8.2168   17.0717 C   0  0  0  0  0  0  0  0  0  0  0  0
    6.9694   -4.0191   27.8190 C   0  0  0  0  0  0  0  0  0  0  0  0
    5.1733   -4.5469   29.8123 C   0  0  0  0  0  0  0  0  0  0  0  0
   -1.7508  -11.3016   18.6072 C   0  0  0  0  0  0  0  0  0  0  0  0
    1.7497   -5.6771   26.4971 C   0  0  0  0  0  0  0  0  0  0  0  0
   -1.5799   -9.9322   18.3468 C   0  0  0  0  0  0  0  0  0  0  0  0
   -1.0871  -12.2214   17.8851 C   0  0  0  0  0  0  0  0  0  0  0  0
   -2.2706   -8.9669   19.0691 C   0  0  0  0  0  0  0  0  0  0  0  0
    3.0279   -5.3073   26.8197 C   0  0  0  0  0  0  0  0  0  0  0  0
    7.3282   -3.8948   29.1186 C   0  0  0  0  0  0  0  0  0  0  0  0
  1  3  4  0
  1  7  4  0
  2  3  1  0
  2  6  4  0
  2 16  4  0
  3 22  4  0
  4  9  4  0
  4 10  1  0
  4 20  4  0
  5 16  4  0
  5 23  4  0
  6 15  4  0
  7 12  4  0
  8 13  4  0
  8 14  4  0
  9 11  4  0
 11 14  4  0
 11 19  4  0
 12 18  4  0
 13 21  4  0
 15 23  4  0
 17 19  4  0
 17 20  4  0
 18 22  4  0
 19 21  4  0
M  END
$$$$

 Created by Python create_sdf_string function

 23 25  0  0  0  0  0  0  0  0999 V2000
    2.4610   -5.3070   29.1240 C   0  0  0  0  0  0  0  0  0  0  0  0
    4.7710   -4.6952   28.4803 C   0  0  0  0  0  0  0  0  0  0  0  0
    3.4047   -5.1087   28.1314 C   0  0  0  0  0  0  0  0  0  0  0  0
   -0.2234  -11.8615   16.8874 C   0  0  0  0  0  0  0  0  0  0  0  0
    6.4491   -4.1532   30.1213 C   0  0  0  0  0  0  0  0  0  0  0  0
    5.7060   -4.4340   27.4975 C   0  0  0  0  0  0  0  0  0  0  0  0
    1.1818   -5.6612   28.8399 C   0  0  0  0  0  0  0  0  0  0  0  0
   -1.2067   -7.3287   17.7772 C   0  0  0  0  0  0  0  0  0  0  0  0
   -0.0206  -10.5585   16.6210 C   0  0  0  0  0  0  0  0  0  0  0  0
    0.3696  -12.7626   16.2169 O   0  0  0  0  0  0  0  0  0  0  0  0
   -0.6895   -9.5676   17.3297 C   0  0  0  0  0  0  0  0  0  0  0  0
    0.8388   -5.8417   27.5264 C   0  0  0  0  0  0  0  0  0  0  0  0
   -2.0709   -7.6637   18.7817 C   0  0  0  0  0  0  0  0  0  0  0  0
   -0.5279   -8.2168   17.0717 C   0  0  0  0  0  0  0  0  0  0  0  0
    6.9694   -4.0191   27.8190 C   0  0  0  0  0  0  0  0  0  0  0  0
    5.1733   -4.5469   29.8123 C   0  0  0  0  0  0  0  0  0  0  0  0
   -1.7508  -11.3016   18.6072 C   0  0  0  0  0  0  0  0  0  0  0  0
    1.7497   -5.6771   26.4971 C   0  0  0  0  0  0  0  0  0  0  0  0
   -1.5799   -9.9322   18.3468 C   0  0  0  0  0  0  0  0  0  0  0  0
   -1.0871  -12.2214   17.8851 C   0  0  0  0  0  0  0  0  0  0  0  0
   -2.2706   -8.9669   19.0691 C   0  0  0  0  0  0  0  0  0  0  0  0
    3.0279   -5.3073   26.8197 C   0  0  0  0  0  0  0  0  0  0  0  0
    7.3282   -3.8948   29.1186 C   0  0  0  0  0  0  0  0  0  0  0  0
  1  3  4  0
  1  7  4  0
  2  3  1  0
  2  6  4  0
  2 16  4  0
  3 22  4  0
  4  9  4  0
  4 10  1  0
  4 20  4  0
  5 16  4  0
  5 23  4  0
  6 15  4  0
  7 12  4  0
  8 13  4  0
  8 14  4  0
  9 11  4  0
 11 14  4  0
 11 19  4  0
 12 18  4  0
 13 21  4  0
 15 23  4  0
 17 19  4  0
 17 20  4  0
 18 22  4  0
 19 21  4  0
M  END
$$$$

 Created by Python create_sdf_string function

 23 25  0  0  0  0  0  0  0  0999 V2000
    2.4610   -5.3070   29.1240 C   0  0  0  0  0  0  0  0  0  0  0  0
    4.7710   -4.6952   28.4803 C   0  0  0  0  0  0  0  0  0  0  0  0
    3.4047   -5.1087   28.1314 C   0  0  0  0  0  0  0  0  0  0  0  0
   -0.2234  -11.8615   16.8874 C   0  0  0  0  0  0  0  0  0  0  0  0
    6.4491   -4.1532   30.1213 C   0  0  0  0  0  0  0  0  0  0  0  0
    5.7060   -4.4340   27.4975 C   0  0  0  0  0  0  0  0  0  0  0  0
    1.1818   -5.6612   28.8399 C   0  0  0  0  0  0  0  0  0  0  0  0
   -1.2067   -7.3287   17.7772 C   0  0  0  0  0  0  0  0  0  0  0  0
   -0.0206  -10.5585   16.6210 C   0  0  0  0  0  0  0  0  0  0  0  0
    0.3696  -12.7626   16.2169 O   0  0  0  0  0  0  0  0  0  0  0  0
   -0.6895   -9.5676   17.3297 C   0  0  0  0  0  0  0  0  0  0  0  0
    0.8388   -5.8417   27.5264 C   0  0  0  0  0  0  0  0  0  0  0  0
   -2.0709   -7.6637   18.7817 C   0  0  0  0  0  0  0  0  0  0  0  0
   -0.5279   -8.2168   17.0717 C   0  0  0  0  0  0  0  0  0  0  0  0
    6.9694   -4.0191   27.8190 C   0  0  0  0  0  0  0  0  0  0  0  0
    5.1733   -4.5469   29.8123 C   0  0  0  0  0  0  0  0  0  0  0  0
   -1.7508  -11.3016   18.6072 C   0  0  0  0  0  0  0  0  0  0  0  0
    1.7497   -5.6771   26.4971 C   0  0  0  0  0  0  0  0  0  0  0  0
   -1.5799   -9.9322   18.3468 C   0  0  0  0  0  0  0  0  0  0  0  0
   -1.0871  -12.2214   17.8851 C   0  0  0  0  0  0  0  0  0  0  0  0
   -2.2706   -8.9669   19.0691 C   0  0  0  0  0  0  0  0  0  0  0  0
    3.0279   -5.3073   26.8197 C   0  0  0  0  0  0  0  0  0  0  0  0
    7.3282   -3.8948   29.1186 C   0  0  0  0  0  0  0  0  0  0  0  0
  1  3  4  0
  1  7  4  0
  2  3  1  0
  2  6  4  0
  2 16  4  0
  3 22  4  0
  4  9  4  0
  4 10  1  0
  4 20  4  0
  5 16  4  0
  5 23  4  0
  6 15  4  0
  7 12  4  0
  8 13  4  0
  8 14  4  0
  9 11  4  0
 11 14  4  0
 11 19  4  0
 12 18  4  0
 13 21  4  0
 15 23  4  0
 17 19  4  0
 17 20  4  0
 18 22  4  0
 19 21  4  0
M  END
$$$$

 Created by Python create_sdf_string function

 23 25  0  0  0  0  0  0  0  0999 V2000
    2.4610   -5.3070   29.1240 C   0  0  0  0  0  0  0  0  0  0  0  0
    4.7710   -4.6952   28.4803 C   0  0  0  0  0  0  0  0  0  0  0  0
    3.4047   -5.1087   28.1314 C   0  0  0  0  0  0  0  0  0  0  0  0
   -0.2234  -11.8615   16.8874 C   0  0  0  0  0  0  0  0  0  0  0  0
    6.4491   -4.1532   30.1213 C   0  0  0  0  0  0  0  0  0  0  0  0
    5.7060   -4.4340   27.4975 C   0  0  0  0  0  0  0  0  0  0  0  0
    1.1818   -5.6612   28.8399 C   0  0  0  0  0  0  0  0  0  0  0  0
   -1.2067   -7.3287   17.7772 C   0  0  0  0  0  0  0  0  0  0  0  0
   -0.0206  -10.5585   16.6210 C   0  0  0  0  0  0  0  0  0  0  0  0
    0.3696  -12.7626   16.2169 O   0  0  0  0  0  0  0  0  0  0  0  0
   -0.6895   -9.5676   17.3297 C   0  0  0  0  0  0  0  0  0  0  0  0
    0.8388   -5.8417   27.5264 C   0  0  0  0  0  0  0  0  0  0  0  0
   -2.0709   -7.6637   18.7817 C   0  0  0  0  0  0  0  0  0  0  0  0
   -0.5279   -8.2168   17.0717 C   0  0  0  0  0  0  0  0  0  0  0  0
    6.9694   -4.0191   27.8190 C   0  0  0  0  0  0  0  0  0  0  0  0
    5.1733   -4.5469   29.8123 C   0  0  0  0  0  0  0  0  0  0  0  0
   -1.7508  -11.3016   18.6072 C   0  0  0  0  0  0  0  0  0  0  0  0
    1.7497   -5.6771   26.4971 C   0  0  0  0  0  0  0  0  0  0  0  0
   -1.5799   -9.9322   18.3468 C   0  0  0  0  0  0  0  0  0  0  0  0
   -1.0871  -12.2214   17.8851 C   0  0  0  0  0  0  0  0  0  0  0  0
   -2.2706   -8.9669   19.0691 C   0  0  0  0  0  0  0  0  0  0  0  0
    3.0279   -5.3073   26.8197 C   0  0  0  0  0  0  0  0  0  0  0  0
    7.3282   -3.8948   29.1186 C   0  0  0  0  0  0  0  0  0  0  0  0
  1  3  4  0
  1  7  4  0
  2  3  1  0
  2  6  4  0
  2 16  4  0
  3 22  4  0
  4  9  4  0
  4 10  1  0
  4 20  4  0
  5 16  4  0
  5 23  4  0
  6 15  4  0
  7 12  4  0
  8 13  4  0
  8 14  4  0
  9 11  4  0
 11 14  4  0
 11 19  4  0
 12 18  4  0
 13 21  4  0
 15 23  4  0
 17 19  4  0
 17 20  4  0
 18 22  4  0
 19 21  4  0
M  END
$$$$

 Created by Python create_sdf_string function

 23 25  0  0  0  0  0  0  0  0999 V2000
    2.4610   -5.3070   29.1240 C   0  0  0  0  0  0  0  0  0  0  0  0
    4.7710   -4.6952   28.4803 C   0  0  0  0  0  0  0  0  0  0  0  0
    3.4047   -5.1087   28.1314 C   0  0  0  0  0  0  0  0  0  0  0  0
   -0.2234  -11.8615   16.8874 C   0  0  0  0  0  0  0  0  0  0  0  0
    6.4491   -4.1532   30.1213 C   0  0  0  0  0  0  0  0  0  0  0  0
    5.7060   -4.4340   27.4975 C   0  0  0  0  0  0  0  0  0  0  0  0
    1.1818   -5.6612   28.8399 C   0  0  0  0  0  0  0  0  0  0  0  0
   -1.2067   -7.3287   17.7772 C   0  0  0  0  0  0  0  0  0  0  0  0
   -0.0206  -10.5585   16.6210 C   0  0  0  0  0  0  0  0  0  0  0  0
    0.3696  -12.7626   16.2169 O   0  0  0  0  0  0  0  0  0  0  0  0
   -0.6895   -9.5676   17.3297 C   0  0  0  0  0  0  0  0  0  0  0  0
    0.8388   -5.8417   27.5264 C   0  0  0  0  0  0  0  0  0  0  0  0
   -2.0709   -7.6637   18.7817 C   0  0  0  0  0  0  0  0  0  0  0  0
   -0.5279   -8.2168   17.0717 C   0  0  0  0  0  0  0  0  0  0  0  0
    6.9694   -4.0191   27.8190 C   0  0  0  0  0  0  0  0  0  0  0  0
    5.1733   -4.5469   29.8123 C   0  0  0  0  0  0  0  0  0  0  0  0
   -1.7508  -11.3016   18.6072 C   0  0  0  0  0  0  0  0  0  0  0  0
    1.7497   -5.6771   26.4971 C   0  0  0  0  0  0  0  0  0  0  0  0
   -1.5799   -9.9322   18.3468 C   0  0  0  0  0  0  0  0  0  0  0  0
   -1.0871  -12.2214   17.8851 C   0  0  0  0  0  0  0  0  0  0  0  0
   -2.2706   -8.9669   19.0691 C   0  0  0  0  0  0  0  0  0  0  0  0
    3.0279   -5.3073   26.8197 C   0  0  0  0  0  0  0  0  0  0  0  0
    7.3282   -3.8948   29.1186 C   0  0  0  0  0  0  0  0  0  0  0  0
  1  3  4  0
  1  7  4  0
  2  3  1  0
  2  6  4  0
  2 16  4  0
  3 22  4  0
  4  9  4  0
  4 10  1  0
  4 20  4  0
  5 16  4  0
  5 23  4  0
  6 15  4  0
  7 12  4  0
  8 13  4  0
  8 14  4  0
  9 11  4  0
 11 14  4  0
 11 19  4  0
 12 18  4  0
 13 21  4  0
 15 23  4  0
 17 19  4  0
 17 20  4  0
 18 22  4  0
 19 21  4  0
M  END
$$$$

 Created by Python create_sdf_string function

 23 25  0  0  0  0  0  0  0  0999 V2000
    2.4610   -5.3070   29.1240 C   0  0  0  0  0  0  0  0  0  0  0  0
    4.7710   -4.6952   28.4803 C   0  0  0  0  0  0  0  0  0  0  0  0
    3.4047   -5.1087   28.1314 C   0  0  0  0  0  0  0  0  0  0  0  0
   -0.2234  -11.8615   16.8874 C   0  0  0  0  0  0  0  0  0  0  0  0
    6.4491   -4.1532   30.1213 C   0  0  0  0  0  0  0  0  0  0  0  0
    5.7060   -4.4340   27.4975 C   0  0  0  0  0  0  0  0  0  0  0  0
    1.1818   -5.6612   28.8399 C   0  0  0  0  0  0  0  0  0  0  0  0
   -1.2067   -7.3287   17.7772 C   0  0  0  0  0  0  0  0  0  0  0  0
   -0.0206  -10.5585   16.6210 C   0  0  0  0  0  0  0  0  0  0  0  0
    0.3696  -12.7626   16.2169 O   0  0  0  0  0  0  0  0  0  0  0  0
   -0.6895   -9.5676   17.3297 C   0  0  0  0  0  0  0  0  0  0  0  0
    0.8388   -5.8417   27.5264 C   0  0  0  0  0  0  0  0  0  0  0  0
   -2.0709   -7.6637   18.7817 C   0  0  0  0  0  0  0  0  0  0  0  0
   -0.5279   -8.2168   17.0717 C   0  0  0  0  0  0  0  0  0  0  0  0
    6.9694   -4.0191   27.8190 C   0  0  0  0  0  0  0  0  0  0  0  0
    5.1733   -4.5469   29.8123 C   0  0  0  0  0  0  0  0  0  0  0  0
   -1.7508  -11.3016   18.6072 C   0  0  0  0  0  0  0  0  0  0  0  0
    1.7497   -5.6771   26.4971 C   0  0  0  0  0  0  0  0  0  0  0  0
   -1.5799   -9.9322   18.3468 C   0  0  0  0  0  0  0  0  0  0  0  0
   -1.0871  -12.2214   17.8851 C   0  0  0  0  0  0  0  0  0  0  0  0
   -2.2706   -8.9669   19.0691 C   0  0  0  0  0  0  0  0  0  0  0  0
    3.0279   -5.3073   26.8197 C   0  0  0  0  0  0  0  0  0  0  0  0
    7.3282   -3.8948   29.1186 C   0  0  0  0  0  0  0  0  0  0  0  0
  1  3  4  0
  1  7  4  0
  2  3  1  0
  2  6  4  0
  2 16  4  0
  3 22  4  0
  4  9  4  0
  4 10  1  0
  4 20  4  0
  5 16  4  0
  5 23  4  0
  6 15  4  0
  7 12  4  0
  8 13  4  0
  8 14  4  0
  9 11  4  0
 11 14  4  0
 11 19  4  0
 12 18  4  0
 13 21  4  0
 15 23  4  0
 17 19  4  0
 17 20  4  0
 18 22  4  0
 19 21  4  0
M  END
$$$$

 Created by Python create_sdf_string function

 23 25  0  0  0  0  0  0  0  0999 V2000
    2.4610   -5.3070   29.1240 C   0  0  0  0  0  0  0  0  0  0  0  0
    4.7710   -4.6952   28.4803 C   0  0  0  0  0  0  0  0  0  0  0  0
    3.4047   -5.1087   28.1314 C   0  0  0  0  0  0  0  0  0  0  0  0
   -0.2234  -11.8615   16.8874 C   0  0  0  0  0  0  0  0  0  0  0  0
    6.4491   -4.1532   30.1213 C   0  0  0  0  0  0  0  0  0  0  0  0
    5.7060   -4.4340   27.4975 C   0  0  0  0  0  0  0  0  0  0  0  0
    1.1818   -5.6612   28.8399 C   0  0  0  0  0  0  0  0  0  0  0  0
   -1.2067   -7.3287   17.7772 C   0  0  0  0  0  0  0  0  0  0  0  0
   -0.0206  -10.5585   16.6210 C   0  0  0  0  0  0  0  0  0  0  0  0
    0.3696  -12.7626   16.2169 O   0  0  0  0  0  0  0  0  0  0  0  0
   -0.6895   -9.5676   17.3297 C   0  0  0  0  0  0  0  0  0  0  0  0
    0.8388   -5.8417   27.5264 C   0  0  0  0  0  0  0  0  0  0  0  0
   -2.0709   -7.6637   18.7817 C   0  0  0  0  0  0  0  0  0  0  0  0
   -0.5279   -8.2168   17.0717 C   0  0  0  0  0  0  0  0  0  0  0  0
    6.9694   -4.0191   27.8190 C   0  0  0  0  0  0  0  0  0  0  0  0
    5.1733   -4.5469   29.8123 C   0  0  0  0  0  0  0  0  0  0  0  0
   -1.7508  -11.3016   18.6072 C   0  0  0  0  0  0  0  0  0  0  0  0
    1.7497   -5.6771   26.4971 C   0  0  0  0  0  0  0  0  0  0  0  0
   -1.5799   -9.9322   18.3468 C   0  0  0  0  0  0  0  0  0  0  0  0
   -1.0871  -12.2214   17.8851 C   0  0  0  0  0  0  0  0  0  0  0  0
   -2.2706   -8.9669   19.0691 C   0  0  0  0  0  0  0  0  0  0  0  0
    3.0279   -5.3073   26.8197 C   0  0  0  0  0  0  0  0  0  0  0  0
    7.3282   -3.8948   29.1186 C   0  0  0  0  0  0  0  0  0  0  0  0
  1  3  4  0
  1  7  4  0
  2  3  1  0
  2  6  4  0
  2 16  4  0
  3 22  4  0
  4  9  4  0
  4 10  1  0
  4 20  4  0
  5 16  4  0
  5 23  4  0
  6 15  4  0
  7 12  4  0
  8 13  4  0
  8 14  4  0
  9 11  4  0
 11 14  4  0
 11 19  4  0
 12 18  4  0
 13 21  4  0
 15 23  4  0
 17 19  4  0
 17 20  4  0
 18 22  4  0
 19 21  4  0
M  END
$$$$

 Created by Python create_sdf_string function

 23 25  0  0  0  0  0  0  0  0999 V2000
    2.4610   -5.3070   29.1240 C   0  0  0  0  0  0  0  0  0  0  0  0
    4.7710   -4.6952   28.4803 C   0  0  0  0  0  0  0  0  0  0  0  0
    3.4047   -5.1087   28.1314 C   0  0  0  0  0  0  0  0  0  0  0  0
   -0.2234  -11.8615   16.8874 C   0  0  0  0  0  0  0  0  0  0  0  0
    6.4491   -4.1532   30.1213 C   0  0  0  0  0  0  0  0  0  0  0  0
    5.7060   -4.4340   27.4975 C   0  0  0  0  0  0  0  0  0  0  0  0
    1.1818   -5.6612   28.8399 C   0  0  0  0  0  0  0  0  0  0  0  0
   -1.2067   -7.3287   17.7772 C   0  0  0  0  0  0  0  0  0  0  0  0
   -0.0206  -10.5585   16.6210 C   0  0  0  0  0  0  0  0  0  0  0  0
    0.3696  -12.7626   16.2169 O   0  0  0  0  0  0  0  0  0  0  0  0
   -0.6895   -9.5676   17.3297 C   0  0  0  0  0  0  0  0  0  0  0  0
    0.8388   -5.8417   27.5264 C   0  0  0  0  0  0  0  0  0  0  0  0
   -2.0709   -7.6637   18.7817 C   0  0  0  0  0  0  0  0  0  0  0  0
   -0.5279   -8.2168   17.0717 C   0  0  0  0  0  0  0  0  0  0  0  0
    6.9694   -4.0191   27.8190 C   0  0  0  0  0  0  0  0  0  0  0  0
    5.1733   -4.5469   29.8123 C   0  0  0  0  0  0  0  0  0  0  0  0
   -1.7508  -11.3016   18.6072 C   0  0  0  0  0  0  0  0  0  0  0  0
    1.7497   -5.6771   26.4971 C   0  0  0  0  0  0  0  0  0  0  0  0
   -1.5799   -9.9322   18.3468 C   0  0  0  0  0  0  0  0  0  0  0  0
   -1.0871  -12.2214   17.8851 C   0  0  0  0  0  0  0  0  0  0  0  0
   -2.2706   -8.9669   19.0691 C   0  0  0  0  0  0  0  0  0  0  0  0
    3.0279   -5.3073   26.8197 C   0  0  0  0  0  0  0  0  0  0  0  0
    7.3282   -3.8948   29.1186 C   0  0  0  0  0  0  0  0  0  0  0  0
  1  3  4  0
  1  7  4  0
  2  3  1  0
  2  6  4  0
  2 16  4  0
  3 22  4  0
  4  9  4  0
  4 10  1  0
  4 20  4  0
  5 16  4  0
  5 23  4  0
  6 15  4  0
  7 12  4  0
  8 13  4  0
  8 14  4  0
  9 11  4  0
 11 14  4  0
 11 19  4  0
 12 18  4  0
 13 21  4  0
 15 23  4  0
 17 19  4  0
 17 20  4  0
 18 22  4  0
 19 21  4  0
M  END
$$$$

 Created by Python create_sdf_string function

 23 25  0  0  0  0  0  0  0  0999 V2000
    2.4610   -5.3070   29.1240 C   0  0  0  0  0  0  0  0  0  0  0  0
    4.7710   -4.6952   28.4803 C   0  0  0  0  0  0  0  0  0  0  0  0
    3.4047   -5.1087   28.1314 C   0  0  0  0  0  0  0  0  0  0  0  0
   -0.2234  -11.8615   16.8874 C   0  0  0  0  0  0  0  0  0  0  0  0
    6.4491   -4.1532   30.1213 C   0  0  0  0  0  0  0  0  0  0  0  0
    5.7060   -4.4340   27.4975 C   0  0  0  0  0  0  0  0  0  0  0  0
    1.1818   -5.6612   28.8399 C   0  0  0  0  0  0  0  0  0  0  0  0
   -1.2067   -7.3287   17.7772 C   0  0  0  0  0  0  0  0  0  0  0  0
   -0.0206  -10.5585   16.6210 C   0  0  0  0  0  0  0  0  0  0  0  0
    0.3696  -12.7626   16.2169 O   0  0  0  0  0  0  0  0  0  0  0  0
   -0.6895   -9.5676   17.3297 C   0  0  0  0  0  0  0  0  0  0  0  0
    0.8388   -5.8417   27.5264 C   0  0  0  0  0  0  0  0  0  0  0  0
   -2.0709   -7.6637   18.7817 C   0  0  0  0  0  0  0  0  0  0  0  0
   -0.5279   -8.2168   17.0717 C   0  0  0  0  0  0  0  0  0  0  0  0
    6.9694   -4.0191   27.8190 C   0  0  0  0  0  0  0  0  0  0  0  0
    5.1733   -4.5469   29.8123 C   0  0  0  0  0  0  0  0  0  0  0  0
   -1.7508  -11.3016   18.6072 C   0  0  0  0  0  0  0  0  0  0  0  0
    1.7497   -5.6771   26.4971 C   0  0  0  0  0  0  0  0  0  0  0  0
   -1.5799   -9.9322   18.3468 C   0  0  0  0  0  0  0  0  0  0  0  0
   -1.0871  -12.2214   17.8851 C   0  0  0  0  0  0  0  0  0  0  0  0
   -2.2706   -8.9669   19.0691 C   0  0  0  0  0  0  0  0  0  0  0  0
    3.0279   -5.3073   26.8197 C   0  0  0  0  0  0  0  0  0  0  0  0
    7.3282   -3.8948   29.1186 C   0  0  0  0  0  0  0  0  0  0  0  0
  1  3  4  0
  1  7  4  0
  2  3  1  0
  2  6  4  0
  2 16  4  0
  3 22  4  0
  4  9  4  0
  4 10  1  0
  4 20  4  0
  5 16  4  0
  5 23  4  0
  6 15  4  0
  7 12  4  0
  8 13  4  0
  8 14  4  0
  9 11  4  0
 11 14  4  0
 11 19  4  0
 12 18  4  0
 13 21  4  0
 15 23  4  0
 17 19  4  0
 17 20  4  0
 18 22  4  0
 19 21  4  0
M  END
$$$$

 Created by Python create_sdf_string function

 23 25  0  0  0  0  0  0  0  0999 V2000
    2.4610   -5.3070   29.1240 C   0  0  0  0  0  0  0  0  0  0  0  0
    4.7710   -4.6952   28.4803 C   0  0  0  0  0  0  0  0  0  0  0  0
    3.4047   -5.1087   28.1314 C   0  0  0  0  0  0  0  0  0  0  0  0
   -0.2234  -11.8615   16.8874 C   0  0  0  0  0  0  0  0  0  0  0  0
    6.4491   -4.1532   30.1213 C   0  0  0  0  0  0  0  0  0  0  0  0
    5.7060   -4.4340   27.4975 C   0  0  0  0  0  0  0  0  0  0  0  0
    1.1818   -5.6612   28.8399 C   0  0  0  0  0  0  0  0  0  0  0  0
   -1.2067   -7.3287   17.7772 C   0  0  0  0  0  0  0  0  0  0  0  0
   -0.0206  -10.5585   16.6210 C   0  0  0  0  0  0  0  0  0  0  0  0
    0.3696  -12.7626   16.2169 O   0  0  0  0  0  0  0  0  0  0  0  0
   -0.6895   -9.5676   17.3297 C   0  0  0  0  0  0  0  0  0  0  0  0
    0.8388   -5.8417   27.5264 C   0  0  0  0  0  0  0  0  0  0  0  0
   -2.0709   -7.6637   18.7817 C   0  0  0  0  0  0  0  0  0  0  0  0
   -0.5279   -8.2168   17.0717 C   0  0  0  0  0  0  0  0  0  0  0  0
    6.9694   -4.0191   27.8190 C   0  0  0  0  0  0  0  0  0  0  0  0
    5.1733   -4.5469   29.8123 C   0  0  0  0  0  0  0  0  0  0  0  0
   -1.7508  -11.3016   18.6072 C   0  0  0  0  0  0  0  0  0  0  0  0
    1.7497   -5.6771   26.4971 C   0  0  0  0  0  0  0  0  0  0  0  0
   -1.5799   -9.9322   18.3468 C   0  0  0  0  0  0  0  0  0  0  0  0
   -1.0871  -12.2214   17.8851 C   0  0  0  0  0  0  0  0  0  0  0  0
   -2.2706   -8.9669   19.0691 C   0  0  0  0  0  0  0  0  0  0  0  0
    3.0279   -5.3073   26.8197 C   0  0  0  0  0  0  0  0  0  0  0  0
    7.3282   -3.8948   29.1186 C   0  0  0  0  0  0  0  0  0  0  0  0
  1  3  4  0
  1  7  4  0
  2  3  1  0
  2  6  4  0
  2 16  4  0
  3 22  4  0
  4  9  4  0
  4 10  1  0
  4 20  4  0
  5 16  4  0
  5 23  4  0
  6 15  4  0
  7 12  4  0
  8 13  4  0
  8 14  4  0
  9 11  4  0
 11 14  4  0
 11 19  4  0
 12 18  4  0
 13 21  4  0
 15 23  4  0
 17 19  4  0
 17 20  4  0
 18 22  4  0
 19 21  4  0
M  END
$$$$

 Created by Python create_sdf_string function

 23 25  0  0  0  0  0  0  0  0999 V2000
    2.4610   -5.3070   29.1240 C   0  0  0  0  0  0  0  0  0  0  0  0
    4.7710   -4.6952   28.4803 C   0  0  0  0  0  0  0  0  0  0  0  0
    3.4047   -5.1087   28.1314 C   0  0  0  0  0  0  0  0  0  0  0  0
   -0.2234  -11.8615   16.8874 C   0  0  0  0  0  0  0  0  0  0  0  0
    6.4491   -4.1532   30.1213 C   0  0  0  0  0  0  0  0  0  0  0  0
    5.7060   -4.4340   27.4975 C   0  0  0  0  0  0  0  0  0  0  0  0
    1.1818   -5.6612   28.8399 C   0  0  0  0  0  0  0  0  0  0  0  0
   -1.2067   -7.3287   17.7772 C   0  0  0  0  0  0  0  0  0  0  0  0
   -0.0206  -10.5585   16.6210 C   0  0  0  0  0  0  0  0  0  0  0  0
    0.3696  -12.7626   16.2169 O   0  0  0  0  0  0  0  0  0  0  0  0
   -0.6895   -9.5676   17.3297 C   0  0  0  0  0  0  0  0  0  0  0  0
    0.8388   -5.8417   27.5264 C   0  0  0  0  0  0  0  0  0  0  0  0
   -2.0709   -7.6637   18.7817 C   0  0  0  0  0  0  0  0  0  0  0  0
   -0.5279   -8.2168   17.0717 C   0  0  0  0  0  0  0  0  0  0  0  0
    6.9694   -4.0191   27.8190 C   0  0  0  0  0  0  0  0  0  0  0  0
    5.1733   -4.5469   29.8123 C   0  0  0  0  0  0  0  0  0  0  0  0
   -1.7508  -11.3016   18.6072 C   0  0  0  0  0  0  0  0  0  0  0  0
    1.7497   -5.6771   26.4971 C   0  0  0  0  0  0  0  0  0  0  0  0
   -1.5799   -9.9322   18.3468 C   0  0  0  0  0  0  0  0  0  0  0  0
   -1.0871  -12.2214   17.8851 C   0  0  0  0  0  0  0  0  0  0  0  0
   -2.2706   -8.9669   19.0691 C   0  0  0  0  0  0  0  0  0  0  0  0
    3.0279   -5.3073   26.8197 C   0  0  0  0  0  0  0  0  0  0  0  0
    7.3282   -3.8948   29.1186 C   0  0  0  0  0  0  0  0  0  0  0  0
  1  3  4  0
  1  7  4  0
  2  3  1  0
  2  6  4  0
  2 16  4  0
  3 22  4  0
  4  9  4  0
  4 10  1  0
  4 20  4  0
  5 16  4  0
  5 23  4  0
  6 15  4  0
  7 12  4  0
  8 13  4  0
  8 14  4  0
  9 11  4  0
 11 14  4  0
 11 19  4  0
 12 18  4  0
 13 21  4  0
 15 23  4  0
 17 19  4  0
 17 20  4  0
 18 22  4  0
 19 21  4  0
M  END
$$$$

 Created by Python create_sdf_string function

 23 25  0  0  0  0  0  0  0  0999 V2000
    2.4610   -5.3070   29.1240 C   0  0  0  0  0  0  0  0  0  0  0  0
    4.7710   -4.6952   28.4803 C   0  0  0  0  0  0  0  0  0  0  0  0
    3.4047   -5.1087   28.1314 C   0  0  0  0  0  0  0  0  0  0  0  0
   -0.2234  -11.8615   16.8874 C   0  0  0  0  0  0  0  0  0  0  0  0
    6.4491   -4.1532   30.1213 C   0  0  0  0  0  0  0  0  0  0  0  0
    5.7060   -4.4340   27.4975 C   0  0  0  0  0  0  0  0  0  0  0  0
    1.1818   -5.6612   28.8399 C   0  0  0  0  0  0  0  0  0  0  0  0
   -1.2067   -7.3287   17.7772 C   0  0  0  0  0  0  0  0  0  0  0  0
   -0.0206  -10.5585   16.6210 C   0  0  0  0  0  0  0  0  0  0  0  0
    0.3696  -12.7626   16.2169 O   0  0  0  0  0  0  0  0  0  0  0  0
   -0.6895   -9.5676   17.3297 C   0  0  0  0  0  0  0  0  0  0  0  0
    0.8388   -5.8417   27.5264 C   0  0  0  0  0  0  0  0  0  0  0  0
   -2.0709   -7.6637   18.7817 C   0  0  0  0  0  0  0  0  0  0  0  0
   -0.5279   -8.2168   17.0717 C   0  0  0  0  0  0  0  0  0  0  0  0
    6.9694   -4.0191   27.8190 C   0  0  0  0  0  0  0  0  0  0  0  0
    5.1733   -4.5469   29.8123 C   0  0  0  0  0  0  0  0  0  0  0  0
   -1.7508  -11.3016   18.6072 C   0  0  0  0  0  0  0  0  0  0  0  0
    1.7497   -5.6771   26.4971 C   0  0  0  0  0  0  0  0  0  0  0  0
   -1.5799   -9.9322   18.3468 C   0  0  0  0  0  0  0  0  0  0  0  0
   -1.0871  -12.2214   17.8851 C   0  0  0  0  0  0  0  0  0  0  0  0
   -2.2706   -8.9669   19.0691 C   0  0  0  0  0  0  0  0  0  0  0  0
    3.0279   -5.3073   26.8197 C   0  0  0  0  0  0  0  0  0  0  0  0
    7.3282   -3.8948   29.1186 C   0  0  0  0  0  0  0  0  0  0  0  0
  1  3  4  0
  1  7  4  0
  2  3  1  0
  2  6  4  0
  2 16  4  0
  3 22  4  0
  4  9  4  0
  4 10  1  0
  4 20  4  0
  5 16  4  0
  5 23  4  0
  6 15  4  0
  7 12  4  0
  8 13  4  0
  8 14  4  0
  9 11  4  0
 11 14  4  0
 11 19  4  0
 12 18  4  0
 13 21  4  0
 15 23  4  0
 17 19  4  0
 17 20  4  0
 18 22  4  0
 19 21  4  0
M  END
$$$$

 Created by Python create_sdf_string function

 23 25  0  0  0  0  0  0  0  0999 V2000
    2.4610   -5.3070   29.1240 C   0  0  0  0  0  0  0  0  0  0  0  0
    4.7710   -4.6952   28.4803 C   0  0  0  0  0  0  0  0  0  0  0  0
    3.4047   -5.1087   28.1314 C   0  0  0  0  0  0  0  0  0  0  0  0
   -0.2234  -11.8615   16.8874 C   0  0  0  0  0  0  0  0  0  0  0  0
    6.4491   -4.1532   30.1213 C   0  0  0  0  0  0  0  0  0  0  0  0
    5.7060   -4.4340   27.4975 C   0  0  0  0  0  0  0  0  0  0  0  0
    1.1818   -5.6612   28.8399 C   0  0  0  0  0  0  0  0  0  0  0  0
   -1.2067   -7.3287   17.7772 C   0  0  0  0  0  0  0  0  0  0  0  0
   -0.0206  -10.5585   16.6210 C   0  0  0  0  0  0  0  0  0  0  0  0
    0.3696  -12.7626   16.2169 O   0  0  0  0  0  0  0  0  0  0  0  0
   -0.6895   -9.5676   17.3297 C   0  0  0  0  0  0  0  0  0  0  0  0
    0.8388   -5.8417   27.5264 C   0  0  0  0  0  0  0  0  0  0  0  0
   -2.0709   -7.6637   18.7817 C   0  0  0  0  0  0  0  0  0  0  0  0
   -0.5279   -8.2168   17.0717 C   0  0  0  0  0  0  0  0  0  0  0  0
    6.9694   -4.0191   27.8190 C   0  0  0  0  0  0  0  0  0  0  0  0
    5.1733   -4.5469   29.8123 C   0  0  0  0  0  0  0  0  0  0  0  0
   -1.7508  -11.3016   18.6072 C   0  0  0  0  0  0  0  0  0  0  0  0
    1.7497   -5.6771   26.4971 C   0  0  0  0  0  0  0  0  0  0  0  0
   -1.5799   -9.9322   18.3468 C   0  0  0  0  0  0  0  0  0  0  0  0
   -1.0871  -12.2214   17.8851 C   0  0  0  0  0  0  0  0  0  0  0  0
   -2.2706   -8.9669   19.0691 C   0  0  0  0  0  0  0  0  0  0  0  0
    3.0279   -5.3073   26.8197 C   0  0  0  0  0  0  0  0  0  0  0  0
    7.3282   -3.8948   29.1186 C   0  0  0  0  0  0  0  0  0  0  0  0
  1  3  4  0
  1  7  4  0
  2  3  1  0
  2  6  4  0
  2 16  4  0
  3 22  4  0
  4  9  4  0
  4 10  1  0
  4 20  4  0
  5 16  4  0
  5 23  4  0
  6 15  4  0
  7 12  4  0
  8 13  4  0
  8 14  4  0
  9 11  4  0
 11 14  4  0
 11 19  4  0
 12 18  4  0
 13 21  4  0
 15 23  4  0
 17 19  4  0
 17 20  4  0
 18 22  4  0
 19 21  4  0
M  END
$$$$

 Created by Python create_sdf_string function

 23 25  0  0  0  0  0  0  0  0999 V2000
    2.4610   -5.3070   29.1240 C   0  0  0  0  0  0  0  0  0  0  0  0
    4.7710   -4.6952   28.4803 C   0  0  0  0  0  0  0  0  0  0  0  0
    3.4047   -5.1087   28.1314 C   0  0  0  0  0  0  0  0  0  0  0  0
   -0.2234  -11.8615   16.8874 C   0  0  0  0  0  0  0  0  0  0  0  0
    6.4491   -4.1532   30.1213 C   0  0  0  0  0  0  0  0  0  0  0  0
    5.7060   -4.4340   27.4975 C   0  0  0  0  0  0  0  0  0  0  0  0
    1.1818   -5.6612   28.8399 C   0  0  0  0  0  0  0  0  0  0  0  0
   -1.2067   -7.3287   17.7772 C   0  0  0  0  0  0  0  0  0  0  0  0
   -0.0206  -10.5585   16.6210 C   0  0  0  0  0  0  0  0  0  0  0  0
    0.3696  -12.7626   16.2169 O   0  0  0  0  0  0  0  0  0  0  0  0
   -0.6895   -9.5676   17.3297 C   0  0  0  0  0  0  0  0  0  0  0  0
    0.8388   -5.8417   27.5264 C   0  0  0  0  0  0  0  0  0  0  0  0
   -2.0709   -7.6637   18.7817 C   0  0  0  0  0  0  0  0  0  0  0  0
   -0.5279   -8.2168   17.0717 C   0  0  0  0  0  0  0  0  0  0  0  0
    6.9694   -4.0191   27.8190 C   0  0  0  0  0  0  0  0  0  0  0  0
    5.1733   -4.5469   29.8123 C   0  0  0  0  0  0  0  0  0  0  0  0
   -1.7508  -11.3016   18.6072 C   0  0  0  0  0  0  0  0  0  0  0  0
    1.7497   -5.6771   26.4971 C   0  0  0  0  0  0  0  0  0  0  0  0
   -1.5799   -9.9322   18.3468 C   0  0  0  0  0  0  0  0  0  0  0  0
   -1.0871  -12.2214   17.8851 C   0  0  0  0  0  0  0  0  0  0  0  0
   -2.2706   -8.9669   19.0691 C   0  0  0  0  0  0  0  0  0  0  0  0
    3.0279   -5.3073   26.8197 C   0  0  0  0  0  0  0  0  0  0  0  0
    7.3282   -3.8948   29.1186 C   0  0  0  0  0  0  0  0  0  0  0  0
  1  3  4  0
  1  7  4  0
  2  3  1  0
  2  6  4  0
  2 16  4  0
  3 22  4  0
  4  9  4  0
  4 10  1  0
  4 20  4  0
  5 16  4  0
  5 23  4  0
  6 15  4  0
  7 12  4  0
  8 13  4  0
  8 14  4  0
  9 11  4  0
 11 14  4  0
 11 19  4  0
 12 18  4  0
 13 21  4  0
 15 23  4  0
 17 19  4  0
 17 20  4  0
 18 22  4  0
 19 21  4  0
M  END
$$$$

 Created by Python create_sdf_string function

 23 25  0  0  0  0  0  0  0  0999 V2000
    2.4610   -5.3070   29.1240 C   0  0  0  0  0  0  0  0  0  0  0  0
    4.7710   -4.6952   28.4803 C   0  0  0  0  0  0  0  0  0  0  0  0
    3.4047   -5.1087   28.1314 C   0  0  0  0  0  0  0  0  0  0  0  0
   -0.2234  -11.8615   16.8874 C   0  0  0  0  0  0  0  0  0  0  0  0
    6.4491   -4.1532   30.1213 C   0  0  0  0  0  0  0  0  0  0  0  0
    5.7060   -4.4340   27.4975 C   0  0  0  0  0  0  0  0  0  0  0  0
    1.1818   -5.6612   28.8399 C   0  0  0  0  0  0  0  0  0  0  0  0
   -1.2067   -7.3287   17.7772 C   0  0  0  0  0  0  0  0  0  0  0  0
   -0.0206  -10.5585   16.6210 C   0  0  0  0  0  0  0  0  0  0  0  0
    0.3696  -12.7626   16.2169 O   0  0  0  0  0  0  0  0  0  0  0  0
   -0.6895   -9.5676   17.3297 C   0  0  0  0  0  0  0  0  0  0  0  0
    0.8388   -5.8417   27.5264 C   0  0  0  0  0  0  0  0  0  0  0  0
   -2.0709   -7.6637   18.7817 C   0  0  0  0  0  0  0  0  0  0  0  0
   -0.5279   -8.2168   17.0717 C   0  0  0  0  0  0  0  0  0  0  0  0
    6.9694   -4.0191   27.8190 C   0  0  0  0  0  0  0  0  0  0  0  0
    5.1733   -4.5469   29.8123 C   0  0  0  0  0  0  0  0  0  0  0  0
   -1.7508  -11.3016   18.6072 C   0  0  0  0  0  0  0  0  0  0  0  0
    1.7497   -5.6771   26.4971 C   0  0  0  0  0  0  0  0  0  0  0  0
   -1.5799   -9.9322   18.3468 C   0  0  0  0  0  0  0  0  0  0  0  0
   -1.0871  -12.2214   17.8851 C   0  0  0  0  0  0  0  0  0  0  0  0
   -2.2706   -8.9669   19.0691 C   0  0  0  0  0  0  0  0  0  0  0  0
    3.0279   -5.3073   26.8197 C   0  0  0  0  0  0  0  0  0  0  0  0
    7.3282   -3.8948   29.1186 C   0  0  0  0  0  0  0  0  0  0  0  0
  1  3  4  0
  1  7  4  0
  2  3  1  0
  2  6  4  0
  2 16  4  0
  3 22  4  0
  4  9  4  0
  4 10  1  0
  4 20  4  0
  5 16  4  0
  5 23  4  0
  6 15  4  0
  7 12  4  0
  8 13  4  0
  8 14  4  0
  9 11  4  0
 11 14  4  0
 11 19  4  0
 12 18  4  0
 13 21  4  0
 15 23  4  0
 17 19  4  0
 17 20  4  0
 18 22  4  0
 19 21  4  0
M  END
$$$$

 Created by Python create_sdf_string function

 23 25  0  0  0  0  0  0  0  0999 V2000
    2.4610   -5.3070   29.1240 C   0  0  0  0  0  0  0  0  0  0  0  0
    4.7710   -4.6952   28.4803 C   0  0  0  0  0  0  0  0  0  0  0  0
    3.4047   -5.1087   28.1314 C   0  0  0  0  0  0  0  0  0  0  0  0
   -0.2234  -11.8615   16.8874 C   0  0  0  0  0  0  0  0  0  0  0  0
    6.4491   -4.1532   30.1213 C   0  0  0  0  0  0  0  0  0  0  0  0
    5.7060   -4.4340   27.4975 C   0  0  0  0  0  0  0  0  0  0  0  0
    1.1818   -5.6612   28.8399 C   0  0  0  0  0  0  0  0  0  0  0  0
   -1.2067   -7.3287   17.7772 C   0  0  0  0  0  0  0  0  0  0  0  0
   -0.0206  -10.5585   16.6210 C   0  0  0  0  0  0  0  0  0  0  0  0
    0.3696  -12.7626   16.2169 O   0  0  0  0  0  0  0  0  0  0  0  0
   -0.6895   -9.5676   17.3297 C   0  0  0  0  0  0  0  0  0  0  0  0
    0.8388   -5.8417   27.5264 C   0  0  0  0  0  0  0  0  0  0  0  0
   -2.0709   -7.6637   18.7817 C   0  0  0  0  0  0  0  0  0  0  0  0
   -0.5279   -8.2168   17.0717 C   0  0  0  0  0  0  0  0  0  0  0  0
    6.9694   -4.0191   27.8190 C   0  0  0  0  0  0  0  0  0  0  0  0
    5.1733   -4.5469   29.8123 C   0  0  0  0  0  0  0  0  0  0  0  0
   -1.7508  -11.3016   18.6072 C   0  0  0  0  0  0  0  0  0  0  0  0
    1.7497   -5.6771   26.4971 C   0  0  0  0  0  0  0  0  0  0  0  0
   -1.5799   -9.9322   18.3468 C   0  0  0  0  0  0  0  0  0  0  0  0
   -1.0871  -12.2214   17.8851 C   0  0  0  0  0  0  0  0  0  0  0  0
   -2.2706   -8.9669   19.0691 C   0  0  0  0  0  0  0  0  0  0  0  0
    3.0279   -5.3073   26.8197 C   0  0  0  0  0  0  0  0  0  0  0  0
    7.3282   -3.8948   29.1186 C   0  0  0  0  0  0  0  0  0  0  0  0
  1  3  4  0
  1  7  4  0
  2  3  1  0
  2  6  4  0
  2 16  4  0
  3 22  4  0
  4  9  4  0
  4 10  1  0
  4 20  4  0
  5 16  4  0
  5 23  4  0
  6 15  4  0
  7 12  4  0
  8 13  4  0
  8 14  4  0
  9 11  4  0
 11 14  4  0
 11 19  4  0
 12 18  4  0
 13 21  4  0
 15 23  4  0
 17 19  4  0
 17 20  4  0
 18 22  4  0
 19 21  4  0
M  END
$$$$

 Created by Python create_sdf_string function

 23 25  0  0  0  0  0  0  0  0999 V2000
    2.4610   -5.3070   29.1240 C   0  0  0  0  0  0  0  0  0  0  0  0
    4.7710   -4.6952   28.4803 C   0  0  0  0  0  0  0  0  0  0  0  0
    3.4047   -5.1087   28.1314 C   0  0  0  0  0  0  0  0  0  0  0  0
   -0.2234  -11.8615   16.8874 C   0  0  0  0  0  0  0  0  0  0  0  0
    6.4491   -4.1532   30.1213 C   0  0  0  0  0  0  0  0  0  0  0  0
    5.7060   -4.4340   27.4975 C   0  0  0  0  0  0  0  0  0  0  0  0
    1.1818   -5.6612   28.8399 C   0  0  0  0  0  0  0  0  0  0  0  0
   -1.2067   -7.3287   17.7772 C   0  0  0  0  0  0  0  0  0  0  0  0
   -0.0206  -10.5585   16.6210 C   0  0  0  0  0  0  0  0  0  0  0  0
    0.3696  -12.7626   16.2169 O   0  0  0  0  0  0  0  0  0  0  0  0
   -0.6895   -9.5676   17.3297 C   0  0  0  0  0  0  0  0  0  0  0  0
    0.8388   -5.8417   27.5264 C   0  0  0  0  0  0  0  0  0  0  0  0
   -2.0709   -7.6637   18.7817 C   0  0  0  0  0  0  0  0  0  0  0  0
   -0.5279   -8.2168   17.0717 C   0  0  0  0  0  0  0  0  0  0  0  0
    6.9694   -4.0191   27.8190 C   0  0  0  0  0  0  0  0  0  0  0  0
    5.1733   -4.5469   29.8123 C   0  0  0  0  0  0  0  0  0  0  0  0
   -1.7508  -11.3016   18.6072 C   0  0  0  0  0  0  0  0  0  0  0  0
    1.7497   -5.6771   26.4971 C   0  0  0  0  0  0  0  0  0  0  0  0
   -1.5799   -9.9322   18.3468 C   0  0  0  0  0  0  0  0  0  0  0  0
   -1.0871  -12.2214   17.8851 C   0  0  0  0  0  0  0  0  0  0  0  0
   -2.2706   -8.9669   19.0691 C   0  0  0  0  0  0  0  0  0  0  0  0
    3.0279   -5.3073   26.8197 C   0  0  0  0  0  0  0  0  0  0  0  0
    7.3282   -3.8948   29.1186 C   0  0  0  0  0  0  0  0  0  0  0  0
  1  3  4  0
  1  7  4  0
  2  3  1  0
  2  6  4  0
  2 16  4  0
  3 22  4  0
  4  9  4  0
  4 10  1  0
  4 20  4  0
  5 16  4  0
  5 23  4  0
  6 15  4  0
  7 12  4  0
  8 13  4  0
  8 14  4  0
  9 11  4  0
 11 14  4  0
 11 19  4  0
 12 18  4  0
 13 21  4  0
 15 23  4  0
 17 19  4  0
 17 20  4  0
 18 22  4  0
 19 21  4  0
M  END
$$$$

 Created by Python create_sdf_string function

 23 25  0  0  0  0  0  0  0  0999 V2000
    2.4610   -5.3070   29.1240 C   0  0  0  0  0  0  0  0  0  0  0  0
    4.7710   -4.6952   28.4803 C   0  0  0  0  0  0  0  0  0  0  0  0
    3.4047   -5.1087   28.1314 C   0  0  0  0  0  0  0  0  0  0  0  0
   -0.2234  -11.8615   16.8874 C   0  0  0  0  0  0  0  0  0  0  0  0
    6.4491   -4.1532   30.1213 C   0  0  0  0  0  0  0  0  0  0  0  0
    5.7060   -4.4340   27.4975 C   0  0  0  0  0  0  0  0  0  0  0  0
    1.1818   -5.6612   28.8399 C   0  0  0  0  0  0  0  0  0  0  0  0
   -1.2067   -7.3287   17.7772 C   0  0  0  0  0  0  0  0  0  0  0  0
   -0.0206  -10.5585   16.6210 C   0  0  0  0  0  0  0  0  0  0  0  0
    0.3696  -12.7626   16.2169 O   0  0  0  0  0  0  0  0  0  0  0  0
   -0.6895   -9.5676   17.3297 C   0  0  0  0  0  0  0  0  0  0  0  0
    0.8388   -5.8417   27.5264 C   0  0  0  0  0  0  0  0  0  0  0  0
   -2.0709   -7.6637   18.7817 C   0  0  0  0  0  0  0  0  0  0  0  0
   -0.5279   -8.2168   17.0717 C   0  0  0  0  0  0  0  0  0  0  0  0
    6.9694   -4.0191   27.8190 C   0  0  0  0  0  0  0  0  0  0  0  0
    5.1733   -4.5469   29.8123 C   0  0  0  0  0  0  0  0  0  0  0  0
   -1.7508  -11.3016   18.6072 C   0  0  0  0  0  0  0  0  0  0  0  0
    1.7497   -5.6771   26.4971 C   0  0  0  0  0  0  0  0  0  0  0  0
   -1.5799   -9.9322   18.3468 C   0  0  0  0  0  0  0  0  0  0  0  0
   -1.0871  -12.2214   17.8851 C   0  0  0  0  0  0  0  0  0  0  0  0
   -2.2706   -8.9669   19.0691 C   0  0  0  0  0  0  0  0  0  0  0  0
    3.0279   -5.3073   26.8197 C   0  0  0  0  0  0  0  0  0  0  0  0
    7.3282   -3.8948   29.1186 C   0  0  0  0  0  0  0  0  0  0  0  0
  1  3  4  0
  1  7  4  0
  2  3  1  0
  2  6  4  0
  2 16  4  0
  3 22  4  0
  4  9  4  0
  4 10  1  0
  4 20  4  0
  5 16  4  0
  5 23  4  0
  6 15  4  0
  7 12  4  0
  8 13  4  0
  8 14  4  0
  9 11  4  0
 11 14  4  0
 11 19  4  0
 12 18  4  0
 13 21  4  0
 15 23  4  0
 17 19  4  0
 17 20  4  0
 18 22  4  0
 19 21  4  0
M  END
$$$$

 Created by Python create_sdf_string function

 23 25  0  0  0  0  0  0  0  0999 V2000
    2.4610   -5.3070   29.1240 C   0  0  0  0  0  0  0  0  0  0  0  0
    4.7710   -4.6952   28.4803 C   0  0  0  0  0  0  0  0  0  0  0  0
    3.4047   -5.1087   28.1314 C   0  0  0  0  0  0  0  0  0  0  0  0
   -0.2234  -11.8615   16.8874 C   0  0  0  0  0  0  0  0  0  0  0  0
    6.4491   -4.1532   30.1213 C   0  0  0  0  0  0  0  0  0  0  0  0
    5.7060   -4.4340   27.4975 C   0  0  0  0  0  0  0  0  0  0  0  0
    1.1818   -5.6612   28.8399 C   0  0  0  0  0  0  0  0  0  0  0  0
   -1.2067   -7.3287   17.7772 C   0  0  0  0  0  0  0  0  0  0  0  0
   -0.0206  -10.5585   16.6210 C   0  0  0  0  0  0  0  0  0  0  0  0
    0.3696  -12.7626   16.2169 O   0  0  0  0  0  0  0  0  0  0  0  0
   -0.6895   -9.5676   17.3297 C   0  0  0  0  0  0  0  0  0  0  0  0
    0.8388   -5.8417   27.5264 C   0  0  0  0  0  0  0  0  0  0  0  0
   -2.0709   -7.6637   18.7817 C   0  0  0  0  0  0  0  0  0  0  0  0
   -0.5279   -8.2168   17.0717 C   0  0  0  0  0  0  0  0  0  0  0  0
    6.9694   -4.0191   27.8190 C   0  0  0  0  0  0  0  0  0  0  0  0
    5.1733   -4.5469   29.8123 C   0  0  0  0  0  0  0  0  0  0  0  0
   -1.7508  -11.3016   18.6072 C   0  0  0  0  0  0  0  0  0  0  0  0
    1.7497   -5.6771   26.4971 C   0  0  0  0  0  0  0  0  0  0  0  0
   -1.5799   -9.9322   18.3468 C   0  0  0  0  0  0  0  0  0  0  0  0
   -1.0871  -12.2214   17.8851 C   0  0  0  0  0  0  0  0  0  0  0  0
   -2.2706   -8.9669   19.0691 C   0  0  0  0  0  0  0  0  0  0  0  0
    3.0279   -5.3073   26.8197 C   0  0  0  0  0  0  0  0  0  0  0  0
    7.3282   -3.8948   29.1186 C   0  0  0  0  0  0  0  0  0  0  0  0
  1  3  4  0
  1  7  4  0
  2  3  1  0
  2  6  4  0
  2 16  4  0
  3 22  4  0
  4  9  4  0
  4 10  1  0
  4 20  4  0
  5 16  4  0
  5 23  4  0
  6 15  4  0
  7 12  4  0
  8 13  4  0
  8 14  4  0
  9 11  4  0
 11 14  4  0
 11 19  4  0
 12 18  4  0
 13 21  4  0
 15 23  4  0
 17 19  4  0
 17 20  4  0
 18 22  4  0
 19 21  4  0
M  END
$$$$

 Created by Python create_sdf_string function

 23 25  0  0  0  0  0  0  0  0999 V2000
    2.4610   -5.3070   29.1240 C   0  0  0  0  0  0  0  0  0  0  0  0
    4.7710   -4.6952   28.4803 C   0  0  0  0  0  0  0  0  0  0  0  0
    3.4047   -5.1087   28.1314 C   0  0  0  0  0  0  0  0  0  0  0  0
   -0.2234  -11.8615   16.8874 C   0  0  0  0  0  0  0  0  0  0  0  0
    6.4491   -4.1532   30.1213 C   0  0  0  0  0  0  0  0  0  0  0  0
    5.7060   -4.4340   27.4975 C   0  0  0  0  0  0  0  0  0  0  0  0
    1.1818   -5.6612   28.8399 C   0  0  0  0  0  0  0  0  0  0  0  0
   -1.2067   -7.3287   17.7772 C   0  0  0  0  0  0  0  0  0  0  0  0
   -0.0206  -10.5585   16.6210 C   0  0  0  0  0  0  0  0  0  0  0  0
    0.3696  -12.7626   16.2169 O   0  0  0  0  0  0  0  0  0  0  0  0
   -0.6895   -9.5676   17.3297 C   0  0  0  0  0  0  0  0  0  0  0  0
    0.8388   -5.8417   27.5264 C   0  0  0  0  0  0  0  0  0  0  0  0
   -2.0709   -7.6637   18.7817 C   0  0  0  0  0  0  0  0  0  0  0  0
   -0.5279   -8.2168   17.0717 C   0  0  0  0  0  0  0  0  0  0  0  0
    6.9694   -4.0191   27.8190 C   0  0  0  0  0  0  0  0  0  0  0  0
    5.1733   -4.5469   29.8123 C   0  0  0  0  0  0  0  0  0  0  0  0
   -1.7508  -11.3016   18.6072 C   0  0  0  0  0  0  0  0  0  0  0  0
    1.7497   -5.6771   26.4971 C   0  0  0  0  0  0  0  0  0  0  0  0
   -1.5799   -9.9322   18.3468 C   0  0  0  0  0  0  0  0  0  0  0  0
   -1.0871  -12.2214   17.8851 C   0  0  0  0  0  0  0  0  0  0  0  0
   -2.2706   -8.9669   19.0691 C   0  0  0  0  0  0  0  0  0  0  0  0
    3.0279   -5.3073   26.8197 C   0  0  0  0  0  0  0  0  0  0  0  0
    7.3282   -3.8948   29.1186 C   0  0  0  0  0  0  0  0  0  0  0  0
  1  3  4  0
  1  7  4  0
  2  3  1  0
  2  6  4  0
  2 16  4  0
  3 22  4  0
  4  9  4  0
  4 10  1  0
  4 20  4  0
  5 16  4  0
  5 23  4  0
  6 15  4  0
  7 12  4  0
  8 13  4  0
  8 14  4  0
  9 11  4  0
 11 14  4  0
 11 19  4  0
 12 18  4  0
 13 21  4  0
 15 23  4  0
 17 19  4  0
 17 20  4  0
 18 22  4  0
 19 21  4  0
M  END
$$$$

 Created by Python create_sdf_string function

 23 25  0  0  0  0  0  0  0  0999 V2000
    2.4610   -5.3070   29.1240 C   0  0  0  0  0  0  0  0  0  0  0  0
    4.7710   -4.6952   28.4803 C   0  0  0  0  0  0  0  0  0  0  0  0
    3.4047   -5.1087   28.1314 C   0  0  0  0  0  0  0  0  0  0  0  0
   -0.2234  -11.8615   16.8874 C   0  0  0  0  0  0  0  0  0  0  0  0
    6.4491   -4.1532   30.1213 C   0  0  0  0  0  0  0  0  0  0  0  0
    5.7060   -4.4340   27.4975 C   0  0  0  0  0  0  0  0  0  0  0  0
    1.1818   -5.6612   28.8399 C   0  0  0  0  0  0  0  0  0  0  0  0
   -1.2067   -7.3287   17.7772 C   0  0  0  0  0  0  0  0  0  0  0  0
   -0.0206  -10.5585   16.6210 C   0  0  0  0  0  0  0  0  0  0  0  0
    0.3696  -12.7626   16.2169 O   0  0  0  0  0  0  0  0  0  0  0  0
   -0.6895   -9.5676   17.3297 C   0  0  0  0  0  0  0  0  0  0  0  0
    0.8388   -5.8417   27.5264 C   0  0  0  0  0  0  0  0  0  0  0  0
   -2.0709   -7.6637   18.7817 C   0  0  0  0  0  0  0  0  0  0  0  0
   -0.5279   -8.2168   17.0717 C   0  0  0  0  0  0  0  0  0  0  0  0
    6.9694   -4.0191   27.8190 C   0  0  0  0  0  0  0  0  0  0  0  0
    5.1733   -4.5469   29.8123 C   0  0  0  0  0  0  0  0  0  0  0  0
   -1.7508  -11.3016   18.6072 C   0  0  0  0  0  0  0  0  0  0  0  0
    1.7497   -5.6771   26.4971 C   0  0  0  0  0  0  0  0  0  0  0  0
   -1.5799   -9.9322   18.3468 C   0  0  0  0  0  0  0  0  0  0  0  0
   -1.0871  -12.2214   17.8851 C   0  0  0  0  0  0  0  0  0  0  0  0
   -2.2706   -8.9669   19.0691 C   0  0  0  0  0  0  0  0  0  0  0  0
    3.0279   -5.3073   26.8197 C   0  0  0  0  0  0  0  0  0  0  0  0
    7.3282   -3.8948   29.1186 C   0  0  0  0  0  0  0  0  0  0  0  0
  1  3  4  0
  1  7  4  0
  2  3  1  0
  2  6  4  0
  2 16  4  0
  3 22  4  0
  4  9  4  0
  4 10  1  0
  4 20  4  0
  5 16  4  0
  5 23  4  0
  6 15  4  0
  7 12  4  0
  8 13  4  0
  8 14  4  0
  9 11  4  0
 11 14  4  0
 11 19  4  0
 12 18  4  0
 13 21  4  0
 15 23  4  0
 17 19  4  0
 17 20  4  0
 18 22  4  0
 19 21  4  0
M  END
$$$$

 Created by Python create_sdf_string function

 23 25  0  0  0  0  0  0  0  0999 V2000
    2.4610   -5.3070   29.1240 C   0  0  0  0  0  0  0  0  0  0  0  0
    4.7710   -4.6952   28.4803 C   0  0  0  0  0  0  0  0  0  0  0  0
    3.4047   -5.1087   28.1314 C   0  0  0  0  0  0  0  0  0  0  0  0
   -0.2234  -11.8615   16.8874 C   0  0  0  0  0  0  0  0  0  0  0  0
    6.4491   -4.1532   30.1213 C   0  0  0  0  0  0  0  0  0  0  0  0
    5.7060   -4.4340   27.4975 C   0  0  0  0  0  0  0  0  0  0  0  0
    1.1818   -5.6612   28.8399 C   0  0  0  0  0  0  0  0  0  0  0  0
   -1.2067   -7.3287   17.7772 C   0  0  0  0  0  0  0  0  0  0  0  0
   -0.0206  -10.5585   16.6210 C   0  0  0  0  0  0  0  0  0  0  0  0
    0.3696  -12.7626   16.2169 O   0  0  0  0  0  0  0  0  0  0  0  0
   -0.6895   -9.5676   17.3297 C   0  0  0  0  0  0  0  0  0  0  0  0
    0.8388   -5.8417   27.5264 C   0  0  0  0  0  0  0  0  0  0  0  0
   -2.0709   -7.6637   18.7817 C   0  0  0  0  0  0  0  0  0  0  0  0
   -0.5279   -8.2168   17.0717 C   0  0  0  0  0  0  0  0  0  0  0  0
    6.9694   -4.0191   27.8190 C   0  0  0  0  0  0  0  0  0  0  0  0
    5.1733   -4.5469   29.8123 C   0  0  0  0  0  0  0  0  0  0  0  0
   -1.7508  -11.3016   18.6072 C   0  0  0  0  0  0  0  0  0  0  0  0
    1.7497   -5.6771   26.4971 C   0  0  0  0  0  0  0  0  0  0  0  0
   -1.5799   -9.9322   18.3468 C   0  0  0  0  0  0  0  0  0  0  0  0
   -1.0871  -12.2214   17.8851 C   0  0  0  0  0  0  0  0  0  0  0  0
   -2.2706   -8.9669   19.0691 C   0  0  0  0  0  0  0  0  0  0  0  0
    3.0279   -5.3073   26.8197 C   0  0  0  0  0  0  0  0  0  0  0  0
    7.3282   -3.8948   29.1186 C   0  0  0  0  0  0  0  0  0  0  0  0
  1  3  4  0
  1  7  4  0
  2  3  1  0
  2  6  4  0
  2 16  4  0
  3 22  4  0
  4  9  4  0
  4 10  1  0
  4 20  4  0
  5 16  4  0
  5 23  4  0
  6 15  4  0
  7 12  4  0
  8 13  4  0
  8 14  4  0
  9 11  4  0
 11 14  4  0
 11 19  4  0
 12 18  4  0
 13 21  4  0
 15 23  4  0
 17 19  4  0
 17 20  4  0
 18 22  4  0
 19 21  4  0
M  END
$$$$

 Created by Python create_sdf_string function

 23 25  0  0  0  0  0  0  0  0999 V2000
    2.4610   -5.3070   29.1240 C   0  0  0  0  0  0  0  0  0  0  0  0
    4.7710   -4.6952   28.4803 C   0  0  0  0  0  0  0  0  0  0  0  0
    3.4047   -5.1087   28.1314 C   0  0  0  0  0  0  0  0  0  0  0  0
   -0.2234  -11.8615   16.8874 C   0  0  0  0  0  0  0  0  0  0  0  0
    6.4491   -4.1532   30.1213 C   0  0  0  0  0  0  0  0  0  0  0  0
    5.7060   -4.4340   27.4975 C   0  0  0  0  0  0  0  0  0  0  0  0
    1.1818   -5.6612   28.8399 C   0  0  0  0  0  0  0  0  0  0  0  0
   -1.2067   -7.3287   17.7772 C   0  0  0  0  0  0  0  0  0  0  0  0
   -0.0206  -10.5585   16.6210 C   0  0  0  0  0  0  0  0  0  0  0  0
    0.3696  -12.7626   16.2169 O   0  0  0  0  0  0  0  0  0  0  0  0
   -0.6895   -9.5676   17.3297 C   0  0  0  0  0  0  0  0  0  0  0  0
    0.8388   -5.8417   27.5264 C   0  0  0  0  0  0  0  0  0  0  0  0
   -2.0709   -7.6637   18.7817 C   0  0  0  0  0  0  0  0  0  0  0  0
   -0.5279   -8.2168   17.0717 C   0  0  0  0  0  0  0  0  0  0  0  0
    6.9694   -4.0191   27.8190 C   0  0  0  0  0  0  0  0  0  0  0  0
    5.1733   -4.5469   29.8123 C   0  0  0  0  0  0  0  0  0  0  0  0
   -1.7508  -11.3016   18.6072 C   0  0  0  0  0  0  0  0  0  0  0  0
    1.7497   -5.6771   26.4971 C   0  0  0  0  0  0  0  0  0  0  0  0
   -1.5799   -9.9322   18.3468 C   0  0  0  0  0  0  0  0  0  0  0  0
   -1.0871  -12.2214   17.8851 C   0  0  0  0  0  0  0  0  0  0  0  0
   -2.2706   -8.9669   19.0691 C   0  0  0  0  0  0  0  0  0  0  0  0
    3.0279   -5.3073   26.8197 C   0  0  0  0  0  0  0  0  0  0  0  0
    7.3282   -3.8948   29.1186 C   0  0  0  0  0  0  0  0  0  0  0  0
  1  3  4  0
  1  7  4  0
  2  3  1  0
  2  6  4  0
  2 16  4  0
  3 22  4  0
  4  9  4  0
  4 10  1  0
  4 20  4  0
  5 16  4  0
  5 23  4  0
  6 15  4  0
  7 12  4  0
  8 13  4  0
  8 14  4  0
  9 11  4  0
 11 14  4  0
 11 19  4  0
 12 18  4  0
 13 21  4  0
 15 23  4  0
 17 19  4  0
 17 20  4  0
 18 22  4  0
 19 21  4  0
M  END
$$$$

 Created by Python create_sdf_string function

 23 25  0  0  0  0  0  0  0  0999 V2000
    2.4610   -5.3070   29.1240 C   0  0  0  0  0  0  0  0  0  0  0  0
    4.7710   -4.6952   28.4803 C   0  0  0  0  0  0  0  0  0  0  0  0
    3.4047   -5.1087   28.1314 C   0  0  0  0  0  0  0  0  0  0  0  0
   -0.2234  -11.8615   16.8874 C   0  0  0  0  0  0  0  0  0  0  0  0
    6.4491   -4.1532   30.1213 C   0  0  0  0  0  0  0  0  0  0  0  0
    5.7060   -4.4340   27.4975 C   0  0  0  0  0  0  0  0  0  0  0  0
    1.1818   -5.6612   28.8399 C   0  0  0  0  0  0  0  0  0  0  0  0
   -1.2067   -7.3287   17.7772 C   0  0  0  0  0  0  0  0  0  0  0  0
   -0.0206  -10.5585   16.6210 C   0  0  0  0  0  0  0  0  0  0  0  0
    0.3696  -12.7626   16.2169 O   0  0  0  0  0  0  0  0  0  0  0  0
   -0.6895   -9.5676   17.3297 C   0  0  0  0  0  0  0  0  0  0  0  0
    0.8388   -5.8417   27.5264 C   0  0  0  0  0  0  0  0  0  0  0  0
   -2.0709   -7.6637   18.7817 C   0  0  0  0  0  0  0  0  0  0  0  0
   -0.5279   -8.2168   17.0717 C   0  0  0  0  0  0  0  0  0  0  0  0
    6.9694   -4.0191   27.8190 C   0  0  0  0  0  0  0  0  0  0  0  0
    5.1733   -4.5469   29.8123 C   0  0  0  0  0  0  0  0  0  0  0  0
   -1.7508  -11.3016   18.6072 C   0  0  0  0  0  0  0  0  0  0  0  0
    1.7497   -5.6771   26.4971 C   0  0  0  0  0  0  0  0  0  0  0  0
   -1.5799   -9.9322   18.3468 C   0  0  0  0  0  0  0  0  0  0  0  0
   -1.0871  -12.2214   17.8851 C   0  0  0  0  0  0  0  0  0  0  0  0
   -2.2706   -8.9669   19.0691 C   0  0  0  0  0  0  0  0  0  0  0  0
    3.0279   -5.3073   26.8197 C   0  0  0  0  0  0  0  0  0  0  0  0
    7.3282   -3.8948   29.1186 C   0  0  0  0  0  0  0  0  0  0  0  0
  1  3  4  0
  1  7  4  0
  2  3  1  0
  2  6  4  0
  2 16  4  0
  3 22  4  0
  4  9  4  0
  4 10  1  0
  4 20  4  0
  5 16  4  0
  5 23  4  0
  6 15  4  0
  7 12  4  0
  8 13  4  0
  8 14  4  0
  9 11  4  0
 11 14  4  0
 11 19  4  0
 12 18  4  0
 13 21  4  0
 15 23  4  0
 17 19  4  0
 17 20  4  0
 18 22  4  0
 19 21  4  0
M  END
$$$$

 Created by Python create_sdf_string function

 23 25  0  0  0  0  0  0  0  0999 V2000
    2.4610   -5.3070   29.1240 C   0  0  0  0  0  0  0  0  0  0  0  0
    4.7710   -4.6952   28.4803 C   0  0  0  0  0  0  0  0  0  0  0  0
    3.4047   -5.1087   28.1314 C   0  0  0  0  0  0  0  0  0  0  0  0
   -0.2234  -11.8615   16.8874 C   0  0  0  0  0  0  0  0  0  0  0  0
    6.4491   -4.1532   30.1213 C   0  0  0  0  0  0  0  0  0  0  0  0
    5.7060   -4.4340   27.4975 C   0  0  0  0  0  0  0  0  0  0  0  0
    1.1818   -5.6612   28.8399 C   0  0  0  0  0  0  0  0  0  0  0  0
   -1.2067   -7.3287   17.7772 C   0  0  0  0  0  0  0  0  0  0  0  0
   -0.0206  -10.5585   16.6210 C   0  0  0  0  0  0  0  0  0  0  0  0
    0.3696  -12.7626   16.2169 O   0  0  0  0  0  0  0  0  0  0  0  0
   -0.6895   -9.5676   17.3297 C   0  0  0  0  0  0  0  0  0  0  0  0
    0.8388   -5.8417   27.5264 C   0  0  0  0  0  0  0  0  0  0  0  0
   -2.0709   -7.6637   18.7817 C   0  0  0  0  0  0  0  0  0  0  0  0
   -0.5279   -8.2168   17.0717 C   0  0  0  0  0  0  0  0  0  0  0  0
    6.9694   -4.0191   27.8190 C   0  0  0  0  0  0  0  0  0  0  0  0
    5.1733   -4.5469   29.8123 C   0  0  0  0  0  0  0  0  0  0  0  0
   -1.7508  -11.3016   18.6072 C   0  0  0  0  0  0  0  0  0  0  0  0
    1.7497   -5.6771   26.4971 C   0  0  0  0  0  0  0  0  0  0  0  0
   -1.5799   -9.9322   18.3468 C   0  0  0  0  0  0  0  0  0  0  0  0
   -1.0871  -12.2214   17.8851 C   0  0  0  0  0  0  0  0  0  0  0  0
   -2.2706   -8.9669   19.0691 C   0  0  0  0  0  0  0  0  0  0  0  0
    3.0279   -5.3073   26.8197 C   0  0  0  0  0  0  0  0  0  0  0  0
    7.3282   -3.8948   29.1186 C   0  0  0  0  0  0  0  0  0  0  0  0
  1  3  4  0
  1  7  4  0
  2  3  1  0
  2  6  4  0
  2 16  4  0
  3 22  4  0
  4  9  4  0
  4 10  1  0
  4 20  4  0
  5 16  4  0
  5 23  4  0
  6 15  4  0
  7 12  4  0
  8 13  4  0
  8 14  4  0
  9 11  4  0
 11 14  4  0
 11 19  4  0
 12 18  4  0
 13 21  4  0
 15 23  4  0
 17 19  4  0
 17 20  4  0
 18 22  4  0
 19 21  4  0
M  END
$$$$

 Created by Python create_sdf_string function

 23 25  0  0  0  0  0  0  0  0999 V2000
    2.4610   -5.3070   29.1240 C   0  0  0  0  0  0  0  0  0  0  0  0
    4.7710   -4.6952   28.4803 C   0  0  0  0  0  0  0  0  0  0  0  0
    3.4047   -5.1087   28.1314 C   0  0  0  0  0  0  0  0  0  0  0  0
   -0.2234  -11.8615   16.8874 C   0  0  0  0  0  0  0  0  0  0  0  0
    6.4491   -4.1532   30.1213 C   0  0  0  0  0  0  0  0  0  0  0  0
    5.7060   -4.4340   27.4975 C   0  0  0  0  0  0  0  0  0  0  0  0
    1.1818   -5.6612   28.8399 C   0  0  0  0  0  0  0  0  0  0  0  0
   -1.2067   -7.3287   17.7772 C   0  0  0  0  0  0  0  0  0  0  0  0
   -0.0206  -10.5585   16.6210 C   0  0  0  0  0  0  0  0  0  0  0  0
    0.3696  -12.7626   16.2169 O   0  0  0  0  0  0  0  0  0  0  0  0
   -0.6895   -9.5676   17.3297 C   0  0  0  0  0  0  0  0  0  0  0  0
    0.8388   -5.8417   27.5264 C   0  0  0  0  0  0  0  0  0  0  0  0
   -2.0709   -7.6637   18.7817 C   0  0  0  0  0  0  0  0  0  0  0  0
   -0.5279   -8.2168   17.0717 C   0  0  0  0  0  0  0  0  0  0  0  0
    6.9694   -4.0191   27.8190 C   0  0  0  0  0  0  0  0  0  0  0  0
    5.1733   -4.5469   29.8123 C   0  0  0  0  0  0  0  0  0  0  0  0
   -1.7508  -11.3016   18.6072 C   0  0  0  0  0  0  0  0  0  0  0  0
    1.7497   -5.6771   26.4971 C   0  0  0  0  0  0  0  0  0  0  0  0
   -1.5799   -9.9322   18.3468 C   0  0  0  0  0  0  0  0  0  0  0  0
   -1.0871  -12.2214   17.8851 C   0  0  0  0  0  0  0  0  0  0  0  0
   -2.2706   -8.9669   19.0691 C   0  0  0  0  0  0  0  0  0  0  0  0
    3.0279   -5.3073   26.8197 C   0  0  0  0  0  0  0  0  0  0  0  0
    7.3282   -3.8948   29.1186 C   0  0  0  0  0  0  0  0  0  0  0  0
  1  3  4  0
  1  7  4  0
  2  3  1  0
  2  6  4  0
  2 16  4  0
  3 22  4  0
  4  9  4  0
  4 10  1  0
  4 20  4  0
  5 16  4  0
  5 23  4  0
  6 15  4  0
  7 12  4  0
  8 13  4  0
  8 14  4  0
  9 11  4  0
 11 14  4  0
 11 19  4  0
 12 18  4  0
 13 21  4  0
 15 23  4  0
 17 19  4  0
 17 20  4  0
 18 22  4  0
 19 21  4  0
M  END
$$$$

 Created by Python create_sdf_string function

 23 25  0  0  0  0  0  0  0  0999 V2000
    2.4610   -5.3070   29.1240 C   0  0  0  0  0  0  0  0  0  0  0  0
    4.7710   -4.6952   28.4803 C   0  0  0  0  0  0  0  0  0  0  0  0
    3.4047   -5.1087   28.1314 C   0  0  0  0  0  0  0  0  0  0  0  0
   -0.2234  -11.8615   16.8874 C   0  0  0  0  0  0  0  0  0  0  0  0
    6.4491   -4.1532   30.1213 C   0  0  0  0  0  0  0  0  0  0  0  0
    5.7060   -4.4340   27.4975 C   0  0  0  0  0  0  0  0  0  0  0  0
    1.1818   -5.6612   28.8399 C   0  0  0  0  0  0  0  0  0  0  0  0
   -1.2067   -7.3287   17.7772 C   0  0  0  0  0  0  0  0  0  0  0  0
   -0.0206  -10.5585   16.6210 C   0  0  0  0  0  0  0  0  0  0  0  0
    0.3696  -12.7626   16.2169 O   0  0  0  0  0  0  0  0  0  0  0  0
   -0.6895   -9.5676   17.3297 C   0  0  0  0  0  0  0  0  0  0  0  0
    0.8388   -5.8417   27.5264 C   0  0  0  0  0  0  0  0  0  0  0  0
   -2.0709   -7.6637   18.7817 C   0  0  0  0  0  0  0  0  0  0  0  0
   -0.5279   -8.2168   17.0717 C   0  0  0  0  0  0  0  0  0  0  0  0
    6.9694   -4.0191   27.8190 C   0  0  0  0  0  0  0  0  0  0  0  0
    5.1733   -4.5469   29.8123 C   0  0  0  0  0  0  0  0  0  0  0  0
   -1.7508  -11.3016   18.6072 C   0  0  0  0  0  0  0  0  0  0  0  0
    1.7497   -5.6771   26.4971 C   0  0  0  0  0  0  0  0  0  0  0  0
   -1.5799   -9.9322   18.3468 C   0  0  0  0  0  0  0  0  0  0  0  0
   -1.0871  -12.2214   17.8851 C   0  0  0  0  0  0  0  0  0  0  0  0
   -2.2706   -8.9669   19.0691 C   0  0  0  0  0  0  0  0  0  0  0  0
    3.0279   -5.3073   26.8197 C   0  0  0  0  0  0  0  0  0  0  0  0
    7.3282   -3.8948   29.1186 C   0  0  0  0  0  0  0  0  0  0  0  0
  1  3  4  0
  1  7  4  0
  2  3  1  0
  2  6  4  0
  2 16  4  0
  3 22  4  0
  4  9  4  0
  4 10  1  0
  4 20  4  0
  5 16  4  0
  5 23  4  0
  6 15  4  0
  7 12  4  0
  8 13  4  0
  8 14  4  0
  9 11  4  0
 11 14  4  0
 11 19  4  0
 12 18  4  0
 13 21  4  0
 15 23  4  0
 17 19  4  0
 17 20  4  0
 18 22  4  0
 19 21  4  0
M  END
$$$$

 Created by Python create_sdf_string function

 23 25  0  0  0  0  0  0  0  0999 V2000
    2.4610   -5.3070   29.1240 C   0  0  0  0  0  0  0  0  0  0  0  0
    4.7710   -4.6952   28.4803 C   0  0  0  0  0  0  0  0  0  0  0  0
    3.4047   -5.1087   28.1314 C   0  0  0  0  0  0  0  0  0  0  0  0
   -0.2234  -11.8615   16.8874 C   0  0  0  0  0  0  0  0  0  0  0  0
    6.4491   -4.1532   30.1213 C   0  0  0  0  0  0  0  0  0  0  0  0
    5.7060   -4.4340   27.4975 C   0  0  0  0  0  0  0  0  0  0  0  0
    1.1818   -5.6612   28.8399 C   0  0  0  0  0  0  0  0  0  0  0  0
   -1.2067   -7.3287   17.7772 C   0  0  0  0  0  0  0  0  0  0  0  0
   -0.0206  -10.5585   16.6210 C   0  0  0  0  0  0  0  0  0  0  0  0
    0.3696  -12.7626   16.2169 O   0  0  0  0  0  0  0  0  0  0  0  0
   -0.6895   -9.5676   17.3297 C   0  0  0  0  0  0  0  0  0  0  0  0
    0.8388   -5.8417   27.5264 C   0  0  0  0  0  0  0  0  0  0  0  0
   -2.0709   -7.6637   18.7817 C   0  0  0  0  0  0  0  0  0  0  0  0
   -0.5279   -8.2168   17.0717 C   0  0  0  0  0  0  0  0  0  0  0  0
    6.9694   -4.0191   27.8190 C   0  0  0  0  0  0  0  0  0  0  0  0
    5.1733   -4.5469   29.8123 C   0  0  0  0  0  0  0  0  0  0  0  0
   -1.7508  -11.3016   18.6072 C   0  0  0  0  0  0  0  0  0  0  0  0
    1.7497   -5.6771   26.4971 C   0  0  0  0  0  0  0  0  0  0  0  0
   -1.5799   -9.9322   18.3468 C   0  0  0  0  0  0  0  0  0  0  0  0
   -1.0871  -12.2214   17.8851 C   0  0  0  0  0  0  0  0  0  0  0  0
   -2.2706   -8.9669   19.0691 C   0  0  0  0  0  0  0  0  0  0  0  0
    3.0279   -5.3073   26.8197 C   0  0  0  0  0  0  0  0  0  0  0  0
    7.3282   -3.8948   29.1186 C   0  0  0  0  0  0  0  0  0  0  0  0
  1  3  4  0
  1  7  4  0
  2  3  1  0
  2  6  4  0
  2 16  4  0
  3 22  4  0
  4  9  4  0
  4 10  1  0
  4 20  4  0
  5 16  4  0
  5 23  4  0
  6 15  4  0
  7 12  4  0
  8 13  4  0
  8 14  4  0
  9 11  4  0
 11 14  4  0
 11 19  4  0
 12 18  4  0
 13 21  4  0
 15 23  4  0
 17 19  4  0
 17 20  4  0
 18 22  4  0
 19 21  4  0
M  END
$$$$

 Created by Python create_sdf_string function

 23 25  0  0  0  0  0  0  0  0999 V2000
    2.4610   -5.3070   29.1240 C   0  0  0  0  0  0  0  0  0  0  0  0
    4.7710   -4.6952   28.4803 C   0  0  0  0  0  0  0  0  0  0  0  0
    3.4047   -5.1087   28.1314 C   0  0  0  0  0  0  0  0  0  0  0  0
   -0.2234  -11.8615   16.8874 C   0  0  0  0  0  0  0  0  0  0  0  0
    6.4491   -4.1532   30.1213 C   0  0  0  0  0  0  0  0  0  0  0  0
    5.7060   -4.4340   27.4975 C   0  0  0  0  0  0  0  0  0  0  0  0
    1.1818   -5.6612   28.8399 C   0  0  0  0  0  0  0  0  0  0  0  0
   -1.2067   -7.3287   17.7772 C   0  0  0  0  0  0  0  0  0  0  0  0
   -0.0206  -10.5585   16.6210 C   0  0  0  0  0  0  0  0  0  0  0  0
    0.3696  -12.7626   16.2169 O   0  0  0  0  0  0  0  0  0  0  0  0
   -0.6895   -9.5676   17.3297 C   0  0  0  0  0  0  0  0  0  0  0  0
    0.8388   -5.8417   27.5264 C   0  0  0  0  0  0  0  0  0  0  0  0
   -2.0709   -7.6637   18.7817 C   0  0  0  0  0  0  0  0  0  0  0  0
   -0.5279   -8.2168   17.0717 C   0  0  0  0  0  0  0  0  0  0  0  0
    6.9694   -4.0191   27.8190 C   0  0  0  0  0  0  0  0  0  0  0  0
    5.1733   -4.5469   29.8123 C   0  0  0  0  0  0  0  0  0  0  0  0
   -1.7508  -11.3016   18.6072 C   0  0  0  0  0  0  0  0  0  0  0  0
    1.7497   -5.6771   26.4971 C   0  0  0  0  0  0  0  0  0  0  0  0
   -1.5799   -9.9322   18.3468 C   0  0  0  0  0  0  0  0  0  0  0  0
   -1.0871  -12.2214   17.8851 C   0  0  0  0  0  0  0  0  0  0  0  0
   -2.2706   -8.9669   19.0691 C   0  0  0  0  0  0  0  0  0  0  0  0
    3.0279   -5.3073   26.8197 C   0  0  0  0  0  0  0  0  0  0  0  0
    7.3282   -3.8948   29.1186 C   0  0  0  0  0  0  0  0  0  0  0  0
  1  3  4  0
  1  7  4  0
  2  3  1  0
  2  6  4  0
  2 16  4  0
  3 22  4  0
  4  9  4  0
  4 10  1  0
  4 20  4  0
  5 16  4  0
  5 23  4  0
  6 15  4  0
  7 12  4  0
  8 13  4  0
  8 14  4  0
  9 11  4  0
 11 14  4  0
 11 19  4  0
 12 18  4  0
 13 21  4  0
 15 23  4  0
 17 19  4  0
 17 20  4  0
 18 22  4  0
 19 21  4  0
M  END
$$$$

 Created by Python create_sdf_string function

 23 25  0  0  0  0  0  0  0  0999 V2000
    2.4610   -5.3070   29.1240 C   0  0  0  0  0  0  0  0  0  0  0  0
    4.7710   -4.6952   28.4803 C   0  0  0  0  0  0  0  0  0  0  0  0
    3.4047   -5.1087   28.1314 C   0  0  0  0  0  0  0  0  0  0  0  0
   -0.2234  -11.8615   16.8874 C   0  0  0  0  0  0  0  0  0  0  0  0
    6.4491   -4.1532   30.1213 C   0  0  0  0  0  0  0  0  0  0  0  0
    5.7060   -4.4340   27.4975 C   0  0  0  0  0  0  0  0  0  0  0  0
    1.1818   -5.6612   28.8399 C   0  0  0  0  0  0  0  0  0  0  0  0
   -1.2067   -7.3287   17.7772 C   0  0  0  0  0  0  0  0  0  0  0  0
   -0.0206  -10.5585   16.6210 C   0  0  0  0  0  0  0  0  0  0  0  0
    0.3696  -12.7626   16.2169 O   0  0  0  0  0  0  0  0  0  0  0  0
   -0.6895   -9.5676   17.3297 C   0  0  0  0  0  0  0  0  0  0  0  0
    0.8388   -5.8417   27.5264 C   0  0  0  0  0  0  0  0  0  0  0  0
   -2.0709   -7.6637   18.7817 C   0  0  0  0  0  0  0  0  0  0  0  0
   -0.5279   -8.2168   17.0717 C   0  0  0  0  0  0  0  0  0  0  0  0
    6.9694   -4.0191   27.8190 C   0  0  0  0  0  0  0  0  0  0  0  0
    5.1733   -4.5469   29.8123 C   0  0  0  0  0  0  0  0  0  0  0  0
   -1.7508  -11.3016   18.6072 C   0  0  0  0  0  0  0  0  0  0  0  0
    1.7497   -5.6771   26.4971 C   0  0  0  0  0  0  0  0  0  0  0  0
   -1.5799   -9.9322   18.3468 C   0  0  0  0  0  0  0  0  0  0  0  0
   -1.0871  -12.2214   17.8851 C   0  0  0  0  0  0  0  0  0  0  0  0
   -2.2706   -8.9669   19.0691 C   0  0  0  0  0  0  0  0  0  0  0  0
    3.0279   -5.3073   26.8197 C   0  0  0  0  0  0  0  0  0  0  0  0
    7.3282   -3.8948   29.1186 C   0  0  0  0  0  0  0  0  0  0  0  0
  1  3  4  0
  1  7  4  0
  2  3  1  0
  2  6  4  0
  2 16  4  0
  3 22  4  0
  4  9  4  0
  4 10  1  0
  4 20  4  0
  5 16  4  0
  5 23  4  0
  6 15  4  0
  7 12  4  0
  8 13  4  0
  8 14  4  0
  9 11  4  0
 11 14  4  0
 11 19  4  0
 12 18  4  0
 13 21  4  0
 15 23  4  0
 17 19  4  0
 17 20  4  0
 18 22  4  0
 19 21  4  0
M  END
$$$$

 Created by Python create_sdf_string function

 23 25  0  0  0  0  0  0  0  0999 V2000
    2.4610   -5.3070   29.1240 C   0  0  0  0  0  0  0  0  0  0  0  0
    4.7710   -4.6952   28.4803 C   0  0  0  0  0  0  0  0  0  0  0  0
    3.4047   -5.1087   28.1314 C   0  0  0  0  0  0  0  0  0  0  0  0
   -0.2234  -11.8615   16.8874 C   0  0  0  0  0  0  0  0  0  0  0  0
    6.4491   -4.1532   30.1213 C   0  0  0  0  0  0  0  0  0  0  0  0
    5.7060   -4.4340   27.4975 C   0  0  0  0  0  0  0  0  0  0  0  0
    1.1818   -5.6612   28.8399 C   0  0  0  0  0  0  0  0  0  0  0  0
   -1.2067   -7.3287   17.7772 C   0  0  0  0  0  0  0  0  0  0  0  0
   -0.0206  -10.5585   16.6210 C   0  0  0  0  0  0  0  0  0  0  0  0
    0.3696  -12.7626   16.2169 O   0  0  0  0  0  0  0  0  0  0  0  0
   -0.6895   -9.5676   17.3297 C   0  0  0  0  0  0  0  0  0  0  0  0
    0.8388   -5.8417   27.5264 C   0  0  0  0  0  0  0  0  0  0  0  0
   -2.0709   -7.6637   18.7817 C   0  0  0  0  0  0  0  0  0  0  0  0
   -0.5279   -8.2168   17.0717 C   0  0  0  0  0  0  0  0  0  0  0  0
    6.9694   -4.0191   27.8190 C   0  0  0  0  0  0  0  0  0  0  0  0
    5.1733   -4.5469   29.8123 C   0  0  0  0  0  0  0  0  0  0  0  0
   -1.7508  -11.3016   18.6072 C   0  0  0  0  0  0  0  0  0  0  0  0
    1.7497   -5.6771   26.4971 C   0  0  0  0  0  0  0  0  0  0  0  0
   -1.5799   -9.9322   18.3468 C   0  0  0  0  0  0  0  0  0  0  0  0
   -1.0871  -12.2214   17.8851 C   0  0  0  0  0  0  0  0  0  0  0  0
   -2.2706   -8.9669   19.0691 C   0  0  0  0  0  0  0  0  0  0  0  0
    3.0279   -5.3073   26.8197 C   0  0  0  0  0  0  0  0  0  0  0  0
    7.3282   -3.8948   29.1186 C   0  0  0  0  0  0  0  0  0  0  0  0
  1  3  4  0
  1  7  4  0
  2  3  1  0
  2  6  4  0
  2 16  4  0
  3 22  4  0
  4  9  4  0
  4 10  1  0
  4 20  4  0
  5 16  4  0
  5 23  4  0
  6 15  4  0
  7 12  4  0
  8 13  4  0
  8 14  4  0
  9 11  4  0
 11 14  4  0
 11 19  4  0
 12 18  4  0
 13 21  4  0
 15 23  4  0
 17 19  4  0
 17 20  4  0
 18 22  4  0
 19 21  4  0
M  END
$$$$

 Created by Python create_sdf_string function

 23 25  0  0  0  0  0  0  0  0999 V2000
    2.4610   -5.3070   29.1240 C   0  0  0  0  0  0  0  0  0  0  0  0
    4.7710   -4.6952   28.4803 C   0  0  0  0  0  0  0  0  0  0  0  0
    3.4047   -5.1087   28.1314 C   0  0  0  0  0  0  0  0  0  0  0  0
   -0.2234  -11.8615   16.8874 C   0  0  0  0  0  0  0  0  0  0  0  0
    6.4491   -4.1532   30.1213 C   0  0  0  0  0  0  0  0  0  0  0  0
    5.7060   -4.4340   27.4975 C   0  0  0  0  0  0  0  0  0  0  0  0
    1.1818   -5.6612   28.8399 C   0  0  0  0  0  0  0  0  0  0  0  0
   -1.2067   -7.3287   17.7772 C   0  0  0  0  0  0  0  0  0  0  0  0
   -0.0206  -10.5585   16.6210 C   0  0  0  0  0  0  0  0  0  0  0  0
    0.3696  -12.7626   16.2169 O   0  0  0  0  0  0  0  0  0  0  0  0
   -0.6895   -9.5676   17.3297 C   0  0  0  0  0  0  0  0  0  0  0  0
    0.8388   -5.8417   27.5264 C   0  0  0  0  0  0  0  0  0  0  0  0
   -2.0709   -7.6637   18.7817 C   0  0  0  0  0  0  0  0  0  0  0  0
   -0.5279   -8.2168   17.0717 C   0  0  0  0  0  0  0  0  0  0  0  0
    6.9694   -4.0191   27.8190 C   0  0  0  0  0  0  0  0  0  0  0  0
    5.1733   -4.5469   29.8123 C   0  0  0  0  0  0  0  0  0  0  0  0
   -1.7508  -11.3016   18.6072 C   0  0  0  0  0  0  0  0  0  0  0  0
    1.7497   -5.6771   26.4971 C   0  0  0  0  0  0  0  0  0  0  0  0
   -1.5799   -9.9322   18.3468 C   0  0  0  0  0  0  0  0  0  0  0  0
   -1.0871  -12.2214   17.8851 C   0  0  0  0  0  0  0  0  0  0  0  0
   -2.2706   -8.9669   19.0691 C   0  0  0  0  0  0  0  0  0  0  0  0
    3.0279   -5.3073   26.8197 C   0  0  0  0  0  0  0  0  0  0  0  0
    7.3282   -3.8948   29.1186 C   0  0  0  0  0  0  0  0  0  0  0  0
  1  3  4  0
  1  7  4  0
  2  3  1  0
  2  6  4  0
  2 16  4  0
  3 22  4  0
  4  9  4  0
  4 10  1  0
  4 20  4  0
  5 16  4  0
  5 23  4  0
  6 15  4  0
  7 12  4  0
  8 13  4  0
  8 14  4  0
  9 11  4  0
 11 14  4  0
 11 19  4  0
 12 18  4  0
 13 21  4  0
 15 23  4  0
 17 19  4  0
 17 20  4  0
 18 22  4  0
 19 21  4  0
M  END
$$$$

 Created by Python create_sdf_string function

 23 25  0  0  0  0  0  0  0  0999 V2000
    2.4610   -5.3070   29.1240 C   0  0  0  0  0  0  0  0  0  0  0  0
    4.7710   -4.6952   28.4803 C   0  0  0  0  0  0  0  0  0  0  0  0
    3.4047   -5.1087   28.1314 C   0  0  0  0  0  0  0  0  0  0  0  0
   -0.2234  -11.8615   16.8874 C   0  0  0  0  0  0  0  0  0  0  0  0
    6.4491   -4.1532   30.1213 C   0  0  0  0  0  0  0  0  0  0  0  0
    5.7060   -4.4340   27.4975 C   0  0  0  0  0  0  0  0  0  0  0  0
    1.1818   -5.6612   28.8399 C   0  0  0  0  0  0  0  0  0  0  0  0
   -1.2067   -7.3287   17.7772 C   0  0  0  0  0  0  0  0  0  0  0  0
   -0.0206  -10.5585   16.6210 C   0  0  0  0  0  0  0  0  0  0  0  0
    0.3696  -12.7626   16.2169 O   0  0  0  0  0  0  0  0  0  0  0  0
   -0.6895   -9.5676   17.3297 C   0  0  0  0  0  0  0  0  0  0  0  0
    0.8388   -5.8417   27.5264 C   0  0  0  0  0  0  0  0  0  0  0  0
   -2.0709   -7.6637   18.7817 C   0  0  0  0  0  0  0  0  0  0  0  0
   -0.5279   -8.2168   17.0717 C   0  0  0  0  0  0  0  0  0  0  0  0
    6.9694   -4.0191   27.8190 C   0  0  0  0  0  0  0  0  0  0  0  0
    5.1733   -4.5469   29.8123 C   0  0  0  0  0  0  0  0  0  0  0  0
   -1.7508  -11.3016   18.6072 C   0  0  0  0  0  0  0  0  0  0  0  0
    1.7497   -5.6771   26.4971 C   0  0  0  0  0  0  0  0  0  0  0  0
   -1.5799   -9.9322   18.3468 C   0  0  0  0  0  0  0  0  0  0  0  0
   -1.0871  -12.2214   17.8851 C   0  0  0  0  0  0  0  0  0  0  0  0
   -2.2706   -8.9669   19.0691 C   0  0  0  0  0  0  0  0  0  0  0  0
    3.0279   -5.3073   26.8197 C   0  0  0  0  0  0  0  0  0  0  0  0
    7.3282   -3.8948   29.1186 C   0  0  0  0  0  0  0  0  0  0  0  0
  1  3  4  0
  1  7  4  0
  2  3  1  0
  2  6  4  0
  2 16  4  0
  3 22  4  0
  4  9  4  0
  4 10  1  0
  4 20  4  0
  5 16  4  0
  5 23  4  0
  6 15  4  0
  7 12  4  0
  8 13  4  0
  8 14  4  0
  9 11  4  0
 11 14  4  0
 11 19  4  0
 12 18  4  0
 13 21  4  0
 15 23  4  0
 17 19  4  0
 17 20  4  0
 18 22  4  0
 19 21  4  0
M  END
$$$$

 Created by Python create_sdf_string function

 23 25  0  0  0  0  0  0  0  0999 V2000
    2.4610   -5.3070   29.1240 C   0  0  0  0  0  0  0  0  0  0  0  0
    4.7710   -4.6952   28.4803 C   0  0  0  0  0  0  0  0  0  0  0  0
    3.4047   -5.1087   28.1314 C   0  0  0  0  0  0  0  0  0  0  0  0
   -0.2234  -11.8615   16.8874 C   0  0  0  0  0  0  0  0  0  0  0  0
    6.4491   -4.1532   30.1213 C   0  0  0  0  0  0  0  0  0  0  0  0
    5.7060   -4.4340   27.4975 C   0  0  0  0  0  0  0  0  0  0  0  0
    1.1818   -5.6612   28.8399 C   0  0  0  0  0  0  0  0  0  0  0  0
   -1.2067   -7.3287   17.7772 C   0  0  0  0  0  0  0  0  0  0  0  0
   -0.0206  -10.5585   16.6210 C   0  0  0  0  0  0  0  0  0  0  0  0
    0.3696  -12.7626   16.2169 O   0  0  0  0  0  0  0  0  0  0  0  0
   -0.6895   -9.5676   17.3297 C   0  0  0  0  0  0  0  0  0  0  0  0
    0.8388   -5.8417   27.5264 C   0  0  0  0  0  0  0  0  0  0  0  0
   -2.0709   -7.6637   18.7817 C   0  0  0  0  0  0  0  0  0  0  0  0
   -0.5279   -8.2168   17.0717 C   0  0  0  0  0  0  0  0  0  0  0  0
    6.9694   -4.0191   27.8190 C   0  0  0  0  0  0  0  0  0  0  0  0
    5.1733   -4.5469   29.8123 C   0  0  0  0  0  0  0  0  0  0  0  0
   -1.7508  -11.3016   18.6072 C   0  0  0  0  0  0  0  0  0  0  0  0
    1.7497   -5.6771   26.4971 C   0  0  0  0  0  0  0  0  0  0  0  0
   -1.5799   -9.9322   18.3468 C   0  0  0  0  0  0  0  0  0  0  0  0
   -1.0871  -12.2214   17.8851 C   0  0  0  0  0  0  0  0  0  0  0  0
   -2.2706   -8.9669   19.0691 C   0  0  0  0  0  0  0  0  0  0  0  0
    3.0279   -5.3073   26.8197 C   0  0  0  0  0  0  0  0  0  0  0  0
    7.3282   -3.8948   29.1186 C   0  0  0  0  0  0  0  0  0  0  0  0
  1  3  4  0
  1  7  4  0
  2  3  1  0
  2  6  4  0
  2 16  4  0
  3 22  4  0
  4  9  4  0
  4 10  1  0
  4 20  4  0
  5 16  4  0
  5 23  4  0
  6 15  4  0
  7 12  4  0
  8 13  4  0
  8 14  4  0
  9 11  4  0
 11 14  4  0
 11 19  4  0
 12 18  4  0
 13 21  4  0
 15 23  4  0
 17 19  4  0
 17 20  4  0
 18 22  4  0
 19 21  4  0
M  END
$$$$

 Created by Python create_sdf_string function

 23 25  0  0  0  0  0  0  0  0999 V2000
    2.4610   -5.3070   29.1240 C   0  0  0  0  0  0  0  0  0  0  0  0
    4.7710   -4.6952   28.4803 C   0  0  0  0  0  0  0  0  0  0  0  0
    3.4047   -5.1087   28.1314 C   0  0  0  0  0  0  0  0  0  0  0  0
   -0.2234  -11.8615   16.8874 C   0  0  0  0  0  0  0  0  0  0  0  0
    6.4491   -4.1532   30.1213 C   0  0  0  0  0  0  0  0  0  0  0  0
    5.7060   -4.4340   27.4975 C   0  0  0  0  0  0  0  0  0  0  0  0
    1.1818   -5.6612   28.8399 C   0  0  0  0  0  0  0  0  0  0  0  0
   -1.2067   -7.3287   17.7772 C   0  0  0  0  0  0  0  0  0  0  0  0
   -0.0206  -10.5585   16.6210 C   0  0  0  0  0  0  0  0  0  0  0  0
    0.3696  -12.7626   16.2169 O   0  0  0  0  0  0  0  0  0  0  0  0
   -0.6895   -9.5676   17.3297 C   0  0  0  0  0  0  0  0  0  0  0  0
    0.8388   -5.8417   27.5264 C   0  0  0  0  0  0  0  0  0  0  0  0
   -2.0709   -7.6637   18.7817 C   0  0  0  0  0  0  0  0  0  0  0  0
   -0.5279   -8.2168   17.0717 C   0  0  0  0  0  0  0  0  0  0  0  0
    6.9694   -4.0191   27.8190 C   0  0  0  0  0  0  0  0  0  0  0  0
    5.1733   -4.5469   29.8123 C   0  0  0  0  0  0  0  0  0  0  0  0
   -1.7508  -11.3016   18.6072 C   0  0  0  0  0  0  0  0  0  0  0  0
    1.7497   -5.6771   26.4971 C   0  0  0  0  0  0  0  0  0  0  0  0
   -1.5799   -9.9322   18.3468 C   0  0  0  0  0  0  0  0  0  0  0  0
   -1.0871  -12.2214   17.8851 C   0  0  0  0  0  0  0  0  0  0  0  0
   -2.2706   -8.9669   19.0691 C   0  0  0  0  0  0  0  0  0  0  0  0
    3.0279   -5.3073   26.8197 C   0  0  0  0  0  0  0  0  0  0  0  0
    7.3282   -3.8948   29.1186 C   0  0  0  0  0  0  0  0  0  0  0  0
  1  3  4  0
  1  7  4  0
  2  3  1  0
  2  6  4  0
  2 16  4  0
  3 22  4  0
  4  9  4  0
  4 10  1  0
  4 20  4  0
  5 16  4  0
  5 23  4  0
  6 15  4  0
  7 12  4  0
  8 13  4  0
  8 14  4  0
  9 11  4  0
 11 14  4  0
 11 19  4  0
 12 18  4  0
 13 21  4  0
 15 23  4  0
 17 19  4  0
 17 20  4  0
 18 22  4  0
 19 21  4  0
M  END
$$$$

 Created by Python create_sdf_string function

 23 25  0  0  0  0  0  0  0  0999 V2000
    2.4610   -5.3070   29.1240 C   0  0  0  0  0  0  0  0  0  0  0  0
    4.7710   -4.6952   28.4803 C   0  0  0  0  0  0  0  0  0  0  0  0
    3.4047   -5.1087   28.1314 C   0  0  0  0  0  0  0  0  0  0  0  0
   -0.2234  -11.8615   16.8874 C   0  0  0  0  0  0  0  0  0  0  0  0
    6.4491   -4.1532   30.1213 C   0  0  0  0  0  0  0  0  0  0  0  0
    5.7060   -4.4340   27.4975 C   0  0  0  0  0  0  0  0  0  0  0  0
    1.1818   -5.6612   28.8399 C   0  0  0  0  0  0  0  0  0  0  0  0
   -1.2067   -7.3287   17.7772 C   0  0  0  0  0  0  0  0  0  0  0  0
   -0.0206  -10.5585   16.6210 C   0  0  0  0  0  0  0  0  0  0  0  0
    0.3696  -12.7626   16.2169 O   0  0  0  0  0  0  0  0  0  0  0  0
   -0.6895   -9.5676   17.3297 C   0  0  0  0  0  0  0  0  0  0  0  0
    0.8388   -5.8417   27.5264 C   0  0  0  0  0  0  0  0  0  0  0  0
   -2.0709   -7.6637   18.7817 C   0  0  0  0  0  0  0  0  0  0  0  0
   -0.5279   -8.2168   17.0717 C   0  0  0  0  0  0  0  0  0  0  0  0
    6.9694   -4.0191   27.8190 C   0  0  0  0  0  0  0  0  0  0  0  0
    5.1733   -4.5469   29.8123 C   0  0  0  0  0  0  0  0  0  0  0  0
   -1.7508  -11.3016   18.6072 C   0  0  0  0  0  0  0  0  0  0  0  0
    1.7497   -5.6771   26.4971 C   0  0  0  0  0  0  0  0  0  0  0  0
   -1.5799   -9.9322   18.3468 C   0  0  0  0  0  0  0  0  0  0  0  0
   -1.0871  -12.2214   17.8851 C   0  0  0  0  0  0  0  0  0  0  0  0
   -2.2706   -8.9669   19.0691 C   0  0  0  0  0  0  0  0  0  0  0  0
    3.0279   -5.3073   26.8197 C   0  0  0  0  0  0  0  0  0  0  0  0
    7.3282   -3.8948   29.1186 C   0  0  0  0  0  0  0  0  0  0  0  0
  1  3  4  0
  1  7  4  0
  2  3  1  0
  2  6  4  0
  2 16  4  0
  3 22  4  0
  4  9  4  0
  4 10  1  0
  4 20  4  0
  5 16  4  0
  5 23  4  0
  6 15  4  0
  7 12  4  0
  8 13  4  0
  8 14  4  0
  9 11  4  0
 11 14  4  0
 11 19  4  0
 12 18  4  0
 13 21  4  0
 15 23  4  0
 17 19  4  0
 17 20  4  0
 18 22  4  0
 19 21  4  0
M  END
$$$$

 Created by Python create_sdf_string function

 23 25  0  0  0  0  0  0  0  0999 V2000
    2.4610   -5.3070   29.1240 C   0  0  0  0  0  0  0  0  0  0  0  0
    4.7710   -4.6952   28.4803 C   0  0  0  0  0  0  0  0  0  0  0  0
    3.4047   -5.1087   28.1314 C   0  0  0  0  0  0  0  0  0  0  0  0
   -0.2234  -11.8615   16.8874 C   0  0  0  0  0  0  0  0  0  0  0  0
    6.4491   -4.1532   30.1213 C   0  0  0  0  0  0  0  0  0  0  0  0
    5.7060   -4.4340   27.4975 C   0  0  0  0  0  0  0  0  0  0  0  0
    1.1818   -5.6612   28.8399 C   0  0  0  0  0  0  0  0  0  0  0  0
   -1.2067   -7.3287   17.7772 C   0  0  0  0  0  0  0  0  0  0  0  0
   -0.0206  -10.5585   16.6210 C   0  0  0  0  0  0  0  0  0  0  0  0
    0.3696  -12.7626   16.2169 O   0  0  0  0  0  0  0  0  0  0  0  0
   -0.6895   -9.5676   17.3297 C   0  0  0  0  0  0  0  0  0  0  0  0
    0.8388   -5.8417   27.5264 C   0  0  0  0  0  0  0  0  0  0  0  0
   -2.0709   -7.6637   18.7817 C   0  0  0  0  0  0  0  0  0  0  0  0
   -0.5279   -8.2168   17.0717 C   0  0  0  0  0  0  0  0  0  0  0  0
    6.9694   -4.0191   27.8190 C   0  0  0  0  0  0  0  0  0  0  0  0
    5.1733   -4.5469   29.8123 C   0  0  0  0  0  0  0  0  0  0  0  0
   -1.7508  -11.3016   18.6072 C   0  0  0  0  0  0  0  0  0  0  0  0
    1.7497   -5.6771   26.4971 C   0  0  0  0  0  0  0  0  0  0  0  0
   -1.5799   -9.9322   18.3468 C   0  0  0  0  0  0  0  0  0  0  0  0
   -1.0871  -12.2214   17.8851 C   0  0  0  0  0  0  0  0  0  0  0  0
   -2.2706   -8.9669   19.0691 C   0  0  0  0  0  0  0  0  0  0  0  0
    3.0279   -5.3073   26.8197 C   0  0  0  0  0  0  0  0  0  0  0  0
    7.3282   -3.8948   29.1186 C   0  0  0  0  0  0  0  0  0  0  0  0
  1  3  4  0
  1  7  4  0
  2  3  1  0
  2  6  4  0
  2 16  4  0
  3 22  4  0
  4  9  4  0
  4 10  1  0
  4 20  4  0
  5 16  4  0
  5 23  4  0
  6 15  4  0
  7 12  4  0
  8 13  4  0
  8 14  4  0
  9 11  4  0
 11 14  4  0
 11 19  4  0
 12 18  4  0
 13 21  4  0
 15 23  4  0
 17 19  4  0
 17 20  4  0
 18 22  4  0
 19 21  4  0
M  END
$$$$

 Created by Python create_sdf_string function

 23 25  0  0  0  0  0  0  0  0999 V2000
    2.4610   -5.3070   29.1240 C   0  0  0  0  0  0  0  0  0  0  0  0
    4.7710   -4.6952   28.4803 C   0  0  0  0  0  0  0  0  0  0  0  0
    3.4047   -5.1087   28.1314 C   0  0  0  0  0  0  0  0  0  0  0  0
   -0.2234  -11.8615   16.8874 C   0  0  0  0  0  0  0  0  0  0  0  0
    6.4491   -4.1532   30.1213 C   0  0  0  0  0  0  0  0  0  0  0  0
    5.7060   -4.4340   27.4975 C   0  0  0  0  0  0  0  0  0  0  0  0
    1.1818   -5.6612   28.8399 C   0  0  0  0  0  0  0  0  0  0  0  0
   -1.2067   -7.3287   17.7772 C   0  0  0  0  0  0  0  0  0  0  0  0
   -0.0206  -10.5585   16.6210 C   0  0  0  0  0  0  0  0  0  0  0  0
    0.3696  -12.7626   16.2169 O   0  0  0  0  0  0  0  0  0  0  0  0
   -0.6895   -9.5676   17.3297 C   0  0  0  0  0  0  0  0  0  0  0  0
    0.8388   -5.8417   27.5264 C   0  0  0  0  0  0  0  0  0  0  0  0
   -2.0709   -7.6637   18.7817 C   0  0  0  0  0  0  0  0  0  0  0  0
   -0.5279   -8.2168   17.0717 C   0  0  0  0  0  0  0  0  0  0  0  0
    6.9694   -4.0191   27.8190 C   0  0  0  0  0  0  0  0  0  0  0  0
    5.1733   -4.5469   29.8123 C   0  0  0  0  0  0  0  0  0  0  0  0
   -1.7508  -11.3016   18.6072 C   0  0  0  0  0  0  0  0  0  0  0  0
    1.7497   -5.6771   26.4971 C   0  0  0  0  0  0  0  0  0  0  0  0
   -1.5799   -9.9322   18.3468 C   0  0  0  0  0  0  0  0  0  0  0  0
   -1.0871  -12.2214   17.8851 C   0  0  0  0  0  0  0  0  0  0  0  0
   -2.2706   -8.9669   19.0691 C   0  0  0  0  0  0  0  0  0  0  0  0
    3.0279   -5.3073   26.8197 C   0  0  0  0  0  0  0  0  0  0  0  0
    7.3282   -3.8948   29.1186 C   0  0  0  0  0  0  0  0  0  0  0  0
  1  3  4  0
  1  7  4  0
  2  3  1  0
  2  6  4  0
  2 16  4  0
  3 22  4  0
  4  9  4  0
  4 10  1  0
  4 20  4  0
  5 16  4  0
  5 23  4  0
  6 15  4  0
  7 12  4  0
  8 13  4  0
  8 14  4  0
  9 11  4  0
 11 14  4  0
 11 19  4  0
 12 18  4  0
 13 21  4  0
 15 23  4  0
 17 19  4  0
 17 20  4  0
 18 22  4  0
 19 21  4  0
M  END
$$$$

 Created by Python create_sdf_string function

 23 25  0  0  0  0  0  0  0  0999 V2000
    2.4610   -5.3070   29.1240 C   0  0  0  0  0  0  0  0  0  0  0  0
    4.7710   -4.6952   28.4803 C   0  0  0  0  0  0  0  0  0  0  0  0
    3.4047   -5.1087   28.1314 C   0  0  0  0  0  0  0  0  0  0  0  0
   -0.2234  -11.8615   16.8874 C   0  0  0  0  0  0  0  0  0  0  0  0
    6.4491   -4.1532   30.1213 C   0  0  0  0  0  0  0  0  0  0  0  0
    5.7060   -4.4340   27.4975 C   0  0  0  0  0  0  0  0  0  0  0  0
    1.1818   -5.6612   28.8399 C   0  0  0  0  0  0  0  0  0  0  0  0
   -1.2067   -7.3287   17.7772 C   0  0  0  0  0  0  0  0  0  0  0  0
   -0.0206  -10.5585   16.6210 C   0  0  0  0  0  0  0  0  0  0  0  0
    0.3696  -12.7626   16.2169 O   0  0  0  0  0  0  0  0  0  0  0  0
   -0.6895   -9.5676   17.3297 C   0  0  0  0  0  0  0  0  0  0  0  0
    0.8388   -5.8417   27.5264 C   0  0  0  0  0  0  0  0  0  0  0  0
   -2.0709   -7.6637   18.7817 C   0  0  0  0  0  0  0  0  0  0  0  0
   -0.5279   -8.2168   17.0717 C   0  0  0  0  0  0  0  0  0  0  0  0
    6.9694   -4.0191   27.8190 C   0  0  0  0  0  0  0  0  0  0  0  0
    5.1733   -4.5469   29.8123 C   0  0  0  0  0  0  0  0  0  0  0  0
   -1.7508  -11.3016   18.6072 C   0  0  0  0  0  0  0  0  0  0  0  0
    1.7497   -5.6771   26.4971 C   0  0  0  0  0  0  0  0  0  0  0  0
   -1.5799   -9.9322   18.3468 C   0  0  0  0  0  0  0  0  0  0  0  0
   -1.0871  -12.2214   17.8851 C   0  0  0  0  0  0  0  0  0  0  0  0
   -2.2706   -8.9669   19.0691 C   0  0  0  0  0  0  0  0  0  0  0  0
    3.0279   -5.3073   26.8197 C   0  0  0  0  0  0  0  0  0  0  0  0
    7.3282   -3.8948   29.1186 C   0  0  0  0  0  0  0  0  0  0  0  0
  1  3  4  0
  1  7  4  0
  2  3  1  0
  2  6  4  0
  2 16  4  0
  3 22  4  0
  4  9  4  0
  4 10  1  0
  4 20  4  0
  5 16  4  0
  5 23  4  0
  6 15  4  0
  7 12  4  0
  8 13  4  0
  8 14  4  0
  9 11  4  0
 11 14  4  0
 11 19  4  0
 12 18  4  0
 13 21  4  0
 15 23  4  0
 17 19  4  0
 17 20  4  0
 18 22  4  0
 19 21  4  0
M  END
$$$$

 Created by Python create_sdf_string function

 23 25  0  0  0  0  0  0  0  0999 V2000
    2.4610   -5.3070   29.1240 C   0  0  0  0  0  0  0  0  0  0  0  0
    4.7710   -4.6952   28.4803 C   0  0  0  0  0  0  0  0  0  0  0  0
    3.4047   -5.1087   28.1314 C   0  0  0  0  0  0  0  0  0  0  0  0
   -0.2234  -11.8615   16.8874 C   0  0  0  0  0  0  0  0  0  0  0  0
    6.4491   -4.1532   30.1213 C   0  0  0  0  0  0  0  0  0  0  0  0
    5.7060   -4.4340   27.4975 C   0  0  0  0  0  0  0  0  0  0  0  0
    1.1818   -5.6612   28.8399 C   0  0  0  0  0  0  0  0  0  0  0  0
   -1.2067   -7.3287   17.7772 C   0  0  0  0  0  0  0  0  0  0  0  0
   -0.0206  -10.5585   16.6210 C   0  0  0  0  0  0  0  0  0  0  0  0
    0.3696  -12.7626   16.2169 O   0  0  0  0  0  0  0  0  0  0  0  0
   -0.6895   -9.5676   17.3297 C   0  0  0  0  0  0  0  0  0  0  0  0
    0.8388   -5.8417   27.5264 C   0  0  0  0  0  0  0  0  0  0  0  0
   -2.0709   -7.6637   18.7817 C   0  0  0  0  0  0  0  0  0  0  0  0
   -0.5279   -8.2168   17.0717 C   0  0  0  0  0  0  0  0  0  0  0  0
    6.9694   -4.0191   27.8190 C   0  0  0  0  0  0  0  0  0  0  0  0
    5.1733   -4.5469   29.8123 C   0  0  0  0  0  0  0  0  0  0  0  0
   -1.7508  -11.3016   18.6072 C   0  0  0  0  0  0  0  0  0  0  0  0
    1.7497   -5.6771   26.4971 C   0  0  0  0  0  0  0  0  0  0  0  0
   -1.5799   -9.9322   18.3468 C   0  0  0  0  0  0  0  0  0  0  0  0
   -1.0871  -12.2214   17.8851 C   0  0  0  0  0  0  0  0  0  0  0  0
   -2.2706   -8.9669   19.0691 C   0  0  0  0  0  0  0  0  0  0  0  0
    3.0279   -5.3073   26.8197 C   0  0  0  0  0  0  0  0  0  0  0  0
    7.3282   -3.8948   29.1186 C   0  0  0  0  0  0  0  0  0  0  0  0
  1  3  4  0
  1  7  4  0
  2  3  1  0
  2  6  4  0
  2 16  4  0
  3 22  4  0
  4  9  4  0
  4 10  1  0
  4 20  4  0
  5 16  4  0
  5 23  4  0
  6 15  4  0
  7 12  4  0
  8 13  4  0
  8 14  4  0
  9 11  4  0
 11 14  4  0
 11 19  4  0
 12 18  4  0
 13 21  4  0
 15 23  4  0
 17 19  4  0
 17 20  4  0
 18 22  4  0
 19 21  4  0
M  END
$$$$

 Created by Python create_sdf_string function

 23 25  0  0  0  0  0  0  0  0999 V2000
    2.4610   -5.3070   29.1240 C   0  0  0  0  0  0  0  0  0  0  0  0
    4.7710   -4.6952   28.4803 C   0  0  0  0  0  0  0  0  0  0  0  0
    3.4047   -5.1087   28.1314 C   0  0  0  0  0  0  0  0  0  0  0  0
   -0.2234  -11.8615   16.8874 C   0  0  0  0  0  0  0  0  0  0  0  0
    6.4491   -4.1532   30.1213 C   0  0  0  0  0  0  0  0  0  0  0  0
    5.7060   -4.4340   27.4975 C   0  0  0  0  0  0  0  0  0  0  0  0
    1.1818   -5.6612   28.8399 C   0  0  0  0  0  0  0  0  0  0  0  0
   -1.2067   -7.3287   17.7772 C   0  0  0  0  0  0  0  0  0  0  0  0
   -0.0206  -10.5585   16.6210 C   0  0  0  0  0  0  0  0  0  0  0  0
    0.3696  -12.7626   16.2169 O   0  0  0  0  0  0  0  0  0  0  0  0
   -0.6895   -9.5676   17.3297 C   0  0  0  0  0  0  0  0  0  0  0  0
    0.8388   -5.8417   27.5264 C   0  0  0  0  0  0  0  0  0  0  0  0
   -2.0709   -7.6637   18.7817 C   0  0  0  0  0  0  0  0  0  0  0  0
   -0.5279   -8.2168   17.0717 C   0  0  0  0  0  0  0  0  0  0  0  0
    6.9694   -4.0191   27.8190 C   0  0  0  0  0  0  0  0  0  0  0  0
    5.1733   -4.5469   29.8123 C   0  0  0  0  0  0  0  0  0  0  0  0
   -1.7508  -11.3016   18.6072 C   0  0  0  0  0  0  0  0  0  0  0  0
    1.7497   -5.6771   26.4971 C   0  0  0  0  0  0  0  0  0  0  0  0
   -1.5799   -9.9322   18.3468 C   0  0  0  0  0  0  0  0  0  0  0  0
   -1.0871  -12.2214   17.8851 C   0  0  0  0  0  0  0  0  0  0  0  0
   -2.2706   -8.9669   19.0691 C   0  0  0  0  0  0  0  0  0  0  0  0
    3.0279   -5.3073   26.8197 C   0  0  0  0  0  0  0  0  0  0  0  0
    7.3282   -3.8948   29.1186 C   0  0  0  0  0  0  0  0  0  0  0  0
  1  3  4  0
  1  7  4  0
  2  3  1  0
  2  6  4  0
  2 16  4  0
  3 22  4  0
  4  9  4  0
  4 10  1  0
  4 20  4  0
  5 16  4  0
  5 23  4  0
  6 15  4  0
  7 12  4  0
  8 13  4  0
  8 14  4  0
  9 11  4  0
 11 14  4  0
 11 19  4  0
 12 18  4  0
 13 21  4  0
 15 23  4  0
 17 19  4  0
 17 20  4  0
 18 22  4  0
 19 21  4  0
M  END
$$$$

 Created by Python create_sdf_string function

 23 25  0  0  0  0  0  0  0  0999 V2000
    2.4610   -5.3070   29.1240 C   0  0  0  0  0  0  0  0  0  0  0  0
    4.7710   -4.6952   28.4803 C   0  0  0  0  0  0  0  0  0  0  0  0
    3.4047   -5.1087   28.1314 C   0  0  0  0  0  0  0  0  0  0  0  0
   -0.2234  -11.8615   16.8874 C   0  0  0  0  0  0  0  0  0  0  0  0
    6.4491   -4.1532   30.1213 C   0  0  0  0  0  0  0  0  0  0  0  0
    5.7060   -4.4340   27.4975 C   0  0  0  0  0  0  0  0  0  0  0  0
    1.1818   -5.6612   28.8399 C   0  0  0  0  0  0  0  0  0  0  0  0
   -1.2067   -7.3287   17.7772 C   0  0  0  0  0  0  0  0  0  0  0  0
   -0.0206  -10.5585   16.6210 C   0  0  0  0  0  0  0  0  0  0  0  0
    0.3696  -12.7626   16.2169 O   0  0  0  0  0  0  0  0  0  0  0  0
   -0.6895   -9.5676   17.3297 C   0  0  0  0  0  0  0  0  0  0  0  0
    0.8388   -5.8417   27.5264 C   0  0  0  0  0  0  0  0  0  0  0  0
   -2.0709   -7.6637   18.7817 C   0  0  0  0  0  0  0  0  0  0  0  0
   -0.5279   -8.2168   17.0717 C   0  0  0  0  0  0  0  0  0  0  0  0
    6.9694   -4.0191   27.8190 C   0  0  0  0  0  0  0  0  0  0  0  0
    5.1733   -4.5469   29.8123 C   0  0  0  0  0  0  0  0  0  0  0  0
   -1.7508  -11.3016   18.6072 C   0  0  0  0  0  0  0  0  0  0  0  0
    1.7497   -5.6771   26.4971 C   0  0  0  0  0  0  0  0  0  0  0  0
   -1.5799   -9.9322   18.3468 C   0  0  0  0  0  0  0  0  0  0  0  0
   -1.0871  -12.2214   17.8851 C   0  0  0  0  0  0  0  0  0  0  0  0
   -2.2706   -8.9669   19.0691 C   0  0  0  0  0  0  0  0  0  0  0  0
    3.0279   -5.3073   26.8197 C   0  0  0  0  0  0  0  0  0  0  0  0
    7.3282   -3.8948   29.1186 C   0  0  0  0  0  0  0  0  0  0  0  0
  1  3  4  0
  1  7  4  0
  2  3  1  0
  2  6  4  0
  2 16  4  0
  3 22  4  0
  4  9  4  0
  4 10  1  0
  4 20  4  0
  5 16  4  0
  5 23  4  0
  6 15  4  0
  7 12  4  0
  8 13  4  0
  8 14  4  0
  9 11  4  0
 11 14  4  0
 11 19  4  0
 12 18  4  0
 13 21  4  0
 15 23  4  0
 17 19  4  0
 17 20  4  0
 18 22  4  0
 19 21  4  0
M  END
$$$$

 Created by Python create_sdf_string function

 23 25  0  0  0  0  0  0  0  0999 V2000
    2.4610   -5.3070   29.1240 C   0  0  0  0  0  0  0  0  0  0  0  0
    4.7710   -4.6952   28.4803 C   0  0  0  0  0  0  0  0  0  0  0  0
    3.4047   -5.1087   28.1314 C   0  0  0  0  0  0  0  0  0  0  0  0
   -0.2234  -11.8615   16.8874 C   0  0  0  0  0  0  0  0  0  0  0  0
    6.4491   -4.1532   30.1213 C   0  0  0  0  0  0  0  0  0  0  0  0
    5.7060   -4.4340   27.4975 C   0  0  0  0  0  0  0  0  0  0  0  0
    1.1818   -5.6612   28.8399 C   0  0  0  0  0  0  0  0  0  0  0  0
   -1.2067   -7.3287   17.7772 C   0  0  0  0  0  0  0  0  0  0  0  0
   -0.0206  -10.5585   16.6210 C   0  0  0  0  0  0  0  0  0  0  0  0
    0.3696  -12.7626   16.2169 O   0  0  0  0  0  0  0  0  0  0  0  0
   -0.6895   -9.5676   17.3297 C   0  0  0  0  0  0  0  0  0  0  0  0
    0.8388   -5.8417   27.5264 C   0  0  0  0  0  0  0  0  0  0  0  0
   -2.0709   -7.6637   18.7817 C   0  0  0  0  0  0  0  0  0  0  0  0
   -0.5279   -8.2168   17.0717 C   0  0  0  0  0  0  0  0  0  0  0  0
    6.9694   -4.0191   27.8190 C   0  0  0  0  0  0  0  0  0  0  0  0
    5.1733   -4.5469   29.8123 C   0  0  0  0  0  0  0  0  0  0  0  0
   -1.7508  -11.3016   18.6072 C   0  0  0  0  0  0  0  0  0  0  0  0
    1.7497   -5.6771   26.4971 C   0  0  0  0  0  0  0  0  0  0  0  0
   -1.5799   -9.9322   18.3468 C   0  0  0  0  0  0  0  0  0  0  0  0
   -1.0871  -12.2214   17.8851 C   0  0  0  0  0  0  0  0  0  0  0  0
   -2.2706   -8.9669   19.0691 C   0  0  0  0  0  0  0  0  0  0  0  0
    3.0279   -5.3073   26.8197 C   0  0  0  0  0  0  0  0  0  0  0  0
    7.3282   -3.8948   29.1186 C   0  0  0  0  0  0  0  0  0  0  0  0
  1  3  4  0
  1  7  4  0
  2  3  1  0
  2  6  4  0
  2 16  4  0
  3 22  4  0
  4  9  4  0
  4 10  1  0
  4 20  4  0
  5 16  4  0
  5 23  4  0
  6 15  4  0
  7 12  4  0
  8 13  4  0
  8 14  4  0
  9 11  4  0
 11 14  4  0
 11 19  4  0
 12 18  4  0
 13 21  4  0
 15 23  4  0
 17 19  4  0
 17 20  4  0
 18 22  4  0
 19 21  4  0
M  END
$$$$

 Created by Python create_sdf_string function

 23 25  0  0  0  0  0  0  0  0999 V2000
    2.4610   -5.3070   29.1240 C   0  0  0  0  0  0  0  0  0  0  0  0
    4.7710   -4.6952   28.4803 C   0  0  0  0  0  0  0  0  0  0  0  0
    3.4047   -5.1087   28.1314 C   0  0  0  0  0  0  0  0  0  0  0  0
   -0.2234  -11.8615   16.8874 C   0  0  0  0  0  0  0  0  0  0  0  0
    6.4491   -4.1532   30.1213 C   0  0  0  0  0  0  0  0  0  0  0  0
    5.7060   -4.4340   27.4975 C   0  0  0  0  0  0  0  0  0  0  0  0
    1.1818   -5.6612   28.8399 C   0  0  0  0  0  0  0  0  0  0  0  0
   -1.2067   -7.3287   17.7772 C   0  0  0  0  0  0  0  0  0  0  0  0
   -0.0206  -10.5585   16.6210 C   0  0  0  0  0  0  0  0  0  0  0  0
    0.3696  -12.7626   16.2169 O   0  0  0  0  0  0  0  0  0  0  0  0
   -0.6895   -9.5676   17.3297 C   0  0  0  0  0  0  0  0  0  0  0  0
    0.8388   -5.8417   27.5264 C   0  0  0  0  0  0  0  0  0  0  0  0
   -2.0709   -7.6637   18.7817 C   0  0  0  0  0  0  0  0  0  0  0  0
   -0.5279   -8.2168   17.0717 C   0  0  0  0  0  0  0  0  0  0  0  0
    6.9694   -4.0191   27.8190 C   0  0  0  0  0  0  0  0  0  0  0  0
    5.1733   -4.5469   29.8123 C   0  0  0  0  0  0  0  0  0  0  0  0
   -1.7508  -11.3016   18.6072 C   0  0  0  0  0  0  0  0  0  0  0  0
    1.7497   -5.6771   26.4971 C   0  0  0  0  0  0  0  0  0  0  0  0
   -1.5799   -9.9322   18.3468 C   0  0  0  0  0  0  0  0  0  0  0  0
   -1.0871  -12.2214   17.8851 C   0  0  0  0  0  0  0  0  0  0  0  0
   -2.2706   -8.9669   19.0691 C   0  0  0  0  0  0  0  0  0  0  0  0
    3.0279   -5.3073   26.8197 C   0  0  0  0  0  0  0  0  0  0  0  0
    7.3282   -3.8948   29.1186 C   0  0  0  0  0  0  0  0  0  0  0  0
  1  3  4  0
  1  7  4  0
  2  3  1  0
  2  6  4  0
  2 16  4  0
  3 22  4  0
  4  9  4  0
  4 10  1  0
  4 20  4  0
  5 16  4  0
  5 23  4  0
  6 15  4  0
  7 12  4  0
  8 13  4  0
  8 14  4  0
  9 11  4  0
 11 14  4  0
 11 19  4  0
 12 18  4  0
 13 21  4  0
 15 23  4  0
 17 19  4  0
 17 20  4  0
 18 22  4  0
 19 21  4  0
M  END
$$$$

 Created by Python create_sdf_string function

 23 25  0  0  0  0  0  0  0  0999 V2000
    2.4610   -5.3070   29.1240 C   0  0  0  0  0  0  0  0  0  0  0  0
    4.7710   -4.6952   28.4803 C   0  0  0  0  0  0  0  0  0  0  0  0
    3.4047   -5.1087   28.1314 C   0  0  0  0  0  0  0  0  0  0  0  0
   -0.2234  -11.8615   16.8874 C   0  0  0  0  0  0  0  0  0  0  0  0
    6.4491   -4.1532   30.1213 C   0  0  0  0  0  0  0  0  0  0  0  0
    5.7060   -4.4340   27.4975 C   0  0  0  0  0  0  0  0  0  0  0  0
    1.1818   -5.6612   28.8399 C   0  0  0  0  0  0  0  0  0  0  0  0
   -1.2067   -7.3287   17.7772 C   0  0  0  0  0  0  0  0  0  0  0  0
   -0.0206  -10.5585   16.6210 C   0  0  0  0  0  0  0  0  0  0  0  0
    0.3696  -12.7626   16.2169 O   0  0  0  0  0  0  0  0  0  0  0  0
   -0.6895   -9.5676   17.3297 C   0  0  0  0  0  0  0  0  0  0  0  0
    0.8388   -5.8417   27.5264 C   0  0  0  0  0  0  0  0  0  0  0  0
   -2.0709   -7.6637   18.7817 C   0  0  0  0  0  0  0  0  0  0  0  0
   -0.5279   -8.2168   17.0717 C   0  0  0  0  0  0  0  0  0  0  0  0
    6.9694   -4.0191   27.8190 C   0  0  0  0  0  0  0  0  0  0  0  0
    5.1733   -4.5469   29.8123 C   0  0  0  0  0  0  0  0  0  0  0  0
   -1.7508  -11.3016   18.6072 C   0  0  0  0  0  0  0  0  0  0  0  0
    1.7497   -5.6771   26.4971 C   0  0  0  0  0  0  0  0  0  0  0  0
   -1.5799   -9.9322   18.3468 C   0  0  0  0  0  0  0  0  0  0  0  0
   -1.0871  -12.2214   17.8851 C   0  0  0  0  0  0  0  0  0  0  0  0
   -2.2706   -8.9669   19.0691 C   0  0  0  0  0  0  0  0  0  0  0  0
    3.0279   -5.3073   26.8197 C   0  0  0  0  0  0  0  0  0  0  0  0
    7.3282   -3.8948   29.1186 C   0  0  0  0  0  0  0  0  0  0  0  0
  1  3  4  0
  1  7  4  0
  2  3  1  0
  2  6  4  0
  2 16  4  0
  3 22  4  0
  4  9  4  0
  4 10  1  0
  4 20  4  0
  5 16  4  0
  5 23  4  0
  6 15  4  0
  7 12  4  0
  8 13  4  0
  8 14  4  0
  9 11  4  0
 11 14  4  0
 11 19  4  0
 12 18  4  0
 13 21  4  0
 15 23  4  0
 17 19  4  0
 17 20  4  0
 18 22  4  0
 19 21  4  0
M  END
$$$$

 Created by Python create_sdf_string function

 23 25  0  0  0  0  0  0  0  0999 V2000
    2.4610   -5.3070   29.1240 C   0  0  0  0  0  0  0  0  0  0  0  0
    4.7710   -4.6952   28.4803 C   0  0  0  0  0  0  0  0  0  0  0  0
    3.4047   -5.1087   28.1314 C   0  0  0  0  0  0  0  0  0  0  0  0
   -0.2234  -11.8615   16.8874 C   0  0  0  0  0  0  0  0  0  0  0  0
    6.4491   -4.1532   30.1213 C   0  0  0  0  0  0  0  0  0  0  0  0
    5.7060   -4.4340   27.4975 C   0  0  0  0  0  0  0  0  0  0  0  0
    1.1818   -5.6612   28.8399 C   0  0  0  0  0  0  0  0  0  0  0  0
   -1.2067   -7.3287   17.7772 C   0  0  0  0  0  0  0  0  0  0  0  0
   -0.0206  -10.5585   16.6210 C   0  0  0  0  0  0  0  0  0  0  0  0
    0.3696  -12.7626   16.2169 O   0  0  0  0  0  0  0  0  0  0  0  0
   -0.6895   -9.5676   17.3297 C   0  0  0  0  0  0  0  0  0  0  0  0
    0.8388   -5.8417   27.5264 C   0  0  0  0  0  0  0  0  0  0  0  0
   -2.0709   -7.6637   18.7817 C   0  0  0  0  0  0  0  0  0  0  0  0
   -0.5279   -8.2168   17.0717 C   0  0  0  0  0  0  0  0  0  0  0  0
    6.9694   -4.0191   27.8190 C   0  0  0  0  0  0  0  0  0  0  0  0
    5.1733   -4.5469   29.8123 C   0  0  0  0  0  0  0  0  0  0  0  0
   -1.7508  -11.3016   18.6072 C   0  0  0  0  0  0  0  0  0  0  0  0
    1.7497   -5.6771   26.4971 C   0  0  0  0  0  0  0  0  0  0  0  0
   -1.5799   -9.9322   18.3468 C   0  0  0  0  0  0  0  0  0  0  0  0
   -1.0871  -12.2214   17.8851 C   0  0  0  0  0  0  0  0  0  0  0  0
   -2.2706   -8.9669   19.0691 C   0  0  0  0  0  0  0  0  0  0  0  0
    3.0279   -5.3073   26.8197 C   0  0  0  0  0  0  0  0  0  0  0  0
    7.3282   -3.8948   29.1186 C   0  0  0  0  0  0  0  0  0  0  0  0
  1  3  4  0
  1  7  4  0
  2  3  1  0
  2  6  4  0
  2 16  4  0
  3 22  4  0
  4  9  4  0
  4 10  1  0
  4 20  4  0
  5 16  4  0
  5 23  4  0
  6 15  4  0
  7 12  4  0
  8 13  4  0
  8 14  4  0
  9 11  4  0
 11 14  4  0
 11 19  4  0
 12 18  4  0
 13 21  4  0
 15 23  4  0
 17 19  4  0
 17 20  4  0
 18 22  4  0
 19 21  4  0
M  END
$$$$

 Created by Python create_sdf_string function

 23 25  0  0  0  0  0  0  0  0999 V2000
    2.4610   -5.3070   29.1240 C   0  0  0  0  0  0  0  0  0  0  0  0
    4.7710   -4.6952   28.4803 C   0  0  0  0  0  0  0  0  0  0  0  0
    3.4047   -5.1087   28.1314 C   0  0  0  0  0  0  0  0  0  0  0  0
   -0.2234  -11.8615   16.8874 C   0  0  0  0  0  0  0  0  0  0  0  0
    6.4491   -4.1532   30.1213 C   0  0  0  0  0  0  0  0  0  0  0  0
    5.7060   -4.4340   27.4975 C   0  0  0  0  0  0  0  0  0  0  0  0
    1.1818   -5.6612   28.8399 C   0  0  0  0  0  0  0  0  0  0  0  0
   -1.2067   -7.3287   17.7772 C   0  0  0  0  0  0  0  0  0  0  0  0
   -0.0206  -10.5585   16.6210 C   0  0  0  0  0  0  0  0  0  0  0  0
    0.3696  -12.7626   16.2169 O   0  0  0  0  0  0  0  0  0  0  0  0
   -0.6895   -9.5676   17.3297 C   0  0  0  0  0  0  0  0  0  0  0  0
    0.8388   -5.8417   27.5264 C   0  0  0  0  0  0  0  0  0  0  0  0
   -2.0709   -7.6637   18.7817 C   0  0  0  0  0  0  0  0  0  0  0  0
   -0.5279   -8.2168   17.0717 C   0  0  0  0  0  0  0  0  0  0  0  0
    6.9694   -4.0191   27.8190 C   0  0  0  0  0  0  0  0  0  0  0  0
    5.1733   -4.5469   29.8123 C   0  0  0  0  0  0  0  0  0  0  0  0
   -1.7508  -11.3016   18.6072 C   0  0  0  0  0  0  0  0  0  0  0  0
    1.7497   -5.6771   26.4971 C   0  0  0  0  0  0  0  0  0  0  0  0
   -1.5799   -9.9322   18.3468 C   0  0  0  0  0  0  0  0  0  0  0  0
   -1.0871  -12.2214   17.8851 C   0  0  0  0  0  0  0  0  0  0  0  0
   -2.2706   -8.9669   19.0691 C   0  0  0  0  0  0  0  0  0  0  0  0
    3.0279   -5.3073   26.8197 C   0  0  0  0  0  0  0  0  0  0  0  0
    7.3282   -3.8948   29.1186 C   0  0  0  0  0  0  0  0  0  0  0  0
  1  3  4  0
  1  7  4  0
  2  3  1  0
  2  6  4  0
  2 16  4  0
  3 22  4  0
  4  9  4  0
  4 10  1  0
  4 20  4  0
  5 16  4  0
  5 23  4  0
  6 15  4  0
  7 12  4  0
  8 13  4  0
  8 14  4  0
  9 11  4  0
 11 14  4  0
 11 19  4  0
 12 18  4  0
 13 21  4  0
 15 23  4  0
 17 19  4  0
 17 20  4  0
 18 22  4  0
 19 21  4  0
M  END
$$$$

 Created by Python create_sdf_string function

 23 25  0  0  0  0  0  0  0  0999 V2000
    2.4610   -5.3070   29.1240 C   0  0  0  0  0  0  0  0  0  0  0  0
    4.7710   -4.6952   28.4803 C   0  0  0  0  0  0  0  0  0  0  0  0
    3.4047   -5.1087   28.1314 C   0  0  0  0  0  0  0  0  0  0  0  0
   -0.2234  -11.8615   16.8874 C   0  0  0  0  0  0  0  0  0  0  0  0
    6.4491   -4.1532   30.1213 C   0  0  0  0  0  0  0  0  0  0  0  0
    5.7060   -4.4340   27.4975 C   0  0  0  0  0  0  0  0  0  0  0  0
    1.1818   -5.6612   28.8399 C   0  0  0  0  0  0  0  0  0  0  0  0
   -1.2067   -7.3287   17.7772 C   0  0  0  0  0  0  0  0  0  0  0  0
   -0.0206  -10.5585   16.6210 C   0  0  0  0  0  0  0  0  0  0  0  0
    0.3696  -12.7626   16.2169 O   0  0  0  0  0  0  0  0  0  0  0  0
   -0.6895   -9.5676   17.3297 C   0  0  0  0  0  0  0  0  0  0  0  0
    0.8388   -5.8417   27.5264 C   0  0  0  0  0  0  0  0  0  0  0  0
   -2.0709   -7.6637   18.7817 C   0  0  0  0  0  0  0  0  0  0  0  0
   -0.5279   -8.2168   17.0717 C   0  0  0  0  0  0  0  0  0  0  0  0
    6.9694   -4.0191   27.8190 C   0  0  0  0  0  0  0  0  0  0  0  0
    5.1733   -4.5469   29.8123 C   0  0  0  0  0  0  0  0  0  0  0  0
   -1.7508  -11.3016   18.6072 C   0  0  0  0  0  0  0  0  0  0  0  0
    1.7497   -5.6771   26.4971 C   0  0  0  0  0  0  0  0  0  0  0  0
   -1.5799   -9.9322   18.3468 C   0  0  0  0  0  0  0  0  0  0  0  0
   -1.0871  -12.2214   17.8851 C   0  0  0  0  0  0  0  0  0  0  0  0
   -2.2706   -8.9669   19.0691 C   0  0  0  0  0  0  0  0  0  0  0  0
    3.0279   -5.3073   26.8197 C   0  0  0  0  0  0  0  0  0  0  0  0
    7.3282   -3.8948   29.1186 C   0  0  0  0  0  0  0  0  0  0  0  0
  1  3  4  0
  1  7  4  0
  2  3  1  0
  2  6  4  0
  2 16  4  0
  3 22  4  0
  4  9  4  0
  4 10  1  0
  4 20  4  0
  5 16  4  0
  5 23  4  0
  6 15  4  0
  7 12  4  0
  8 13  4  0
  8 14  4  0
  9 11  4  0
 11 14  4  0
 11 19  4  0
 12 18  4  0
 13 21  4  0
 15 23  4  0
 17 19  4  0
 17 20  4  0
 18 22  4  0
 19 21  4  0
M  END
$$$$

 Created by Python create_sdf_string function

 23 25  0  0  0  0  0  0  0  0999 V2000
    2.4610   -5.3070   29.1240 C   0  0  0  0  0  0  0  0  0  0  0  0
    4.7710   -4.6952   28.4803 C   0  0  0  0  0  0  0  0  0  0  0  0
    3.4047   -5.1087   28.1314 C   0  0  0  0  0  0  0  0  0  0  0  0
   -0.2234  -11.8615   16.8874 C   0  0  0  0  0  0  0  0  0  0  0  0
    6.4491   -4.1532   30.1213 C   0  0  0  0  0  0  0  0  0  0  0  0
    5.7060   -4.4340   27.4975 C   0  0  0  0  0  0  0  0  0  0  0  0
    1.1818   -5.6612   28.8399 C   0  0  0  0  0  0  0  0  0  0  0  0
   -1.2067   -7.3287   17.7772 C   0  0  0  0  0  0  0  0  0  0  0  0
   -0.0206  -10.5585   16.6210 C   0  0  0  0  0  0  0  0  0  0  0  0
    0.3696  -12.7626   16.2169 O   0  0  0  0  0  0  0  0  0  0  0  0
   -0.6895   -9.5676   17.3297 C   0  0  0  0  0  0  0  0  0  0  0  0
    0.8388   -5.8417   27.5264 C   0  0  0  0  0  0  0  0  0  0  0  0
   -2.0709   -7.6637   18.7817 C   0  0  0  0  0  0  0  0  0  0  0  0
   -0.5279   -8.2168   17.0717 C   0  0  0  0  0  0  0  0  0  0  0  0
    6.9694   -4.0191   27.8190 C   0  0  0  0  0  0  0  0  0  0  0  0
    5.1733   -4.5469   29.8123 C   0  0  0  0  0  0  0  0  0  0  0  0
   -1.7508  -11.3016   18.6072 C   0  0  0  0  0  0  0  0  0  0  0  0
    1.7497   -5.6771   26.4971 C   0  0  0  0  0  0  0  0  0  0  0  0
   -1.5799   -9.9322   18.3468 C   0  0  0  0  0  0  0  0  0  0  0  0
   -1.0871  -12.2214   17.8851 C   0  0  0  0  0  0  0  0  0  0  0  0
   -2.2706   -8.9669   19.0691 C   0  0  0  0  0  0  0  0  0  0  0  0
    3.0279   -5.3073   26.8197 C   0  0  0  0  0  0  0  0  0  0  0  0
    7.3282   -3.8948   29.1186 C   0  0  0  0  0  0  0  0  0  0  0  0
  1  3  4  0
  1  7  4  0
  2  3  1  0
  2  6  4  0
  2 16  4  0
  3 22  4  0
  4  9  4  0
  4 10  1  0
  4 20  4  0
  5 16  4  0
  5 23  4  0
  6 15  4  0
  7 12  4  0
  8 13  4  0
  8 14  4  0
  9 11  4  0
 11 14  4  0
 11 19  4  0
 12 18  4  0
 13 21  4  0
 15 23  4  0
 17 19  4  0
 17 20  4  0
 18 22  4  0
 19 21  4  0
M  END
$$$$

 Created by Python create_sdf_string function

 23 25  0  0  0  0  0  0  0  0999 V2000
    2.4610   -5.3070   29.1240 C   0  0  0  0  0  0  0  0  0  0  0  0
    4.7710   -4.6952   28.4803 C   0  0  0  0  0  0  0  0  0  0  0  0
    3.4047   -5.1087   28.1314 C   0  0  0  0  0  0  0  0  0  0  0  0
   -0.2234  -11.8615   16.8874 C   0  0  0  0  0  0  0  0  0  0  0  0
    6.4491   -4.1532   30.1213 C   0  0  0  0  0  0  0  0  0  0  0  0
    5.7060   -4.4340   27.4975 C   0  0  0  0  0  0  0  0  0  0  0  0
    1.1818   -5.6612   28.8399 C   0  0  0  0  0  0  0  0  0  0  0  0
   -1.2067   -7.3287   17.7772 C   0  0  0  0  0  0  0  0  0  0  0  0
   -0.0206  -10.5585   16.6210 C   0  0  0  0  0  0  0  0  0  0  0  0
    0.3696  -12.7626   16.2169 O   0  0  0  0  0  0  0  0  0  0  0  0
   -0.6895   -9.5676   17.3297 C   0  0  0  0  0  0  0  0  0  0  0  0
    0.8388   -5.8417   27.5264 C   0  0  0  0  0  0  0  0  0  0  0  0
   -2.0709   -7.6637   18.7817 C   0  0  0  0  0  0  0  0  0  0  0  0
   -0.5279   -8.2168   17.0717 C   0  0  0  0  0  0  0  0  0  0  0  0
    6.9694   -4.0191   27.8190 C   0  0  0  0  0  0  0  0  0  0  0  0
    5.1733   -4.5469   29.8123 C   0  0  0  0  0  0  0  0  0  0  0  0
   -1.7508  -11.3016   18.6072 C   0  0  0  0  0  0  0  0  0  0  0  0
    1.7497   -5.6771   26.4971 C   0  0  0  0  0  0  0  0  0  0  0  0
   -1.5799   -9.9322   18.3468 C   0  0  0  0  0  0  0  0  0  0  0  0
   -1.0871  -12.2214   17.8851 C   0  0  0  0  0  0  0  0  0  0  0  0
   -2.2706   -8.9669   19.0691 C   0  0  0  0  0  0  0  0  0  0  0  0
    3.0279   -5.3073   26.8197 C   0  0  0  0  0  0  0  0  0  0  0  0
    7.3282   -3.8948   29.1186 C   0  0  0  0  0  0  0  0  0  0  0  0
  1  3  4  0
  1  7  4  0
  2  3  1  0
  2  6  4  0
  2 16  4  0
  3 22  4  0
  4  9  4  0
  4 10  1  0
  4 20  4  0
  5 16  4  0
  5 23  4  0
  6 15  4  0
  7 12  4  0
  8 13  4  0
  8 14  4  0
  9 11  4  0
 11 14  4  0
 11 19  4  0
 12 18  4  0
 13 21  4  0
 15 23  4  0
 17 19  4  0
 17 20  4  0
 18 22  4  0
 19 21  4  0
M  END
$$$$

 Created by Python create_sdf_string function

 23 25  0  0  0  0  0  0  0  0999 V2000
    2.4610   -5.3070   29.1240 C   0  0  0  0  0  0  0  0  0  0  0  0
    4.7710   -4.6952   28.4803 C   0  0  0  0  0  0  0  0  0  0  0  0
    3.4047   -5.1087   28.1314 C   0  0  0  0  0  0  0  0  0  0  0  0
   -0.2234  -11.8615   16.8874 C   0  0  0  0  0  0  0  0  0  0  0  0
    6.4491   -4.1532   30.1213 C   0  0  0  0  0  0  0  0  0  0  0  0
    5.7060   -4.4340   27.4975 C   0  0  0  0  0  0  0  0  0  0  0  0
    1.1818   -5.6612   28.8399 C   0  0  0  0  0  0  0  0  0  0  0  0
   -1.2067   -7.3287   17.7772 C   0  0  0  0  0  0  0  0  0  0  0  0
   -0.0206  -10.5585   16.6210 C   0  0  0  0  0  0  0  0  0  0  0  0
    0.3696  -12.7626   16.2169 O   0  0  0  0  0  0  0  0  0  0  0  0
   -0.6895   -9.5676   17.3297 C   0  0  0  0  0  0  0  0  0  0  0  0
    0.8388   -5.8417   27.5264 C   0  0  0  0  0  0  0  0  0  0  0  0
   -2.0709   -7.6637   18.7817 C   0  0  0  0  0  0  0  0  0  0  0  0
   -0.5279   -8.2168   17.0717 C   0  0  0  0  0  0  0  0  0  0  0  0
    6.9694   -4.0191   27.8190 C   0  0  0  0  0  0  0  0  0  0  0  0
    5.1733   -4.5469   29.8123 C   0  0  0  0  0  0  0  0  0  0  0  0
   -1.7508  -11.3016   18.6072 C   0  0  0  0  0  0  0  0  0  0  0  0
    1.7497   -5.6771   26.4971 C   0  0  0  0  0  0  0  0  0  0  0  0
   -1.5799   -9.9322   18.3468 C   0  0  0  0  0  0  0  0  0  0  0  0
   -1.0871  -12.2214   17.8851 C   0  0  0  0  0  0  0  0  0  0  0  0
   -2.2706   -8.9669   19.0691 C   0  0  0  0  0  0  0  0  0  0  0  0
    3.0279   -5.3073   26.8197 C   0  0  0  0  0  0  0  0  0  0  0  0
    7.3282   -3.8948   29.1186 C   0  0  0  0  0  0  0  0  0  0  0  0
  1  3  4  0
  1  7  4  0
  2  3  1  0
  2  6  4  0
  2 16  4  0
  3 22  4  0
  4  9  4  0
  4 10  1  0
  4 20  4  0
  5 16  4  0
  5 23  4  0
  6 15  4  0
  7 12  4  0
  8 13  4  0
  8 14  4  0
  9 11  4  0
 11 14  4  0
 11 19  4  0
 12 18  4  0
 13 21  4  0
 15 23  4  0
 17 19  4  0
 17 20  4  0
 18 22  4  0
 19 21  4  0
M  END
$$$$

 Created by Python create_sdf_string function

 23 25  0  0  0  0  0  0  0  0999 V2000
    2.4610   -5.3070   29.1240 C   0  0  0  0  0  0  0  0  0  0  0  0
    4.7710   -4.6952   28.4803 C   0  0  0  0  0  0  0  0  0  0  0  0
    3.4047   -5.1087   28.1314 C   0  0  0  0  0  0  0  0  0  0  0  0
   -0.2234  -11.8615   16.8874 C   0  0  0  0  0  0  0  0  0  0  0  0
    6.4491   -4.1532   30.1213 C   0  0  0  0  0  0  0  0  0  0  0  0
    5.7060   -4.4340   27.4975 C   0  0  0  0  0  0  0  0  0  0  0  0
    1.1818   -5.6612   28.8399 C   0  0  0  0  0  0  0  0  0  0  0  0
   -1.2067   -7.3287   17.7772 C   0  0  0  0  0  0  0  0  0  0  0  0
   -0.0206  -10.5585   16.6210 C   0  0  0  0  0  0  0  0  0  0  0  0
    0.3696  -12.7626   16.2169 O   0  0  0  0  0  0  0  0  0  0  0  0
   -0.6895   -9.5676   17.3297 C   0  0  0  0  0  0  0  0  0  0  0  0
    0.8388   -5.8417   27.5264 C   0  0  0  0  0  0  0  0  0  0  0  0
   -2.0709   -7.6637   18.7817 C   0  0  0  0  0  0  0  0  0  0  0  0
   -0.5279   -8.2168   17.0717 C   0  0  0  0  0  0  0  0  0  0  0  0
    6.9694   -4.0191   27.8190 C   0  0  0  0  0  0  0  0  0  0  0  0
    5.1733   -4.5469   29.8123 C   0  0  0  0  0  0  0  0  0  0  0  0
   -1.7508  -11.3016   18.6072 C   0  0  0  0  0  0  0  0  0  0  0  0
    1.7497   -5.6771   26.4971 C   0  0  0  0  0  0  0  0  0  0  0  0
   -1.5799   -9.9322   18.3468 C   0  0  0  0  0  0  0  0  0  0  0  0
   -1.0871  -12.2214   17.8851 C   0  0  0  0  0  0  0  0  0  0  0  0
   -2.2706   -8.9669   19.0691 C   0  0  0  0  0  0  0  0  0  0  0  0
    3.0279   -5.3073   26.8197 C   0  0  0  0  0  0  0  0  0  0  0  0
    7.3282   -3.8948   29.1186 C   0  0  0  0  0  0  0  0  0  0  0  0
  1  3  4  0
  1  7  4  0
  2  3  1  0
  2  6  4  0
  2 16  4  0
  3 22  4  0
  4  9  4  0
  4 10  1  0
  4 20  4  0
  5 16  4  0
  5 23  4  0
  6 15  4  0
  7 12  4  0
  8 13  4  0
  8 14  4  0
  9 11  4  0
 11 14  4  0
 11 19  4  0
 12 18  4  0
 13 21  4  0
 15 23  4  0
 17 19  4  0
 17 20  4  0
 18 22  4  0
 19 21  4  0
M  END
$$$$

 Created by Python create_sdf_string function

 23 25  0  0  0  0  0  0  0  0999 V2000
    2.4610   -5.3070   29.1240 C   0  0  0  0  0  0  0  0  0  0  0  0
    4.7710   -4.6952   28.4803 C   0  0  0  0  0  0  0  0  0  0  0  0
    3.4047   -5.1087   28.1314 C   0  0  0  0  0  0  0  0  0  0  0  0
   -0.2234  -11.8615   16.8874 C   0  0  0  0  0  0  0  0  0  0  0  0
    6.4491   -4.1532   30.1213 C   0  0  0  0  0  0  0  0  0  0  0  0
    5.7060   -4.4340   27.4975 C   0  0  0  0  0  0  0  0  0  0  0  0
    1.1818   -5.6612   28.8399 C   0  0  0  0  0  0  0  0  0  0  0  0
   -1.2067   -7.3287   17.7772 C   0  0  0  0  0  0  0  0  0  0  0  0
   -0.0206  -10.5585   16.6210 C   0  0  0  0  0  0  0  0  0  0  0  0
    0.3696  -12.7626   16.2169 O   0  0  0  0  0  0  0  0  0  0  0  0
   -0.6895   -9.5676   17.3297 C   0  0  0  0  0  0  0  0  0  0  0  0
    0.8388   -5.8417   27.5264 C   0  0  0  0  0  0  0  0  0  0  0  0
   -2.0709   -7.6637   18.7817 C   0  0  0  0  0  0  0  0  0  0  0  0
   -0.5279   -8.2168   17.0717 C   0  0  0  0  0  0  0  0  0  0  0  0
    6.9694   -4.0191   27.8190 C   0  0  0  0  0  0  0  0  0  0  0  0
    5.1733   -4.5469   29.8123 C   0  0  0  0  0  0  0  0  0  0  0  0
   -1.7508  -11.3016   18.6072 C   0  0  0  0  0  0  0  0  0  0  0  0
    1.7497   -5.6771   26.4971 C   0  0  0  0  0  0  0  0  0  0  0  0
   -1.5799   -9.9322   18.3468 C   0  0  0  0  0  0  0  0  0  0  0  0
   -1.0871  -12.2214   17.8851 C   0  0  0  0  0  0  0  0  0  0  0  0
   -2.2706   -8.9669   19.0691 C   0  0  0  0  0  0  0  0  0  0  0  0
    3.0279   -5.3073   26.8197 C   0  0  0  0  0  0  0  0  0  0  0  0
    7.3282   -3.8948   29.1186 C   0  0  0  0  0  0  0  0  0  0  0  0
  1  3  4  0
  1  7  4  0
  2  3  1  0
  2  6  4  0
  2 16  4  0
  3 22  4  0
  4  9  4  0
  4 10  1  0
  4 20  4  0
  5 16  4  0
  5 23  4  0
  6 15  4  0
  7 12  4  0
  8 13  4  0
  8 14  4  0
  9 11  4  0
 11 14  4  0
 11 19  4  0
 12 18  4  0
 13 21  4  0
 15 23  4  0
 17 19  4  0
 17 20  4  0
 18 22  4  0
 19 21  4  0
M  END
$$$$

 Created by Python create_sdf_string function

 23 25  0  0  0  0  0  0  0  0999 V2000
    2.4610   -5.3070   29.1240 C   0  0  0  0  0  0  0  0  0  0  0  0
    4.7710   -4.6952   28.4803 C   0  0  0  0  0  0  0  0  0  0  0  0
    3.4047   -5.1087   28.1314 C   0  0  0  0  0  0  0  0  0  0  0  0
   -0.2234  -11.8615   16.8874 C   0  0  0  0  0  0  0  0  0  0  0  0
    6.4491   -4.1532   30.1213 C   0  0  0  0  0  0  0  0  0  0  0  0
    5.7060   -4.4340   27.4975 C   0  0  0  0  0  0  0  0  0  0  0  0
    1.1818   -5.6612   28.8399 C   0  0  0  0  0  0  0  0  0  0  0  0
   -1.2067   -7.3287   17.7772 C   0  0  0  0  0  0  0  0  0  0  0  0
   -0.0206  -10.5585   16.6210 C   0  0  0  0  0  0  0  0  0  0  0  0
    0.3696  -12.7626   16.2169 O   0  0  0  0  0  0  0  0  0  0  0  0
   -0.6895   -9.5676   17.3297 C   0  0  0  0  0  0  0  0  0  0  0  0
    0.8388   -5.8417   27.5264 C   0  0  0  0  0  0  0  0  0  0  0  0
   -2.0709   -7.6637   18.7817 C   0  0  0  0  0  0  0  0  0  0  0  0
   -0.5279   -8.2168   17.0717 C   0  0  0  0  0  0  0  0  0  0  0  0
    6.9694   -4.0191   27.8190 C   0  0  0  0  0  0  0  0  0  0  0  0
    5.1733   -4.5469   29.8123 C   0  0  0  0  0  0  0  0  0  0  0  0
   -1.7508  -11.3016   18.6072 C   0  0  0  0  0  0  0  0  0  0  0  0
    1.7497   -5.6771   26.4971 C   0  0  0  0  0  0  0  0  0  0  0  0
   -1.5799   -9.9322   18.3468 C   0  0  0  0  0  0  0  0  0  0  0  0
   -1.0871  -12.2214   17.8851 C   0  0  0  0  0  0  0  0  0  0  0  0
   -2.2706   -8.9669   19.0691 C   0  0  0  0  0  0  0  0  0  0  0  0
    3.0279   -5.3073   26.8197 C   0  0  0  0  0  0  0  0  0  0  0  0
    7.3282   -3.8948   29.1186 C   0  0  0  0  0  0  0  0  0  0  0  0
  1  3  4  0
  1  7  4  0
  2  3  1  0
  2  6  4  0
  2 16  4  0
  3 22  4  0
  4  9  4  0
  4 10  1  0
  4 20  4  0
  5 16  4  0
  5 23  4  0
  6 15  4  0
  7 12  4  0
  8 13  4  0
  8 14  4  0
  9 11  4  0
 11 14  4  0
 11 19  4  0
 12 18  4  0
 13 21  4  0
 15 23  4  0
 17 19  4  0
 17 20  4  0
 18 22  4  0
 19 21  4  0
M  END
$$$$

 Created by Python create_sdf_string function

 23 25  0  0  0  0  0  0  0  0999 V2000
    2.4610   -5.3070   29.1240 C   0  0  0  0  0  0  0  0  0  0  0  0
    4.7710   -4.6952   28.4803 C   0  0  0  0  0  0  0  0  0  0  0  0
    3.4047   -5.1087   28.1314 C   0  0  0  0  0  0  0  0  0  0  0  0
   -0.2234  -11.8615   16.8874 C   0  0  0  0  0  0  0  0  0  0  0  0
    6.4491   -4.1532   30.1213 C   0  0  0  0  0  0  0  0  0  0  0  0
    5.7060   -4.4340   27.4975 C   0  0  0  0  0  0  0  0  0  0  0  0
    1.1818   -5.6612   28.8399 C   0  0  0  0  0  0  0  0  0  0  0  0
   -1.2067   -7.3287   17.7772 C   0  0  0  0  0  0  0  0  0  0  0  0
   -0.0206  -10.5585   16.6210 C   0  0  0  0  0  0  0  0  0  0  0  0
    0.3696  -12.7626   16.2169 O   0  0  0  0  0  0  0  0  0  0  0  0
   -0.6895   -9.5676   17.3297 C   0  0  0  0  0  0  0  0  0  0  0  0
    0.8388   -5.8417   27.5264 C   0  0  0  0  0  0  0  0  0  0  0  0
   -2.0709   -7.6637   18.7817 C   0  0  0  0  0  0  0  0  0  0  0  0
   -0.5279   -8.2168   17.0717 C   0  0  0  0  0  0  0  0  0  0  0  0
    6.9694   -4.0191   27.8190 C   0  0  0  0  0  0  0  0  0  0  0  0
    5.1733   -4.5469   29.8123 C   0  0  0  0  0  0  0  0  0  0  0  0
   -1.7508  -11.3016   18.6072 C   0  0  0  0  0  0  0  0  0  0  0  0
    1.7497   -5.6771   26.4971 C   0  0  0  0  0  0  0  0  0  0  0  0
   -1.5799   -9.9322   18.3468 C   0  0  0  0  0  0  0  0  0  0  0  0
   -1.0871  -12.2214   17.8851 C   0  0  0  0  0  0  0  0  0  0  0  0
   -2.2706   -8.9669   19.0691 C   0  0  0  0  0  0  0  0  0  0  0  0
    3.0279   -5.3073   26.8197 C   0  0  0  0  0  0  0  0  0  0  0  0
    7.3282   -3.8948   29.1186 C   0  0  0  0  0  0  0  0  0  0  0  0
  1  3  4  0
  1  7  4  0
  2  3  1  0
  2  6  4  0
  2 16  4  0
  3 22  4  0
  4  9  4  0
  4 10  1  0
  4 20  4  0
  5 16  4  0
  5 23  4  0
  6 15  4  0
  7 12  4  0
  8 13  4  0
  8 14  4  0
  9 11  4  0
 11 14  4  0
 11 19  4  0
 12 18  4  0
 13 21  4  0
 15 23  4  0
 17 19  4  0
 17 20  4  0
 18 22  4  0
 19 21  4  0
M  END
$$$$

 Created by Python create_sdf_string function

 23 25  0  0  0  0  0  0  0  0999 V2000
    2.4610   -5.3070   29.1240 C   0  0  0  0  0  0  0  0  0  0  0  0
    4.7710   -4.6952   28.4803 C   0  0  0  0  0  0  0  0  0  0  0  0
    3.4047   -5.1087   28.1314 C   0  0  0  0  0  0  0  0  0  0  0  0
   -0.2234  -11.8615   16.8874 C   0  0  0  0  0  0  0  0  0  0  0  0
    6.4491   -4.1532   30.1213 C   0  0  0  0  0  0  0  0  0  0  0  0
    5.7060   -4.4340   27.4975 C   0  0  0  0  0  0  0  0  0  0  0  0
    1.1818   -5.6612   28.8399 C   0  0  0  0  0  0  0  0  0  0  0  0
   -1.2067   -7.3287   17.7772 C   0  0  0  0  0  0  0  0  0  0  0  0
   -0.0206  -10.5585   16.6210 C   0  0  0  0  0  0  0  0  0  0  0  0
    0.3696  -12.7626   16.2169 O   0  0  0  0  0  0  0  0  0  0  0  0
   -0.6895   -9.5676   17.3297 C   0  0  0  0  0  0  0  0  0  0  0  0
    0.8388   -5.8417   27.5264 C   0  0  0  0  0  0  0  0  0  0  0  0
   -2.0709   -7.6637   18.7817 C   0  0  0  0  0  0  0  0  0  0  0  0
   -0.5279   -8.2168   17.0717 C   0  0  0  0  0  0  0  0  0  0  0  0
    6.9694   -4.0191   27.8190 C   0  0  0  0  0  0  0  0  0  0  0  0
    5.1733   -4.5469   29.8123 C   0  0  0  0  0  0  0  0  0  0  0  0
   -1.7508  -11.3016   18.6072 C   0  0  0  0  0  0  0  0  0  0  0  0
    1.7497   -5.6771   26.4971 C   0  0  0  0  0  0  0  0  0  0  0  0
   -1.5799   -9.9322   18.3468 C   0  0  0  0  0  0  0  0  0  0  0  0
   -1.0871  -12.2214   17.8851 C   0  0  0  0  0  0  0  0  0  0  0  0
   -2.2706   -8.9669   19.0691 C   0  0  0  0  0  0  0  0  0  0  0  0
    3.0279   -5.3073   26.8197 C   0  0  0  0  0  0  0  0  0  0  0  0
    7.3282   -3.8948   29.1186 C   0  0  0  0  0  0  0  0  0  0  0  0
  1  3  4  0
  1  7  4  0
  2  3  1  0
  2  6  4  0
  2 16  4  0
  3 22  4  0
  4  9  4  0
  4 10  1  0
  4 20  4  0
  5 16  4  0
  5 23  4  0
  6 15  4  0
  7 12  4  0
  8 13  4  0
  8 14  4  0
  9 11  4  0
 11 14  4  0
 11 19  4  0
 12 18  4  0
 13 21  4  0
 15 23  4  0
 17 19  4  0
 17 20  4  0
 18 22  4  0
 19 21  4  0
M  END
$$$$

 Created by Python create_sdf_string function

 23 25  0  0  0  0  0  0  0  0999 V2000
    2.4610   -5.3070   29.1240 C   0  0  0  0  0  0  0  0  0  0  0  0
    4.7710   -4.6952   28.4803 C   0  0  0  0  0  0  0  0  0  0  0  0
    3.4047   -5.1087   28.1314 C   0  0  0  0  0  0  0  0  0  0  0  0
   -0.2234  -11.8615   16.8874 C   0  0  0  0  0  0  0  0  0  0  0  0
    6.4491   -4.1532   30.1213 C   0  0  0  0  0  0  0  0  0  0  0  0
    5.7060   -4.4340   27.4975 C   0  0  0  0  0  0  0  0  0  0  0  0
    1.1818   -5.6612   28.8399 C   0  0  0  0  0  0  0  0  0  0  0  0
   -1.2067   -7.3287   17.7772 C   0  0  0  0  0  0  0  0  0  0  0  0
   -0.0206  -10.5585   16.6210 C   0  0  0  0  0  0  0  0  0  0  0  0
    0.3696  -12.7626   16.2169 O   0  0  0  0  0  0  0  0  0  0  0  0
   -0.6895   -9.5676   17.3297 C   0  0  0  0  0  0  0  0  0  0  0  0
    0.8388   -5.8417   27.5264 C   0  0  0  0  0  0  0  0  0  0  0  0
   -2.0709   -7.6637   18.7817 C   0  0  0  0  0  0  0  0  0  0  0  0
   -0.5279   -8.2168   17.0717 C   0  0  0  0  0  0  0  0  0  0  0  0
    6.9694   -4.0191   27.8190 C   0  0  0  0  0  0  0  0  0  0  0  0
    5.1733   -4.5469   29.8123 C   0  0  0  0  0  0  0  0  0  0  0  0
   -1.7508  -11.3016   18.6072 C   0  0  0  0  0  0  0  0  0  0  0  0
    1.7497   -5.6771   26.4971 C   0  0  0  0  0  0  0  0  0  0  0  0
   -1.5799   -9.9322   18.3468 C   0  0  0  0  0  0  0  0  0  0  0  0
   -1.0871  -12.2214   17.8851 C   0  0  0  0  0  0  0  0  0  0  0  0
   -2.2706   -8.9669   19.0691 C   0  0  0  0  0  0  0  0  0  0  0  0
    3.0279   -5.3073   26.8197 C   0  0  0  0  0  0  0  0  0  0  0  0
    7.3282   -3.8948   29.1186 C   0  0  0  0  0  0  0  0  0  0  0  0
  1  3  4  0
  1  7  4  0
  2  3  1  0
  2  6  4  0
  2 16  4  0
  3 22  4  0
  4  9  4  0
  4 10  1  0
  4 20  4  0
  5 16  4  0
  5 23  4  0
  6 15  4  0
  7 12  4  0
  8 13  4  0
  8 14  4  0
  9 11  4  0
 11 14  4  0
 11 19  4  0
 12 18  4  0
 13 21  4  0
 15 23  4  0
 17 19  4  0
 17 20  4  0
 18 22  4  0
 19 21  4  0
M  END
$$$$

 Created by Python create_sdf_string function

 23 25  0  0  0  0  0  0  0  0999 V2000
    2.4610   -5.3070   29.1240 C   0  0  0  0  0  0  0  0  0  0  0  0
    4.7710   -4.6952   28.4803 C   0  0  0  0  0  0  0  0  0  0  0  0
    3.4047   -5.1087   28.1314 C   0  0  0  0  0  0  0  0  0  0  0  0
   -0.2234  -11.8615   16.8874 C   0  0  0  0  0  0  0  0  0  0  0  0
    6.4491   -4.1532   30.1213 C   0  0  0  0  0  0  0  0  0  0  0  0
    5.7060   -4.4340   27.4975 C   0  0  0  0  0  0  0  0  0  0  0  0
    1.1818   -5.6612   28.8399 C   0  0  0  0  0  0  0  0  0  0  0  0
   -1.2067   -7.3287   17.7772 C   0  0  0  0  0  0  0  0  0  0  0  0
   -0.0206  -10.5585   16.6210 C   0  0  0  0  0  0  0  0  0  0  0  0
    0.3696  -12.7626   16.2169 O   0  0  0  0  0  0  0  0  0  0  0  0
   -0.6895   -9.5676   17.3297 C   0  0  0  0  0  0  0  0  0  0  0  0
    0.8388   -5.8417   27.5264 C   0  0  0  0  0  0  0  0  0  0  0  0
   -2.0709   -7.6637   18.7817 C   0  0  0  0  0  0  0  0  0  0  0  0
   -0.5279   -8.2168   17.0717 C   0  0  0  0  0  0  0  0  0  0  0  0
    6.9694   -4.0191   27.8190 C   0  0  0  0  0  0  0  0  0  0  0  0
    5.1733   -4.5469   29.8123 C   0  0  0  0  0  0  0  0  0  0  0  0
   -1.7508  -11.3016   18.6072 C   0  0  0  0  0  0  0  0  0  0  0  0
    1.7497   -5.6771   26.4971 C   0  0  0  0  0  0  0  0  0  0  0  0
   -1.5799   -9.9322   18.3468 C   0  0  0  0  0  0  0  0  0  0  0  0
   -1.0871  -12.2214   17.8851 C   0  0  0  0  0  0  0  0  0  0  0  0
   -2.2706   -8.9669   19.0691 C   0  0  0  0  0  0  0  0  0  0  0  0
    3.0279   -5.3073   26.8197 C   0  0  0  0  0  0  0  0  0  0  0  0
    7.3282   -3.8948   29.1186 C   0  0  0  0  0  0  0  0  0  0  0  0
  1  3  4  0
  1  7  4  0
  2  3  1  0
  2  6  4  0
  2 16  4  0
  3 22  4  0
  4  9  4  0
  4 10  1  0
  4 20  4  0
  5 16  4  0
  5 23  4  0
  6 15  4  0
  7 12  4  0
  8 13  4  0
  8 14  4  0
  9 11  4  0
 11 14  4  0
 11 19  4  0
 12 18  4  0
 13 21  4  0
 15 23  4  0
 17 19  4  0
 17 20  4  0
 18 22  4  0
 19 21  4  0
M  END
$$$$

 Created by Python create_sdf_string function

 23 25  0  0  0  0  0  0  0  0999 V2000
    2.4610   -5.3070   29.1240 C   0  0  0  0  0  0  0  0  0  0  0  0
    4.7710   -4.6952   28.4803 C   0  0  0  0  0  0  0  0  0  0  0  0
    3.4047   -5.1087   28.1314 C   0  0  0  0  0  0  0  0  0  0  0  0
   -0.2234  -11.8615   16.8874 C   0  0  0  0  0  0  0  0  0  0  0  0
    6.4491   -4.1532   30.1213 C   0  0  0  0  0  0  0  0  0  0  0  0
    5.7060   -4.4340   27.4975 C   0  0  0  0  0  0  0  0  0  0  0  0
    1.1818   -5.6612   28.8399 C   0  0  0  0  0  0  0  0  0  0  0  0
   -1.2067   -7.3287   17.7772 C   0  0  0  0  0  0  0  0  0  0  0  0
   -0.0206  -10.5585   16.6210 C   0  0  0  0  0  0  0  0  0  0  0  0
    0.3696  -12.7626   16.2169 O   0  0  0  0  0  0  0  0  0  0  0  0
   -0.6895   -9.5676   17.3297 C   0  0  0  0  0  0  0  0  0  0  0  0
    0.8388   -5.8417   27.5264 C   0  0  0  0  0  0  0  0  0  0  0  0
   -2.0709   -7.6637   18.7817 C   0  0  0  0  0  0  0  0  0  0  0  0
   -0.5279   -8.2168   17.0717 C   0  0  0  0  0  0  0  0  0  0  0  0
    6.9694   -4.0191   27.8190 C   0  0  0  0  0  0  0  0  0  0  0  0
    5.1733   -4.5469   29.8123 C   0  0  0  0  0  0  0  0  0  0  0  0
   -1.7508  -11.3016   18.6072 C   0  0  0  0  0  0  0  0  0  0  0  0
    1.7497   -5.6771   26.4971 C   0  0  0  0  0  0  0  0  0  0  0  0
   -1.5799   -9.9322   18.3468 C   0  0  0  0  0  0  0  0  0  0  0  0
   -1.0871  -12.2214   17.8851 C   0  0  0  0  0  0  0  0  0  0  0  0
   -2.2706   -8.9669   19.0691 C   0  0  0  0  0  0  0  0  0  0  0  0
    3.0279   -5.3073   26.8197 C   0  0  0  0  0  0  0  0  0  0  0  0
    7.3282   -3.8948   29.1186 C   0  0  0  0  0  0  0  0  0  0  0  0
  1  3  4  0
  1  7  4  0
  2  3  1  0
  2  6  4  0
  2 16  4  0
  3 22  4  0
  4  9  4  0
  4 10  1  0
  4 20  4  0
  5 16  4  0
  5 23  4  0
  6 15  4  0
  7 12  4  0
  8 13  4  0
  8 14  4  0
  9 11  4  0
 11 14  4  0
 11 19  4  0
 12 18  4  0
 13 21  4  0
 15 23  4  0
 17 19  4  0
 17 20  4  0
 18 22  4  0
 19 21  4  0
M  END
$$$$

 Created by Python create_sdf_string function

 23 25  0  0  0  0  0  0  0  0999 V2000
    2.4610   -5.3070   29.1240 C   0  0  0  0  0  0  0  0  0  0  0  0
    4.7710   -4.6952   28.4803 C   0  0  0  0  0  0  0  0  0  0  0  0
    3.4047   -5.1087   28.1314 C   0  0  0  0  0  0  0  0  0  0  0  0
   -0.2234  -11.8615   16.8874 C   0  0  0  0  0  0  0  0  0  0  0  0
    6.4491   -4.1532   30.1213 C   0  0  0  0  0  0  0  0  0  0  0  0
    5.7060   -4.4340   27.4975 C   0  0  0  0  0  0  0  0  0  0  0  0
    1.1818   -5.6612   28.8399 C   0  0  0  0  0  0  0  0  0  0  0  0
   -1.2067   -7.3287   17.7772 C   0  0  0  0  0  0  0  0  0  0  0  0
   -0.0206  -10.5585   16.6210 C   0  0  0  0  0  0  0  0  0  0  0  0
    0.3696  -12.7626   16.2169 O   0  0  0  0  0  0  0  0  0  0  0  0
   -0.6895   -9.5676   17.3297 C   0  0  0  0  0  0  0  0  0  0  0  0
    0.8388   -5.8417   27.5264 C   0  0  0  0  0  0  0  0  0  0  0  0
   -2.0709   -7.6637   18.7817 C   0  0  0  0  0  0  0  0  0  0  0  0
   -0.5279   -8.2168   17.0717 C   0  0  0  0  0  0  0  0  0  0  0  0
    6.9694   -4.0191   27.8190 C   0  0  0  0  0  0  0  0  0  0  0  0
    5.1733   -4.5469   29.8123 C   0  0  0  0  0  0  0  0  0  0  0  0
   -1.7508  -11.3016   18.6072 C   0  0  0  0  0  0  0  0  0  0  0  0
    1.7497   -5.6771   26.4971 C   0  0  0  0  0  0  0  0  0  0  0  0
   -1.5799   -9.9322   18.3468 C   0  0  0  0  0  0  0  0  0  0  0  0
   -1.0871  -12.2214   17.8851 C   0  0  0  0  0  0  0  0  0  0  0  0
   -2.2706   -8.9669   19.0691 C   0  0  0  0  0  0  0  0  0  0  0  0
    3.0279   -5.3073   26.8197 C   0  0  0  0  0  0  0  0  0  0  0  0
    7.3282   -3.8948   29.1186 C   0  0  0  0  0  0  0  0  0  0  0  0
  1  3  4  0
  1  7  4  0
  2  3  1  0
  2  6  4  0
  2 16  4  0
  3 22  4  0
  4  9  4  0
  4 10  1  0
  4 20  4  0
  5 16  4  0
  5 23  4  0
  6 15  4  0
  7 12  4  0
  8 13  4  0
  8 14  4  0
  9 11  4  0
 11 14  4  0
 11 19  4  0
 12 18  4  0
 13 21  4  0
 15 23  4  0
 17 19  4  0
 17 20  4  0
 18 22  4  0
 19 21  4  0
M  END
$$$$

 Created by Python create_sdf_string function

 23 25  0  0  0  0  0  0  0  0999 V2000
    2.4610   -5.3070   29.1240 C   0  0  0  0  0  0  0  0  0  0  0  0
    4.7710   -4.6952   28.4803 C   0  0  0  0  0  0  0  0  0  0  0  0
    3.4047   -5.1087   28.1314 C   0  0  0  0  0  0  0  0  0  0  0  0
   -0.2234  -11.8615   16.8874 C   0  0  0  0  0  0  0  0  0  0  0  0
    6.4491   -4.1532   30.1213 C   0  0  0  0  0  0  0  0  0  0  0  0
    5.7060   -4.4340   27.4975 C   0  0  0  0  0  0  0  0  0  0  0  0
    1.1818   -5.6612   28.8399 C   0  0  0  0  0  0  0  0  0  0  0  0
   -1.2067   -7.3287   17.7772 C   0  0  0  0  0  0  0  0  0  0  0  0
   -0.0206  -10.5585   16.6210 C   0  0  0  0  0  0  0  0  0  0  0  0
    0.3696  -12.7626   16.2169 O   0  0  0  0  0  0  0  0  0  0  0  0
   -0.6895   -9.5676   17.3297 C   0  0  0  0  0  0  0  0  0  0  0  0
    0.8388   -5.8417   27.5264 C   0  0  0  0  0  0  0  0  0  0  0  0
   -2.0709   -7.6637   18.7817 C   0  0  0  0  0  0  0  0  0  0  0  0
   -0.5279   -8.2168   17.0717 C   0  0  0  0  0  0  0  0  0  0  0  0
    6.9694   -4.0191   27.8190 C   0  0  0  0  0  0  0  0  0  0  0  0
    5.1733   -4.5469   29.8123 C   0  0  0  0  0  0  0  0  0  0  0  0
   -1.7508  -11.3016   18.6072 C   0  0  0  0  0  0  0  0  0  0  0  0
    1.7497   -5.6771   26.4971 C   0  0  0  0  0  0  0  0  0  0  0  0
   -1.5799   -9.9322   18.3468 C   0  0  0  0  0  0  0  0  0  0  0  0
   -1.0871  -12.2214   17.8851 C   0  0  0  0  0  0  0  0  0  0  0  0
   -2.2706   -8.9669   19.0691 C   0  0  0  0  0  0  0  0  0  0  0  0
    3.0279   -5.3073   26.8197 C   0  0  0  0  0  0  0  0  0  0  0  0
    7.3282   -3.8948   29.1186 C   0  0  0  0  0  0  0  0  0  0  0  0
  1  3  4  0
  1  7  4  0
  2  3  1  0
  2  6  4  0
  2 16  4  0
  3 22  4  0
  4  9  4  0
  4 10  1  0
  4 20  4  0
  5 16  4  0
  5 23  4  0
  6 15  4  0
  7 12  4  0
  8 13  4  0
  8 14  4  0
  9 11  4  0
 11 14  4  0
 11 19  4  0
 12 18  4  0
 13 21  4  0
 15 23  4  0
 17 19  4  0
 17 20  4  0
 18 22  4  0
 19 21  4  0
M  END
$$$$

 Created by Python create_sdf_string function

 23 25  0  0  0  0  0  0  0  0999 V2000
    2.4610   -5.3070   29.1240 C   0  0  0  0  0  0  0  0  0  0  0  0
    4.7710   -4.6952   28.4803 C   0  0  0  0  0  0  0  0  0  0  0  0
    3.4047   -5.1087   28.1314 C   0  0  0  0  0  0  0  0  0  0  0  0
   -0.2234  -11.8615   16.8874 C   0  0  0  0  0  0  0  0  0  0  0  0
    6.4491   -4.1532   30.1213 C   0  0  0  0  0  0  0  0  0  0  0  0
    5.7060   -4.4340   27.4975 C   0  0  0  0  0  0  0  0  0  0  0  0
    1.1818   -5.6612   28.8399 C   0  0  0  0  0  0  0  0  0  0  0  0
   -1.2067   -7.3287   17.7772 C   0  0  0  0  0  0  0  0  0  0  0  0
   -0.0206  -10.5585   16.6210 C   0  0  0  0  0  0  0  0  0  0  0  0
    0.3696  -12.7626   16.2169 O   0  0  0  0  0  0  0  0  0  0  0  0
   -0.6895   -9.5676   17.3297 C   0  0  0  0  0  0  0  0  0  0  0  0
    0.8388   -5.8417   27.5264 C   0  0  0  0  0  0  0  0  0  0  0  0
   -2.0709   -7.6637   18.7817 C   0  0  0  0  0  0  0  0  0  0  0  0
   -0.5279   -8.2168   17.0717 C   0  0  0  0  0  0  0  0  0  0  0  0
    6.9694   -4.0191   27.8190 C   0  0  0  0  0  0  0  0  0  0  0  0
    5.1733   -4.5469   29.8123 C   0  0  0  0  0  0  0  0  0  0  0  0
   -1.7508  -11.3016   18.6072 C   0  0  0  0  0  0  0  0  0  0  0  0
    1.7497   -5.6771   26.4971 C   0  0  0  0  0  0  0  0  0  0  0  0
   -1.5799   -9.9322   18.3468 C   0  0  0  0  0  0  0  0  0  0  0  0
   -1.0871  -12.2214   17.8851 C   0  0  0  0  0  0  0  0  0  0  0  0
   -2.2706   -8.9669   19.0691 C   0  0  0  0  0  0  0  0  0  0  0  0
    3.0279   -5.3073   26.8197 C   0  0  0  0  0  0  0  0  0  0  0  0
    7.3282   -3.8948   29.1186 C   0  0  0  0  0  0  0  0  0  0  0  0
  1  3  4  0
  1  7  4  0
  2  3  1  0
  2  6  4  0
  2 16  4  0
  3 22  4  0
  4  9  4  0
  4 10  1  0
  4 20  4  0
  5 16  4  0
  5 23  4  0
  6 15  4  0
  7 12  4  0
  8 13  4  0
  8 14  4  0
  9 11  4  0
 11 14  4  0
 11 19  4  0
 12 18  4  0
 13 21  4  0
 15 23  4  0
 17 19  4  0
 17 20  4  0
 18 22  4  0
 19 21  4  0
M  END
$$$$

 Created by Python create_sdf_string function

 23 25  0  0  0  0  0  0  0  0999 V2000
    2.4610   -5.3070   29.1240 C   0  0  0  0  0  0  0  0  0  0  0  0
    4.7710   -4.6952   28.4803 C   0  0  0  0  0  0  0  0  0  0  0  0
    3.4047   -5.1087   28.1314 C   0  0  0  0  0  0  0  0  0  0  0  0
   -0.2234  -11.8615   16.8874 C   0  0  0  0  0  0  0  0  0  0  0  0
    6.4491   -4.1532   30.1213 C   0  0  0  0  0  0  0  0  0  0  0  0
    5.7060   -4.4340   27.4975 C   0  0  0  0  0  0  0  0  0  0  0  0
    1.1818   -5.6612   28.8399 C   0  0  0  0  0  0  0  0  0  0  0  0
   -1.2067   -7.3287   17.7772 C   0  0  0  0  0  0  0  0  0  0  0  0
   -0.0206  -10.5585   16.6210 C   0  0  0  0  0  0  0  0  0  0  0  0
    0.3696  -12.7626   16.2169 O   0  0  0  0  0  0  0  0  0  0  0  0
   -0.6895   -9.5676   17.3297 C   0  0  0  0  0  0  0  0  0  0  0  0
    0.8388   -5.8417   27.5264 C   0  0  0  0  0  0  0  0  0  0  0  0
   -2.0709   -7.6637   18.7817 C   0  0  0  0  0  0  0  0  0  0  0  0
   -0.5279   -8.2168   17.0717 C   0  0  0  0  0  0  0  0  0  0  0  0
    6.9694   -4.0191   27.8190 C   0  0  0  0  0  0  0  0  0  0  0  0
    5.1733   -4.5469   29.8123 C   0  0  0  0  0  0  0  0  0  0  0  0
   -1.7508  -11.3016   18.6072 C   0  0  0  0  0  0  0  0  0  0  0  0
    1.7497   -5.6771   26.4971 C   0  0  0  0  0  0  0  0  0  0  0  0
   -1.5799   -9.9322   18.3468 C   0  0  0  0  0  0  0  0  0  0  0  0
   -1.0871  -12.2214   17.8851 C   0  0  0  0  0  0  0  0  0  0  0  0
   -2.2706   -8.9669   19.0691 C   0  0  0  0  0  0  0  0  0  0  0  0
    3.0279   -5.3073   26.8197 C   0  0  0  0  0  0  0  0  0  0  0  0
    7.3282   -3.8948   29.1186 C   0  0  0  0  0  0  0  0  0  0  0  0
  1  3  4  0
  1  7  4  0
  2  3  1  0
  2  6  4  0
  2 16  4  0
  3 22  4  0
  4  9  4  0
  4 10  1  0
  4 20  4  0
  5 16  4  0
  5 23  4  0
  6 15  4  0
  7 12  4  0
  8 13  4  0
  8 14  4  0
  9 11  4  0
 11 14  4  0
 11 19  4  0
 12 18  4  0
 13 21  4  0
 15 23  4  0
 17 19  4  0
 17 20  4  0
 18 22  4  0
 19 21  4  0
M  END
$$$$

 Created by Python create_sdf_string function

 23 25  0  0  0  0  0  0  0  0999 V2000
    2.4610   -5.3070   29.1240 C   0  0  0  0  0  0  0  0  0  0  0  0
    4.7710   -4.6952   28.4803 C   0  0  0  0  0  0  0  0  0  0  0  0
    3.4047   -5.1087   28.1314 C   0  0  0  0  0  0  0  0  0  0  0  0
   -0.2234  -11.8615   16.8874 C   0  0  0  0  0  0  0  0  0  0  0  0
    6.4491   -4.1532   30.1213 C   0  0  0  0  0  0  0  0  0  0  0  0
    5.7060   -4.4340   27.4975 C   0  0  0  0  0  0  0  0  0  0  0  0
    1.1818   -5.6612   28.8399 C   0  0  0  0  0  0  0  0  0  0  0  0
   -1.2067   -7.3287   17.7772 C   0  0  0  0  0  0  0  0  0  0  0  0
   -0.0206  -10.5585   16.6210 C   0  0  0  0  0  0  0  0  0  0  0  0
    0.3696  -12.7626   16.2169 O   0  0  0  0  0  0  0  0  0  0  0  0
   -0.6895   -9.5676   17.3297 C   0  0  0  0  0  0  0  0  0  0  0  0
    0.8388   -5.8417   27.5264 C   0  0  0  0  0  0  0  0  0  0  0  0
   -2.0709   -7.6637   18.7817 C   0  0  0  0  0  0  0  0  0  0  0  0
   -0.5279   -8.2168   17.0717 C   0  0  0  0  0  0  0  0  0  0  0  0
    6.9694   -4.0191   27.8190 C   0  0  0  0  0  0  0  0  0  0  0  0
    5.1733   -4.5469   29.8123 C   0  0  0  0  0  0  0  0  0  0  0  0
   -1.7508  -11.3016   18.6072 C   0  0  0  0  0  0  0  0  0  0  0  0
    1.7497   -5.6771   26.4971 C   0  0  0  0  0  0  0  0  0  0  0  0
   -1.5799   -9.9322   18.3468 C   0  0  0  0  0  0  0  0  0  0  0  0
   -1.0871  -12.2214   17.8851 C   0  0  0  0  0  0  0  0  0  0  0  0
   -2.2706   -8.9669   19.0691 C   0  0  0  0  0  0  0  0  0  0  0  0
    3.0279   -5.3073   26.8197 C   0  0  0  0  0  0  0  0  0  0  0  0
    7.3282   -3.8948   29.1186 C   0  0  0  0  0  0  0  0  0  0  0  0
  1  3  4  0
  1  7  4  0
  2  3  1  0
  2  6  4  0
  2 16  4  0
  3 22  4  0
  4  9  4  0
  4 10  1  0
  4 20  4  0
  5 16  4  0
  5 23  4  0
  6 15  4  0
  7 12  4  0
  8 13  4  0
  8 14  4  0
  9 11  4  0
 11 14  4  0
 11 19  4  0
 12 18  4  0
 13 21  4  0
 15 23  4  0
 17 19  4  0
 17 20  4  0
 18 22  4  0
 19 21  4  0
M  END
$$$$

 Created by Python create_sdf_string function

 23 25  0  0  0  0  0  0  0  0999 V2000
    2.4610   -5.3070   29.1240 C   0  0  0  0  0  0  0  0  0  0  0  0
    4.7710   -4.6952   28.4803 C   0  0  0  0  0  0  0  0  0  0  0  0
    3.4047   -5.1087   28.1314 C   0  0  0  0  0  0  0  0  0  0  0  0
   -0.2234  -11.8615   16.8874 C   0  0  0  0  0  0  0  0  0  0  0  0
    6.4491   -4.1532   30.1213 C   0  0  0  0  0  0  0  0  0  0  0  0
    5.7060   -4.4340   27.4975 C   0  0  0  0  0  0  0  0  0  0  0  0
    1.1818   -5.6612   28.8399 C   0  0  0  0  0  0  0  0  0  0  0  0
   -1.2067   -7.3287   17.7772 C   0  0  0  0  0  0  0  0  0  0  0  0
   -0.0206  -10.5585   16.6210 C   0  0  0  0  0  0  0  0  0  0  0  0
    0.3696  -12.7626   16.2169 O   0  0  0  0  0  0  0  0  0  0  0  0
   -0.6895   -9.5676   17.3297 C   0  0  0  0  0  0  0  0  0  0  0  0
    0.8388   -5.8417   27.5264 C   0  0  0  0  0  0  0  0  0  0  0  0
   -2.0709   -7.6637   18.7817 C   0  0  0  0  0  0  0  0  0  0  0  0
   -0.5279   -8.2168   17.0717 C   0  0  0  0  0  0  0  0  0  0  0  0
    6.9694   -4.0191   27.8190 C   0  0  0  0  0  0  0  0  0  0  0  0
    5.1733   -4.5469   29.8123 C   0  0  0  0  0  0  0  0  0  0  0  0
   -1.7508  -11.3016   18.6072 C   0  0  0  0  0  0  0  0  0  0  0  0
    1.7497   -5.6771   26.4971 C   0  0  0  0  0  0  0  0  0  0  0  0
   -1.5799   -9.9322   18.3468 C   0  0  0  0  0  0  0  0  0  0  0  0
   -1.0871  -12.2214   17.8851 C   0  0  0  0  0  0  0  0  0  0  0  0
   -2.2706   -8.9669   19.0691 C   0  0  0  0  0  0  0  0  0  0  0  0
    3.0279   -5.3073   26.8197 C   0  0  0  0  0  0  0  0  0  0  0  0
    7.3282   -3.8948   29.1186 C   0  0  0  0  0  0  0  0  0  0  0  0
  1  3  4  0
  1  7  4  0
  2  3  1  0
  2  6  4  0
  2 16  4  0
  3 22  4  0
  4  9  4  0
  4 10  1  0
  4 20  4  0
  5 16  4  0
  5 23  4  0
  6 15  4  0
  7 12  4  0
  8 13  4  0
  8 14  4  0
  9 11  4  0
 11 14  4  0
 11 19  4  0
 12 18  4  0
 13 21  4  0
 15 23  4  0
 17 19  4  0
 17 20  4  0
 18 22  4  0
 19 21  4  0
M  END
$$$$

 Created by Python create_sdf_string function

 23 25  0  0  0  0  0  0  0  0999 V2000
    2.4610   -5.3070   29.1240 C   0  0  0  0  0  0  0  0  0  0  0  0
    4.7710   -4.6952   28.4803 C   0  0  0  0  0  0  0  0  0  0  0  0
    3.4047   -5.1087   28.1314 C   0  0  0  0  0  0  0  0  0  0  0  0
   -0.2234  -11.8615   16.8874 C   0  0  0  0  0  0  0  0  0  0  0  0
    6.4491   -4.1532   30.1213 C   0  0  0  0  0  0  0  0  0  0  0  0
    5.7060   -4.4340   27.4975 C   0  0  0  0  0  0  0  0  0  0  0  0
    1.1818   -5.6612   28.8399 C   0  0  0  0  0  0  0  0  0  0  0  0
   -1.2067   -7.3287   17.7772 C   0  0  0  0  0  0  0  0  0  0  0  0
   -0.0206  -10.5585   16.6210 C   0  0  0  0  0  0  0  0  0  0  0  0
    0.3696  -12.7626   16.2169 O   0  0  0  0  0  0  0  0  0  0  0  0
   -0.6895   -9.5676   17.3297 C   0  0  0  0  0  0  0  0  0  0  0  0
    0.8388   -5.8417   27.5264 C   0  0  0  0  0  0  0  0  0  0  0  0
   -2.0709   -7.6637   18.7817 C   0  0  0  0  0  0  0  0  0  0  0  0
   -0.5279   -8.2168   17.0717 C   0  0  0  0  0  0  0  0  0  0  0  0
    6.9694   -4.0191   27.8190 C   0  0  0  0  0  0  0  0  0  0  0  0
    5.1733   -4.5469   29.8123 C   0  0  0  0  0  0  0  0  0  0  0  0
   -1.7508  -11.3016   18.6072 C   0  0  0  0  0  0  0  0  0  0  0  0
    1.7497   -5.6771   26.4971 C   0  0  0  0  0  0  0  0  0  0  0  0
   -1.5799   -9.9322   18.3468 C   0  0  0  0  0  0  0  0  0  0  0  0
   -1.0871  -12.2214   17.8851 C   0  0  0  0  0  0  0  0  0  0  0  0
   -2.2706   -8.9669   19.0691 C   0  0  0  0  0  0  0  0  0  0  0  0
    3.0279   -5.3073   26.8197 C   0  0  0  0  0  0  0  0  0  0  0  0
    7.3282   -3.8948   29.1186 C   0  0  0  0  0  0  0  0  0  0  0  0
  1  3  4  0
  1  7  4  0
  2  3  1  0
  2  6  4  0
  2 16  4  0
  3 22  4  0
  4  9  4  0
  4 10  1  0
  4 20  4  0
  5 16  4  0
  5 23  4  0
  6 15  4  0
  7 12  4  0
  8 13  4  0
  8 14  4  0
  9 11  4  0
 11 14  4  0
 11 19  4  0
 12 18  4  0
 13 21  4  0
 15 23  4  0
 17 19  4  0
 17 20  4  0
 18 22  4  0
 19 21  4  0
M  END
$$$$

 Created by Python create_sdf_string function

 23 25  0  0  0  0  0  0  0  0999 V2000
    2.4610   -5.3070   29.1240 C   0  0  0  0  0  0  0  0  0  0  0  0
    4.7710   -4.6952   28.4803 C   0  0  0  0  0  0  0  0  0  0  0  0
    3.4047   -5.1087   28.1314 C   0  0  0  0  0  0  0  0  0  0  0  0
   -0.2234  -11.8615   16.8874 C   0  0  0  0  0  0  0  0  0  0  0  0
    6.4491   -4.1532   30.1213 C   0  0  0  0  0  0  0  0  0  0  0  0
    5.7060   -4.4340   27.4975 C   0  0  0  0  0  0  0  0  0  0  0  0
    1.1818   -5.6612   28.8399 C   0  0  0  0  0  0  0  0  0  0  0  0
   -1.2067   -7.3287   17.7772 C   0  0  0  0  0  0  0  0  0  0  0  0
   -0.0206  -10.5585   16.6210 C   0  0  0  0  0  0  0  0  0  0  0  0
    0.3696  -12.7626   16.2169 O   0  0  0  0  0  0  0  0  0  0  0  0
   -0.6895   -9.5676   17.3297 C   0  0  0  0  0  0  0  0  0  0  0  0
    0.8388   -5.8417   27.5264 C   0  0  0  0  0  0  0  0  0  0  0  0
   -2.0709   -7.6637   18.7817 C   0  0  0  0  0  0  0  0  0  0  0  0
   -0.5279   -8.2168   17.0717 C   0  0  0  0  0  0  0  0  0  0  0  0
    6.9694   -4.0191   27.8190 C   0  0  0  0  0  0  0  0  0  0  0  0
    5.1733   -4.5469   29.8123 C   0  0  0  0  0  0  0  0  0  0  0  0
   -1.7508  -11.3016   18.6072 C   0  0  0  0  0  0  0  0  0  0  0  0
    1.7497   -5.6771   26.4971 C   0  0  0  0  0  0  0  0  0  0  0  0
   -1.5799   -9.9322   18.3468 C   0  0  0  0  0  0  0  0  0  0  0  0
   -1.0871  -12.2214   17.8851 C   0  0  0  0  0  0  0  0  0  0  0  0
   -2.2706   -8.9669   19.0691 C   0  0  0  0  0  0  0  0  0  0  0  0
    3.0279   -5.3073   26.8197 C   0  0  0  0  0  0  0  0  0  0  0  0
    7.3282   -3.8948   29.1186 C   0  0  0  0  0  0  0  0  0  0  0  0
  1  3  4  0
  1  7  4  0
  2  3  1  0
  2  6  4  0
  2 16  4  0
  3 22  4  0
  4  9  4  0
  4 10  1  0
  4 20  4  0
  5 16  4  0
  5 23  4  0
  6 15  4  0
  7 12  4  0
  8 13  4  0
  8 14  4  0
  9 11  4  0
 11 14  4  0
 11 19  4  0
 12 18  4  0
 13 21  4  0
 15 23  4  0
 17 19  4  0
 17 20  4  0
 18 22  4  0
 19 21  4  0
M  END
$$$$

 Created by Python create_sdf_string function

 23 25  0  0  0  0  0  0  0  0999 V2000
    2.4610   -5.3070   29.1240 C   0  0  0  0  0  0  0  0  0  0  0  0
    4.7710   -4.6952   28.4803 C   0  0  0  0  0  0  0  0  0  0  0  0
    3.4047   -5.1087   28.1314 C   0  0  0  0  0  0  0  0  0  0  0  0
   -0.2234  -11.8615   16.8874 C   0  0  0  0  0  0  0  0  0  0  0  0
    6.4491   -4.1532   30.1213 C   0  0  0  0  0  0  0  0  0  0  0  0
    5.7060   -4.4340   27.4975 C   0  0  0  0  0  0  0  0  0  0  0  0
    1.1818   -5.6612   28.8399 C   0  0  0  0  0  0  0  0  0  0  0  0
   -1.2067   -7.3287   17.7772 C   0  0  0  0  0  0  0  0  0  0  0  0
   -0.0206  -10.5585   16.6210 C   0  0  0  0  0  0  0  0  0  0  0  0
    0.3696  -12.7626   16.2169 O   0  0  0  0  0  0  0  0  0  0  0  0
   -0.6895   -9.5676   17.3297 C   0  0  0  0  0  0  0  0  0  0  0  0
    0.8388   -5.8417   27.5264 C   0  0  0  0  0  0  0  0  0  0  0  0
   -2.0709   -7.6637   18.7817 C   0  0  0  0  0  0  0  0  0  0  0  0
   -0.5279   -8.2168   17.0717 C   0  0  0  0  0  0  0  0  0  0  0  0
    6.9694   -4.0191   27.8190 C   0  0  0  0  0  0  0  0  0  0  0  0
    5.1733   -4.5469   29.8123 C   0  0  0  0  0  0  0  0  0  0  0  0
   -1.7508  -11.3016   18.6072 C   0  0  0  0  0  0  0  0  0  0  0  0
    1.7497   -5.6771   26.4971 C   0  0  0  0  0  0  0  0  0  0  0  0
   -1.5799   -9.9322   18.3468 C   0  0  0  0  0  0  0  0  0  0  0  0
   -1.0871  -12.2214   17.8851 C   0  0  0  0  0  0  0  0  0  0  0  0
   -2.2706   -8.9669   19.0691 C   0  0  0  0  0  0  0  0  0  0  0  0
    3.0279   -5.3073   26.8197 C   0  0  0  0  0  0  0  0  0  0  0  0
    7.3282   -3.8948   29.1186 C   0  0  0  0  0  0  0  0  0  0  0  0
  1  3  4  0
  1  7  4  0
  2  3  1  0
  2  6  4  0
  2 16  4  0
  3 22  4  0
  4  9  4  0
  4 10  1  0
  4 20  4  0
  5 16  4  0
  5 23  4  0
  6 15  4  0
  7 12  4  0
  8 13  4  0
  8 14  4  0
  9 11  4  0
 11 14  4  0
 11 19  4  0
 12 18  4  0
 13 21  4  0
 15 23  4  0
 17 19  4  0
 17 20  4  0
 18 22  4  0
 19 21  4  0
M  END
$$$$

 Created by Python create_sdf_string function

 23 25  0  0  0  0  0  0  0  0999 V2000
    2.4610   -5.3070   29.1240 C   0  0  0  0  0  0  0  0  0  0  0  0
    4.7710   -4.6952   28.4803 C   0  0  0  0  0  0  0  0  0  0  0  0
    3.4047   -5.1087   28.1314 C   0  0  0  0  0  0  0  0  0  0  0  0
   -0.2234  -11.8615   16.8874 C   0  0  0  0  0  0  0  0  0  0  0  0
    6.4491   -4.1532   30.1213 C   0  0  0  0  0  0  0  0  0  0  0  0
    5.7060   -4.4340   27.4975 C   0  0  0  0  0  0  0  0  0  0  0  0
    1.1818   -5.6612   28.8399 C   0  0  0  0  0  0  0  0  0  0  0  0
   -1.2067   -7.3287   17.7772 C   0  0  0  0  0  0  0  0  0  0  0  0
   -0.0206  -10.5585   16.6210 C   0  0  0  0  0  0  0  0  0  0  0  0
    0.3696  -12.7626   16.2169 O   0  0  0  0  0  0  0  0  0  0  0  0
   -0.6895   -9.5676   17.3297 C   0  0  0  0  0  0  0  0  0  0  0  0
    0.8388   -5.8417   27.5264 C   0  0  0  0  0  0  0  0  0  0  0  0
   -2.0709   -7.6637   18.7817 C   0  0  0  0  0  0  0  0  0  0  0  0
   -0.5279   -8.2168   17.0717 C   0  0  0  0  0  0  0  0  0  0  0  0
    6.9694   -4.0191   27.8190 C   0  0  0  0  0  0  0  0  0  0  0  0
    5.1733   -4.5469   29.8123 C   0  0  0  0  0  0  0  0  0  0  0  0
   -1.7508  -11.3016   18.6072 C   0  0  0  0  0  0  0  0  0  0  0  0
    1.7497   -5.6771   26.4971 C   0  0  0  0  0  0  0  0  0  0  0  0
   -1.5799   -9.9322   18.3468 C   0  0  0  0  0  0  0  0  0  0  0  0
   -1.0871  -12.2214   17.8851 C   0  0  0  0  0  0  0  0  0  0  0  0
   -2.2706   -8.9669   19.0691 C   0  0  0  0  0  0  0  0  0  0  0  0
    3.0279   -5.3073   26.8197 C   0  0  0  0  0  0  0  0  0  0  0  0
    7.3282   -3.8948   29.1186 C   0  0  0  0  0  0  0  0  0  0  0  0
  1  3  4  0
  1  7  4  0
  2  3  1  0
  2  6  4  0
  2 16  4  0
  3 22  4  0
  4  9  4  0
  4 10  1  0
  4 20  4  0
  5 16  4  0
  5 23  4  0
  6 15  4  0
  7 12  4  0
  8 13  4  0
  8 14  4  0
  9 11  4  0
 11 14  4  0
 11 19  4  0
 12 18  4  0
 13 21  4  0
 15 23  4  0
 17 19  4  0
 17 20  4  0
 18 22  4  0
 19 21  4  0
M  END
$$$$

 Created by Python create_sdf_string function

 23 25  0  0  0  0  0  0  0  0999 V2000
    2.4610   -5.3070   29.1240 C   0  0  0  0  0  0  0  0  0  0  0  0
    4.7710   -4.6952   28.4803 C   0  0  0  0  0  0  0  0  0  0  0  0
    3.4047   -5.1087   28.1314 C   0  0  0  0  0  0  0  0  0  0  0  0
   -0.2234  -11.8615   16.8874 C   0  0  0  0  0  0  0  0  0  0  0  0
    6.4491   -4.1532   30.1213 C   0  0  0  0  0  0  0  0  0  0  0  0
    5.7060   -4.4340   27.4975 C   0  0  0  0  0  0  0  0  0  0  0  0
    1.1818   -5.6612   28.8399 C   0  0  0  0  0  0  0  0  0  0  0  0
   -1.2067   -7.3287   17.7772 C   0  0  0  0  0  0  0  0  0  0  0  0
   -0.0206  -10.5585   16.6210 C   0  0  0  0  0  0  0  0  0  0  0  0
    0.3696  -12.7626   16.2169 O   0  0  0  0  0  0  0  0  0  0  0  0
   -0.6895   -9.5676   17.3297 C   0  0  0  0  0  0  0  0  0  0  0  0
    0.8388   -5.8417   27.5264 C   0  0  0  0  0  0  0  0  0  0  0  0
   -2.0709   -7.6637   18.7817 C   0  0  0  0  0  0  0  0  0  0  0  0
   -0.5279   -8.2168   17.0717 C   0  0  0  0  0  0  0  0  0  0  0  0
    6.9694   -4.0191   27.8190 C   0  0  0  0  0  0  0  0  0  0  0  0
    5.1733   -4.5469   29.8123 C   0  0  0  0  0  0  0  0  0  0  0  0
   -1.7508  -11.3016   18.6072 C   0  0  0  0  0  0  0  0  0  0  0  0
    1.7497   -5.6771   26.4971 C   0  0  0  0  0  0  0  0  0  0  0  0
   -1.5799   -9.9322   18.3468 C   0  0  0  0  0  0  0  0  0  0  0  0
   -1.0871  -12.2214   17.8851 C   0  0  0  0  0  0  0  0  0  0  0  0
   -2.2706   -8.9669   19.0691 C   0  0  0  0  0  0  0  0  0  0  0  0
    3.0279   -5.3073   26.8197 C   0  0  0  0  0  0  0  0  0  0  0  0
    7.3282   -3.8948   29.1186 C   0  0  0  0  0  0  0  0  0  0  0  0
  1  3  4  0
  1  7  4  0
  2  3  1  0
  2  6  4  0
  2 16  4  0
  3 22  4  0
  4  9  4  0
  4 10  1  0
  4 20  4  0
  5 16  4  0
  5 23  4  0
  6 15  4  0
  7 12  4  0
  8 13  4  0
  8 14  4  0
  9 11  4  0
 11 14  4  0
 11 19  4  0
 12 18  4  0
 13 21  4  0
 15 23  4  0
 17 19  4  0
 17 20  4  0
 18 22  4  0
 19 21  4  0
M  END
$$$$

 Created by Python create_sdf_string function

 23 25  0  0  0  0  0  0  0  0999 V2000
    2.4610   -5.3070   29.1240 C   0  0  0  0  0  0  0  0  0  0  0  0
    4.7710   -4.6952   28.4803 C   0  0  0  0  0  0  0  0  0  0  0  0
    3.4047   -5.1087   28.1314 C   0  0  0  0  0  0  0  0  0  0  0  0
   -0.2234  -11.8615   16.8874 C   0  0  0  0  0  0  0  0  0  0  0  0
    6.4491   -4.1532   30.1213 C   0  0  0  0  0  0  0  0  0  0  0  0
    5.7060   -4.4340   27.4975 C   0  0  0  0  0  0  0  0  0  0  0  0
    1.1818   -5.6612   28.8399 C   0  0  0  0  0  0  0  0  0  0  0  0
   -1.2067   -7.3287   17.7772 C   0  0  0  0  0  0  0  0  0  0  0  0
   -0.0206  -10.5585   16.6210 C   0  0  0  0  0  0  0  0  0  0  0  0
    0.3696  -12.7626   16.2169 O   0  0  0  0  0  0  0  0  0  0  0  0
   -0.6895   -9.5676   17.3297 C   0  0  0  0  0  0  0  0  0  0  0  0
    0.8388   -5.8417   27.5264 C   0  0  0  0  0  0  0  0  0  0  0  0
   -2.0709   -7.6637   18.7817 C   0  0  0  0  0  0  0  0  0  0  0  0
   -0.5279   -8.2168   17.0717 C   0  0  0  0  0  0  0  0  0  0  0  0
    6.9694   -4.0191   27.8190 C   0  0  0  0  0  0  0  0  0  0  0  0
    5.1733   -4.5469   29.8123 C   0  0  0  0  0  0  0  0  0  0  0  0
   -1.7508  -11.3016   18.6072 C   0  0  0  0  0  0  0  0  0  0  0  0
    1.7497   -5.6771   26.4971 C   0  0  0  0  0  0  0  0  0  0  0  0
   -1.5799   -9.9322   18.3468 C   0  0  0  0  0  0  0  0  0  0  0  0
   -1.0871  -12.2214   17.8851 C   0  0  0  0  0  0  0  0  0  0  0  0
   -2.2706   -8.9669   19.0691 C   0  0  0  0  0  0  0  0  0  0  0  0
    3.0279   -5.3073   26.8197 C   0  0  0  0  0  0  0  0  0  0  0  0
    7.3282   -3.8948   29.1186 C   0  0  0  0  0  0  0  0  0  0  0  0
  1  3  4  0
  1  7  4  0
  2  3  1  0
  2  6  4  0
  2 16  4  0
  3 22  4  0
  4  9  4  0
  4 10  1  0
  4 20  4  0
  5 16  4  0
  5 23  4  0
  6 15  4  0
  7 12  4  0
  8 13  4  0
  8 14  4  0
  9 11  4  0
 11 14  4  0
 11 19  4  0
 12 18  4  0
 13 21  4  0
 15 23  4  0
 17 19  4  0
 17 20  4  0
 18 22  4  0
 19 21  4  0
M  END
$$$$

 Created by Python create_sdf_string function

 23 25  0  0  0  0  0  0  0  0999 V2000
    2.4610   -5.3070   29.1240 C   0  0  0  0  0  0  0  0  0  0  0  0
    4.7710   -4.6952   28.4803 C   0  0  0  0  0  0  0  0  0  0  0  0
    3.4047   -5.1087   28.1314 C   0  0  0  0  0  0  0  0  0  0  0  0
   -0.2234  -11.8615   16.8874 C   0  0  0  0  0  0  0  0  0  0  0  0
    6.4491   -4.1532   30.1213 C   0  0  0  0  0  0  0  0  0  0  0  0
    5.7060   -4.4340   27.4975 C   0  0  0  0  0  0  0  0  0  0  0  0
    1.1818   -5.6612   28.8399 C   0  0  0  0  0  0  0  0  0  0  0  0
   -1.2067   -7.3287   17.7772 C   0  0  0  0  0  0  0  0  0  0  0  0
   -0.0206  -10.5585   16.6210 C   0  0  0  0  0  0  0  0  0  0  0  0
    0.3696  -12.7626   16.2169 O   0  0  0  0  0  0  0  0  0  0  0  0
   -0.6895   -9.5676   17.3297 C   0  0  0  0  0  0  0  0  0  0  0  0
    0.8388   -5.8417   27.5264 C   0  0  0  0  0  0  0  0  0  0  0  0
   -2.0709   -7.6637   18.7817 C   0  0  0  0  0  0  0  0  0  0  0  0
   -0.5279   -8.2168   17.0717 C   0  0  0  0  0  0  0  0  0  0  0  0
    6.9694   -4.0191   27.8190 C   0  0  0  0  0  0  0  0  0  0  0  0
    5.1733   -4.5469   29.8123 C   0  0  0  0  0  0  0  0  0  0  0  0
   -1.7508  -11.3016   18.6072 C   0  0  0  0  0  0  0  0  0  0  0  0
    1.7497   -5.6771   26.4971 C   0  0  0  0  0  0  0  0  0  0  0  0
   -1.5799   -9.9322   18.3468 C   0  0  0  0  0  0  0  0  0  0  0  0
   -1.0871  -12.2214   17.8851 C   0  0  0  0  0  0  0  0  0  0  0  0
   -2.2706   -8.9669   19.0691 C   0  0  0  0  0  0  0  0  0  0  0  0
    3.0279   -5.3073   26.8197 C   0  0  0  0  0  0  0  0  0  0  0  0
    7.3282   -3.8948   29.1186 C   0  0  0  0  0  0  0  0  0  0  0  0
  1  3  4  0
  1  7  4  0
  2  3  1  0
  2  6  4  0
  2 16  4  0
  3 22  4  0
  4  9  4  0
  4 10  1  0
  4 20  4  0
  5 16  4  0
  5 23  4  0
  6 15  4  0
  7 12  4  0
  8 13  4  0
  8 14  4  0
  9 11  4  0
 11 14  4  0
 11 19  4  0
 12 18  4  0
 13 21  4  0
 15 23  4  0
 17 19  4  0
 17 20  4  0
 18 22  4  0
 19 21  4  0
M  END
$$$$

 Created by Python create_sdf_string function

 23 25  0  0  0  0  0  0  0  0999 V2000
    2.4610   -5.3070   29.1240 C   0  0  0  0  0  0  0  0  0  0  0  0
    4.7710   -4.6952   28.4803 C   0  0  0  0  0  0  0  0  0  0  0  0
    3.4047   -5.1087   28.1314 C   0  0  0  0  0  0  0  0  0  0  0  0
   -0.2234  -11.8615   16.8874 C   0  0  0  0  0  0  0  0  0  0  0  0
    6.4491   -4.1532   30.1213 C   0  0  0  0  0  0  0  0  0  0  0  0
    5.7060   -4.4340   27.4975 C   0  0  0  0  0  0  0  0  0  0  0  0
    1.1818   -5.6612   28.8399 C   0  0  0  0  0  0  0  0  0  0  0  0
   -1.2067   -7.3287   17.7772 C   0  0  0  0  0  0  0  0  0  0  0  0
   -0.0206  -10.5585   16.6210 C   0  0  0  0  0  0  0  0  0  0  0  0
    0.3696  -12.7626   16.2169 O   0  0  0  0  0  0  0  0  0  0  0  0
   -0.6895   -9.5676   17.3297 C   0  0  0  0  0  0  0  0  0  0  0  0
    0.8388   -5.8417   27.5264 C   0  0  0  0  0  0  0  0  0  0  0  0
   -2.0709   -7.6637   18.7817 C   0  0  0  0  0  0  0  0  0  0  0  0
   -0.5279   -8.2168   17.0717 C   0  0  0  0  0  0  0  0  0  0  0  0
    6.9694   -4.0191   27.8190 C   0  0  0  0  0  0  0  0  0  0  0  0
    5.1733   -4.5469   29.8123 C   0  0  0  0  0  0  0  0  0  0  0  0
   -1.7508  -11.3016   18.6072 C   0  0  0  0  0  0  0  0  0  0  0  0
    1.7497   -5.6771   26.4971 C   0  0  0  0  0  0  0  0  0  0  0  0
   -1.5799   -9.9322   18.3468 C   0  0  0  0  0  0  0  0  0  0  0  0
   -1.0871  -12.2214   17.8851 C   0  0  0  0  0  0  0  0  0  0  0  0
   -2.2706   -8.9669   19.0691 C   0  0  0  0  0  0  0  0  0  0  0  0
    3.0279   -5.3073   26.8197 C   0  0  0  0  0  0  0  0  0  0  0  0
    7.3282   -3.8948   29.1186 C   0  0  0  0  0  0  0  0  0  0  0  0
  1  3  4  0
  1  7  4  0
  2  3  1  0
  2  6  4  0
  2 16  4  0
  3 22  4  0
  4  9  4  0
  4 10  1  0
  4 20  4  0
  5 16  4  0
  5 23  4  0
  6 15  4  0
  7 12  4  0
  8 13  4  0
  8 14  4  0
  9 11  4  0
 11 14  4  0
 11 19  4  0
 12 18  4  0
 13 21  4  0
 15 23  4  0
 17 19  4  0
 17 20  4  0
 18 22  4  0
 19 21  4  0
M  END
$$$$

 Created by Python create_sdf_string function

 23 25  0  0  0  0  0  0  0  0999 V2000
    2.4610   -5.3070   29.1240 C   0  0  0  0  0  0  0  0  0  0  0  0
    4.7710   -4.6952   28.4803 C   0  0  0  0  0  0  0  0  0  0  0  0
    3.4047   -5.1087   28.1314 C   0  0  0  0  0  0  0  0  0  0  0  0
   -0.2234  -11.8615   16.8874 C   0  0  0  0  0  0  0  0  0  0  0  0
    6.4491   -4.1532   30.1213 C   0  0  0  0  0  0  0  0  0  0  0  0
    5.7060   -4.4340   27.4975 C   0  0  0  0  0  0  0  0  0  0  0  0
    1.1818   -5.6612   28.8399 C   0  0  0  0  0  0  0  0  0  0  0  0
   -1.2067   -7.3287   17.7772 C   0  0  0  0  0  0  0  0  0  0  0  0
   -0.0206  -10.5585   16.6210 C   0  0  0  0  0  0  0  0  0  0  0  0
    0.3696  -12.7626   16.2169 O   0  0  0  0  0  0  0  0  0  0  0  0
   -0.6895   -9.5676   17.3297 C   0  0  0  0  0  0  0  0  0  0  0  0
    0.8388   -5.8417   27.5264 C   0  0  0  0  0  0  0  0  0  0  0  0
   -2.0709   -7.6637   18.7817 C   0  0  0  0  0  0  0  0  0  0  0  0
   -0.5279   -8.2168   17.0717 C   0  0  0  0  0  0  0  0  0  0  0  0
    6.9694   -4.0191   27.8190 C   0  0  0  0  0  0  0  0  0  0  0  0
    5.1733   -4.5469   29.8123 C   0  0  0  0  0  0  0  0  0  0  0  0
   -1.7508  -11.3016   18.6072 C   0  0  0  0  0  0  0  0  0  0  0  0
    1.7497   -5.6771   26.4971 C   0  0  0  0  0  0  0  0  0  0  0  0
   -1.5799   -9.9322   18.3468 C   0  0  0  0  0  0  0  0  0  0  0  0
   -1.0871  -12.2214   17.8851 C   0  0  0  0  0  0  0  0  0  0  0  0
   -2.2706   -8.9669   19.0691 C   0  0  0  0  0  0  0  0  0  0  0  0
    3.0279   -5.3073   26.8197 C   0  0  0  0  0  0  0  0  0  0  0  0
    7.3282   -3.8948   29.1186 C   0  0  0  0  0  0  0  0  0  0  0  0
  1  3  4  0
  1  7  4  0
  2  3  1  0
  2  6  4  0
  2 16  4  0
  3 22  4  0
  4  9  4  0
  4 10  1  0
  4 20  4  0
  5 16  4  0
  5 23  4  0
  6 15  4  0
  7 12  4  0
  8 13  4  0
  8 14  4  0
  9 11  4  0
 11 14  4  0
 11 19  4  0
 12 18  4  0
 13 21  4  0
 15 23  4  0
 17 19  4  0
 17 20  4  0
 18 22  4  0
 19 21  4  0
M  END
$$$$

 Created by Python create_sdf_string function

 23 25  0  0  0  0  0  0  0  0999 V2000
    2.4610   -5.3070   29.1240 C   0  0  0  0  0  0  0  0  0  0  0  0
    4.7710   -4.6952   28.4803 C   0  0  0  0  0  0  0  0  0  0  0  0
    3.4047   -5.1087   28.1314 C   0  0  0  0  0  0  0  0  0  0  0  0
   -0.2234  -11.8615   16.8874 C   0  0  0  0  0  0  0  0  0  0  0  0
    6.4491   -4.1532   30.1213 C   0  0  0  0  0  0  0  0  0  0  0  0
    5.7060   -4.4340   27.4975 C   0  0  0  0  0  0  0  0  0  0  0  0
    1.1818   -5.6612   28.8399 C   0  0  0  0  0  0  0  0  0  0  0  0
   -1.2067   -7.3287   17.7772 C   0  0  0  0  0  0  0  0  0  0  0  0
   -0.0206  -10.5585   16.6210 C   0  0  0  0  0  0  0  0  0  0  0  0
    0.3696  -12.7626   16.2169 O   0  0  0  0  0  0  0  0  0  0  0  0
   -0.6895   -9.5676   17.3297 C   0  0  0  0  0  0  0  0  0  0  0  0
    0.8388   -5.8417   27.5264 C   0  0  0  0  0  0  0  0  0  0  0  0
   -2.0709   -7.6637   18.7817 C   0  0  0  0  0  0  0  0  0  0  0  0
   -0.5279   -8.2168   17.0717 C   0  0  0  0  0  0  0  0  0  0  0  0
    6.9694   -4.0191   27.8190 C   0  0  0  0  0  0  0  0  0  0  0  0
    5.1733   -4.5469   29.8123 C   0  0  0  0  0  0  0  0  0  0  0  0
   -1.7508  -11.3016   18.6072 C   0  0  0  0  0  0  0  0  0  0  0  0
    1.7497   -5.6771   26.4971 C   0  0  0  0  0  0  0  0  0  0  0  0
   -1.5799   -9.9322   18.3468 C   0  0  0  0  0  0  0  0  0  0  0  0
   -1.0871  -12.2214   17.8851 C   0  0  0  0  0  0  0  0  0  0  0  0
   -2.2706   -8.9669   19.0691 C   0  0  0  0  0  0  0  0  0  0  0  0
    3.0279   -5.3073   26.8197 C   0  0  0  0  0  0  0  0  0  0  0  0
    7.3282   -3.8948   29.1186 C   0  0  0  0  0  0  0  0  0  0  0  0
  1  3  4  0
  1  7  4  0
  2  3  1  0
  2  6  4  0
  2 16  4  0
  3 22  4  0
  4  9  4  0
  4 10  1  0
  4 20  4  0
  5 16  4  0
  5 23  4  0
  6 15  4  0
  7 12  4  0
  8 13  4  0
  8 14  4  0
  9 11  4  0
 11 14  4  0
 11 19  4  0
 12 18  4  0
 13 21  4  0
 15 23  4  0
 17 19  4  0
 17 20  4  0
 18 22  4  0
 19 21  4  0
M  END
$$$$

 Created by Python create_sdf_string function

 23 25  0  0  0  0  0  0  0  0999 V2000
    2.4610   -5.3070   29.1240 C   0  0  0  0  0  0  0  0  0  0  0  0
    4.7710   -4.6952   28.4803 C   0  0  0  0  0  0  0  0  0  0  0  0
    3.4047   -5.1087   28.1314 C   0  0  0  0  0  0  0  0  0  0  0  0
   -0.2234  -11.8615   16.8874 C   0  0  0  0  0  0  0  0  0  0  0  0
    6.4491   -4.1532   30.1213 C   0  0  0  0  0  0  0  0  0  0  0  0
    5.7060   -4.4340   27.4975 C   0  0  0  0  0  0  0  0  0  0  0  0
    1.1818   -5.6612   28.8399 C   0  0  0  0  0  0  0  0  0  0  0  0
   -1.2067   -7.3287   17.7772 C   0  0  0  0  0  0  0  0  0  0  0  0
   -0.0206  -10.5585   16.6210 C   0  0  0  0  0  0  0  0  0  0  0  0
    0.3696  -12.7626   16.2169 O   0  0  0  0  0  0  0  0  0  0  0  0
   -0.6895   -9.5676   17.3297 C   0  0  0  0  0  0  0  0  0  0  0  0
    0.8388   -5.8417   27.5264 C   0  0  0  0  0  0  0  0  0  0  0  0
   -2.0709   -7.6637   18.7817 C   0  0  0  0  0  0  0  0  0  0  0  0
   -0.5279   -8.2168   17.0717 C   0  0  0  0  0  0  0  0  0  0  0  0
    6.9694   -4.0191   27.8190 C   0  0  0  0  0  0  0  0  0  0  0  0
    5.1733   -4.5469   29.8123 C   0  0  0  0  0  0  0  0  0  0  0  0
   -1.7508  -11.3016   18.6072 C   0  0  0  0  0  0  0  0  0  0  0  0
    1.7497   -5.6771   26.4971 C   0  0  0  0  0  0  0  0  0  0  0  0
   -1.5799   -9.9322   18.3468 C   0  0  0  0  0  0  0  0  0  0  0  0
   -1.0871  -12.2214   17.8851 C   0  0  0  0  0  0  0  0  0  0  0  0
   -2.2706   -8.9669   19.0691 C   0  0  0  0  0  0  0  0  0  0  0  0
    3.0279   -5.3073   26.8197 C   0  0  0  0  0  0  0  0  0  0  0  0
    7.3282   -3.8948   29.1186 C   0  0  0  0  0  0  0  0  0  0  0  0
  1  3  4  0
  1  7  4  0
  2  3  1  0
  2  6  4  0
  2 16  4  0
  3 22  4  0
  4  9  4  0
  4 10  1  0
  4 20  4  0
  5 16  4  0
  5 23  4  0
  6 15  4  0
  7 12  4  0
  8 13  4  0
  8 14  4  0
  9 11  4  0
 11 14  4  0
 11 19  4  0
 12 18  4  0
 13 21  4  0
 15 23  4  0
 17 19  4  0
 17 20  4  0
 18 22  4  0
 19 21  4  0
M  END
$$$$

 Created by Python create_sdf_string function

 23 25  0  0  0  0  0  0  0  0999 V2000
    2.4610   -5.3070   29.1240 C   0  0  0  0  0  0  0  0  0  0  0  0
    4.7710   -4.6952   28.4803 C   0  0  0  0  0  0  0  0  0  0  0  0
    3.4047   -5.1087   28.1314 C   0  0  0  0  0  0  0  0  0  0  0  0
   -0.2234  -11.8615   16.8874 C   0  0  0  0  0  0  0  0  0  0  0  0
    6.4491   -4.1532   30.1213 C   0  0  0  0  0  0  0  0  0  0  0  0
    5.7060   -4.4340   27.4975 C   0  0  0  0  0  0  0  0  0  0  0  0
    1.1818   -5.6612   28.8399 C   0  0  0  0  0  0  0  0  0  0  0  0
   -1.2067   -7.3287   17.7772 C   0  0  0  0  0  0  0  0  0  0  0  0
   -0.0206  -10.5585   16.6210 C   0  0  0  0  0  0  0  0  0  0  0  0
    0.3696  -12.7626   16.2169 O   0  0  0  0  0  0  0  0  0  0  0  0
   -0.6895   -9.5676   17.3297 C   0  0  0  0  0  0  0  0  0  0  0  0
    0.8388   -5.8417   27.5264 C   0  0  0  0  0  0  0  0  0  0  0  0
   -2.0709   -7.6637   18.7817 C   0  0  0  0  0  0  0  0  0  0  0  0
   -0.5279   -8.2168   17.0717 C   0  0  0  0  0  0  0  0  0  0  0  0
    6.9694   -4.0191   27.8190 C   0  0  0  0  0  0  0  0  0  0  0  0
    5.1733   -4.5469   29.8123 C   0  0  0  0  0  0  0  0  0  0  0  0
   -1.7508  -11.3016   18.6072 C   0  0  0  0  0  0  0  0  0  0  0  0
    1.7497   -5.6771   26.4971 C   0  0  0  0  0  0  0  0  0  0  0  0
   -1.5799   -9.9322   18.3468 C   0  0  0  0  0  0  0  0  0  0  0  0
   -1.0871  -12.2214   17.8851 C   0  0  0  0  0  0  0  0  0  0  0  0
   -2.2706   -8.9669   19.0691 C   0  0  0  0  0  0  0  0  0  0  0  0
    3.0279   -5.3073   26.8197 C   0  0  0  0  0  0  0  0  0  0  0  0
    7.3282   -3.8948   29.1186 C   0  0  0  0  0  0  0  0  0  0  0  0
  1  3  4  0
  1  7  4  0
  2  3  1  0
  2  6  4  0
  2 16  4  0
  3 22  4  0
  4  9  4  0
  4 10  1  0
  4 20  4  0
  5 16  4  0
  5 23  4  0
  6 15  4  0
  7 12  4  0
  8 13  4  0
  8 14  4  0
  9 11  4  0
 11 14  4  0
 11 19  4  0
 12 18  4  0
 13 21  4  0
 15 23  4  0
 17 19  4  0
 17 20  4  0
 18 22  4  0
 19 21  4  0
M  END
$$$$

 Created by Python create_sdf_string function

 23 25  0  0  0  0  0  0  0  0999 V2000
    2.4610   -5.3070   29.1240 C   0  0  0  0  0  0  0  0  0  0  0  0
    4.7710   -4.6952   28.4803 C   0  0  0  0  0  0  0  0  0  0  0  0
    3.4047   -5.1087   28.1314 C   0  0  0  0  0  0  0  0  0  0  0  0
   -0.2234  -11.8615   16.8874 C   0  0  0  0  0  0  0  0  0  0  0  0
    6.4491   -4.1532   30.1213 C   0  0  0  0  0  0  0  0  0  0  0  0
    5.7060   -4.4340   27.4975 C   0  0  0  0  0  0  0  0  0  0  0  0
    1.1818   -5.6612   28.8399 C   0  0  0  0  0  0  0  0  0  0  0  0
   -1.2067   -7.3287   17.7772 C   0  0  0  0  0  0  0  0  0  0  0  0
   -0.0206  -10.5585   16.6210 C   0  0  0  0  0  0  0  0  0  0  0  0
    0.3696  -12.7626   16.2169 O   0  0  0  0  0  0  0  0  0  0  0  0
   -0.6895   -9.5676   17.3297 C   0  0  0  0  0  0  0  0  0  0  0  0
    0.8388   -5.8417   27.5264 C   0  0  0  0  0  0  0  0  0  0  0  0
   -2.0709   -7.6637   18.7817 C   0  0  0  0  0  0  0  0  0  0  0  0
   -0.5279   -8.2168   17.0717 C   0  0  0  0  0  0  0  0  0  0  0  0
    6.9694   -4.0191   27.8190 C   0  0  0  0  0  0  0  0  0  0  0  0
    5.1733   -4.5469   29.8123 C   0  0  0  0  0  0  0  0  0  0  0  0
   -1.7508  -11.3016   18.6072 C   0  0  0  0  0  0  0  0  0  0  0  0
    1.7497   -5.6771   26.4971 C   0  0  0  0  0  0  0  0  0  0  0  0
   -1.5799   -9.9322   18.3468 C   0  0  0  0  0  0  0  0  0  0  0  0
   -1.0871  -12.2214   17.8851 C   0  0  0  0  0  0  0  0  0  0  0  0
   -2.2706   -8.9669   19.0691 C   0  0  0  0  0  0  0  0  0  0  0  0
    3.0279   -5.3073   26.8197 C   0  0  0  0  0  0  0  0  0  0  0  0
    7.3282   -3.8948   29.1186 C   0  0  0  0  0  0  0  0  0  0  0  0
  1  3  4  0
  1  7  4  0
  2  3  1  0
  2  6  4  0
  2 16  4  0
  3 22  4  0
  4  9  4  0
  4 10  1  0
  4 20  4  0
  5 16  4  0
  5 23  4  0
  6 15  4  0
  7 12  4  0
  8 13  4  0
  8 14  4  0
  9 11  4  0
 11 14  4  0
 11 19  4  0
 12 18  4  0
 13 21  4  0
 15 23  4  0
 17 19  4  0
 17 20  4  0
 18 22  4  0
 19 21  4  0
M  END
$$$$

 Created by Python create_sdf_string function

 23 25  0  0  0  0  0  0  0  0999 V2000
    2.4610   -5.3070   29.1240 C   0  0  0  0  0  0  0  0  0  0  0  0
    4.7710   -4.6952   28.4803 C   0  0  0  0  0  0  0  0  0  0  0  0
    3.4047   -5.1087   28.1314 C   0  0  0  0  0  0  0  0  0  0  0  0
   -0.2234  -11.8615   16.8874 C   0  0  0  0  0  0  0  0  0  0  0  0
    6.4491   -4.1532   30.1213 C   0  0  0  0  0  0  0  0  0  0  0  0
    5.7060   -4.4340   27.4975 C   0  0  0  0  0  0  0  0  0  0  0  0
    1.1818   -5.6612   28.8399 C   0  0  0  0  0  0  0  0  0  0  0  0
   -1.2067   -7.3287   17.7772 C   0  0  0  0  0  0  0  0  0  0  0  0
   -0.0206  -10.5585   16.6210 C   0  0  0  0  0  0  0  0  0  0  0  0
    0.3696  -12.7626   16.2169 O   0  0  0  0  0  0  0  0  0  0  0  0
   -0.6895   -9.5676   17.3297 C   0  0  0  0  0  0  0  0  0  0  0  0
    0.8388   -5.8417   27.5264 C   0  0  0  0  0  0  0  0  0  0  0  0
   -2.0709   -7.6637   18.7817 C   0  0  0  0  0  0  0  0  0  0  0  0
   -0.5279   -8.2168   17.0717 C   0  0  0  0  0  0  0  0  0  0  0  0
    6.9694   -4.0191   27.8190 C   0  0  0  0  0  0  0  0  0  0  0  0
    5.1733   -4.5469   29.8123 C   0  0  0  0  0  0  0  0  0  0  0  0
   -1.7508  -11.3016   18.6072 C   0  0  0  0  0  0  0  0  0  0  0  0
    1.7497   -5.6771   26.4971 C   0  0  0  0  0  0  0  0  0  0  0  0
   -1.5799   -9.9322   18.3468 C   0  0  0  0  0  0  0  0  0  0  0  0
   -1.0871  -12.2214   17.8851 C   0  0  0  0  0  0  0  0  0  0  0  0
   -2.2706   -8.9669   19.0691 C   0  0  0  0  0  0  0  0  0  0  0  0
    3.0279   -5.3073   26.8197 C   0  0  0  0  0  0  0  0  0  0  0  0
    7.3282   -3.8948   29.1186 C   0  0  0  0  0  0  0  0  0  0  0  0
  1  3  4  0
  1  7  4  0
  2  3  1  0
  2  6  4  0
  2 16  4  0
  3 22  4  0
  4  9  4  0
  4 10  1  0
  4 20  4  0
  5 16  4  0
  5 23  4  0
  6 15  4  0
  7 12  4  0
  8 13  4  0
  8 14  4  0
  9 11  4  0
 11 14  4  0
 11 19  4  0
 12 18  4  0
 13 21  4  0
 15 23  4  0
 17 19  4  0
 17 20  4  0
 18 22  4  0
 19 21  4  0
M  END
$$$$

 Created by Python create_sdf_string function

 23 25  0  0  0  0  0  0  0  0999 V2000
    2.4610   -5.3070   29.1240 C   0  0  0  0  0  0  0  0  0  0  0  0
    4.7710   -4.6952   28.4803 C   0  0  0  0  0  0  0  0  0  0  0  0
    3.4047   -5.1087   28.1314 C   0  0  0  0  0  0  0  0  0  0  0  0
   -0.2234  -11.8615   16.8874 C   0  0  0  0  0  0  0  0  0  0  0  0
    6.4491   -4.1532   30.1213 C   0  0  0  0  0  0  0  0  0  0  0  0
    5.7060   -4.4340   27.4975 C   0  0  0  0  0  0  0  0  0  0  0  0
    1.1818   -5.6612   28.8399 C   0  0  0  0  0  0  0  0  0  0  0  0
   -1.2067   -7.3287   17.7772 C   0  0  0  0  0  0  0  0  0  0  0  0
   -0.0206  -10.5585   16.6210 C   0  0  0  0  0  0  0  0  0  0  0  0
    0.3696  -12.7626   16.2169 O   0  0  0  0  0  0  0  0  0  0  0  0
   -0.6895   -9.5676   17.3297 C   0  0  0  0  0  0  0  0  0  0  0  0
    0.8388   -5.8417   27.5264 C   0  0  0  0  0  0  0  0  0  0  0  0
   -2.0709   -7.6637   18.7817 C   0  0  0  0  0  0  0  0  0  0  0  0
   -0.5279   -8.2168   17.0717 C   0  0  0  0  0  0  0  0  0  0  0  0
    6.9694   -4.0191   27.8190 C   0  0  0  0  0  0  0  0  0  0  0  0
    5.1733   -4.5469   29.8123 C   0  0  0  0  0  0  0  0  0  0  0  0
   -1.7508  -11.3016   18.6072 C   0  0  0  0  0  0  0  0  0  0  0  0
    1.7497   -5.6771   26.4971 C   0  0  0  0  0  0  0  0  0  0  0  0
   -1.5799   -9.9322   18.3468 C   0  0  0  0  0  0  0  0  0  0  0  0
   -1.0871  -12.2214   17.8851 C   0  0  0  0  0  0  0  0  0  0  0  0
   -2.2706   -8.9669   19.0691 C   0  0  0  0  0  0  0  0  0  0  0  0
    3.0279   -5.3073   26.8197 C   0  0  0  0  0  0  0  0  0  0  0  0
    7.3282   -3.8948   29.1186 C   0  0  0  0  0  0  0  0  0  0  0  0
  1  3  4  0
  1  7  4  0
  2  3  1  0
  2  6  4  0
  2 16  4  0
  3 22  4  0
  4  9  4  0
  4 10  1  0
  4 20  4  0
  5 16  4  0
  5 23  4  0
  6 15  4  0
  7 12  4  0
  8 13  4  0
  8 14  4  0
  9 11  4  0
 11 14  4  0
 11 19  4  0
 12 18  4  0
 13 21  4  0
 15 23  4  0
 17 19  4  0
 17 20  4  0
 18 22  4  0
 19 21  4  0
M  END
$$$$

 Created by Python create_sdf_string function

 23 25  0  0  0  0  0  0  0  0999 V2000
    2.4610   -5.3070   29.1240 C   0  0  0  0  0  0  0  0  0  0  0  0
    4.7710   -4.6952   28.4803 C   0  0  0  0  0  0  0  0  0  0  0  0
    3.4047   -5.1087   28.1314 C   0  0  0  0  0  0  0  0  0  0  0  0
   -0.2234  -11.8615   16.8874 C   0  0  0  0  0  0  0  0  0  0  0  0
    6.4491   -4.1532   30.1213 C   0  0  0  0  0  0  0  0  0  0  0  0
    5.7060   -4.4340   27.4975 C   0  0  0  0  0  0  0  0  0  0  0  0
    1.1818   -5.6612   28.8399 C   0  0  0  0  0  0  0  0  0  0  0  0
   -1.2067   -7.3287   17.7772 C   0  0  0  0  0  0  0  0  0  0  0  0
   -0.0206  -10.5585   16.6210 C   0  0  0  0  0  0  0  0  0  0  0  0
    0.3696  -12.7626   16.2169 O   0  0  0  0  0  0  0  0  0  0  0  0
   -0.6895   -9.5676   17.3297 C   0  0  0  0  0  0  0  0  0  0  0  0
    0.8388   -5.8417   27.5264 C   0  0  0  0  0  0  0  0  0  0  0  0
   -2.0709   -7.6637   18.7817 C   0  0  0  0  0  0  0  0  0  0  0  0
   -0.5279   -8.2168   17.0717 C   0  0  0  0  0  0  0  0  0  0  0  0
    6.9694   -4.0191   27.8190 C   0  0  0  0  0  0  0  0  0  0  0  0
    5.1733   -4.5469   29.8123 C   0  0  0  0  0  0  0  0  0  0  0  0
   -1.7508  -11.3016   18.6072 C   0  0  0  0  0  0  0  0  0  0  0  0
    1.7497   -5.6771   26.4971 C   0  0  0  0  0  0  0  0  0  0  0  0
   -1.5799   -9.9322   18.3468 C   0  0  0  0  0  0  0  0  0  0  0  0
   -1.0871  -12.2214   17.8851 C   0  0  0  0  0  0  0  0  0  0  0  0
   -2.2706   -8.9669   19.0691 C   0  0  0  0  0  0  0  0  0  0  0  0
    3.0279   -5.3073   26.8197 C   0  0  0  0  0  0  0  0  0  0  0  0
    7.3282   -3.8948   29.1186 C   0  0  0  0  0  0  0  0  0  0  0  0
  1  3  4  0
  1  7  4  0
  2  3  1  0
  2  6  4  0
  2 16  4  0
  3 22  4  0
  4  9  4  0
  4 10  1  0
  4 20  4  0
  5 16  4  0
  5 23  4  0
  6 15  4  0
  7 12  4  0
  8 13  4  0
  8 14  4  0
  9 11  4  0
 11 14  4  0
 11 19  4  0
 12 18  4  0
 13 21  4  0
 15 23  4  0
 17 19  4  0
 17 20  4  0
 18 22  4  0
 19 21  4  0
M  END
$$$$

 Created by Python create_sdf_string function

 23 25  0  0  0  0  0  0  0  0999 V2000
    2.4610   -5.3070   29.1240 C   0  0  0  0  0  0  0  0  0  0  0  0
    4.7710   -4.6952   28.4803 C   0  0  0  0  0  0  0  0  0  0  0  0
    3.4047   -5.1087   28.1314 C   0  0  0  0  0  0  0  0  0  0  0  0
   -0.2234  -11.8615   16.8874 C   0  0  0  0  0  0  0  0  0  0  0  0
    6.4491   -4.1532   30.1213 C   0  0  0  0  0  0  0  0  0  0  0  0
    5.7060   -4.4340   27.4975 C   0  0  0  0  0  0  0  0  0  0  0  0
    1.1818   -5.6612   28.8399 C   0  0  0  0  0  0  0  0  0  0  0  0
   -1.2067   -7.3287   17.7772 C   0  0  0  0  0  0  0  0  0  0  0  0
   -0.0206  -10.5585   16.6210 C   0  0  0  0  0  0  0  0  0  0  0  0
    0.3696  -12.7626   16.2169 O   0  0  0  0  0  0  0  0  0  0  0  0
   -0.6895   -9.5676   17.3297 C   0  0  0  0  0  0  0  0  0  0  0  0
    0.8388   -5.8417   27.5264 C   0  0  0  0  0  0  0  0  0  0  0  0
   -2.0709   -7.6637   18.7817 C   0  0  0  0  0  0  0  0  0  0  0  0
   -0.5279   -8.2168   17.0717 C   0  0  0  0  0  0  0  0  0  0  0  0
    6.9694   -4.0191   27.8190 C   0  0  0  0  0  0  0  0  0  0  0  0
    5.1733   -4.5469   29.8123 C   0  0  0  0  0  0  0  0  0  0  0  0
   -1.7508  -11.3016   18.6072 C   0  0  0  0  0  0  0  0  0  0  0  0
    1.7497   -5.6771   26.4971 C   0  0  0  0  0  0  0  0  0  0  0  0
   -1.5799   -9.9322   18.3468 C   0  0  0  0  0  0  0  0  0  0  0  0
   -1.0871  -12.2214   17.8851 C   0  0  0  0  0  0  0  0  0  0  0  0
   -2.2706   -8.9669   19.0691 C   0  0  0  0  0  0  0  0  0  0  0  0
    3.0279   -5.3073   26.8197 C   0  0  0  0  0  0  0  0  0  0  0  0
    7.3282   -3.8948   29.1186 C   0  0  0  0  0  0  0  0  0  0  0  0
  1  3  4  0
  1  7  4  0
  2  3  1  0
  2  6  4  0
  2 16  4  0
  3 22  4  0
  4  9  4  0
  4 10  1  0
  4 20  4  0
  5 16  4  0
  5 23  4  0
  6 15  4  0
  7 12  4  0
  8 13  4  0
  8 14  4  0
  9 11  4  0
 11 14  4  0
 11 19  4  0
 12 18  4  0
 13 21  4  0
 15 23  4  0
 17 19  4  0
 17 20  4  0
 18 22  4  0
 19 21  4  0
M  END
$$$$

 Created by Python create_sdf_string function

 23 25  0  0  0  0  0  0  0  0999 V2000
    2.4610   -5.3070   29.1240 C   0  0  0  0  0  0  0  0  0  0  0  0
    4.7710   -4.6952   28.4803 C   0  0  0  0  0  0  0  0  0  0  0  0
    3.4047   -5.1087   28.1314 C   0  0  0  0  0  0  0  0  0  0  0  0
   -0.2234  -11.8615   16.8874 C   0  0  0  0  0  0  0  0  0  0  0  0
    6.4491   -4.1532   30.1213 C   0  0  0  0  0  0  0  0  0  0  0  0
    5.7060   -4.4340   27.4975 C   0  0  0  0  0  0  0  0  0  0  0  0
    1.1818   -5.6612   28.8399 C   0  0  0  0  0  0  0  0  0  0  0  0
   -1.2067   -7.3287   17.7772 C   0  0  0  0  0  0  0  0  0  0  0  0
   -0.0206  -10.5585   16.6210 C   0  0  0  0  0  0  0  0  0  0  0  0
    0.3696  -12.7626   16.2169 O   0  0  0  0  0  0  0  0  0  0  0  0
   -0.6895   -9.5676   17.3297 C   0  0  0  0  0  0  0  0  0  0  0  0
    0.8388   -5.8417   27.5264 C   0  0  0  0  0  0  0  0  0  0  0  0
   -2.0709   -7.6637   18.7817 C   0  0  0  0  0  0  0  0  0  0  0  0
   -0.5279   -8.2168   17.0717 C   0  0  0  0  0  0  0  0  0  0  0  0
    6.9694   -4.0191   27.8190 C   0  0  0  0  0  0  0  0  0  0  0  0
    5.1733   -4.5469   29.8123 C   0  0  0  0  0  0  0  0  0  0  0  0
   -1.7508  -11.3016   18.6072 C   0  0  0  0  0  0  0  0  0  0  0  0
    1.7497   -5.6771   26.4971 C   0  0  0  0  0  0  0  0  0  0  0  0
   -1.5799   -9.9322   18.3468 C   0  0  0  0  0  0  0  0  0  0  0  0
   -1.0871  -12.2214   17.8851 C   0  0  0  0  0  0  0  0  0  0  0  0
   -2.2706   -8.9669   19.0691 C   0  0  0  0  0  0  0  0  0  0  0  0
    3.0279   -5.3073   26.8197 C   0  0  0  0  0  0  0  0  0  0  0  0
    7.3282   -3.8948   29.1186 C   0  0  0  0  0  0  0  0  0  0  0  0
  1  3  4  0
  1  7  4  0
  2  3  1  0
  2  6  4  0
  2 16  4  0
  3 22  4  0
  4  9  4  0
  4 10  1  0
  4 20  4  0
  5 16  4  0
  5 23  4  0
  6 15  4  0
  7 12  4  0
  8 13  4  0
  8 14  4  0
  9 11  4  0
 11 14  4  0
 11 19  4  0
 12 18  4  0
 13 21  4  0
 15 23  4  0
 17 19  4  0
 17 20  4  0
 18 22  4  0
 19 21  4  0
M  END
$$$$

 Created by Python create_sdf_string function

 23 25  0  0  0  0  0  0  0  0999 V2000
    2.4610   -5.3070   29.1240 C   0  0  0  0  0  0  0  0  0  0  0  0
    4.7710   -4.6952   28.4803 C   0  0  0  0  0  0  0  0  0  0  0  0
    3.4047   -5.1087   28.1314 C   0  0  0  0  0  0  0  0  0  0  0  0
   -0.2234  -11.8615   16.8874 C   0  0  0  0  0  0  0  0  0  0  0  0
    6.4491   -4.1532   30.1213 C   0  0  0  0  0  0  0  0  0  0  0  0
    5.7060   -4.4340   27.4975 C   0  0  0  0  0  0  0  0  0  0  0  0
    1.1818   -5.6612   28.8399 C   0  0  0  0  0  0  0  0  0  0  0  0
   -1.2067   -7.3287   17.7772 C   0  0  0  0  0  0  0  0  0  0  0  0
   -0.0206  -10.5585   16.6210 C   0  0  0  0  0  0  0  0  0  0  0  0
    0.3696  -12.7626   16.2169 O   0  0  0  0  0  0  0  0  0  0  0  0
   -0.6895   -9.5676   17.3297 C   0  0  0  0  0  0  0  0  0  0  0  0
    0.8388   -5.8417   27.5264 C   0  0  0  0  0  0  0  0  0  0  0  0
   -2.0709   -7.6637   18.7817 C   0  0  0  0  0  0  0  0  0  0  0  0
   -0.5279   -8.2168   17.0717 C   0  0  0  0  0  0  0  0  0  0  0  0
    6.9694   -4.0191   27.8190 C   0  0  0  0  0  0  0  0  0  0  0  0
    5.1733   -4.5469   29.8123 C   0  0  0  0  0  0  0  0  0  0  0  0
   -1.7508  -11.3016   18.6072 C   0  0  0  0  0  0  0  0  0  0  0  0
    1.7497   -5.6771   26.4971 C   0  0  0  0  0  0  0  0  0  0  0  0
   -1.5799   -9.9322   18.3468 C   0  0  0  0  0  0  0  0  0  0  0  0
   -1.0871  -12.2214   17.8851 C   0  0  0  0  0  0  0  0  0  0  0  0
   -2.2706   -8.9669   19.0691 C   0  0  0  0  0  0  0  0  0  0  0  0
    3.0279   -5.3073   26.8197 C   0  0  0  0  0  0  0  0  0  0  0  0
    7.3282   -3.8948   29.1186 C   0  0  0  0  0  0  0  0  0  0  0  0
  1  3  4  0
  1  7  4  0
  2  3  1  0
  2  6  4  0
  2 16  4  0
  3 22  4  0
  4  9  4  0
  4 10  1  0
  4 20  4  0
  5 16  4  0
  5 23  4  0
  6 15  4  0
  7 12  4  0
  8 13  4  0
  8 14  4  0
  9 11  4  0
 11 14  4  0
 11 19  4  0
 12 18  4  0
 13 21  4  0
 15 23  4  0
 17 19  4  0
 17 20  4  0
 18 22  4  0
 19 21  4  0
M  END
$$$$

 Created by Python create_sdf_string function

 23 25  0  0  0  0  0  0  0  0999 V2000
    2.4610   -5.3070   29.1240 C   0  0  0  0  0  0  0  0  0  0  0  0
    4.7710   -4.6952   28.4803 C   0  0  0  0  0  0  0  0  0  0  0  0
    3.4047   -5.1087   28.1314 C   0  0  0  0  0  0  0  0  0  0  0  0
   -0.2234  -11.8615   16.8874 C   0  0  0  0  0  0  0  0  0  0  0  0
    6.4491   -4.1532   30.1213 C   0  0  0  0  0  0  0  0  0  0  0  0
    5.7060   -4.4340   27.4975 C   0  0  0  0  0  0  0  0  0  0  0  0
    1.1818   -5.6612   28.8399 C   0  0  0  0  0  0  0  0  0  0  0  0
   -1.2067   -7.3287   17.7772 C   0  0  0  0  0  0  0  0  0  0  0  0
   -0.0206  -10.5585   16.6210 C   0  0  0  0  0  0  0  0  0  0  0  0
    0.3696  -12.7626   16.2169 O   0  0  0  0  0  0  0  0  0  0  0  0
   -0.6895   -9.5676   17.3297 C   0  0  0  0  0  0  0  0  0  0  0  0
    0.8388   -5.8417   27.5264 C   0  0  0  0  0  0  0  0  0  0  0  0
   -2.0709   -7.6637   18.7817 C   0  0  0  0  0  0  0  0  0  0  0  0
   -0.5279   -8.2168   17.0717 C   0  0  0  0  0  0  0  0  0  0  0  0
    6.9694   -4.0191   27.8190 C   0  0  0  0  0  0  0  0  0  0  0  0
    5.1733   -4.5469   29.8123 C   0  0  0  0  0  0  0  0  0  0  0  0
   -1.7508  -11.3016   18.6072 C   0  0  0  0  0  0  0  0  0  0  0  0
    1.7497   -5.6771   26.4971 C   0  0  0  0  0  0  0  0  0  0  0  0
   -1.5799   -9.9322   18.3468 C   0  0  0  0  0  0  0  0  0  0  0  0
   -1.0871  -12.2214   17.8851 C   0  0  0  0  0  0  0  0  0  0  0  0
   -2.2706   -8.9669   19.0691 C   0  0  0  0  0  0  0  0  0  0  0  0
    3.0279   -5.3073   26.8197 C   0  0  0  0  0  0  0  0  0  0  0  0
    7.3282   -3.8948   29.1186 C   0  0  0  0  0  0  0  0  0  0  0  0
  1  3  4  0
  1  7  4  0
  2  3  1  0
  2  6  4  0
  2 16  4  0
  3 22  4  0
  4  9  4  0
  4 10  1  0
  4 20  4  0
  5 16  4  0
  5 23  4  0
  6 15  4  0
  7 12  4  0
  8 13  4  0
  8 14  4  0
  9 11  4  0
 11 14  4  0
 11 19  4  0
 12 18  4  0
 13 21  4  0
 15 23  4  0
 17 19  4  0
 17 20  4  0
 18 22  4  0
 19 21  4  0
M  END
$$$$

 Created by Python create_sdf_string function

 23 25  0  0  0  0  0  0  0  0999 V2000
    2.4610   -5.3070   29.1240 C   0  0  0  0  0  0  0  0  0  0  0  0
    4.7710   -4.6952   28.4803 C   0  0  0  0  0  0  0  0  0  0  0  0
    3.4047   -5.1087   28.1314 C   0  0  0  0  0  0  0  0  0  0  0  0
   -0.2234  -11.8615   16.8874 C   0  0  0  0  0  0  0  0  0  0  0  0
    6.4491   -4.1532   30.1213 C   0  0  0  0  0  0  0  0  0  0  0  0
    5.7060   -4.4340   27.4975 C   0  0  0  0  0  0  0  0  0  0  0  0
    1.1818   -5.6612   28.8399 C   0  0  0  0  0  0  0  0  0  0  0  0
   -1.2067   -7.3287   17.7772 C   0  0  0  0  0  0  0  0  0  0  0  0
   -0.0206  -10.5585   16.6210 C   0  0  0  0  0  0  0  0  0  0  0  0
    0.3696  -12.7626   16.2169 O   0  0  0  0  0  0  0  0  0  0  0  0
   -0.6895   -9.5676   17.3297 C   0  0  0  0  0  0  0  0  0  0  0  0
    0.8388   -5.8417   27.5264 C   0  0  0  0  0  0  0  0  0  0  0  0
   -2.0709   -7.6637   18.7817 C   0  0  0  0  0  0  0  0  0  0  0  0
   -0.5279   -8.2168   17.0717 C   0  0  0  0  0  0  0  0  0  0  0  0
    6.9694   -4.0191   27.8190 C   0  0  0  0  0  0  0  0  0  0  0  0
    5.1733   -4.5469   29.8123 C   0  0  0  0  0  0  0  0  0  0  0  0
   -1.7508  -11.3016   18.6072 C   0  0  0  0  0  0  0  0  0  0  0  0
    1.7497   -5.6771   26.4971 C   0  0  0  0  0  0  0  0  0  0  0  0
   -1.5799   -9.9322   18.3468 C   0  0  0  0  0  0  0  0  0  0  0  0
   -1.0871  -12.2214   17.8851 C   0  0  0  0  0  0  0  0  0  0  0  0
   -2.2706   -8.9669   19.0691 C   0  0  0  0  0  0  0  0  0  0  0  0
    3.0279   -5.3073   26.8197 C   0  0  0  0  0  0  0  0  0  0  0  0
    7.3282   -3.8948   29.1186 C   0  0  0  0  0  0  0  0  0  0  0  0
  1  3  4  0
  1  7  4  0
  2  3  1  0
  2  6  4  0
  2 16  4  0
  3 22  4  0
  4  9  4  0
  4 10  1  0
  4 20  4  0
  5 16  4  0
  5 23  4  0
  6 15  4  0
  7 12  4  0
  8 13  4  0
  8 14  4  0
  9 11  4  0
 11 14  4  0
 11 19  4  0
 12 18  4  0
 13 21  4  0
 15 23  4  0
 17 19  4  0
 17 20  4  0
 18 22  4  0
 19 21  4  0
M  END
$$$$

 Created by Python create_sdf_string function

 23 25  0  0  0  0  0  0  0  0999 V2000
    2.4610   -5.3070   29.1240 C   0  0  0  0  0  0  0  0  0  0  0  0
    4.7710   -4.6952   28.4803 C   0  0  0  0  0  0  0  0  0  0  0  0
    3.4047   -5.1087   28.1314 C   0  0  0  0  0  0  0  0  0  0  0  0
   -0.2234  -11.8615   16.8874 C   0  0  0  0  0  0  0  0  0  0  0  0
    6.4491   -4.1532   30.1213 C   0  0  0  0  0  0  0  0  0  0  0  0
    5.7060   -4.4340   27.4975 C   0  0  0  0  0  0  0  0  0  0  0  0
    1.1818   -5.6612   28.8399 C   0  0  0  0  0  0  0  0  0  0  0  0
   -1.2067   -7.3287   17.7772 C   0  0  0  0  0  0  0  0  0  0  0  0
   -0.0206  -10.5585   16.6210 C   0  0  0  0  0  0  0  0  0  0  0  0
    0.3696  -12.7626   16.2169 O   0  0  0  0  0  0  0  0  0  0  0  0
   -0.6895   -9.5676   17.3297 C   0  0  0  0  0  0  0  0  0  0  0  0
    0.8388   -5.8417   27.5264 C   0  0  0  0  0  0  0  0  0  0  0  0
   -2.0709   -7.6637   18.7817 C   0  0  0  0  0  0  0  0  0  0  0  0
   -0.5279   -8.2168   17.0717 C   0  0  0  0  0  0  0  0  0  0  0  0
    6.9694   -4.0191   27.8190 C   0  0  0  0  0  0  0  0  0  0  0  0
    5.1733   -4.5469   29.8123 C   0  0  0  0  0  0  0  0  0  0  0  0
   -1.7508  -11.3016   18.6072 C   0  0  0  0  0  0  0  0  0  0  0  0
    1.7497   -5.6771   26.4971 C   0  0  0  0  0  0  0  0  0  0  0  0
   -1.5799   -9.9322   18.3468 C   0  0  0  0  0  0  0  0  0  0  0  0
   -1.0871  -12.2214   17.8851 C   0  0  0  0  0  0  0  0  0  0  0  0
   -2.2706   -8.9669   19.0691 C   0  0  0  0  0  0  0  0  0  0  0  0
    3.0279   -5.3073   26.8197 C   0  0  0  0  0  0  0  0  0  0  0  0
    7.3282   -3.8948   29.1186 C   0  0  0  0  0  0  0  0  0  0  0  0
  1  3  4  0
  1  7  4  0
  2  3  1  0
  2  6  4  0
  2 16  4  0
  3 22  4  0
  4  9  4  0
  4 10  1  0
  4 20  4  0
  5 16  4  0
  5 23  4  0
  6 15  4  0
  7 12  4  0
  8 13  4  0
  8 14  4  0
  9 11  4  0
 11 14  4  0
 11 19  4  0
 12 18  4  0
 13 21  4  0
 15 23  4  0
 17 19  4  0
 17 20  4  0
 18 22  4  0
 19 21  4  0
M  END
$$$$

 Created by Python create_sdf_string function

 23 25  0  0  0  0  0  0  0  0999 V2000
    2.4610   -5.3070   29.1240 C   0  0  0  0  0  0  0  0  0  0  0  0
    4.7710   -4.6952   28.4803 C   0  0  0  0  0  0  0  0  0  0  0  0
    3.4047   -5.1087   28.1314 C   0  0  0  0  0  0  0  0  0  0  0  0
   -0.2234  -11.8615   16.8874 C   0  0  0  0  0  0  0  0  0  0  0  0
    6.4491   -4.1532   30.1213 C   0  0  0  0  0  0  0  0  0  0  0  0
    5.7060   -4.4340   27.4975 C   0  0  0  0  0  0  0  0  0  0  0  0
    1.1818   -5.6612   28.8399 C   0  0  0  0  0  0  0  0  0  0  0  0
   -1.2067   -7.3287   17.7772 C   0  0  0  0  0  0  0  0  0  0  0  0
   -0.0206  -10.5585   16.6210 C   0  0  0  0  0  0  0  0  0  0  0  0
    0.3696  -12.7626   16.2169 O   0  0  0  0  0  0  0  0  0  0  0  0
   -0.6895   -9.5676   17.3297 C   0  0  0  0  0  0  0  0  0  0  0  0
    0.8388   -5.8417   27.5264 C   0  0  0  0  0  0  0  0  0  0  0  0
   -2.0709   -7.6637   18.7817 C   0  0  0  0  0  0  0  0  0  0  0  0
   -0.5279   -8.2168   17.0717 C   0  0  0  0  0  0  0  0  0  0  0  0
    6.9694   -4.0191   27.8190 C   0  0  0  0  0  0  0  0  0  0  0  0
    5.1733   -4.5469   29.8123 C   0  0  0  0  0  0  0  0  0  0  0  0
   -1.7508  -11.3016   18.6072 C   0  0  0  0  0  0  0  0  0  0  0  0
    1.7497   -5.6771   26.4971 C   0  0  0  0  0  0  0  0  0  0  0  0
   -1.5799   -9.9322   18.3468 C   0  0  0  0  0  0  0  0  0  0  0  0
   -1.0871  -12.2214   17.8851 C   0  0  0  0  0  0  0  0  0  0  0  0
   -2.2706   -8.9669   19.0691 C   0  0  0  0  0  0  0  0  0  0  0  0
    3.0279   -5.3073   26.8197 C   0  0  0  0  0  0  0  0  0  0  0  0
    7.3282   -3.8948   29.1186 C   0  0  0  0  0  0  0  0  0  0  0  0
  1  3  4  0
  1  7  4  0
  2  3  1  0
  2  6  4  0
  2 16  4  0
  3 22  4  0
  4  9  4  0
  4 10  1  0
  4 20  4  0
  5 16  4  0
  5 23  4  0
  6 15  4  0
  7 12  4  0
  8 13  4  0
  8 14  4  0
  9 11  4  0
 11 14  4  0
 11 19  4  0
 12 18  4  0
 13 21  4  0
 15 23  4  0
 17 19  4  0
 17 20  4  0
 18 22  4  0
 19 21  4  0
M  END
$$$$

 Created by Python create_sdf_string function

 23 25  0  0  0  0  0  0  0  0999 V2000
    2.4610   -5.3070   29.1240 C   0  0  0  0  0  0  0  0  0  0  0  0
    4.7710   -4.6952   28.4803 C   0  0  0  0  0  0  0  0  0  0  0  0
    3.4047   -5.1087   28.1314 C   0  0  0  0  0  0  0  0  0  0  0  0
   -0.2234  -11.8615   16.8874 C   0  0  0  0  0  0  0  0  0  0  0  0
    6.4491   -4.1532   30.1213 C   0  0  0  0  0  0  0  0  0  0  0  0
    5.7060   -4.4340   27.4975 C   0  0  0  0  0  0  0  0  0  0  0  0
    1.1818   -5.6612   28.8399 C   0  0  0  0  0  0  0  0  0  0  0  0
   -1.2067   -7.3287   17.7772 C   0  0  0  0  0  0  0  0  0  0  0  0
   -0.0206  -10.5585   16.6210 C   0  0  0  0  0  0  0  0  0  0  0  0
    0.3696  -12.7626   16.2169 O   0  0  0  0  0  0  0  0  0  0  0  0
   -0.6895   -9.5676   17.3297 C   0  0  0  0  0  0  0  0  0  0  0  0
    0.8388   -5.8417   27.5264 C   0  0  0  0  0  0  0  0  0  0  0  0
   -2.0709   -7.6637   18.7817 C   0  0  0  0  0  0  0  0  0  0  0  0
   -0.5279   -8.2168   17.0717 C   0  0  0  0  0  0  0  0  0  0  0  0
    6.9694   -4.0191   27.8190 C   0  0  0  0  0  0  0  0  0  0  0  0
    5.1733   -4.5469   29.8123 C   0  0  0  0  0  0  0  0  0  0  0  0
   -1.7508  -11.3016   18.6072 C   0  0  0  0  0  0  0  0  0  0  0  0
    1.7497   -5.6771   26.4971 C   0  0  0  0  0  0  0  0  0  0  0  0
   -1.5799   -9.9322   18.3468 C   0  0  0  0  0  0  0  0  0  0  0  0
   -1.0871  -12.2214   17.8851 C   0  0  0  0  0  0  0  0  0  0  0  0
   -2.2706   -8.9669   19.0691 C   0  0  0  0  0  0  0  0  0  0  0  0
    3.0279   -5.3073   26.8197 C   0  0  0  0  0  0  0  0  0  0  0  0
    7.3282   -3.8948   29.1186 C   0  0  0  0  0  0  0  0  0  0  0  0
  1  3  4  0
  1  7  4  0
  2  3  1  0
  2  6  4  0
  2 16  4  0
  3 22  4  0
  4  9  4  0
  4 10  1  0
  4 20  4  0
  5 16  4  0
  5 23  4  0
  6 15  4  0
  7 12  4  0
  8 13  4  0
  8 14  4  0
  9 11  4  0
 11 14  4  0
 11 19  4  0
 12 18  4  0
 13 21  4  0
 15 23  4  0
 17 19  4  0
 17 20  4  0
 18 22  4  0
 19 21  4  0
M  END
$$$$

 Created by Python create_sdf_string function

 23 25  0  0  0  0  0  0  0  0999 V2000
    2.4610   -5.3070   29.1240 C   0  0  0  0  0  0  0  0  0  0  0  0
    4.7710   -4.6952   28.4803 C   0  0  0  0  0  0  0  0  0  0  0  0
    3.4047   -5.1087   28.1314 C   0  0  0  0  0  0  0  0  0  0  0  0
   -0.2234  -11.8615   16.8874 C   0  0  0  0  0  0  0  0  0  0  0  0
    6.4491   -4.1532   30.1213 C   0  0  0  0  0  0  0  0  0  0  0  0
    5.7060   -4.4340   27.4975 C   0  0  0  0  0  0  0  0  0  0  0  0
    1.1818   -5.6612   28.8399 C   0  0  0  0  0  0  0  0  0  0  0  0
   -1.2067   -7.3287   17.7772 C   0  0  0  0  0  0  0  0  0  0  0  0
   -0.0206  -10.5585   16.6210 C   0  0  0  0  0  0  0  0  0  0  0  0
    0.3696  -12.7626   16.2169 O   0  0  0  0  0  0  0  0  0  0  0  0
   -0.6895   -9.5676   17.3297 C   0  0  0  0  0  0  0  0  0  0  0  0
    0.8388   -5.8417   27.5264 C   0  0  0  0  0  0  0  0  0  0  0  0
   -2.0709   -7.6637   18.7817 C   0  0  0  0  0  0  0  0  0  0  0  0
   -0.5279   -8.2168   17.0717 C   0  0  0  0  0  0  0  0  0  0  0  0
    6.9694   -4.0191   27.8190 C   0  0  0  0  0  0  0  0  0  0  0  0
    5.1733   -4.5469   29.8123 C   0  0  0  0  0  0  0  0  0  0  0  0
   -1.7508  -11.3016   18.6072 C   0  0  0  0  0  0  0  0  0  0  0  0
    1.7497   -5.6771   26.4971 C   0  0  0  0  0  0  0  0  0  0  0  0
   -1.5799   -9.9322   18.3468 C   0  0  0  0  0  0  0  0  0  0  0  0
   -1.0871  -12.2214   17.8851 C   0  0  0  0  0  0  0  0  0  0  0  0
   -2.2706   -8.9669   19.0691 C   0  0  0  0  0  0  0  0  0  0  0  0
    3.0279   -5.3073   26.8197 C   0  0  0  0  0  0  0  0  0  0  0  0
    7.3282   -3.8948   29.1186 C   0  0  0  0  0  0  0  0  0  0  0  0
  1  3  4  0
  1  7  4  0
  2  3  1  0
  2  6  4  0
  2 16  4  0
  3 22  4  0
  4  9  4  0
  4 10  1  0
  4 20  4  0
  5 16  4  0
  5 23  4  0
  6 15  4  0
  7 12  4  0
  8 13  4  0
  8 14  4  0
  9 11  4  0
 11 14  4  0
 11 19  4  0
 12 18  4  0
 13 21  4  0
 15 23  4  0
 17 19  4  0
 17 20  4  0
 18 22  4  0
 19 21  4  0
M  END
$$$$

 Created by Python create_sdf_string function

 23 25  0  0  0  0  0  0  0  0999 V2000
    2.4610   -5.3070   29.1240 C   0  0  0  0  0  0  0  0  0  0  0  0
    4.7710   -4.6952   28.4803 C   0  0  0  0  0  0  0  0  0  0  0  0
    3.4047   -5.1087   28.1314 C   0  0  0  0  0  0  0  0  0  0  0  0
   -0.2234  -11.8615   16.8874 C   0  0  0  0  0  0  0  0  0  0  0  0
    6.4491   -4.1532   30.1213 C   0  0  0  0  0  0  0  0  0  0  0  0
    5.7060   -4.4340   27.4975 C   0  0  0  0  0  0  0  0  0  0  0  0
    1.1818   -5.6612   28.8399 C   0  0  0  0  0  0  0  0  0  0  0  0
   -1.2067   -7.3287   17.7772 C   0  0  0  0  0  0  0  0  0  0  0  0
   -0.0206  -10.5585   16.6210 C   0  0  0  0  0  0  0  0  0  0  0  0
    0.3696  -12.7626   16.2169 O   0  0  0  0  0  0  0  0  0  0  0  0
   -0.6895   -9.5676   17.3297 C   0  0  0  0  0  0  0  0  0  0  0  0
    0.8388   -5.8417   27.5264 C   0  0  0  0  0  0  0  0  0  0  0  0
   -2.0709   -7.6637   18.7817 C   0  0  0  0  0  0  0  0  0  0  0  0
   -0.5279   -8.2168   17.0717 C   0  0  0  0  0  0  0  0  0  0  0  0
    6.9694   -4.0191   27.8190 C   0  0  0  0  0  0  0  0  0  0  0  0
    5.1733   -4.5469   29.8123 C   0  0  0  0  0  0  0  0  0  0  0  0
   -1.7508  -11.3016   18.6072 C   0  0  0  0  0  0  0  0  0  0  0  0
    1.7497   -5.6771   26.4971 C   0  0  0  0  0  0  0  0  0  0  0  0
   -1.5799   -9.9322   18.3468 C   0  0  0  0  0  0  0  0  0  0  0  0
   -1.0871  -12.2214   17.8851 C   0  0  0  0  0  0  0  0  0  0  0  0
   -2.2706   -8.9669   19.0691 C   0  0  0  0  0  0  0  0  0  0  0  0
    3.0279   -5.3073   26.8197 C   0  0  0  0  0  0  0  0  0  0  0  0
    7.3282   -3.8948   29.1186 C   0  0  0  0  0  0  0  0  0  0  0  0
  1  3  4  0
  1  7  4  0
  2  3  1  0
  2  6  4  0
  2 16  4  0
  3 22  4  0
  4  9  4  0
  4 10  1  0
  4 20  4  0
  5 16  4  0
  5 23  4  0
  6 15  4  0
  7 12  4  0
  8 13  4  0
  8 14  4  0
  9 11  4  0
 11 14  4  0
 11 19  4  0
 12 18  4  0
 13 21  4  0
 15 23  4  0
 17 19  4  0
 17 20  4  0
 18 22  4  0
 19 21  4  0
M  END
$$$$

 Created by Python create_sdf_string function

 23 25  0  0  0  0  0  0  0  0999 V2000
    2.4610   -5.3070   29.1240 C   0  0  0  0  0  0  0  0  0  0  0  0
    4.7710   -4.6952   28.4803 C   0  0  0  0  0  0  0  0  0  0  0  0
    3.4047   -5.1087   28.1314 C   0  0  0  0  0  0  0  0  0  0  0  0
   -0.2234  -11.8615   16.8874 C   0  0  0  0  0  0  0  0  0  0  0  0
    6.4491   -4.1532   30.1213 C   0  0  0  0  0  0  0  0  0  0  0  0
    5.7060   -4.4340   27.4975 C   0  0  0  0  0  0  0  0  0  0  0  0
    1.1818   -5.6612   28.8399 C   0  0  0  0  0  0  0  0  0  0  0  0
   -1.2067   -7.3287   17.7772 C   0  0  0  0  0  0  0  0  0  0  0  0
   -0.0206  -10.5585   16.6210 C   0  0  0  0  0  0  0  0  0  0  0  0
    0.3696  -12.7626   16.2169 O   0  0  0  0  0  0  0  0  0  0  0  0
   -0.6895   -9.5676   17.3297 C   0  0  0  0  0  0  0  0  0  0  0  0
    0.8388   -5.8417   27.5264 C   0  0  0  0  0  0  0  0  0  0  0  0
   -2.0709   -7.6637   18.7817 C   0  0  0  0  0  0  0  0  0  0  0  0
   -0.5279   -8.2168   17.0717 C   0  0  0  0  0  0  0  0  0  0  0  0
    6.9694   -4.0191   27.8190 C   0  0  0  0  0  0  0  0  0  0  0  0
    5.1733   -4.5469   29.8123 C   0  0  0  0  0  0  0  0  0  0  0  0
   -1.7508  -11.3016   18.6072 C   0  0  0  0  0  0  0  0  0  0  0  0
    1.7497   -5.6771   26.4971 C   0  0  0  0  0  0  0  0  0  0  0  0
   -1.5799   -9.9322   18.3468 C   0  0  0  0  0  0  0  0  0  0  0  0
   -1.0871  -12.2214   17.8851 C   0  0  0  0  0  0  0  0  0  0  0  0
   -2.2706   -8.9669   19.0691 C   0  0  0  0  0  0  0  0  0  0  0  0
    3.0279   -5.3073   26.8197 C   0  0  0  0  0  0  0  0  0  0  0  0
    7.3282   -3.8948   29.1186 C   0  0  0  0  0  0  0  0  0  0  0  0
  1  3  4  0
  1  7  4  0
  2  3  1  0
  2  6  4  0
  2 16  4  0
  3 22  4  0
  4  9  4  0
  4 10  1  0
  4 20  4  0
  5 16  4  0
  5 23  4  0
  6 15  4  0
  7 12  4  0
  8 13  4  0
  8 14  4  0
  9 11  4  0
 11 14  4  0
 11 19  4  0
 12 18  4  0
 13 21  4  0
 15 23  4  0
 17 19  4  0
 17 20  4  0
 18 22  4  0
 19 21  4  0
M  END
$$$$

 Created by Python create_sdf_string function

 23 25  0  0  0  0  0  0  0  0999 V2000
    2.4610   -5.3070   29.1240 C   0  0  0  0  0  0  0  0  0  0  0  0
    4.7710   -4.6952   28.4803 C   0  0  0  0  0  0  0  0  0  0  0  0
    3.4047   -5.1087   28.1314 C   0  0  0  0  0  0  0  0  0  0  0  0
   -0.2234  -11.8615   16.8874 C   0  0  0  0  0  0  0  0  0  0  0  0
    6.4491   -4.1532   30.1213 C   0  0  0  0  0  0  0  0  0  0  0  0
    5.7060   -4.4340   27.4975 C   0  0  0  0  0  0  0  0  0  0  0  0
    1.1818   -5.6612   28.8399 C   0  0  0  0  0  0  0  0  0  0  0  0
   -1.2067   -7.3287   17.7772 C   0  0  0  0  0  0  0  0  0  0  0  0
   -0.0206  -10.5585   16.6210 C   0  0  0  0  0  0  0  0  0  0  0  0
    0.3696  -12.7626   16.2169 O   0  0  0  0  0  0  0  0  0  0  0  0
   -0.6895   -9.5676   17.3297 C   0  0  0  0  0  0  0  0  0  0  0  0
    0.8388   -5.8417   27.5264 C   0  0  0  0  0  0  0  0  0  0  0  0
   -2.0709   -7.6637   18.7817 C   0  0  0  0  0  0  0  0  0  0  0  0
   -0.5279   -8.2168   17.0717 C   0  0  0  0  0  0  0  0  0  0  0  0
    6.9694   -4.0191   27.8190 C   0  0  0  0  0  0  0  0  0  0  0  0
    5.1733   -4.5469   29.8123 C   0  0  0  0  0  0  0  0  0  0  0  0
   -1.7508  -11.3016   18.6072 C   0  0  0  0  0  0  0  0  0  0  0  0
    1.7497   -5.6771   26.4971 C   0  0  0  0  0  0  0  0  0  0  0  0
   -1.5799   -9.9322   18.3468 C   0  0  0  0  0  0  0  0  0  0  0  0
   -1.0871  -12.2214   17.8851 C   0  0  0  0  0  0  0  0  0  0  0  0
   -2.2706   -8.9669   19.0691 C   0  0  0  0  0  0  0  0  0  0  0  0
    3.0279   -5.3073   26.8197 C   0  0  0  0  0  0  0  0  0  0  0  0
    7.3282   -3.8948   29.1186 C   0  0  0  0  0  0  0  0  0  0  0  0
  1  3  4  0
  1  7  4  0
  2  3  1  0
  2  6  4  0
  2 16  4  0
  3 22  4  0
  4  9  4  0
  4 10  1  0
  4 20  4  0
  5 16  4  0
  5 23  4  0
  6 15  4  0
  7 12  4  0
  8 13  4  0
  8 14  4  0
  9 11  4  0
 11 14  4  0
 11 19  4  0
 12 18  4  0
 13 21  4  0
 15 23  4  0
 17 19  4  0
 17 20  4  0
 18 22  4  0
 19 21  4  0
M  END
$$$$

 Created by Python create_sdf_string function

 23 25  0  0  0  0  0  0  0  0999 V2000
    2.4610   -5.3070   29.1240 C   0  0  0  0  0  0  0  0  0  0  0  0
    4.7710   -4.6952   28.4803 C   0  0  0  0  0  0  0  0  0  0  0  0
    3.4047   -5.1087   28.1314 C   0  0  0  0  0  0  0  0  0  0  0  0
   -0.2234  -11.8615   16.8874 C   0  0  0  0  0  0  0  0  0  0  0  0
    6.4491   -4.1532   30.1213 C   0  0  0  0  0  0  0  0  0  0  0  0
    5.7060   -4.4340   27.4975 C   0  0  0  0  0  0  0  0  0  0  0  0
    1.1818   -5.6612   28.8399 C   0  0  0  0  0  0  0  0  0  0  0  0
   -1.2067   -7.3287   17.7772 C   0  0  0  0  0  0  0  0  0  0  0  0
   -0.0206  -10.5585   16.6210 C   0  0  0  0  0  0  0  0  0  0  0  0
    0.3696  -12.7626   16.2169 O   0  0  0  0  0  0  0  0  0  0  0  0
   -0.6895   -9.5676   17.3297 C   0  0  0  0  0  0  0  0  0  0  0  0
    0.8388   -5.8417   27.5264 C   0  0  0  0  0  0  0  0  0  0  0  0
   -2.0709   -7.6637   18.7817 C   0  0  0  0  0  0  0  0  0  0  0  0
   -0.5279   -8.2168   17.0717 C   0  0  0  0  0  0  0  0  0  0  0  0
    6.9694   -4.0191   27.8190 C   0  0  0  0  0  0  0  0  0  0  0  0
    5.1733   -4.5469   29.8123 C   0  0  0  0  0  0  0  0  0  0  0  0
   -1.7508  -11.3016   18.6072 C   0  0  0  0  0  0  0  0  0  0  0  0
    1.7497   -5.6771   26.4971 C   0  0  0  0  0  0  0  0  0  0  0  0
   -1.5799   -9.9322   18.3468 C   0  0  0  0  0  0  0  0  0  0  0  0
   -1.0871  -12.2214   17.8851 C   0  0  0  0  0  0  0  0  0  0  0  0
   -2.2706   -8.9669   19.0691 C   0  0  0  0  0  0  0  0  0  0  0  0
    3.0279   -5.3073   26.8197 C   0  0  0  0  0  0  0  0  0  0  0  0
    7.3282   -3.8948   29.1186 C   0  0  0  0  0  0  0  0  0  0  0  0
  1  3  4  0
  1  7  4  0
  2  3  1  0
  2  6  4  0
  2 16  4  0
  3 22  4  0
  4  9  4  0
  4 10  1  0
  4 20  4  0
  5 16  4  0
  5 23  4  0
  6 15  4  0
  7 12  4  0
  8 13  4  0
  8 14  4  0
  9 11  4  0
 11 14  4  0
 11 19  4  0
 12 18  4  0
 13 21  4  0
 15 23  4  0
 17 19  4  0
 17 20  4  0
 18 22  4  0
 19 21  4  0
M  END
$$$$

 Created by Python create_sdf_string function

 23 25  0  0  0  0  0  0  0  0999 V2000
    2.4610   -5.3070   29.1240 C   0  0  0  0  0  0  0  0  0  0  0  0
    4.7710   -4.6952   28.4803 C   0  0  0  0  0  0  0  0  0  0  0  0
    3.4047   -5.1087   28.1314 C   0  0  0  0  0  0  0  0  0  0  0  0
   -0.2234  -11.8615   16.8874 C   0  0  0  0  0  0  0  0  0  0  0  0
    6.4491   -4.1532   30.1213 C   0  0  0  0  0  0  0  0  0  0  0  0
    5.7060   -4.4340   27.4975 C   0  0  0  0  0  0  0  0  0  0  0  0
    1.1818   -5.6612   28.8399 C   0  0  0  0  0  0  0  0  0  0  0  0
   -1.2067   -7.3287   17.7772 C   0  0  0  0  0  0  0  0  0  0  0  0
   -0.0206  -10.5585   16.6210 C   0  0  0  0  0  0  0  0  0  0  0  0
    0.3696  -12.7626   16.2169 O   0  0  0  0  0  0  0  0  0  0  0  0
   -0.6895   -9.5676   17.3297 C   0  0  0  0  0  0  0  0  0  0  0  0
    0.8388   -5.8417   27.5264 C   0  0  0  0  0  0  0  0  0  0  0  0
   -2.0709   -7.6637   18.7817 C   0  0  0  0  0  0  0  0  0  0  0  0
   -0.5279   -8.2168   17.0717 C   0  0  0  0  0  0  0  0  0  0  0  0
    6.9694   -4.0191   27.8190 C   0  0  0  0  0  0  0  0  0  0  0  0
    5.1733   -4.5469   29.8123 C   0  0  0  0  0  0  0  0  0  0  0  0
   -1.7508  -11.3016   18.6072 C   0  0  0  0  0  0  0  0  0  0  0  0
    1.7497   -5.6771   26.4971 C   0  0  0  0  0  0  0  0  0  0  0  0
   -1.5799   -9.9322   18.3468 C   0  0  0  0  0  0  0  0  0  0  0  0
   -1.0871  -12.2214   17.8851 C   0  0  0  0  0  0  0  0  0  0  0  0
   -2.2706   -8.9669   19.0691 C   0  0  0  0  0  0  0  0  0  0  0  0
    3.0279   -5.3073   26.8197 C   0  0  0  0  0  0  0  0  0  0  0  0
    7.3282   -3.8948   29.1186 C   0  0  0  0  0  0  0  0  0  0  0  0
  1  3  4  0
  1  7  4  0
  2  3  1  0
  2  6  4  0
  2 16  4  0
  3 22  4  0
  4  9  4  0
  4 10  1  0
  4 20  4  0
  5 16  4  0
  5 23  4  0
  6 15  4  0
  7 12  4  0
  8 13  4  0
  8 14  4  0
  9 11  4  0
 11 14  4  0
 11 19  4  0
 12 18  4  0
 13 21  4  0
 15 23  4  0
 17 19  4  0
 17 20  4  0
 18 22  4  0
 19 21  4  0
M  END
$$$$

 Created by Python create_sdf_string function

 23 25  0  0  0  0  0  0  0  0999 V2000
    2.4610   -5.3070   29.1240 C   0  0  0  0  0  0  0  0  0  0  0  0
    4.7710   -4.6952   28.4803 C   0  0  0  0  0  0  0  0  0  0  0  0
    3.4047   -5.1087   28.1314 C   0  0  0  0  0  0  0  0  0  0  0  0
   -0.2234  -11.8615   16.8874 C   0  0  0  0  0  0  0  0  0  0  0  0
    6.4491   -4.1532   30.1213 C   0  0  0  0  0  0  0  0  0  0  0  0
    5.7060   -4.4340   27.4975 C   0  0  0  0  0  0  0  0  0  0  0  0
    1.1818   -5.6612   28.8399 C   0  0  0  0  0  0  0  0  0  0  0  0
   -1.2067   -7.3287   17.7772 C   0  0  0  0  0  0  0  0  0  0  0  0
   -0.0206  -10.5585   16.6210 C   0  0  0  0  0  0  0  0  0  0  0  0
    0.3696  -12.7626   16.2169 O   0  0  0  0  0  0  0  0  0  0  0  0
   -0.6895   -9.5676   17.3297 C   0  0  0  0  0  0  0  0  0  0  0  0
    0.8388   -5.8417   27.5264 C   0  0  0  0  0  0  0  0  0  0  0  0
   -2.0709   -7.6637   18.7817 C   0  0  0  0  0  0  0  0  0  0  0  0
   -0.5279   -8.2168   17.0717 C   0  0  0  0  0  0  0  0  0  0  0  0
    6.9694   -4.0191   27.8190 C   0  0  0  0  0  0  0  0  0  0  0  0
    5.1733   -4.5469   29.8123 C   0  0  0  0  0  0  0  0  0  0  0  0
   -1.7508  -11.3016   18.6072 C   0  0  0  0  0  0  0  0  0  0  0  0
    1.7497   -5.6771   26.4971 C   0  0  0  0  0  0  0  0  0  0  0  0
   -1.5799   -9.9322   18.3468 C   0  0  0  0  0  0  0  0  0  0  0  0
   -1.0871  -12.2214   17.8851 C   0  0  0  0  0  0  0  0  0  0  0  0
   -2.2706   -8.9669   19.0691 C   0  0  0  0  0  0  0  0  0  0  0  0
    3.0279   -5.3073   26.8197 C   0  0  0  0  0  0  0  0  0  0  0  0
    7.3282   -3.8948   29.1186 C   0  0  0  0  0  0  0  0  0  0  0  0
  1  3  4  0
  1  7  4  0
  2  3  1  0
  2  6  4  0
  2 16  4  0
  3 22  4  0
  4  9  4  0
  4 10  1  0
  4 20  4  0
  5 16  4  0
  5 23  4  0
  6 15  4  0
  7 12  4  0
  8 13  4  0
  8 14  4  0
  9 11  4  0
 11 14  4  0
 11 19  4  0
 12 18  4  0
 13 21  4  0
 15 23  4  0
 17 19  4  0
 17 20  4  0
 18 22  4  0
 19 21  4  0
M  END
$$$$

 Created by Python create_sdf_string function

 23 25  0  0  0  0  0  0  0  0999 V2000
    2.4610   -5.3070   29.1240 C   0  0  0  0  0  0  0  0  0  0  0  0
    4.7710   -4.6952   28.4803 C   0  0  0  0  0  0  0  0  0  0  0  0
    3.4047   -5.1087   28.1314 C   0  0  0  0  0  0  0  0  0  0  0  0
   -0.2234  -11.8615   16.8874 C   0  0  0  0  0  0  0  0  0  0  0  0
    6.4491   -4.1532   30.1213 C   0  0  0  0  0  0  0  0  0  0  0  0
    5.7060   -4.4340   27.4975 C   0  0  0  0  0  0  0  0  0  0  0  0
    1.1818   -5.6612   28.8399 C   0  0  0  0  0  0  0  0  0  0  0  0
   -1.2067   -7.3287   17.7772 C   0  0  0  0  0  0  0  0  0  0  0  0
   -0.0206  -10.5585   16.6210 C   0  0  0  0  0  0  0  0  0  0  0  0
    0.3696  -12.7626   16.2169 O   0  0  0  0  0  0  0  0  0  0  0  0
   -0.6895   -9.5676   17.3297 C   0  0  0  0  0  0  0  0  0  0  0  0
    0.8388   -5.8417   27.5264 C   0  0  0  0  0  0  0  0  0  0  0  0
   -2.0709   -7.6637   18.7817 C   0  0  0  0  0  0  0  0  0  0  0  0
   -0.5279   -8.2168   17.0717 C   0  0  0  0  0  0  0  0  0  0  0  0
    6.9694   -4.0191   27.8190 C   0  0  0  0  0  0  0  0  0  0  0  0
    5.1733   -4.5469   29.8123 C   0  0  0  0  0  0  0  0  0  0  0  0
   -1.7508  -11.3016   18.6072 C   0  0  0  0  0  0  0  0  0  0  0  0
    1.7497   -5.6771   26.4971 C   0  0  0  0  0  0  0  0  0  0  0  0
   -1.5799   -9.9322   18.3468 C   0  0  0  0  0  0  0  0  0  0  0  0
   -1.0871  -12.2214   17.8851 C   0  0  0  0  0  0  0  0  0  0  0  0
   -2.2706   -8.9669   19.0691 C   0  0  0  0  0  0  0  0  0  0  0  0
    3.0279   -5.3073   26.8197 C   0  0  0  0  0  0  0  0  0  0  0  0
    7.3282   -3.8948   29.1186 C   0  0  0  0  0  0  0  0  0  0  0  0
  1  3  4  0
  1  7  4  0
  2  3  1  0
  2  6  4  0
  2 16  4  0
  3 22  4  0
  4  9  4  0
  4 10  1  0
  4 20  4  0
  5 16  4  0
  5 23  4  0
  6 15  4  0
  7 12  4  0
  8 13  4  0
  8 14  4  0
  9 11  4  0
 11 14  4  0
 11 19  4  0
 12 18  4  0
 13 21  4  0
 15 23  4  0
 17 19  4  0
 17 20  4  0
 18 22  4  0
 19 21  4  0
M  END
$$$$

 Created by Python create_sdf_string function

 23 25  0  0  0  0  0  0  0  0999 V2000
    2.4610   -5.3070   29.1240 C   0  0  0  0  0  0  0  0  0  0  0  0
    4.7710   -4.6952   28.4803 C   0  0  0  0  0  0  0  0  0  0  0  0
    3.4047   -5.1087   28.1314 C   0  0  0  0  0  0  0  0  0  0  0  0
   -0.2234  -11.8615   16.8874 C   0  0  0  0  0  0  0  0  0  0  0  0
    6.4491   -4.1532   30.1213 C   0  0  0  0  0  0  0  0  0  0  0  0
    5.7060   -4.4340   27.4975 C   0  0  0  0  0  0  0  0  0  0  0  0
    1.1818   -5.6612   28.8399 C   0  0  0  0  0  0  0  0  0  0  0  0
   -1.2067   -7.3287   17.7772 C   0  0  0  0  0  0  0  0  0  0  0  0
   -0.0206  -10.5585   16.6210 C   0  0  0  0  0  0  0  0  0  0  0  0
    0.3696  -12.7626   16.2169 O   0  0  0  0  0  0  0  0  0  0  0  0
   -0.6895   -9.5676   17.3297 C   0  0  0  0  0  0  0  0  0  0  0  0
    0.8388   -5.8417   27.5264 C   0  0  0  0  0  0  0  0  0  0  0  0
   -2.0709   -7.6637   18.7817 C   0  0  0  0  0  0  0  0  0  0  0  0
   -0.5279   -8.2168   17.0717 C   0  0  0  0  0  0  0  0  0  0  0  0
    6.9694   -4.0191   27.8190 C   0  0  0  0  0  0  0  0  0  0  0  0
    5.1733   -4.5469   29.8123 C   0  0  0  0  0  0  0  0  0  0  0  0
   -1.7508  -11.3016   18.6072 C   0  0  0  0  0  0  0  0  0  0  0  0
    1.7497   -5.6771   26.4971 C   0  0  0  0  0  0  0  0  0  0  0  0
   -1.5799   -9.9322   18.3468 C   0  0  0  0  0  0  0  0  0  0  0  0
   -1.0871  -12.2214   17.8851 C   0  0  0  0  0  0  0  0  0  0  0  0
   -2.2706   -8.9669   19.0691 C   0  0  0  0  0  0  0  0  0  0  0  0
    3.0279   -5.3073   26.8197 C   0  0  0  0  0  0  0  0  0  0  0  0
    7.3282   -3.8948   29.1186 C   0  0  0  0  0  0  0  0  0  0  0  0
  1  3  4  0
  1  7  4  0
  2  3  1  0
  2  6  4  0
  2 16  4  0
  3 22  4  0
  4  9  4  0
  4 10  1  0
  4 20  4  0
  5 16  4  0
  5 23  4  0
  6 15  4  0
  7 12  4  0
  8 13  4  0
  8 14  4  0
  9 11  4  0
 11 14  4  0
 11 19  4  0
 12 18  4  0
 13 21  4  0
 15 23  4  0
 17 19  4  0
 17 20  4  0
 18 22  4  0
 19 21  4  0
M  END
$$$$

 Created by Python create_sdf_string function

 23 25  0  0  0  0  0  0  0  0999 V2000
    2.4610   -5.3070   29.1240 C   0  0  0  0  0  0  0  0  0  0  0  0
    4.7710   -4.6952   28.4803 C   0  0  0  0  0  0  0  0  0  0  0  0
    3.4047   -5.1087   28.1314 C   0  0  0  0  0  0  0  0  0  0  0  0
   -0.2234  -11.8615   16.8874 C   0  0  0  0  0  0  0  0  0  0  0  0
    6.4491   -4.1532   30.1213 C   0  0  0  0  0  0  0  0  0  0  0  0
    5.7060   -4.4340   27.4975 C   0  0  0  0  0  0  0  0  0  0  0  0
    1.1818   -5.6612   28.8399 C   0  0  0  0  0  0  0  0  0  0  0  0
   -1.2067   -7.3287   17.7772 C   0  0  0  0  0  0  0  0  0  0  0  0
   -0.0206  -10.5585   16.6210 C   0  0  0  0  0  0  0  0  0  0  0  0
    0.3696  -12.7626   16.2169 O   0  0  0  0  0  0  0  0  0  0  0  0
   -0.6895   -9.5676   17.3297 C   0  0  0  0  0  0  0  0  0  0  0  0
    0.8388   -5.8417   27.5264 C   0  0  0  0  0  0  0  0  0  0  0  0
   -2.0709   -7.6637   18.7817 C   0  0  0  0  0  0  0  0  0  0  0  0
   -0.5279   -8.2168   17.0717 C   0  0  0  0  0  0  0  0  0  0  0  0
    6.9694   -4.0191   27.8190 C   0  0  0  0  0  0  0  0  0  0  0  0
    5.1733   -4.5469   29.8123 C   0  0  0  0  0  0  0  0  0  0  0  0
   -1.7508  -11.3016   18.6072 C   0  0  0  0  0  0  0  0  0  0  0  0
    1.7497   -5.6771   26.4971 C   0  0  0  0  0  0  0  0  0  0  0  0
   -1.5799   -9.9322   18.3468 C   0  0  0  0  0  0  0  0  0  0  0  0
   -1.0871  -12.2214   17.8851 C   0  0  0  0  0  0  0  0  0  0  0  0
   -2.2706   -8.9669   19.0691 C   0  0  0  0  0  0  0  0  0  0  0  0
    3.0279   -5.3073   26.8197 C   0  0  0  0  0  0  0  0  0  0  0  0
    7.3282   -3.8948   29.1186 C   0  0  0  0  0  0  0  0  0  0  0  0
  1  3  4  0
  1  7  4  0
  2  3  1  0
  2  6  4  0
  2 16  4  0
  3 22  4  0
  4  9  4  0
  4 10  1  0
  4 20  4  0
  5 16  4  0
  5 23  4  0
  6 15  4  0
  7 12  4  0
  8 13  4  0
  8 14  4  0
  9 11  4  0
 11 14  4  0
 11 19  4  0
 12 18  4  0
 13 21  4  0
 15 23  4  0
 17 19  4  0
 17 20  4  0
 18 22  4  0
 19 21  4  0
M  END
$$$$

 Created by Python create_sdf_string function

 23 25  0  0  0  0  0  0  0  0999 V2000
    2.4610   -5.3070   29.1240 C   0  0  0  0  0  0  0  0  0  0  0  0
    4.7710   -4.6952   28.4803 C   0  0  0  0  0  0  0  0  0  0  0  0
    3.4047   -5.1087   28.1314 C   0  0  0  0  0  0  0  0  0  0  0  0
   -0.2234  -11.8615   16.8874 C   0  0  0  0  0  0  0  0  0  0  0  0
    6.4491   -4.1532   30.1213 C   0  0  0  0  0  0  0  0  0  0  0  0
    5.7060   -4.4340   27.4975 C   0  0  0  0  0  0  0  0  0  0  0  0
    1.1818   -5.6612   28.8399 C   0  0  0  0  0  0  0  0  0  0  0  0
   -1.2067   -7.3287   17.7772 C   0  0  0  0  0  0  0  0  0  0  0  0
   -0.0206  -10.5585   16.6210 C   0  0  0  0  0  0  0  0  0  0  0  0
    0.3696  -12.7626   16.2169 O   0  0  0  0  0  0  0  0  0  0  0  0
   -0.6895   -9.5676   17.3297 C   0  0  0  0  0  0  0  0  0  0  0  0
    0.8388   -5.8417   27.5264 C   0  0  0  0  0  0  0  0  0  0  0  0
   -2.0709   -7.6637   18.7817 C   0  0  0  0  0  0  0  0  0  0  0  0
   -0.5279   -8.2168   17.0717 C   0  0  0  0  0  0  0  0  0  0  0  0
    6.9694   -4.0191   27.8190 C   0  0  0  0  0  0  0  0  0  0  0  0
    5.1733   -4.5469   29.8123 C   0  0  0  0  0  0  0  0  0  0  0  0
   -1.7508  -11.3016   18.6072 C   0  0  0  0  0  0  0  0  0  0  0  0
    1.7497   -5.6771   26.4971 C   0  0  0  0  0  0  0  0  0  0  0  0
   -1.5799   -9.9322   18.3468 C   0  0  0  0  0  0  0  0  0  0  0  0
   -1.0871  -12.2214   17.8851 C   0  0  0  0  0  0  0  0  0  0  0  0
   -2.2706   -8.9669   19.0691 C   0  0  0  0  0  0  0  0  0  0  0  0
    3.0279   -5.3073   26.8197 C   0  0  0  0  0  0  0  0  0  0  0  0
    7.3282   -3.8948   29.1186 C   0  0  0  0  0  0  0  0  0  0  0  0
  1  3  4  0
  1  7  4  0
  2  3  1  0
  2  6  4  0
  2 16  4  0
  3 22  4  0
  4  9  4  0
  4 10  1  0
  4 20  4  0
  5 16  4  0
  5 23  4  0
  6 15  4  0
  7 12  4  0
  8 13  4  0
  8 14  4  0
  9 11  4  0
 11 14  4  0
 11 19  4  0
 12 18  4  0
 13 21  4  0
 15 23  4  0
 17 19  4  0
 17 20  4  0
 18 22  4  0
 19 21  4  0
M  END
$$$$

 Created by Python create_sdf_string function

 23 25  0  0  0  0  0  0  0  0999 V2000
    2.4610   -5.3070   29.1240 C   0  0  0  0  0  0  0  0  0  0  0  0
    4.7710   -4.6952   28.4803 C   0  0  0  0  0  0  0  0  0  0  0  0
    3.4047   -5.1087   28.1314 C   0  0  0  0  0  0  0  0  0  0  0  0
   -0.2234  -11.8615   16.8874 C   0  0  0  0  0  0  0  0  0  0  0  0
    6.4491   -4.1532   30.1213 C   0  0  0  0  0  0  0  0  0  0  0  0
    5.7060   -4.4340   27.4975 C   0  0  0  0  0  0  0  0  0  0  0  0
    1.1818   -5.6612   28.8399 C   0  0  0  0  0  0  0  0  0  0  0  0
   -1.2067   -7.3287   17.7772 C   0  0  0  0  0  0  0  0  0  0  0  0
   -0.0206  -10.5585   16.6210 C   0  0  0  0  0  0  0  0  0  0  0  0
    0.3696  -12.7626   16.2169 O   0  0  0  0  0  0  0  0  0  0  0  0
   -0.6895   -9.5676   17.3297 C   0  0  0  0  0  0  0  0  0  0  0  0
    0.8388   -5.8417   27.5264 C   0  0  0  0  0  0  0  0  0  0  0  0
   -2.0709   -7.6637   18.7817 C   0  0  0  0  0  0  0  0  0  0  0  0
   -0.5279   -8.2168   17.0717 C   0  0  0  0  0  0  0  0  0  0  0  0
    6.9694   -4.0191   27.8190 C   0  0  0  0  0  0  0  0  0  0  0  0
    5.1733   -4.5469   29.8123 C   0  0  0  0  0  0  0  0  0  0  0  0
   -1.7508  -11.3016   18.6072 C   0  0  0  0  0  0  0  0  0  0  0  0
    1.7497   -5.6771   26.4971 C   0  0  0  0  0  0  0  0  0  0  0  0
   -1.5799   -9.9322   18.3468 C   0  0  0  0  0  0  0  0  0  0  0  0
   -1.0871  -12.2214   17.8851 C   0  0  0  0  0  0  0  0  0  0  0  0
   -2.2706   -8.9669   19.0691 C   0  0  0  0  0  0  0  0  0  0  0  0
    3.0279   -5.3073   26.8197 C   0  0  0  0  0  0  0  0  0  0  0  0
    7.3282   -3.8948   29.1186 C   0  0  0  0  0  0  0  0  0  0  0  0
  1  3  4  0
  1  7  4  0
  2  3  1  0
  2  6  4  0
  2 16  4  0
  3 22  4  0
  4  9  4  0
  4 10  1  0
  4 20  4  0
  5 16  4  0
  5 23  4  0
  6 15  4  0
  7 12  4  0
  8 13  4  0
  8 14  4  0
  9 11  4  0
 11 14  4  0
 11 19  4  0
 12 18  4  0
 13 21  4  0
 15 23  4  0
 17 19  4  0
 17 20  4  0
 18 22  4  0
 19 21  4  0
M  END
$$$$

 Created by Python create_sdf_string function

 23 25  0  0  0  0  0  0  0  0999 V2000
    2.4610   -5.3070   29.1240 C   0  0  0  0  0  0  0  0  0  0  0  0
    4.7710   -4.6952   28.4803 C   0  0  0  0  0  0  0  0  0  0  0  0
    3.4047   -5.1087   28.1314 C   0  0  0  0  0  0  0  0  0  0  0  0
   -0.2234  -11.8615   16.8874 C   0  0  0  0  0  0  0  0  0  0  0  0
    6.4491   -4.1532   30.1213 C   0  0  0  0  0  0  0  0  0  0  0  0
    5.7060   -4.4340   27.4975 C   0  0  0  0  0  0  0  0  0  0  0  0
    1.1818   -5.6612   28.8399 C   0  0  0  0  0  0  0  0  0  0  0  0
   -1.2067   -7.3287   17.7772 C   0  0  0  0  0  0  0  0  0  0  0  0
   -0.0206  -10.5585   16.6210 C   0  0  0  0  0  0  0  0  0  0  0  0
    0.3696  -12.7626   16.2169 O   0  0  0  0  0  0  0  0  0  0  0  0
   -0.6895   -9.5676   17.3297 C   0  0  0  0  0  0  0  0  0  0  0  0
    0.8388   -5.8417   27.5264 C   0  0  0  0  0  0  0  0  0  0  0  0
   -2.0709   -7.6637   18.7817 C   0  0  0  0  0  0  0  0  0  0  0  0
   -0.5279   -8.2168   17.0717 C   0  0  0  0  0  0  0  0  0  0  0  0
    6.9694   -4.0191   27.8190 C   0  0  0  0  0  0  0  0  0  0  0  0
    5.1733   -4.5469   29.8123 C   0  0  0  0  0  0  0  0  0  0  0  0
   -1.7508  -11.3016   18.6072 C   0  0  0  0  0  0  0  0  0  0  0  0
    1.7497   -5.6771   26.4971 C   0  0  0  0  0  0  0  0  0  0  0  0
   -1.5799   -9.9322   18.3468 C   0  0  0  0  0  0  0  0  0  0  0  0
   -1.0871  -12.2214   17.8851 C   0  0  0  0  0  0  0  0  0  0  0  0
   -2.2706   -8.9669   19.0691 C   0  0  0  0  0  0  0  0  0  0  0  0
    3.0279   -5.3073   26.8197 C   0  0  0  0  0  0  0  0  0  0  0  0
    7.3282   -3.8948   29.1186 C   0  0  0  0  0  0  0  0  0  0  0  0
  1  3  4  0
  1  7  4  0
  2  3  1  0
  2  6  4  0
  2 16  4  0
  3 22  4  0
  4  9  4  0
  4 10  1  0
  4 20  4  0
  5 16  4  0
  5 23  4  0
  6 15  4  0
  7 12  4  0
  8 13  4  0
  8 14  4  0
  9 11  4  0
 11 14  4  0
 11 19  4  0
 12 18  4  0
 13 21  4  0
 15 23  4  0
 17 19  4  0
 17 20  4  0
 18 22  4  0
 19 21  4  0
M  END
$$$$

 Created by Python create_sdf_string function

 23 25  0  0  0  0  0  0  0  0999 V2000
    2.4610   -5.3070   29.1240 C   0  0  0  0  0  0  0  0  0  0  0  0
    4.7710   -4.6952   28.4803 C   0  0  0  0  0  0  0  0  0  0  0  0
    3.4047   -5.1087   28.1314 C   0  0  0  0  0  0  0  0  0  0  0  0
   -0.2234  -11.8615   16.8874 C   0  0  0  0  0  0  0  0  0  0  0  0
    6.4491   -4.1532   30.1213 C   0  0  0  0  0  0  0  0  0  0  0  0
    5.7060   -4.4340   27.4975 C   0  0  0  0  0  0  0  0  0  0  0  0
    1.1818   -5.6612   28.8399 C   0  0  0  0  0  0  0  0  0  0  0  0
   -1.2067   -7.3287   17.7772 C   0  0  0  0  0  0  0  0  0  0  0  0
   -0.0206  -10.5585   16.6210 C   0  0  0  0  0  0  0  0  0  0  0  0
    0.3696  -12.7626   16.2169 O   0  0  0  0  0  0  0  0  0  0  0  0
   -0.6895   -9.5676   17.3297 C   0  0  0  0  0  0  0  0  0  0  0  0
    0.8388   -5.8417   27.5264 C   0  0  0  0  0  0  0  0  0  0  0  0
   -2.0709   -7.6637   18.7817 C   0  0  0  0  0  0  0  0  0  0  0  0
   -0.5279   -8.2168   17.0717 C   0  0  0  0  0  0  0  0  0  0  0  0
    6.9694   -4.0191   27.8190 C   0  0  0  0  0  0  0  0  0  0  0  0
    5.1733   -4.5469   29.8123 C   0  0  0  0  0  0  0  0  0  0  0  0
   -1.7508  -11.3016   18.6072 C   0  0  0  0  0  0  0  0  0  0  0  0
    1.7497   -5.6771   26.4971 C   0  0  0  0  0  0  0  0  0  0  0  0
   -1.5799   -9.9322   18.3468 C   0  0  0  0  0  0  0  0  0  0  0  0
   -1.0871  -12.2214   17.8851 C   0  0  0  0  0  0  0  0  0  0  0  0
   -2.2706   -8.9669   19.0691 C   0  0  0  0  0  0  0  0  0  0  0  0
    3.0279   -5.3073   26.8197 C   0  0  0  0  0  0  0  0  0  0  0  0
    7.3282   -3.8948   29.1186 C   0  0  0  0  0  0  0  0  0  0  0  0
  1  3  4  0
  1  7  4  0
  2  3  1  0
  2  6  4  0
  2 16  4  0
  3 22  4  0
  4  9  4  0
  4 10  1  0
  4 20  4  0
  5 16  4  0
  5 23  4  0
  6 15  4  0
  7 12  4  0
  8 13  4  0
  8 14  4  0
  9 11  4  0
 11 14  4  0
 11 19  4  0
 12 18  4  0
 13 21  4  0
 15 23  4  0
 17 19  4  0
 17 20  4  0
 18 22  4  0
 19 21  4  0
M  END
$$$$

 Created by Python create_sdf_string function

 23 25  0  0  0  0  0  0  0  0999 V2000
    2.4610   -5.3070   29.1240 C   0  0  0  0  0  0  0  0  0  0  0  0
    4.7710   -4.6952   28.4803 C   0  0  0  0  0  0  0  0  0  0  0  0
    3.4047   -5.1087   28.1314 C   0  0  0  0  0  0  0  0  0  0  0  0
   -0.2234  -11.8615   16.8874 C   0  0  0  0  0  0  0  0  0  0  0  0
    6.4491   -4.1532   30.1213 C   0  0  0  0  0  0  0  0  0  0  0  0
    5.7060   -4.4340   27.4975 C   0  0  0  0  0  0  0  0  0  0  0  0
    1.1818   -5.6612   28.8399 C   0  0  0  0  0  0  0  0  0  0  0  0
   -1.2067   -7.3287   17.7772 C   0  0  0  0  0  0  0  0  0  0  0  0
   -0.0206  -10.5585   16.6210 C   0  0  0  0  0  0  0  0  0  0  0  0
    0.3696  -12.7626   16.2169 O   0  0  0  0  0  0  0  0  0  0  0  0
   -0.6895   -9.5676   17.3297 C   0  0  0  0  0  0  0  0  0  0  0  0
    0.8388   -5.8417   27.5264 C   0  0  0  0  0  0  0  0  0  0  0  0
   -2.0709   -7.6637   18.7817 C   0  0  0  0  0  0  0  0  0  0  0  0
   -0.5279   -8.2168   17.0717 C   0  0  0  0  0  0  0  0  0  0  0  0
    6.9694   -4.0191   27.8190 C   0  0  0  0  0  0  0  0  0  0  0  0
    5.1733   -4.5469   29.8123 C   0  0  0  0  0  0  0  0  0  0  0  0
   -1.7508  -11.3016   18.6072 C   0  0  0  0  0  0  0  0  0  0  0  0
    1.7497   -5.6771   26.4971 C   0  0  0  0  0  0  0  0  0  0  0  0
   -1.5799   -9.9322   18.3468 C   0  0  0  0  0  0  0  0  0  0  0  0
   -1.0871  -12.2214   17.8851 C   0  0  0  0  0  0  0  0  0  0  0  0
   -2.2706   -8.9669   19.0691 C   0  0  0  0  0  0  0  0  0  0  0  0
    3.0279   -5.3073   26.8197 C   0  0  0  0  0  0  0  0  0  0  0  0
    7.3282   -3.8948   29.1186 C   0  0  0  0  0  0  0  0  0  0  0  0
  1  3  4  0
  1  7  4  0
  2  3  1  0
  2  6  4  0
  2 16  4  0
  3 22  4  0
  4  9  4  0
  4 10  1  0
  4 20  4  0
  5 16  4  0
  5 23  4  0
  6 15  4  0
  7 12  4  0
  8 13  4  0
  8 14  4  0
  9 11  4  0
 11 14  4  0
 11 19  4  0
 12 18  4  0
 13 21  4  0
 15 23  4  0
 17 19  4  0
 17 20  4  0
 18 22  4  0
 19 21  4  0
M  END
$$$$

 Created by Python create_sdf_string function

 23 25  0  0  0  0  0  0  0  0999 V2000
    2.4610   -5.3070   29.1240 C   0  0  0  0  0  0  0  0  0  0  0  0
    4.7710   -4.6952   28.4803 C   0  0  0  0  0  0  0  0  0  0  0  0
    3.4047   -5.1087   28.1314 C   0  0  0  0  0  0  0  0  0  0  0  0
   -0.2234  -11.8615   16.8874 C   0  0  0  0  0  0  0  0  0  0  0  0
    6.4491   -4.1532   30.1213 C   0  0  0  0  0  0  0  0  0  0  0  0
    5.7060   -4.4340   27.4975 C   0  0  0  0  0  0  0  0  0  0  0  0
    1.1818   -5.6612   28.8399 C   0  0  0  0  0  0  0  0  0  0  0  0
   -1.2067   -7.3287   17.7772 C   0  0  0  0  0  0  0  0  0  0  0  0
   -0.0206  -10.5585   16.6210 C   0  0  0  0  0  0  0  0  0  0  0  0
    0.3696  -12.7626   16.2169 O   0  0  0  0  0  0  0  0  0  0  0  0
   -0.6895   -9.5676   17.3297 C   0  0  0  0  0  0  0  0  0  0  0  0
    0.8388   -5.8417   27.5264 C   0  0  0  0  0  0  0  0  0  0  0  0
   -2.0709   -7.6637   18.7817 C   0  0  0  0  0  0  0  0  0  0  0  0
   -0.5279   -8.2168   17.0717 C   0  0  0  0  0  0  0  0  0  0  0  0
    6.9694   -4.0191   27.8190 C   0  0  0  0  0  0  0  0  0  0  0  0
    5.1733   -4.5469   29.8123 C   0  0  0  0  0  0  0  0  0  0  0  0
   -1.7508  -11.3016   18.6072 C   0  0  0  0  0  0  0  0  0  0  0  0
    1.7497   -5.6771   26.4971 C   0  0  0  0  0  0  0  0  0  0  0  0
   -1.5799   -9.9322   18.3468 C   0  0  0  0  0  0  0  0  0  0  0  0
   -1.0871  -12.2214   17.8851 C   0  0  0  0  0  0  0  0  0  0  0  0
   -2.2706   -8.9669   19.0691 C   0  0  0  0  0  0  0  0  0  0  0  0
    3.0279   -5.3073   26.8197 C   0  0  0  0  0  0  0  0  0  0  0  0
    7.3282   -3.8948   29.1186 C   0  0  0  0  0  0  0  0  0  0  0  0
  1  3  4  0
  1  7  4  0
  2  3  1  0
  2  6  4  0
  2 16  4  0
  3 22  4  0
  4  9  4  0
  4 10  1  0
  4 20  4  0
  5 16  4  0
  5 23  4  0
  6 15  4  0
  7 12  4  0
  8 13  4  0
  8 14  4  0
  9 11  4  0
 11 14  4  0
 11 19  4  0
 12 18  4  0
 13 21  4  0
 15 23  4  0
 17 19  4  0
 17 20  4  0
 18 22  4  0
 19 21  4  0
M  END
$$$$

 Created by Python create_sdf_string function

 23 25  0  0  0  0  0  0  0  0999 V2000
    2.4610   -5.3070   29.1240 C   0  0  0  0  0  0  0  0  0  0  0  0
    4.7710   -4.6952   28.4803 C   0  0  0  0  0  0  0  0  0  0  0  0
    3.4047   -5.1087   28.1314 C   0  0  0  0  0  0  0  0  0  0  0  0
   -0.2234  -11.8615   16.8874 C   0  0  0  0  0  0  0  0  0  0  0  0
    6.4491   -4.1532   30.1213 C   0  0  0  0  0  0  0  0  0  0  0  0
    5.7060   -4.4340   27.4975 C   0  0  0  0  0  0  0  0  0  0  0  0
    1.1818   -5.6612   28.8399 C   0  0  0  0  0  0  0  0  0  0  0  0
   -1.2067   -7.3287   17.7772 C   0  0  0  0  0  0  0  0  0  0  0  0
   -0.0206  -10.5585   16.6210 C   0  0  0  0  0  0  0  0  0  0  0  0
    0.3696  -12.7626   16.2169 O   0  0  0  0  0  0  0  0  0  0  0  0
   -0.6895   -9.5676   17.3297 C   0  0  0  0  0  0  0  0  0  0  0  0
    0.8388   -5.8417   27.5264 C   0  0  0  0  0  0  0  0  0  0  0  0
   -2.0709   -7.6637   18.7817 C   0  0  0  0  0  0  0  0  0  0  0  0
   -0.5279   -8.2168   17.0717 C   0  0  0  0  0  0  0  0  0  0  0  0
    6.9694   -4.0191   27.8190 C   0  0  0  0  0  0  0  0  0  0  0  0
    5.1733   -4.5469   29.8123 C   0  0  0  0  0  0  0  0  0  0  0  0
   -1.7508  -11.3016   18.6072 C   0  0  0  0  0  0  0  0  0  0  0  0
    1.7497   -5.6771   26.4971 C   0  0  0  0  0  0  0  0  0  0  0  0
   -1.5799   -9.9322   18.3468 C   0  0  0  0  0  0  0  0  0  0  0  0
   -1.0871  -12.2214   17.8851 C   0  0  0  0  0  0  0  0  0  0  0  0
   -2.2706   -8.9669   19.0691 C   0  0  0  0  0  0  0  0  0  0  0  0
    3.0279   -5.3073   26.8197 C   0  0  0  0  0  0  0  0  0  0  0  0
    7.3282   -3.8948   29.1186 C   0  0  0  0  0  0  0  0  0  0  0  0
  1  3  4  0
  1  7  4  0
  2  3  1  0
  2  6  4  0
  2 16  4  0
  3 22  4  0
  4  9  4  0
  4 10  1  0
  4 20  4  0
  5 16  4  0
  5 23  4  0
  6 15  4  0
  7 12  4  0
  8 13  4  0
  8 14  4  0
  9 11  4  0
 11 14  4  0
 11 19  4  0
 12 18  4  0
 13 21  4  0
 15 23  4  0
 17 19  4  0
 17 20  4  0
 18 22  4  0
 19 21  4  0
M  END
$$$$

 Created by Python create_sdf_string function

 23 25  0  0  0  0  0  0  0  0999 V2000
    2.4610   -5.3070   29.1240 C   0  0  0  0  0  0  0  0  0  0  0  0
    4.7710   -4.6952   28.4803 C   0  0  0  0  0  0  0  0  0  0  0  0
    3.4047   -5.1087   28.1314 C   0  0  0  0  0  0  0  0  0  0  0  0
   -0.2234  -11.8615   16.8874 C   0  0  0  0  0  0  0  0  0  0  0  0
    6.4491   -4.1532   30.1213 C   0  0  0  0  0  0  0  0  0  0  0  0
    5.7060   -4.4340   27.4975 C   0  0  0  0  0  0  0  0  0  0  0  0
    1.1818   -5.6612   28.8399 C   0  0  0  0  0  0  0  0  0  0  0  0
   -1.2067   -7.3287   17.7772 C   0  0  0  0  0  0  0  0  0  0  0  0
   -0.0206  -10.5585   16.6210 C   0  0  0  0  0  0  0  0  0  0  0  0
    0.3696  -12.7626   16.2169 O   0  0  0  0  0  0  0  0  0  0  0  0
   -0.6895   -9.5676   17.3297 C   0  0  0  0  0  0  0  0  0  0  0  0
    0.8388   -5.8417   27.5264 C   0  0  0  0  0  0  0  0  0  0  0  0
   -2.0709   -7.6637   18.7817 C   0  0  0  0  0  0  0  0  0  0  0  0
   -0.5279   -8.2168   17.0717 C   0  0  0  0  0  0  0  0  0  0  0  0
    6.9694   -4.0191   27.8190 C   0  0  0  0  0  0  0  0  0  0  0  0
    5.1733   -4.5469   29.8123 C   0  0  0  0  0  0  0  0  0  0  0  0
   -1.7508  -11.3016   18.6072 C   0  0  0  0  0  0  0  0  0  0  0  0
    1.7497   -5.6771   26.4971 C   0  0  0  0  0  0  0  0  0  0  0  0
   -1.5799   -9.9322   18.3468 C   0  0  0  0  0  0  0  0  0  0  0  0
   -1.0871  -12.2214   17.8851 C   0  0  0  0  0  0  0  0  0  0  0  0
   -2.2706   -8.9669   19.0691 C   0  0  0  0  0  0  0  0  0  0  0  0
    3.0279   -5.3073   26.8197 C   0  0  0  0  0  0  0  0  0  0  0  0
    7.3282   -3.8948   29.1186 C   0  0  0  0  0  0  0  0  0  0  0  0
  1  3  4  0
  1  7  4  0
  2  3  1  0
  2  6  4  0
  2 16  4  0
  3 22  4  0
  4  9  4  0
  4 10  1  0
  4 20  4  0
  5 16  4  0
  5 23  4  0
  6 15  4  0
  7 12  4  0
  8 13  4  0
  8 14  4  0
  9 11  4  0
 11 14  4  0
 11 19  4  0
 12 18  4  0
 13 21  4  0
 15 23  4  0
 17 19  4  0
 17 20  4  0
 18 22  4  0
 19 21  4  0
M  END
$$$$

 Created by Python create_sdf_string function

 23 25  0  0  0  0  0  0  0  0999 V2000
    2.4610   -5.3070   29.1240 C   0  0  0  0  0  0  0  0  0  0  0  0
    4.7710   -4.6952   28.4803 C   0  0  0  0  0  0  0  0  0  0  0  0
    3.4047   -5.1087   28.1314 C   0  0  0  0  0  0  0  0  0  0  0  0
   -0.2234  -11.8615   16.8874 C   0  0  0  0  0  0  0  0  0  0  0  0
    6.4491   -4.1532   30.1213 C   0  0  0  0  0  0  0  0  0  0  0  0
    5.7060   -4.4340   27.4975 C   0  0  0  0  0  0  0  0  0  0  0  0
    1.1818   -5.6612   28.8399 C   0  0  0  0  0  0  0  0  0  0  0  0
   -1.2067   -7.3287   17.7772 C   0  0  0  0  0  0  0  0  0  0  0  0
   -0.0206  -10.5585   16.6210 C   0  0  0  0  0  0  0  0  0  0  0  0
    0.3696  -12.7626   16.2169 O   0  0  0  0  0  0  0  0  0  0  0  0
   -0.6895   -9.5676   17.3297 C   0  0  0  0  0  0  0  0  0  0  0  0
    0.8388   -5.8417   27.5264 C   0  0  0  0  0  0  0  0  0  0  0  0
   -2.0709   -7.6637   18.7817 C   0  0  0  0  0  0  0  0  0  0  0  0
   -0.5279   -8.2168   17.0717 C   0  0  0  0  0  0  0  0  0  0  0  0
    6.9694   -4.0191   27.8190 C   0  0  0  0  0  0  0  0  0  0  0  0
    5.1733   -4.5469   29.8123 C   0  0  0  0  0  0  0  0  0  0  0  0
   -1.7508  -11.3016   18.6072 C   0  0  0  0  0  0  0  0  0  0  0  0
    1.7497   -5.6771   26.4971 C   0  0  0  0  0  0  0  0  0  0  0  0
   -1.5799   -9.9322   18.3468 C   0  0  0  0  0  0  0  0  0  0  0  0
   -1.0871  -12.2214   17.8851 C   0  0  0  0  0  0  0  0  0  0  0  0
   -2.2706   -8.9669   19.0691 C   0  0  0  0  0  0  0  0  0  0  0  0
    3.0279   -5.3073   26.8197 C   0  0  0  0  0  0  0  0  0  0  0  0
    7.3282   -3.8948   29.1186 C   0  0  0  0  0  0  0  0  0  0  0  0
  1  3  4  0
  1  7  4  0
  2  3  1  0
  2  6  4  0
  2 16  4  0
  3 22  4  0
  4  9  4  0
  4 10  1  0
  4 20  4  0
  5 16  4  0
  5 23  4  0
  6 15  4  0
  7 12  4  0
  8 13  4  0
  8 14  4  0
  9 11  4  0
 11 14  4  0
 11 19  4  0
 12 18  4  0
 13 21  4  0
 15 23  4  0
 17 19  4  0
 17 20  4  0
 18 22  4  0
 19 21  4  0
M  END
$$$$

 Created by Python create_sdf_string function

 23 25  0  0  0  0  0  0  0  0999 V2000
    2.4610   -5.3070   29.1240 C   0  0  0  0  0  0  0  0  0  0  0  0
    4.7710   -4.6952   28.4803 C   0  0  0  0  0  0  0  0  0  0  0  0
    3.4047   -5.1087   28.1314 C   0  0  0  0  0  0  0  0  0  0  0  0
   -0.2234  -11.8615   16.8874 C   0  0  0  0  0  0  0  0  0  0  0  0
    6.4491   -4.1532   30.1213 C   0  0  0  0  0  0  0  0  0  0  0  0
    5.7060   -4.4340   27.4975 C   0  0  0  0  0  0  0  0  0  0  0  0
    1.1818   -5.6612   28.8399 C   0  0  0  0  0  0  0  0  0  0  0  0
   -1.2067   -7.3287   17.7772 C   0  0  0  0  0  0  0  0  0  0  0  0
   -0.0206  -10.5585   16.6210 C   0  0  0  0  0  0  0  0  0  0  0  0
    0.3696  -12.7626   16.2169 O   0  0  0  0  0  0  0  0  0  0  0  0
   -0.6895   -9.5676   17.3297 C   0  0  0  0  0  0  0  0  0  0  0  0
    0.8388   -5.8417   27.5264 C   0  0  0  0  0  0  0  0  0  0  0  0
   -2.0709   -7.6637   18.7817 C   0  0  0  0  0  0  0  0  0  0  0  0
   -0.5279   -8.2168   17.0717 C   0  0  0  0  0  0  0  0  0  0  0  0
    6.9694   -4.0191   27.8190 C   0  0  0  0  0  0  0  0  0  0  0  0
    5.1733   -4.5469   29.8123 C   0  0  0  0  0  0  0  0  0  0  0  0
   -1.7508  -11.3016   18.6072 C   0  0  0  0  0  0  0  0  0  0  0  0
    1.7497   -5.6771   26.4971 C   0  0  0  0  0  0  0  0  0  0  0  0
   -1.5799   -9.9322   18.3468 C   0  0  0  0  0  0  0  0  0  0  0  0
   -1.0871  -12.2214   17.8851 C   0  0  0  0  0  0  0  0  0  0  0  0
   -2.2706   -8.9669   19.0691 C   0  0  0  0  0  0  0  0  0  0  0  0
    3.0279   -5.3073   26.8197 C   0  0  0  0  0  0  0  0  0  0  0  0
    7.3282   -3.8948   29.1186 C   0  0  0  0  0  0  0  0  0  0  0  0
  1  3  4  0
  1  7  4  0
  2  3  1  0
  2  6  4  0
  2 16  4  0
  3 22  4  0
  4  9  4  0
  4 10  1  0
  4 20  4  0
  5 16  4  0
  5 23  4  0
  6 15  4  0
  7 12  4  0
  8 13  4  0
  8 14  4  0
  9 11  4  0
 11 14  4  0
 11 19  4  0
 12 18  4  0
 13 21  4  0
 15 23  4  0
 17 19  4  0
 17 20  4  0
 18 22  4  0
 19 21  4  0
M  END
$$$$

 Created by Python create_sdf_string function

 23 25  0  0  0  0  0  0  0  0999 V2000
    2.4610   -5.3070   29.1240 C   0  0  0  0  0  0  0  0  0  0  0  0
    4.7710   -4.6952   28.4803 C   0  0  0  0  0  0  0  0  0  0  0  0
    3.4047   -5.1087   28.1314 C   0  0  0  0  0  0  0  0  0  0  0  0
   -0.2234  -11.8615   16.8874 C   0  0  0  0  0  0  0  0  0  0  0  0
    6.4491   -4.1532   30.1213 C   0  0  0  0  0  0  0  0  0  0  0  0
    5.7060   -4.4340   27.4975 C   0  0  0  0  0  0  0  0  0  0  0  0
    1.1818   -5.6612   28.8399 C   0  0  0  0  0  0  0  0  0  0  0  0
   -1.2067   -7.3287   17.7772 C   0  0  0  0  0  0  0  0  0  0  0  0
   -0.0206  -10.5585   16.6210 C   0  0  0  0  0  0  0  0  0  0  0  0
    0.3696  -12.7626   16.2169 O   0  0  0  0  0  0  0  0  0  0  0  0
   -0.6895   -9.5676   17.3297 C   0  0  0  0  0  0  0  0  0  0  0  0
    0.8388   -5.8417   27.5264 C   0  0  0  0  0  0  0  0  0  0  0  0
   -2.0709   -7.6637   18.7817 C   0  0  0  0  0  0  0  0  0  0  0  0
   -0.5279   -8.2168   17.0717 C   0  0  0  0  0  0  0  0  0  0  0  0
    6.9694   -4.0191   27.8190 C   0  0  0  0  0  0  0  0  0  0  0  0
    5.1733   -4.5469   29.8123 C   0  0  0  0  0  0  0  0  0  0  0  0
   -1.7508  -11.3016   18.6072 C   0  0  0  0  0  0  0  0  0  0  0  0
    1.7497   -5.6771   26.4971 C   0  0  0  0  0  0  0  0  0  0  0  0
   -1.5799   -9.9322   18.3468 C   0  0  0  0  0  0  0  0  0  0  0  0
   -1.0871  -12.2214   17.8851 C   0  0  0  0  0  0  0  0  0  0  0  0
   -2.2706   -8.9669   19.0691 C   0  0  0  0  0  0  0  0  0  0  0  0
    3.0279   -5.3073   26.8197 C   0  0  0  0  0  0  0  0  0  0  0  0
    7.3282   -3.8948   29.1186 C   0  0  0  0  0  0  0  0  0  0  0  0
  1  3  4  0
  1  7  4  0
  2  3  1  0
  2  6  4  0
  2 16  4  0
  3 22  4  0
  4  9  4  0
  4 10  1  0
  4 20  4  0
  5 16  4  0
  5 23  4  0
  6 15  4  0
  7 12  4  0
  8 13  4  0
  8 14  4  0
  9 11  4  0
 11 14  4  0
 11 19  4  0
 12 18  4  0
 13 21  4  0
 15 23  4  0
 17 19  4  0
 17 20  4  0
 18 22  4  0
 19 21  4  0
M  END
$$$$

 Created by Python create_sdf_string function

 23 25  0  0  0  0  0  0  0  0999 V2000
    2.4610   -5.3070   29.1240 C   0  0  0  0  0  0  0  0  0  0  0  0
    4.7710   -4.6952   28.4803 C   0  0  0  0  0  0  0  0  0  0  0  0
    3.4047   -5.1087   28.1314 C   0  0  0  0  0  0  0  0  0  0  0  0
   -0.2234  -11.8615   16.8874 C   0  0  0  0  0  0  0  0  0  0  0  0
    6.4491   -4.1532   30.1213 C   0  0  0  0  0  0  0  0  0  0  0  0
    5.7060   -4.4340   27.4975 C   0  0  0  0  0  0  0  0  0  0  0  0
    1.1818   -5.6612   28.8399 C   0  0  0  0  0  0  0  0  0  0  0  0
   -1.2067   -7.3287   17.7772 C   0  0  0  0  0  0  0  0  0  0  0  0
   -0.0206  -10.5585   16.6210 C   0  0  0  0  0  0  0  0  0  0  0  0
    0.3696  -12.7626   16.2169 O   0  0  0  0  0  0  0  0  0  0  0  0
   -0.6895   -9.5676   17.3297 C   0  0  0  0  0  0  0  0  0  0  0  0
    0.8388   -5.8417   27.5264 C   0  0  0  0  0  0  0  0  0  0  0  0
   -2.0709   -7.6637   18.7817 C   0  0  0  0  0  0  0  0  0  0  0  0
   -0.5279   -8.2168   17.0717 C   0  0  0  0  0  0  0  0  0  0  0  0
    6.9694   -4.0191   27.8190 C   0  0  0  0  0  0  0  0  0  0  0  0
    5.1733   -4.5469   29.8123 C   0  0  0  0  0  0  0  0  0  0  0  0
   -1.7508  -11.3016   18.6072 C   0  0  0  0  0  0  0  0  0  0  0  0
    1.7497   -5.6771   26.4971 C   0  0  0  0  0  0  0  0  0  0  0  0
   -1.5799   -9.9322   18.3468 C   0  0  0  0  0  0  0  0  0  0  0  0
   -1.0871  -12.2214   17.8851 C   0  0  0  0  0  0  0  0  0  0  0  0
   -2.2706   -8.9669   19.0691 C   0  0  0  0  0  0  0  0  0  0  0  0
    3.0279   -5.3073   26.8197 C   0  0  0  0  0  0  0  0  0  0  0  0
    7.3282   -3.8948   29.1186 C   0  0  0  0  0  0  0  0  0  0  0  0
  1  3  4  0
  1  7  4  0
  2  3  1  0
  2  6  4  0
  2 16  4  0
  3 22  4  0
  4  9  4  0
  4 10  1  0
  4 20  4  0
  5 16  4  0
  5 23  4  0
  6 15  4  0
  7 12  4  0
  8 13  4  0
  8 14  4  0
  9 11  4  0
 11 14  4  0
 11 19  4  0
 12 18  4  0
 13 21  4  0
 15 23  4  0
 17 19  4  0
 17 20  4  0
 18 22  4  0
 19 21  4  0
M  END
$$$$

 Created by Python create_sdf_string function

 23 25  0  0  0  0  0  0  0  0999 V2000
    2.4610   -5.3070   29.1240 C   0  0  0  0  0  0  0  0  0  0  0  0
    4.7710   -4.6952   28.4803 C   0  0  0  0  0  0  0  0  0  0  0  0
    3.4047   -5.1087   28.1314 C   0  0  0  0  0  0  0  0  0  0  0  0
   -0.2234  -11.8615   16.8874 C   0  0  0  0  0  0  0  0  0  0  0  0
    6.4491   -4.1532   30.1213 C   0  0  0  0  0  0  0  0  0  0  0  0
    5.7060   -4.4340   27.4975 C   0  0  0  0  0  0  0  0  0  0  0  0
    1.1818   -5.6612   28.8399 C   0  0  0  0  0  0  0  0  0  0  0  0
   -1.2067   -7.3287   17.7772 C   0  0  0  0  0  0  0  0  0  0  0  0
   -0.0206  -10.5585   16.6210 C   0  0  0  0  0  0  0  0  0  0  0  0
    0.3696  -12.7626   16.2169 O   0  0  0  0  0  0  0  0  0  0  0  0
   -0.6895   -9.5676   17.3297 C   0  0  0  0  0  0  0  0  0  0  0  0
    0.8388   -5.8417   27.5264 C   0  0  0  0  0  0  0  0  0  0  0  0
   -2.0709   -7.6637   18.7817 C   0  0  0  0  0  0  0  0  0  0  0  0
   -0.5279   -8.2168   17.0717 C   0  0  0  0  0  0  0  0  0  0  0  0
    6.9694   -4.0191   27.8190 C   0  0  0  0  0  0  0  0  0  0  0  0
    5.1733   -4.5469   29.8123 C   0  0  0  0  0  0  0  0  0  0  0  0
   -1.7508  -11.3016   18.6072 C   0  0  0  0  0  0  0  0  0  0  0  0
    1.7497   -5.6771   26.4971 C   0  0  0  0  0  0  0  0  0  0  0  0
   -1.5799   -9.9322   18.3468 C   0  0  0  0  0  0  0  0  0  0  0  0
   -1.0871  -12.2214   17.8851 C   0  0  0  0  0  0  0  0  0  0  0  0
   -2.2706   -8.9669   19.0691 C   0  0  0  0  0  0  0  0  0  0  0  0
    3.0279   -5.3073   26.8197 C   0  0  0  0  0  0  0  0  0  0  0  0
    7.3282   -3.8948   29.1186 C   0  0  0  0  0  0  0  0  0  0  0  0
  1  3  4  0
  1  7  4  0
  2  3  1  0
  2  6  4  0
  2 16  4  0
  3 22  4  0
  4  9  4  0
  4 10  1  0
  4 20  4  0
  5 16  4  0
  5 23  4  0
  6 15  4  0
  7 12  4  0
  8 13  4  0
  8 14  4  0
  9 11  4  0
 11 14  4  0
 11 19  4  0
 12 18  4  0
 13 21  4  0
 15 23  4  0
 17 19  4  0
 17 20  4  0
 18 22  4  0
 19 21  4  0
M  END
$$$$

 Created by Python create_sdf_string function

 23 25  0  0  0  0  0  0  0  0999 V2000
    2.4610   -5.3070   29.1240 C   0  0  0  0  0  0  0  0  0  0  0  0
    4.7710   -4.6952   28.4803 C   0  0  0  0  0  0  0  0  0  0  0  0
    3.4047   -5.1087   28.1314 C   0  0  0  0  0  0  0  0  0  0  0  0
   -0.2234  -11.8615   16.8874 C   0  0  0  0  0  0  0  0  0  0  0  0
    6.4491   -4.1532   30.1213 C   0  0  0  0  0  0  0  0  0  0  0  0
    5.7060   -4.4340   27.4975 C   0  0  0  0  0  0  0  0  0  0  0  0
    1.1818   -5.6612   28.8399 C   0  0  0  0  0  0  0  0  0  0  0  0
   -1.2067   -7.3287   17.7772 C   0  0  0  0  0  0  0  0  0  0  0  0
   -0.0206  -10.5585   16.6210 C   0  0  0  0  0  0  0  0  0  0  0  0
    0.3696  -12.7626   16.2169 O   0  0  0  0  0  0  0  0  0  0  0  0
   -0.6895   -9.5676   17.3297 C   0  0  0  0  0  0  0  0  0  0  0  0
    0.8388   -5.8417   27.5264 C   0  0  0  0  0  0  0  0  0  0  0  0
   -2.0709   -7.6637   18.7817 C   0  0  0  0  0  0  0  0  0  0  0  0
   -0.5279   -8.2168   17.0717 C   0  0  0  0  0  0  0  0  0  0  0  0
    6.9694   -4.0191   27.8190 C   0  0  0  0  0  0  0  0  0  0  0  0
    5.1733   -4.5469   29.8123 C   0  0  0  0  0  0  0  0  0  0  0  0
   -1.7508  -11.3016   18.6072 C   0  0  0  0  0  0  0  0  0  0  0  0
    1.7497   -5.6771   26.4971 C   0  0  0  0  0  0  0  0  0  0  0  0
   -1.5799   -9.9322   18.3468 C   0  0  0  0  0  0  0  0  0  0  0  0
   -1.0871  -12.2214   17.8851 C   0  0  0  0  0  0  0  0  0  0  0  0
   -2.2706   -8.9669   19.0691 C   0  0  0  0  0  0  0  0  0  0  0  0
    3.0279   -5.3073   26.8197 C   0  0  0  0  0  0  0  0  0  0  0  0
    7.3282   -3.8948   29.1186 C   0  0  0  0  0  0  0  0  0  0  0  0
  1  3  4  0
  1  7  4  0
  2  3  1  0
  2  6  4  0
  2 16  4  0
  3 22  4  0
  4  9  4  0
  4 10  1  0
  4 20  4  0
  5 16  4  0
  5 23  4  0
  6 15  4  0
  7 12  4  0
  8 13  4  0
  8 14  4  0
  9 11  4  0
 11 14  4  0
 11 19  4  0
 12 18  4  0
 13 21  4  0
 15 23  4  0
 17 19  4  0
 17 20  4  0
 18 22  4  0
 19 21  4  0
M  END
$$$$

 Created by Python create_sdf_string function

 23 25  0  0  0  0  0  0  0  0999 V2000
    2.4610   -5.3070   29.1240 C   0  0  0  0  0  0  0  0  0  0  0  0
    4.7710   -4.6952   28.4803 C   0  0  0  0  0  0  0  0  0  0  0  0
    3.4047   -5.1087   28.1314 C   0  0  0  0  0  0  0  0  0  0  0  0
   -0.2234  -11.8615   16.8874 C   0  0  0  0  0  0  0  0  0  0  0  0
    6.4491   -4.1532   30.1213 C   0  0  0  0  0  0  0  0  0  0  0  0
    5.7060   -4.4340   27.4975 C   0  0  0  0  0  0  0  0  0  0  0  0
    1.1818   -5.6612   28.8399 C   0  0  0  0  0  0  0  0  0  0  0  0
   -1.2067   -7.3287   17.7772 C   0  0  0  0  0  0  0  0  0  0  0  0
   -0.0206  -10.5585   16.6210 C   0  0  0  0  0  0  0  0  0  0  0  0
    0.3696  -12.7626   16.2169 O   0  0  0  0  0  0  0  0  0  0  0  0
   -0.6895   -9.5676   17.3297 C   0  0  0  0  0  0  0  0  0  0  0  0
    0.8388   -5.8417   27.5264 C   0  0  0  0  0  0  0  0  0  0  0  0
   -2.0709   -7.6637   18.7817 C   0  0  0  0  0  0  0  0  0  0  0  0
   -0.5279   -8.2168   17.0717 C   0  0  0  0  0  0  0  0  0  0  0  0
    6.9694   -4.0191   27.8190 C   0  0  0  0  0  0  0  0  0  0  0  0
    5.1733   -4.5469   29.8123 C   0  0  0  0  0  0  0  0  0  0  0  0
   -1.7508  -11.3016   18.6072 C   0  0  0  0  0  0  0  0  0  0  0  0
    1.7497   -5.6771   26.4971 C   0  0  0  0  0  0  0  0  0  0  0  0
   -1.5799   -9.9322   18.3468 C   0  0  0  0  0  0  0  0  0  0  0  0
   -1.0871  -12.2214   17.8851 C   0  0  0  0  0  0  0  0  0  0  0  0
   -2.2706   -8.9669   19.0691 C   0  0  0  0  0  0  0  0  0  0  0  0
    3.0279   -5.3073   26.8197 C   0  0  0  0  0  0  0  0  0  0  0  0
    7.3282   -3.8948   29.1186 C   0  0  0  0  0  0  0  0  0  0  0  0
  1  3  4  0
  1  7  4  0
  2  3  1  0
  2  6  4  0
  2 16  4  0
  3 22  4  0
  4  9  4  0
  4 10  1  0
  4 20  4  0
  5 16  4  0
  5 23  4  0
  6 15  4  0
  7 12  4  0
  8 13  4  0
  8 14  4  0
  9 11  4  0
 11 14  4  0
 11 19  4  0
 12 18  4  0
 13 21  4  0
 15 23  4  0
 17 19  4  0
 17 20  4  0
 18 22  4  0
 19 21  4  0
M  END
$$$$

 Created by Python create_sdf_string function

 23 25  0  0  0  0  0  0  0  0999 V2000
    2.4610   -5.3070   29.1240 C   0  0  0  0  0  0  0  0  0  0  0  0
    4.7710   -4.6952   28.4803 C   0  0  0  0  0  0  0  0  0  0  0  0
    3.4047   -5.1087   28.1314 C   0  0  0  0  0  0  0  0  0  0  0  0
   -0.2234  -11.8615   16.8874 C   0  0  0  0  0  0  0  0  0  0  0  0
    6.4491   -4.1532   30.1213 C   0  0  0  0  0  0  0  0  0  0  0  0
    5.7060   -4.4340   27.4975 C   0  0  0  0  0  0  0  0  0  0  0  0
    1.1818   -5.6612   28.8399 C   0  0  0  0  0  0  0  0  0  0  0  0
   -1.2067   -7.3287   17.7772 C   0  0  0  0  0  0  0  0  0  0  0  0
   -0.0206  -10.5585   16.6210 C   0  0  0  0  0  0  0  0  0  0  0  0
    0.3696  -12.7626   16.2169 O   0  0  0  0  0  0  0  0  0  0  0  0
   -0.6895   -9.5676   17.3297 C   0  0  0  0  0  0  0  0  0  0  0  0
    0.8388   -5.8417   27.5264 C   0  0  0  0  0  0  0  0  0  0  0  0
   -2.0709   -7.6637   18.7817 C   0  0  0  0  0  0  0  0  0  0  0  0
   -0.5279   -8.2168   17.0717 C   0  0  0  0  0  0  0  0  0  0  0  0
    6.9694   -4.0191   27.8190 C   0  0  0  0  0  0  0  0  0  0  0  0
    5.1733   -4.5469   29.8123 C   0  0  0  0  0  0  0  0  0  0  0  0
   -1.7508  -11.3016   18.6072 C   0  0  0  0  0  0  0  0  0  0  0  0
    1.7497   -5.6771   26.4971 C   0  0  0  0  0  0  0  0  0  0  0  0
   -1.5799   -9.9322   18.3468 C   0  0  0  0  0  0  0  0  0  0  0  0
   -1.0871  -12.2214   17.8851 C   0  0  0  0  0  0  0  0  0  0  0  0
   -2.2706   -8.9669   19.0691 C   0  0  0  0  0  0  0  0  0  0  0  0
    3.0279   -5.3073   26.8197 C   0  0  0  0  0  0  0  0  0  0  0  0
    7.3282   -3.8948   29.1186 C   0  0  0  0  0  0  0  0  0  0  0  0
  1  3  4  0
  1  7  4  0
  2  3  1  0
  2  6  4  0
  2 16  4  0
  3 22  4  0
  4  9  4  0
  4 10  1  0
  4 20  4  0
  5 16  4  0
  5 23  4  0
  6 15  4  0
  7 12  4  0
  8 13  4  0
  8 14  4  0
  9 11  4  0
 11 14  4  0
 11 19  4  0
 12 18  4  0
 13 21  4  0
 15 23  4  0
 17 19  4  0
 17 20  4  0
 18 22  4  0
 19 21  4  0
M  END
$$$$

 Created by Python create_sdf_string function

 23 25  0  0  0  0  0  0  0  0999 V2000
    2.4610   -5.3070   29.1240 C   0  0  0  0  0  0  0  0  0  0  0  0
    4.7710   -4.6952   28.4803 C   0  0  0  0  0  0  0  0  0  0  0  0
    3.4047   -5.1087   28.1314 C   0  0  0  0  0  0  0  0  0  0  0  0
   -0.2234  -11.8615   16.8874 C   0  0  0  0  0  0  0  0  0  0  0  0
    6.4491   -4.1532   30.1213 C   0  0  0  0  0  0  0  0  0  0  0  0
    5.7060   -4.4340   27.4975 C   0  0  0  0  0  0  0  0  0  0  0  0
    1.1818   -5.6612   28.8399 C   0  0  0  0  0  0  0  0  0  0  0  0
   -1.2067   -7.3287   17.7772 C   0  0  0  0  0  0  0  0  0  0  0  0
   -0.0206  -10.5585   16.6210 C   0  0  0  0  0  0  0  0  0  0  0  0
    0.3696  -12.7626   16.2169 O   0  0  0  0  0  0  0  0  0  0  0  0
   -0.6895   -9.5676   17.3297 C   0  0  0  0  0  0  0  0  0  0  0  0
    0.8388   -5.8417   27.5264 C   0  0  0  0  0  0  0  0  0  0  0  0
   -2.0709   -7.6637   18.7817 C   0  0  0  0  0  0  0  0  0  0  0  0
   -0.5279   -8.2168   17.0717 C   0  0  0  0  0  0  0  0  0  0  0  0
    6.9694   -4.0191   27.8190 C   0  0  0  0  0  0  0  0  0  0  0  0
    5.1733   -4.5469   29.8123 C   0  0  0  0  0  0  0  0  0  0  0  0
   -1.7508  -11.3016   18.6072 C   0  0  0  0  0  0  0  0  0  0  0  0
    1.7497   -5.6771   26.4971 C   0  0  0  0  0  0  0  0  0  0  0  0
   -1.5799   -9.9322   18.3468 C   0  0  0  0  0  0  0  0  0  0  0  0
   -1.0871  -12.2214   17.8851 C   0  0  0  0  0  0  0  0  0  0  0  0
   -2.2706   -8.9669   19.0691 C   0  0  0  0  0  0  0  0  0  0  0  0
    3.0279   -5.3073   26.8197 C   0  0  0  0  0  0  0  0  0  0  0  0
    7.3282   -3.8948   29.1186 C   0  0  0  0  0  0  0  0  0  0  0  0
  1  3  4  0
  1  7  4  0
  2  3  1  0
  2  6  4  0
  2 16  4  0
  3 22  4  0
  4  9  4  0
  4 10  1  0
  4 20  4  0
  5 16  4  0
  5 23  4  0
  6 15  4  0
  7 12  4  0
  8 13  4  0
  8 14  4  0
  9 11  4  0
 11 14  4  0
 11 19  4  0
 12 18  4  0
 13 21  4  0
 15 23  4  0
 17 19  4  0
 17 20  4  0
 18 22  4  0
 19 21  4  0
M  END
$$$$

 Created by Python create_sdf_string function

 23 25  0  0  0  0  0  0  0  0999 V2000
    2.4610   -5.3070   29.1240 C   0  0  0  0  0  0  0  0  0  0  0  0
    4.7710   -4.6952   28.4803 C   0  0  0  0  0  0  0  0  0  0  0  0
    3.4047   -5.1087   28.1314 C   0  0  0  0  0  0  0  0  0  0  0  0
   -0.2234  -11.8615   16.8874 C   0  0  0  0  0  0  0  0  0  0  0  0
    6.4491   -4.1532   30.1213 C   0  0  0  0  0  0  0  0  0  0  0  0
    5.7060   -4.4340   27.4975 C   0  0  0  0  0  0  0  0  0  0  0  0
    1.1818   -5.6612   28.8399 C   0  0  0  0  0  0  0  0  0  0  0  0
   -1.2067   -7.3287   17.7772 C   0  0  0  0  0  0  0  0  0  0  0  0
   -0.0206  -10.5585   16.6210 C   0  0  0  0  0  0  0  0  0  0  0  0
    0.3696  -12.7626   16.2169 O   0  0  0  0  0  0  0  0  0  0  0  0
   -0.6895   -9.5676   17.3297 C   0  0  0  0  0  0  0  0  0  0  0  0
    0.8388   -5.8417   27.5264 C   0  0  0  0  0  0  0  0  0  0  0  0
   -2.0709   -7.6637   18.7817 C   0  0  0  0  0  0  0  0  0  0  0  0
   -0.5279   -8.2168   17.0717 C   0  0  0  0  0  0  0  0  0  0  0  0
    6.9694   -4.0191   27.8190 C   0  0  0  0  0  0  0  0  0  0  0  0
    5.1733   -4.5469   29.8123 C   0  0  0  0  0  0  0  0  0  0  0  0
   -1.7508  -11.3016   18.6072 C   0  0  0  0  0  0  0  0  0  0  0  0
    1.7497   -5.6771   26.4971 C   0  0  0  0  0  0  0  0  0  0  0  0
   -1.5799   -9.9322   18.3468 C   0  0  0  0  0  0  0  0  0  0  0  0
   -1.0871  -12.2214   17.8851 C   0  0  0  0  0  0  0  0  0  0  0  0
   -2.2706   -8.9669   19.0691 C   0  0  0  0  0  0  0  0  0  0  0  0
    3.0279   -5.3073   26.8197 C   0  0  0  0  0  0  0  0  0  0  0  0
    7.3282   -3.8948   29.1186 C   0  0  0  0  0  0  0  0  0  0  0  0
  1  3  4  0
  1  7  4  0
  2  3  1  0
  2  6  4  0
  2 16  4  0
  3 22  4  0
  4  9  4  0
  4 10  1  0
  4 20  4  0
  5 16  4  0
  5 23  4  0
  6 15  4  0
  7 12  4  0
  8 13  4  0
  8 14  4  0
  9 11  4  0
 11 14  4  0
 11 19  4  0
 12 18  4  0
 13 21  4  0
 15 23  4  0
 17 19  4  0
 17 20  4  0
 18 22  4  0
 19 21  4  0
M  END
$$$$

 Created by Python create_sdf_string function

 23 25  0  0  0  0  0  0  0  0999 V2000
    2.4610   -5.3070   29.1240 C   0  0  0  0  0  0  0  0  0  0  0  0
    4.7710   -4.6952   28.4803 C   0  0  0  0  0  0  0  0  0  0  0  0
    3.4047   -5.1087   28.1314 C   0  0  0  0  0  0  0  0  0  0  0  0
   -0.2234  -11.8615   16.8874 C   0  0  0  0  0  0  0  0  0  0  0  0
    6.4491   -4.1532   30.1213 C   0  0  0  0  0  0  0  0  0  0  0  0
    5.7060   -4.4340   27.4975 C   0  0  0  0  0  0  0  0  0  0  0  0
    1.1818   -5.6612   28.8399 C   0  0  0  0  0  0  0  0  0  0  0  0
   -1.2067   -7.3287   17.7772 C   0  0  0  0  0  0  0  0  0  0  0  0
   -0.0206  -10.5585   16.6210 C   0  0  0  0  0  0  0  0  0  0  0  0
    0.3696  -12.7626   16.2169 O   0  0  0  0  0  0  0  0  0  0  0  0
   -0.6895   -9.5676   17.3297 C   0  0  0  0  0  0  0  0  0  0  0  0
    0.8388   -5.8417   27.5264 C   0  0  0  0  0  0  0  0  0  0  0  0
   -2.0709   -7.6637   18.7817 C   0  0  0  0  0  0  0  0  0  0  0  0
   -0.5279   -8.2168   17.0717 C   0  0  0  0  0  0  0  0  0  0  0  0
    6.9694   -4.0191   27.8190 C   0  0  0  0  0  0  0  0  0  0  0  0
    5.1733   -4.5469   29.8123 C   0  0  0  0  0  0  0  0  0  0  0  0
   -1.7508  -11.3016   18.6072 C   0  0  0  0  0  0  0  0  0  0  0  0
    1.7497   -5.6771   26.4971 C   0  0  0  0  0  0  0  0  0  0  0  0
   -1.5799   -9.9322   18.3468 C   0  0  0  0  0  0  0  0  0  0  0  0
   -1.0871  -12.2214   17.8851 C   0  0  0  0  0  0  0  0  0  0  0  0
   -2.2706   -8.9669   19.0691 C   0  0  0  0  0  0  0  0  0  0  0  0
    3.0279   -5.3073   26.8197 C   0  0  0  0  0  0  0  0  0  0  0  0
    7.3282   -3.8948   29.1186 C   0  0  0  0  0  0  0  0  0  0  0  0
  1  3  4  0
  1  7  4  0
  2  3  1  0
  2  6  4  0
  2 16  4  0
  3 22  4  0
  4  9  4  0
  4 10  1  0
  4 20  4  0
  5 16  4  0
  5 23  4  0
  6 15  4  0
  7 12  4  0
  8 13  4  0
  8 14  4  0
  9 11  4  0
 11 14  4  0
 11 19  4  0
 12 18  4  0
 13 21  4  0
 15 23  4  0
 17 19  4  0
 17 20  4  0
 18 22  4  0
 19 21  4  0
M  END
$$$$

 Created by Python create_sdf_string function

 23 25  0  0  0  0  0  0  0  0999 V2000
    2.4610   -5.3070   29.1240 C   0  0  0  0  0  0  0  0  0  0  0  0
    4.7710   -4.6952   28.4803 C   0  0  0  0  0  0  0  0  0  0  0  0
    3.4047   -5.1087   28.1314 C   0  0  0  0  0  0  0  0  0  0  0  0
   -0.2234  -11.8615   16.8874 C   0  0  0  0  0  0  0  0  0  0  0  0
    6.4491   -4.1532   30.1213 C   0  0  0  0  0  0  0  0  0  0  0  0
    5.7060   -4.4340   27.4975 C   0  0  0  0  0  0  0  0  0  0  0  0
    1.1818   -5.6612   28.8399 C   0  0  0  0  0  0  0  0  0  0  0  0
   -1.2067   -7.3287   17.7772 C   0  0  0  0  0  0  0  0  0  0  0  0
   -0.0206  -10.5585   16.6210 C   0  0  0  0  0  0  0  0  0  0  0  0
    0.3696  -12.7626   16.2169 O   0  0  0  0  0  0  0  0  0  0  0  0
   -0.6895   -9.5676   17.3297 C   0  0  0  0  0  0  0  0  0  0  0  0
    0.8388   -5.8417   27.5264 C   0  0  0  0  0  0  0  0  0  0  0  0
   -2.0709   -7.6637   18.7817 C   0  0  0  0  0  0  0  0  0  0  0  0
   -0.5279   -8.2168   17.0717 C   0  0  0  0  0  0  0  0  0  0  0  0
    6.9694   -4.0191   27.8190 C   0  0  0  0  0  0  0  0  0  0  0  0
    5.1733   -4.5469   29.8123 C   0  0  0  0  0  0  0  0  0  0  0  0
   -1.7508  -11.3016   18.6072 C   0  0  0  0  0  0  0  0  0  0  0  0
    1.7497   -5.6771   26.4971 C   0  0  0  0  0  0  0  0  0  0  0  0
   -1.5799   -9.9322   18.3468 C   0  0  0  0  0  0  0  0  0  0  0  0
   -1.0871  -12.2214   17.8851 C   0  0  0  0  0  0  0  0  0  0  0  0
   -2.2706   -8.9669   19.0691 C   0  0  0  0  0  0  0  0  0  0  0  0
    3.0279   -5.3073   26.8197 C   0  0  0  0  0  0  0  0  0  0  0  0
    7.3282   -3.8948   29.1186 C   0  0  0  0  0  0  0  0  0  0  0  0
  1  3  4  0
  1  7  4  0
  2  3  1  0
  2  6  4  0
  2 16  4  0
  3 22  4  0
  4  9  4  0
  4 10  1  0
  4 20  4  0
  5 16  4  0
  5 23  4  0
  6 15  4  0
  7 12  4  0
  8 13  4  0
  8 14  4  0
  9 11  4  0
 11 14  4  0
 11 19  4  0
 12 18  4  0
 13 21  4  0
 15 23  4  0
 17 19  4  0
 17 20  4  0
 18 22  4  0
 19 21  4  0
M  END
$$$$

 Created by Python create_sdf_string function

 23 25  0  0  0  0  0  0  0  0999 V2000
    2.4610   -5.3070   29.1240 C   0  0  0  0  0  0  0  0  0  0  0  0
    4.7710   -4.6952   28.4803 C   0  0  0  0  0  0  0  0  0  0  0  0
    3.4047   -5.1087   28.1314 C   0  0  0  0  0  0  0  0  0  0  0  0
   -0.2234  -11.8615   16.8874 C   0  0  0  0  0  0  0  0  0  0  0  0
    6.4491   -4.1532   30.1213 C   0  0  0  0  0  0  0  0  0  0  0  0
    5.7060   -4.4340   27.4975 C   0  0  0  0  0  0  0  0  0  0  0  0
    1.1818   -5.6612   28.8399 C   0  0  0  0  0  0  0  0  0  0  0  0
   -1.2067   -7.3287   17.7772 C   0  0  0  0  0  0  0  0  0  0  0  0
   -0.0206  -10.5585   16.6210 C   0  0  0  0  0  0  0  0  0  0  0  0
    0.3696  -12.7626   16.2169 O   0  0  0  0  0  0  0  0  0  0  0  0
   -0.6895   -9.5676   17.3297 C   0  0  0  0  0  0  0  0  0  0  0  0
    0.8388   -5.8417   27.5264 C   0  0  0  0  0  0  0  0  0  0  0  0
   -2.0709   -7.6637   18.7817 C   0  0  0  0  0  0  0  0  0  0  0  0
   -0.5279   -8.2168   17.0717 C   0  0  0  0  0  0  0  0  0  0  0  0
    6.9694   -4.0191   27.8190 C   0  0  0  0  0  0  0  0  0  0  0  0
    5.1733   -4.5469   29.8123 C   0  0  0  0  0  0  0  0  0  0  0  0
   -1.7508  -11.3016   18.6072 C   0  0  0  0  0  0  0  0  0  0  0  0
    1.7497   -5.6771   26.4971 C   0  0  0  0  0  0  0  0  0  0  0  0
   -1.5799   -9.9322   18.3468 C   0  0  0  0  0  0  0  0  0  0  0  0
   -1.0871  -12.2214   17.8851 C   0  0  0  0  0  0  0  0  0  0  0  0
   -2.2706   -8.9669   19.0691 C   0  0  0  0  0  0  0  0  0  0  0  0
    3.0279   -5.3073   26.8197 C   0  0  0  0  0  0  0  0  0  0  0  0
    7.3282   -3.8948   29.1186 C   0  0  0  0  0  0  0  0  0  0  0  0
  1  3  4  0
  1  7  4  0
  2  3  1  0
  2  6  4  0
  2 16  4  0
  3 22  4  0
  4  9  4  0
  4 10  1  0
  4 20  4  0
  5 16  4  0
  5 23  4  0
  6 15  4  0
  7 12  4  0
  8 13  4  0
  8 14  4  0
  9 11  4  0
 11 14  4  0
 11 19  4  0
 12 18  4  0
 13 21  4  0
 15 23  4  0
 17 19  4  0
 17 20  4  0
 18 22  4  0
 19 21  4  0
M  END
$$$$

 Created by Python create_sdf_string function

 23 25  0  0  0  0  0  0  0  0999 V2000
    2.4610   -5.3070   29.1240 C   0  0  0  0  0  0  0  0  0  0  0  0
    4.7710   -4.6952   28.4803 C   0  0  0  0  0  0  0  0  0  0  0  0
    3.4047   -5.1087   28.1314 C   0  0  0  0  0  0  0  0  0  0  0  0
   -0.2234  -11.8615   16.8874 C   0  0  0  0  0  0  0  0  0  0  0  0
    6.4491   -4.1532   30.1213 C   0  0  0  0  0  0  0  0  0  0  0  0
    5.7060   -4.4340   27.4975 C   0  0  0  0  0  0  0  0  0  0  0  0
    1.1818   -5.6612   28.8399 C   0  0  0  0  0  0  0  0  0  0  0  0
   -1.2067   -7.3287   17.7772 C   0  0  0  0  0  0  0  0  0  0  0  0
   -0.0206  -10.5585   16.6210 C   0  0  0  0  0  0  0  0  0  0  0  0
    0.3696  -12.7626   16.2169 O   0  0  0  0  0  0  0  0  0  0  0  0
   -0.6895   -9.5676   17.3297 C   0  0  0  0  0  0  0  0  0  0  0  0
    0.8388   -5.8417   27.5264 C   0  0  0  0  0  0  0  0  0  0  0  0
   -2.0709   -7.6637   18.7817 C   0  0  0  0  0  0  0  0  0  0  0  0
   -0.5279   -8.2168   17.0717 C   0  0  0  0  0  0  0  0  0  0  0  0
    6.9694   -4.0191   27.8190 C   0  0  0  0  0  0  0  0  0  0  0  0
    5.1733   -4.5469   29.8123 C   0  0  0  0  0  0  0  0  0  0  0  0
   -1.7508  -11.3016   18.6072 C   0  0  0  0  0  0  0  0  0  0  0  0
    1.7497   -5.6771   26.4971 C   0  0  0  0  0  0  0  0  0  0  0  0
   -1.5799   -9.9322   18.3468 C   0  0  0  0  0  0  0  0  0  0  0  0
   -1.0871  -12.2214   17.8851 C   0  0  0  0  0  0  0  0  0  0  0  0
   -2.2706   -8.9669   19.0691 C   0  0  0  0  0  0  0  0  0  0  0  0
    3.0279   -5.3073   26.8197 C   0  0  0  0  0  0  0  0  0  0  0  0
    7.3282   -3.8948   29.1186 C   0  0  0  0  0  0  0  0  0  0  0  0
  1  3  4  0
  1  7  4  0
  2  3  1  0
  2  6  4  0
  2 16  4  0
  3 22  4  0
  4  9  4  0
  4 10  1  0
  4 20  4  0
  5 16  4  0
  5 23  4  0
  6 15  4  0
  7 12  4  0
  8 13  4  0
  8 14  4  0
  9 11  4  0
 11 14  4  0
 11 19  4  0
 12 18  4  0
 13 21  4  0
 15 23  4  0
 17 19  4  0
 17 20  4  0
 18 22  4  0
 19 21  4  0
M  END
$$$$

 Created by Python create_sdf_string function

 23 25  0  0  0  0  0  0  0  0999 V2000
    2.4610   -5.3070   29.1240 C   0  0  0  0  0  0  0  0  0  0  0  0
    4.7710   -4.6952   28.4803 C   0  0  0  0  0  0  0  0  0  0  0  0
    3.4047   -5.1087   28.1314 C   0  0  0  0  0  0  0  0  0  0  0  0
   -0.2234  -11.8615   16.8874 C   0  0  0  0  0  0  0  0  0  0  0  0
    6.4491   -4.1532   30.1213 C   0  0  0  0  0  0  0  0  0  0  0  0
    5.7060   -4.4340   27.4975 C   0  0  0  0  0  0  0  0  0  0  0  0
    1.1818   -5.6612   28.8399 C   0  0  0  0  0  0  0  0  0  0  0  0
   -1.2067   -7.3287   17.7772 C   0  0  0  0  0  0  0  0  0  0  0  0
   -0.0206  -10.5585   16.6210 C   0  0  0  0  0  0  0  0  0  0  0  0
    0.3696  -12.7626   16.2169 O   0  0  0  0  0  0  0  0  0  0  0  0
   -0.6895   -9.5676   17.3297 C   0  0  0  0  0  0  0  0  0  0  0  0
    0.8388   -5.8417   27.5264 C   0  0  0  0  0  0  0  0  0  0  0  0
   -2.0709   -7.6637   18.7817 C   0  0  0  0  0  0  0  0  0  0  0  0
   -0.5279   -8.2168   17.0717 C   0  0  0  0  0  0  0  0  0  0  0  0
    6.9694   -4.0191   27.8190 C   0  0  0  0  0  0  0  0  0  0  0  0
    5.1733   -4.5469   29.8123 C   0  0  0  0  0  0  0  0  0  0  0  0
   -1.7508  -11.3016   18.6072 C   0  0  0  0  0  0  0  0  0  0  0  0
    1.7497   -5.6771   26.4971 C   0  0  0  0  0  0  0  0  0  0  0  0
   -1.5799   -9.9322   18.3468 C   0  0  0  0  0  0  0  0  0  0  0  0
   -1.0871  -12.2214   17.8851 C   0  0  0  0  0  0  0  0  0  0  0  0
   -2.2706   -8.9669   19.0691 C   0  0  0  0  0  0  0  0  0  0  0  0
    3.0279   -5.3073   26.8197 C   0  0  0  0  0  0  0  0  0  0  0  0
    7.3282   -3.8948   29.1186 C   0  0  0  0  0  0  0  0  0  0  0  0
  1  3  4  0
  1  7  4  0
  2  3  1  0
  2  6  4  0
  2 16  4  0
  3 22  4  0
  4  9  4  0
  4 10  1  0
  4 20  4  0
  5 16  4  0
  5 23  4  0
  6 15  4  0
  7 12  4  0
  8 13  4  0
  8 14  4  0
  9 11  4  0
 11 14  4  0
 11 19  4  0
 12 18  4  0
 13 21  4  0
 15 23  4  0
 17 19  4  0
 17 20  4  0
 18 22  4  0
 19 21  4  0
M  END
$$$$

 Created by Python create_sdf_string function

 23 25  0  0  0  0  0  0  0  0999 V2000
    2.4610   -5.3070   29.1240 C   0  0  0  0  0  0  0  0  0  0  0  0
    4.7710   -4.6952   28.4803 C   0  0  0  0  0  0  0  0  0  0  0  0
    3.4047   -5.1087   28.1314 C   0  0  0  0  0  0  0  0  0  0  0  0
   -0.2234  -11.8615   16.8874 C   0  0  0  0  0  0  0  0  0  0  0  0
    6.4491   -4.1532   30.1213 C   0  0  0  0  0  0  0  0  0  0  0  0
    5.7060   -4.4340   27.4975 C   0  0  0  0  0  0  0  0  0  0  0  0
    1.1818   -5.6612   28.8399 C   0  0  0  0  0  0  0  0  0  0  0  0
   -1.2067   -7.3287   17.7772 C   0  0  0  0  0  0  0  0  0  0  0  0
   -0.0206  -10.5585   16.6210 C   0  0  0  0  0  0  0  0  0  0  0  0
    0.3696  -12.7626   16.2169 O   0  0  0  0  0  0  0  0  0  0  0  0
   -0.6895   -9.5676   17.3297 C   0  0  0  0  0  0  0  0  0  0  0  0
    0.8388   -5.8417   27.5264 C   0  0  0  0  0  0  0  0  0  0  0  0
   -2.0709   -7.6637   18.7817 C   0  0  0  0  0  0  0  0  0  0  0  0
   -0.5279   -8.2168   17.0717 C   0  0  0  0  0  0  0  0  0  0  0  0
    6.9694   -4.0191   27.8190 C   0  0  0  0  0  0  0  0  0  0  0  0
    5.1733   -4.5469   29.8123 C   0  0  0  0  0  0  0  0  0  0  0  0
   -1.7508  -11.3016   18.6072 C   0  0  0  0  0  0  0  0  0  0  0  0
    1.7497   -5.6771   26.4971 C   0  0  0  0  0  0  0  0  0  0  0  0
   -1.5799   -9.9322   18.3468 C   0  0  0  0  0  0  0  0  0  0  0  0
   -1.0871  -12.2214   17.8851 C   0  0  0  0  0  0  0  0  0  0  0  0
   -2.2706   -8.9669   19.0691 C   0  0  0  0  0  0  0  0  0  0  0  0
    3.0279   -5.3073   26.8197 C   0  0  0  0  0  0  0  0  0  0  0  0
    7.3282   -3.8948   29.1186 C   0  0  0  0  0  0  0  0  0  0  0  0
  1  3  4  0
  1  7  4  0
  2  3  1  0
  2  6  4  0
  2 16  4  0
  3 22  4  0
  4  9  4  0
  4 10  1  0
  4 20  4  0
  5 16  4  0
  5 23  4  0
  6 15  4  0
  7 12  4  0
  8 13  4  0
  8 14  4  0
  9 11  4  0
 11 14  4  0
 11 19  4  0
 12 18  4  0
 13 21  4  0
 15 23  4  0
 17 19  4  0
 17 20  4  0
 18 22  4  0
 19 21  4  0
M  END
$$$$

 Created by Python create_sdf_string function

 23 25  0  0  0  0  0  0  0  0999 V2000
    2.4610   -5.3070   29.1240 C   0  0  0  0  0  0  0  0  0  0  0  0
    4.7710   -4.6952   28.4803 C   0  0  0  0  0  0  0  0  0  0  0  0
    3.4047   -5.1087   28.1314 C   0  0  0  0  0  0  0  0  0  0  0  0
   -0.2234  -11.8615   16.8874 C   0  0  0  0  0  0  0  0  0  0  0  0
    6.4491   -4.1532   30.1213 C   0  0  0  0  0  0  0  0  0  0  0  0
    5.7060   -4.4340   27.4975 C   0  0  0  0  0  0  0  0  0  0  0  0
    1.1818   -5.6612   28.8399 C   0  0  0  0  0  0  0  0  0  0  0  0
   -1.2067   -7.3287   17.7772 C   0  0  0  0  0  0  0  0  0  0  0  0
   -0.0206  -10.5585   16.6210 C   0  0  0  0  0  0  0  0  0  0  0  0
    0.3696  -12.7626   16.2169 O   0  0  0  0  0  0  0  0  0  0  0  0
   -0.6895   -9.5676   17.3297 C   0  0  0  0  0  0  0  0  0  0  0  0
    0.8388   -5.8417   27.5264 C   0  0  0  0  0  0  0  0  0  0  0  0
   -2.0709   -7.6637   18.7817 C   0  0  0  0  0  0  0  0  0  0  0  0
   -0.5279   -8.2168   17.0717 C   0  0  0  0  0  0  0  0  0  0  0  0
    6.9694   -4.0191   27.8190 C   0  0  0  0  0  0  0  0  0  0  0  0
    5.1733   -4.5469   29.8123 C   0  0  0  0  0  0  0  0  0  0  0  0
   -1.7508  -11.3016   18.6072 C   0  0  0  0  0  0  0  0  0  0  0  0
    1.7497   -5.6771   26.4971 C   0  0  0  0  0  0  0  0  0  0  0  0
   -1.5799   -9.9322   18.3468 C   0  0  0  0  0  0  0  0  0  0  0  0
   -1.0871  -12.2214   17.8851 C   0  0  0  0  0  0  0  0  0  0  0  0
   -2.2706   -8.9669   19.0691 C   0  0  0  0  0  0  0  0  0  0  0  0
    3.0279   -5.3073   26.8197 C   0  0  0  0  0  0  0  0  0  0  0  0
    7.3282   -3.8948   29.1186 C   0  0  0  0  0  0  0  0  0  0  0  0
  1  3  4  0
  1  7  4  0
  2  3  1  0
  2  6  4  0
  2 16  4  0
  3 22  4  0
  4  9  4  0
  4 10  1  0
  4 20  4  0
  5 16  4  0
  5 23  4  0
  6 15  4  0
  7 12  4  0
  8 13  4  0
  8 14  4  0
  9 11  4  0
 11 14  4  0
 11 19  4  0
 12 18  4  0
 13 21  4  0
 15 23  4  0
 17 19  4  0
 17 20  4  0
 18 22  4  0
 19 21  4  0
M  END
$$$$

 Created by Python create_sdf_string function

 23 25  0  0  0  0  0  0  0  0999 V2000
    2.4610   -5.3070   29.1240 C   0  0  0  0  0  0  0  0  0  0  0  0
    4.7710   -4.6952   28.4803 C   0  0  0  0  0  0  0  0  0  0  0  0
    3.4047   -5.1087   28.1314 C   0  0  0  0  0  0  0  0  0  0  0  0
   -0.2234  -11.8615   16.8874 C   0  0  0  0  0  0  0  0  0  0  0  0
    6.4491   -4.1532   30.1213 C   0  0  0  0  0  0  0  0  0  0  0  0
    5.7060   -4.4340   27.4975 C   0  0  0  0  0  0  0  0  0  0  0  0
    1.1818   -5.6612   28.8399 C   0  0  0  0  0  0  0  0  0  0  0  0
   -1.2067   -7.3287   17.7772 C   0  0  0  0  0  0  0  0  0  0  0  0
   -0.0206  -10.5585   16.6210 C   0  0  0  0  0  0  0  0  0  0  0  0
    0.3696  -12.7626   16.2169 O   0  0  0  0  0  0  0  0  0  0  0  0
   -0.6895   -9.5676   17.3297 C   0  0  0  0  0  0  0  0  0  0  0  0
    0.8388   -5.8417   27.5264 C   0  0  0  0  0  0  0  0  0  0  0  0
   -2.0709   -7.6637   18.7817 C   0  0  0  0  0  0  0  0  0  0  0  0
   -0.5279   -8.2168   17.0717 C   0  0  0  0  0  0  0  0  0  0  0  0
    6.9694   -4.0191   27.8190 C   0  0  0  0  0  0  0  0  0  0  0  0
    5.1733   -4.5469   29.8123 C   0  0  0  0  0  0  0  0  0  0  0  0
   -1.7508  -11.3016   18.6072 C   0  0  0  0  0  0  0  0  0  0  0  0
    1.7497   -5.6771   26.4971 C   0  0  0  0  0  0  0  0  0  0  0  0
   -1.5799   -9.9322   18.3468 C   0  0  0  0  0  0  0  0  0  0  0  0
   -1.0871  -12.2214   17.8851 C   0  0  0  0  0  0  0  0  0  0  0  0
   -2.2706   -8.9669   19.0691 C   0  0  0  0  0  0  0  0  0  0  0  0
    3.0279   -5.3073   26.8197 C   0  0  0  0  0  0  0  0  0  0  0  0
    7.3282   -3.8948   29.1186 C   0  0  0  0  0  0  0  0  0  0  0  0
  1  3  4  0
  1  7  4  0
  2  3  1  0
  2  6  4  0
  2 16  4  0
  3 22  4  0
  4  9  4  0
  4 10  1  0
  4 20  4  0
  5 16  4  0
  5 23  4  0
  6 15  4  0
  7 12  4  0
  8 13  4  0
  8 14  4  0
  9 11  4  0
 11 14  4  0
 11 19  4  0
 12 18  4  0
 13 21  4  0
 15 23  4  0
 17 19  4  0
 17 20  4  0
 18 22  4  0
 19 21  4  0
M  END
$$$$

 Created by Python create_sdf_string function

 23 25  0  0  0  0  0  0  0  0999 V2000
    2.4610   -5.3070   29.1240 C   0  0  0  0  0  0  0  0  0  0  0  0
    4.7710   -4.6952   28.4803 C   0  0  0  0  0  0  0  0  0  0  0  0
    3.4047   -5.1087   28.1314 C   0  0  0  0  0  0  0  0  0  0  0  0
   -0.2234  -11.8615   16.8874 C   0  0  0  0  0  0  0  0  0  0  0  0
    6.4491   -4.1532   30.1213 C   0  0  0  0  0  0  0  0  0  0  0  0
    5.7060   -4.4340   27.4975 C   0  0  0  0  0  0  0  0  0  0  0  0
    1.1818   -5.6612   28.8399 C   0  0  0  0  0  0  0  0  0  0  0  0
   -1.2067   -7.3287   17.7772 C   0  0  0  0  0  0  0  0  0  0  0  0
   -0.0206  -10.5585   16.6210 C   0  0  0  0  0  0  0  0  0  0  0  0
    0.3696  -12.7626   16.2169 O   0  0  0  0  0  0  0  0  0  0  0  0
   -0.6895   -9.5676   17.3297 C   0  0  0  0  0  0  0  0  0  0  0  0
    0.8388   -5.8417   27.5264 C   0  0  0  0  0  0  0  0  0  0  0  0
   -2.0709   -7.6637   18.7817 C   0  0  0  0  0  0  0  0  0  0  0  0
   -0.5279   -8.2168   17.0717 C   0  0  0  0  0  0  0  0  0  0  0  0
    6.9694   -4.0191   27.8190 C   0  0  0  0  0  0  0  0  0  0  0  0
    5.1733   -4.5469   29.8123 C   0  0  0  0  0  0  0  0  0  0  0  0
   -1.7508  -11.3016   18.6072 C   0  0  0  0  0  0  0  0  0  0  0  0
    1.7497   -5.6771   26.4971 C   0  0  0  0  0  0  0  0  0  0  0  0
   -1.5799   -9.9322   18.3468 C   0  0  0  0  0  0  0  0  0  0  0  0
   -1.0871  -12.2214   17.8851 C   0  0  0  0  0  0  0  0  0  0  0  0
   -2.2706   -8.9669   19.0691 C   0  0  0  0  0  0  0  0  0  0  0  0
    3.0279   -5.3073   26.8197 C   0  0  0  0  0  0  0  0  0  0  0  0
    7.3282   -3.8948   29.1186 C   0  0  0  0  0  0  0  0  0  0  0  0
  1  3  4  0
  1  7  4  0
  2  3  1  0
  2  6  4  0
  2 16  4  0
  3 22  4  0
  4  9  4  0
  4 10  1  0
  4 20  4  0
  5 16  4  0
  5 23  4  0
  6 15  4  0
  7 12  4  0
  8 13  4  0
  8 14  4  0
  9 11  4  0
 11 14  4  0
 11 19  4  0
 12 18  4  0
 13 21  4  0
 15 23  4  0
 17 19  4  0
 17 20  4  0
 18 22  4  0
 19 21  4  0
M  END
$$$$

 Created by Python create_sdf_string function

 23 25  0  0  0  0  0  0  0  0999 V2000
    2.4610   -5.3070   29.1240 C   0  0  0  0  0  0  0  0  0  0  0  0
    4.7710   -4.6952   28.4803 C   0  0  0  0  0  0  0  0  0  0  0  0
    3.4047   -5.1087   28.1314 C   0  0  0  0  0  0  0  0  0  0  0  0
   -0.2234  -11.8615   16.8874 C   0  0  0  0  0  0  0  0  0  0  0  0
    6.4491   -4.1532   30.1213 C   0  0  0  0  0  0  0  0  0  0  0  0
    5.7060   -4.4340   27.4975 C   0  0  0  0  0  0  0  0  0  0  0  0
    1.1818   -5.6612   28.8399 C   0  0  0  0  0  0  0  0  0  0  0  0
   -1.2067   -7.3287   17.7772 C   0  0  0  0  0  0  0  0  0  0  0  0
   -0.0206  -10.5585   16.6210 C   0  0  0  0  0  0  0  0  0  0  0  0
    0.3696  -12.7626   16.2169 O   0  0  0  0  0  0  0  0  0  0  0  0
   -0.6895   -9.5676   17.3297 C   0  0  0  0  0  0  0  0  0  0  0  0
    0.8388   -5.8417   27.5264 C   0  0  0  0  0  0  0  0  0  0  0  0
   -2.0709   -7.6637   18.7817 C   0  0  0  0  0  0  0  0  0  0  0  0
   -0.5279   -8.2168   17.0717 C   0  0  0  0  0  0  0  0  0  0  0  0
    6.9694   -4.0191   27.8190 C   0  0  0  0  0  0  0  0  0  0  0  0
    5.1733   -4.5469   29.8123 C   0  0  0  0  0  0  0  0  0  0  0  0
   -1.7508  -11.3016   18.6072 C   0  0  0  0  0  0  0  0  0  0  0  0
    1.7497   -5.6771   26.4971 C   0  0  0  0  0  0  0  0  0  0  0  0
   -1.5799   -9.9322   18.3468 C   0  0  0  0  0  0  0  0  0  0  0  0
   -1.0871  -12.2214   17.8851 C   0  0  0  0  0  0  0  0  0  0  0  0
   -2.2706   -8.9669   19.0691 C   0  0  0  0  0  0  0  0  0  0  0  0
    3.0279   -5.3073   26.8197 C   0  0  0  0  0  0  0  0  0  0  0  0
    7.3282   -3.8948   29.1186 C   0  0  0  0  0  0  0  0  0  0  0  0
  1  3  4  0
  1  7  4  0
  2  3  1  0
  2  6  4  0
  2 16  4  0
  3 22  4  0
  4  9  4  0
  4 10  1  0
  4 20  4  0
  5 16  4  0
  5 23  4  0
  6 15  4  0
  7 12  4  0
  8 13  4  0
  8 14  4  0
  9 11  4  0
 11 14  4  0
 11 19  4  0
 12 18  4  0
 13 21  4  0
 15 23  4  0
 17 19  4  0
 17 20  4  0
 18 22  4  0
 19 21  4  0
M  END
$$$$

 Created by Python create_sdf_string function

 23 25  0  0  0  0  0  0  0  0999 V2000
    2.4610   -5.3070   29.1240 C   0  0  0  0  0  0  0  0  0  0  0  0
    4.7710   -4.6952   28.4803 C   0  0  0  0  0  0  0  0  0  0  0  0
    3.4047   -5.1087   28.1314 C   0  0  0  0  0  0  0  0  0  0  0  0
   -0.2234  -11.8615   16.8874 C   0  0  0  0  0  0  0  0  0  0  0  0
    6.4491   -4.1532   30.1213 C   0  0  0  0  0  0  0  0  0  0  0  0
    5.7060   -4.4340   27.4975 C   0  0  0  0  0  0  0  0  0  0  0  0
    1.1818   -5.6612   28.8399 C   0  0  0  0  0  0  0  0  0  0  0  0
   -1.2067   -7.3287   17.7772 C   0  0  0  0  0  0  0  0  0  0  0  0
   -0.0206  -10.5585   16.6210 C   0  0  0  0  0  0  0  0  0  0  0  0
    0.3696  -12.7626   16.2169 O   0  0  0  0  0  0  0  0  0  0  0  0
   -0.6895   -9.5676   17.3297 C   0  0  0  0  0  0  0  0  0  0  0  0
    0.8388   -5.8417   27.5264 C   0  0  0  0  0  0  0  0  0  0  0  0
   -2.0709   -7.6637   18.7817 C   0  0  0  0  0  0  0  0  0  0  0  0
   -0.5279   -8.2168   17.0717 C   0  0  0  0  0  0  0  0  0  0  0  0
    6.9694   -4.0191   27.8190 C   0  0  0  0  0  0  0  0  0  0  0  0
    5.1733   -4.5469   29.8123 C   0  0  0  0  0  0  0  0  0  0  0  0
   -1.7508  -11.3016   18.6072 C   0  0  0  0  0  0  0  0  0  0  0  0
    1.7497   -5.6771   26.4971 C   0  0  0  0  0  0  0  0  0  0  0  0
   -1.5799   -9.9322   18.3468 C   0  0  0  0  0  0  0  0  0  0  0  0
   -1.0871  -12.2214   17.8851 C   0  0  0  0  0  0  0  0  0  0  0  0
   -2.2706   -8.9669   19.0691 C   0  0  0  0  0  0  0  0  0  0  0  0
    3.0279   -5.3073   26.8197 C   0  0  0  0  0  0  0  0  0  0  0  0
    7.3282   -3.8948   29.1186 C   0  0  0  0  0  0  0  0  0  0  0  0
  1  3  4  0
  1  7  4  0
  2  3  1  0
  2  6  4  0
  2 16  4  0
  3 22  4  0
  4  9  4  0
  4 10  1  0
  4 20  4  0
  5 16  4  0
  5 23  4  0
  6 15  4  0
  7 12  4  0
  8 13  4  0
  8 14  4  0
  9 11  4  0
 11 14  4  0
 11 19  4  0
 12 18  4  0
 13 21  4  0
 15 23  4  0
 17 19  4  0
 17 20  4  0
 18 22  4  0
 19 21  4  0
M  END
$$$$

 Created by Python create_sdf_string function

 23 25  0  0  0  0  0  0  0  0999 V2000
    2.4610   -5.3070   29.1240 C   0  0  0  0  0  0  0  0  0  0  0  0
    4.7710   -4.6952   28.4803 C   0  0  0  0  0  0  0  0  0  0  0  0
    3.4047   -5.1087   28.1314 C   0  0  0  0  0  0  0  0  0  0  0  0
   -0.2234  -11.8615   16.8874 C   0  0  0  0  0  0  0  0  0  0  0  0
    6.4491   -4.1532   30.1213 C   0  0  0  0  0  0  0  0  0  0  0  0
    5.7060   -4.4340   27.4975 C   0  0  0  0  0  0  0  0  0  0  0  0
    1.1818   -5.6612   28.8399 C   0  0  0  0  0  0  0  0  0  0  0  0
   -1.2067   -7.3287   17.7772 C   0  0  0  0  0  0  0  0  0  0  0  0
   -0.0206  -10.5585   16.6210 C   0  0  0  0  0  0  0  0  0  0  0  0
    0.3696  -12.7626   16.2169 O   0  0  0  0  0  0  0  0  0  0  0  0
   -0.6895   -9.5676   17.3297 C   0  0  0  0  0  0  0  0  0  0  0  0
    0.8388   -5.8417   27.5264 C   0  0  0  0  0  0  0  0  0  0  0  0
   -2.0709   -7.6637   18.7817 C   0  0  0  0  0  0  0  0  0  0  0  0
   -0.5279   -8.2168   17.0717 C   0  0  0  0  0  0  0  0  0  0  0  0
    6.9694   -4.0191   27.8190 C   0  0  0  0  0  0  0  0  0  0  0  0
    5.1733   -4.5469   29.8123 C   0  0  0  0  0  0  0  0  0  0  0  0
   -1.7508  -11.3016   18.6072 C   0  0  0  0  0  0  0  0  0  0  0  0
    1.7497   -5.6771   26.4971 C   0  0  0  0  0  0  0  0  0  0  0  0
   -1.5799   -9.9322   18.3468 C   0  0  0  0  0  0  0  0  0  0  0  0
   -1.0871  -12.2214   17.8851 C   0  0  0  0  0  0  0  0  0  0  0  0
   -2.2706   -8.9669   19.0691 C   0  0  0  0  0  0  0  0  0  0  0  0
    3.0279   -5.3073   26.8197 C   0  0  0  0  0  0  0  0  0  0  0  0
    7.3282   -3.8948   29.1186 C   0  0  0  0  0  0  0  0  0  0  0  0
  1  3  4  0
  1  7  4  0
  2  3  1  0
  2  6  4  0
  2 16  4  0
  3 22  4  0
  4  9  4  0
  4 10  1  0
  4 20  4  0
  5 16  4  0
  5 23  4  0
  6 15  4  0
  7 12  4  0
  8 13  4  0
  8 14  4  0
  9 11  4  0
 11 14  4  0
 11 19  4  0
 12 18  4  0
 13 21  4  0
 15 23  4  0
 17 19  4  0
 17 20  4  0
 18 22  4  0
 19 21  4  0
M  END
$$$$

 Created by Python create_sdf_string function

 23 25  0  0  0  0  0  0  0  0999 V2000
    2.4610   -5.3070   29.1240 C   0  0  0  0  0  0  0  0  0  0  0  0
    4.7710   -4.6952   28.4803 C   0  0  0  0  0  0  0  0  0  0  0  0
    3.4047   -5.1087   28.1314 C   0  0  0  0  0  0  0  0  0  0  0  0
   -0.2234  -11.8615   16.8874 C   0  0  0  0  0  0  0  0  0  0  0  0
    6.4491   -4.1532   30.1213 C   0  0  0  0  0  0  0  0  0  0  0  0
    5.7060   -4.4340   27.4975 C   0  0  0  0  0  0  0  0  0  0  0  0
    1.1818   -5.6612   28.8399 C   0  0  0  0  0  0  0  0  0  0  0  0
   -1.2067   -7.3287   17.7772 C   0  0  0  0  0  0  0  0  0  0  0  0
   -0.0206  -10.5585   16.6210 C   0  0  0  0  0  0  0  0  0  0  0  0
    0.3696  -12.7626   16.2169 O   0  0  0  0  0  0  0  0  0  0  0  0
   -0.6895   -9.5676   17.3297 C   0  0  0  0  0  0  0  0  0  0  0  0
    0.8388   -5.8417   27.5264 C   0  0  0  0  0  0  0  0  0  0  0  0
   -2.0709   -7.6637   18.7817 C   0  0  0  0  0  0  0  0  0  0  0  0
   -0.5279   -8.2168   17.0717 C   0  0  0  0  0  0  0  0  0  0  0  0
    6.9694   -4.0191   27.8190 C   0  0  0  0  0  0  0  0  0  0  0  0
    5.1733   -4.5469   29.8123 C   0  0  0  0  0  0  0  0  0  0  0  0
   -1.7508  -11.3016   18.6072 C   0  0  0  0  0  0  0  0  0  0  0  0
    1.7497   -5.6771   26.4971 C   0  0  0  0  0  0  0  0  0  0  0  0
   -1.5799   -9.9322   18.3468 C   0  0  0  0  0  0  0  0  0  0  0  0
   -1.0871  -12.2214   17.8851 C   0  0  0  0  0  0  0  0  0  0  0  0
   -2.2706   -8.9669   19.0691 C   0  0  0  0  0  0  0  0  0  0  0  0
    3.0279   -5.3073   26.8197 C   0  0  0  0  0  0  0  0  0  0  0  0
    7.3282   -3.8948   29.1186 C   0  0  0  0  0  0  0  0  0  0  0  0
  1  3  4  0
  1  7  4  0
  2  3  1  0
  2  6  4  0
  2 16  4  0
  3 22  4  0
  4  9  4  0
  4 10  1  0
  4 20  4  0
  5 16  4  0
  5 23  4  0
  6 15  4  0
  7 12  4  0
  8 13  4  0
  8 14  4  0
  9 11  4  0
 11 14  4  0
 11 19  4  0
 12 18  4  0
 13 21  4  0
 15 23  4  0
 17 19  4  0
 17 20  4  0
 18 22  4  0
 19 21  4  0
M  END
$$$$

 Created by Python create_sdf_string function

 23 25  0  0  0  0  0  0  0  0999 V2000
    2.4610   -5.3070   29.1240 C   0  0  0  0  0  0  0  0  0  0  0  0
    4.7710   -4.6952   28.4803 C   0  0  0  0  0  0  0  0  0  0  0  0
    3.4047   -5.1087   28.1314 C   0  0  0  0  0  0  0  0  0  0  0  0
   -0.2234  -11.8615   16.8874 C   0  0  0  0  0  0  0  0  0  0  0  0
    6.4491   -4.1532   30.1213 C   0  0  0  0  0  0  0  0  0  0  0  0
    5.7060   -4.4340   27.4975 C   0  0  0  0  0  0  0  0  0  0  0  0
    1.1818   -5.6612   28.8399 C   0  0  0  0  0  0  0  0  0  0  0  0
   -1.2067   -7.3287   17.7772 C   0  0  0  0  0  0  0  0  0  0  0  0
   -0.0206  -10.5585   16.6210 C   0  0  0  0  0  0  0  0  0  0  0  0
    0.3696  -12.7626   16.2169 O   0  0  0  0  0  0  0  0  0  0  0  0
   -0.6895   -9.5676   17.3297 C   0  0  0  0  0  0  0  0  0  0  0  0
    0.8388   -5.8417   27.5264 C   0  0  0  0  0  0  0  0  0  0  0  0
   -2.0709   -7.6637   18.7817 C   0  0  0  0  0  0  0  0  0  0  0  0
   -0.5279   -8.2168   17.0717 C   0  0  0  0  0  0  0  0  0  0  0  0
    6.9694   -4.0191   27.8190 C   0  0  0  0  0  0  0  0  0  0  0  0
    5.1733   -4.5469   29.8123 C   0  0  0  0  0  0  0  0  0  0  0  0
   -1.7508  -11.3016   18.6072 C   0  0  0  0  0  0  0  0  0  0  0  0
    1.7497   -5.6771   26.4971 C   0  0  0  0  0  0  0  0  0  0  0  0
   -1.5799   -9.9322   18.3468 C   0  0  0  0  0  0  0  0  0  0  0  0
   -1.0871  -12.2214   17.8851 C   0  0  0  0  0  0  0  0  0  0  0  0
   -2.2706   -8.9669   19.0691 C   0  0  0  0  0  0  0  0  0  0  0  0
    3.0279   -5.3073   26.8197 C   0  0  0  0  0  0  0  0  0  0  0  0
    7.3282   -3.8948   29.1186 C   0  0  0  0  0  0  0  0  0  0  0  0
  1  3  4  0
  1  7  4  0
  2  3  1  0
  2  6  4  0
  2 16  4  0
  3 22  4  0
  4  9  4  0
  4 10  1  0
  4 20  4  0
  5 16  4  0
  5 23  4  0
  6 15  4  0
  7 12  4  0
  8 13  4  0
  8 14  4  0
  9 11  4  0
 11 14  4  0
 11 19  4  0
 12 18  4  0
 13 21  4  0
 15 23  4  0
 17 19  4  0
 17 20  4  0
 18 22  4  0
 19 21  4  0
M  END
$$$$

 Created by Python create_sdf_string function

 23 25  0  0  0  0  0  0  0  0999 V2000
    2.4610   -5.3070   29.1240 C   0  0  0  0  0  0  0  0  0  0  0  0
    4.7710   -4.6952   28.4803 C   0  0  0  0  0  0  0  0  0  0  0  0
    3.4047   -5.1087   28.1314 C   0  0  0  0  0  0  0  0  0  0  0  0
   -0.2234  -11.8615   16.8874 C   0  0  0  0  0  0  0  0  0  0  0  0
    6.4491   -4.1532   30.1213 C   0  0  0  0  0  0  0  0  0  0  0  0
    5.7060   -4.4340   27.4975 C   0  0  0  0  0  0  0  0  0  0  0  0
    1.1818   -5.6612   28.8399 C   0  0  0  0  0  0  0  0  0  0  0  0
   -1.2067   -7.3287   17.7772 C   0  0  0  0  0  0  0  0  0  0  0  0
   -0.0206  -10.5585   16.6210 C   0  0  0  0  0  0  0  0  0  0  0  0
    0.3696  -12.7626   16.2169 O   0  0  0  0  0  0  0  0  0  0  0  0
   -0.6895   -9.5676   17.3297 C   0  0  0  0  0  0  0  0  0  0  0  0
    0.8388   -5.8417   27.5264 C   0  0  0  0  0  0  0  0  0  0  0  0
   -2.0709   -7.6637   18.7817 C   0  0  0  0  0  0  0  0  0  0  0  0
   -0.5279   -8.2168   17.0717 C   0  0  0  0  0  0  0  0  0  0  0  0
    6.9694   -4.0191   27.8190 C   0  0  0  0  0  0  0  0  0  0  0  0
    5.1733   -4.5469   29.8123 C   0  0  0  0  0  0  0  0  0  0  0  0
   -1.7508  -11.3016   18.6072 C   0  0  0  0  0  0  0  0  0  0  0  0
    1.7497   -5.6771   26.4971 C   0  0  0  0  0  0  0  0  0  0  0  0
   -1.5799   -9.9322   18.3468 C   0  0  0  0  0  0  0  0  0  0  0  0
   -1.0871  -12.2214   17.8851 C   0  0  0  0  0  0  0  0  0  0  0  0
   -2.2706   -8.9669   19.0691 C   0  0  0  0  0  0  0  0  0  0  0  0
    3.0279   -5.3073   26.8197 C   0  0  0  0  0  0  0  0  0  0  0  0
    7.3282   -3.8948   29.1186 C   0  0  0  0  0  0  0  0  0  0  0  0
  1  3  4  0
  1  7  4  0
  2  3  1  0
  2  6  4  0
  2 16  4  0
  3 22  4  0
  4  9  4  0
  4 10  1  0
  4 20  4  0
  5 16  4  0
  5 23  4  0
  6 15  4  0
  7 12  4  0
  8 13  4  0
  8 14  4  0
  9 11  4  0
 11 14  4  0
 11 19  4  0
 12 18  4  0
 13 21  4  0
 15 23  4  0
 17 19  4  0
 17 20  4  0
 18 22  4  0
 19 21  4  0
M  END
$$$$

 Created by Python create_sdf_string function

 23 25  0  0  0  0  0  0  0  0999 V2000
    2.4610   -5.3070   29.1240 C   0  0  0  0  0  0  0  0  0  0  0  0
    4.7710   -4.6952   28.4803 C   0  0  0  0  0  0  0  0  0  0  0  0
    3.4047   -5.1087   28.1314 C   0  0  0  0  0  0  0  0  0  0  0  0
   -0.2234  -11.8615   16.8874 C   0  0  0  0  0  0  0  0  0  0  0  0
    6.4491   -4.1532   30.1213 C   0  0  0  0  0  0  0  0  0  0  0  0
    5.7060   -4.4340   27.4975 C   0  0  0  0  0  0  0  0  0  0  0  0
    1.1818   -5.6612   28.8399 C   0  0  0  0  0  0  0  0  0  0  0  0
   -1.2067   -7.3287   17.7772 C   0  0  0  0  0  0  0  0  0  0  0  0
   -0.0206  -10.5585   16.6210 C   0  0  0  0  0  0  0  0  0  0  0  0
    0.3696  -12.7626   16.2169 O   0  0  0  0  0  0  0  0  0  0  0  0
   -0.6895   -9.5676   17.3297 C   0  0  0  0  0  0  0  0  0  0  0  0
    0.8388   -5.8417   27.5264 C   0  0  0  0  0  0  0  0  0  0  0  0
   -2.0709   -7.6637   18.7817 C   0  0  0  0  0  0  0  0  0  0  0  0
   -0.5279   -8.2168   17.0717 C   0  0  0  0  0  0  0  0  0  0  0  0
    6.9694   -4.0191   27.8190 C   0  0  0  0  0  0  0  0  0  0  0  0
    5.1733   -4.5469   29.8123 C   0  0  0  0  0  0  0  0  0  0  0  0
   -1.7508  -11.3016   18.6072 C   0  0  0  0  0  0  0  0  0  0  0  0
    1.7497   -5.6771   26.4971 C   0  0  0  0  0  0  0  0  0  0  0  0
   -1.5799   -9.9322   18.3468 C   0  0  0  0  0  0  0  0  0  0  0  0
   -1.0871  -12.2214   17.8851 C   0  0  0  0  0  0  0  0  0  0  0  0
   -2.2706   -8.9669   19.0691 C   0  0  0  0  0  0  0  0  0  0  0  0
    3.0279   -5.3073   26.8197 C   0  0  0  0  0  0  0  0  0  0  0  0
    7.3282   -3.8948   29.1186 C   0  0  0  0  0  0  0  0  0  0  0  0
  1  3  4  0
  1  7  4  0
  2  3  1  0
  2  6  4  0
  2 16  4  0
  3 22  4  0
  4  9  4  0
  4 10  1  0
  4 20  4  0
  5 16  4  0
  5 23  4  0
  6 15  4  0
  7 12  4  0
  8 13  4  0
  8 14  4  0
  9 11  4  0
 11 14  4  0
 11 19  4  0
 12 18  4  0
 13 21  4  0
 15 23  4  0
 17 19  4  0
 17 20  4  0
 18 22  4  0
 19 21  4  0
M  END
$$$$

 Created by Python create_sdf_string function

 23 25  0  0  0  0  0  0  0  0999 V2000
    2.4610   -5.3070   29.1240 C   0  0  0  0  0  0  0  0  0  0  0  0
    4.7710   -4.6952   28.4803 C   0  0  0  0  0  0  0  0  0  0  0  0
    3.4047   -5.1087   28.1314 C   0  0  0  0  0  0  0  0  0  0  0  0
   -0.2234  -11.8615   16.8874 C   0  0  0  0  0  0  0  0  0  0  0  0
    6.4491   -4.1532   30.1213 C   0  0  0  0  0  0  0  0  0  0  0  0
    5.7060   -4.4340   27.4975 C   0  0  0  0  0  0  0  0  0  0  0  0
    1.1818   -5.6612   28.8399 C   0  0  0  0  0  0  0  0  0  0  0  0
   -1.2067   -7.3287   17.7772 C   0  0  0  0  0  0  0  0  0  0  0  0
   -0.0206  -10.5585   16.6210 C   0  0  0  0  0  0  0  0  0  0  0  0
    0.3696  -12.7626   16.2169 O   0  0  0  0  0  0  0  0  0  0  0  0
   -0.6895   -9.5676   17.3297 C   0  0  0  0  0  0  0  0  0  0  0  0
    0.8388   -5.8417   27.5264 C   0  0  0  0  0  0  0  0  0  0  0  0
   -2.0709   -7.6637   18.7817 C   0  0  0  0  0  0  0  0  0  0  0  0
   -0.5279   -8.2168   17.0717 C   0  0  0  0  0  0  0  0  0  0  0  0
    6.9694   -4.0191   27.8190 C   0  0  0  0  0  0  0  0  0  0  0  0
    5.1733   -4.5469   29.8123 C   0  0  0  0  0  0  0  0  0  0  0  0
   -1.7508  -11.3016   18.6072 C   0  0  0  0  0  0  0  0  0  0  0  0
    1.7497   -5.6771   26.4971 C   0  0  0  0  0  0  0  0  0  0  0  0
   -1.5799   -9.9322   18.3468 C   0  0  0  0  0  0  0  0  0  0  0  0
   -1.0871  -12.2214   17.8851 C   0  0  0  0  0  0  0  0  0  0  0  0
   -2.2706   -8.9669   19.0691 C   0  0  0  0  0  0  0  0  0  0  0  0
    3.0279   -5.3073   26.8197 C   0  0  0  0  0  0  0  0  0  0  0  0
    7.3282   -3.8948   29.1186 C   0  0  0  0  0  0  0  0  0  0  0  0
  1  3  4  0
  1  7  4  0
  2  3  1  0
  2  6  4  0
  2 16  4  0
  3 22  4  0
  4  9  4  0
  4 10  1  0
  4 20  4  0
  5 16  4  0
  5 23  4  0
  6 15  4  0
  7 12  4  0
  8 13  4  0
  8 14  4  0
  9 11  4  0
 11 14  4  0
 11 19  4  0
 12 18  4  0
 13 21  4  0
 15 23  4  0
 17 19  4  0
 17 20  4  0
 18 22  4  0
 19 21  4  0
M  END
