
 Created by Python create_sdf_string function

 29 28  0  0  0  0  0  0  0  0999 V2000
    8.2823   -7.9991   15.8718 Se  0  0  0  0  0  0  0  0  0  0  0  0
    6.3814   -8.3555   18.6397 F   0  0  0  0  0  0  0  0  0  0  0  0
    7.2472   -8.4938   15.6322 S   0  0  0  0  0  0  0  0  0  0  0  0
    8.4620   -6.9107   16.9551 N   0  0  0  0  0  0  0  0  0  0  0  0
    8.2051   -7.2646   16.5467 P   0  0  0  0  0  0  0  0  0  0  0  0
    8.9245   -7.9477   16.2140 C   0  0  0  0  0  0  0  0  0  0  0  0
    7.9528   -8.4833   17.1941 S   0  0  0  0  0  0  0  0  0  0  0  0
    7.8099   -7.9600   16.5777 F   0  0  0  0  0  0  0  0  0  0  0  0
    6.2637   -7.8155   17.3336 N   0  0  0  0  0  0  0  0  0  0  0  0
    8.3573   -5.9261   16.9348 C   0  0  0  0  0  0  0  0  0  0  0  0
    8.1689  -10.4543   19.2788 S   0  0  0  0  0  0  0  0  0  0  0  0
    8.1694   -7.7694   17.1699 N   0  0  0  0  0  0  0  0  0  0  0  0
    7.0509   -6.7988   15.7667 He  0  0  0  0  0  0  0  0  0  0  0  0
    8.0679   -8.4955   17.3652 He  0  0  0  0  0  0  0  0  0  0  0  0
    7.1471   -8.4125   17.6107 He  0  0  0  0  0  0  0  0  0  0  0  0
    8.0949   -8.0425   17.6666 He  0  0  0  0  0  0  0  0  0  0  0  0
    8.0365   -7.6656   16.0178 He  0  0  0  0  0  0  0  0  0  0  0  0
    7.4240   -8.8645   16.6076 He  0  0  0  0  0  0  0  0  0  0  0  0
    7.7664   -8.7889   17.6245 He  0  0  0  0  0  0  0  0  0  0  0  0
    8.1369   -9.3129   16.1764 He  0  0  0  0  0  0  0  0  0  0  0  0
    7.0347   -6.6521   16.7542 He  0  0  0  0  0  0  0  0  0  0  0  0
    9.6593   -7.8467   17.5315 He  0  0  0  0  0  0  0  0  0  0  0  0
    8.2964   -7.4676   18.3707 He  0  0  0  0  0  0  0  0  0  0  0  0
    6.6413   -7.9909   16.8207 He  0  0  0  0  0  0  0  0  0  0  0  0
    8.8234   -8.4647   17.1733 He  0  0  0  0  0  0  0  0  0  0  0  0
    7.5441   -8.4208   15.6584 He  0  0  0  0  0  0  0  0  0  0  0  0
    7.7413   -6.1896   17.7778 He  0  0  0  0  0  0  0  0  0  0  0  0
    7.2549   -7.5136   17.6676 He  0  0  0  0  0  0  0  0  0  0  0  0
    7.2352   -8.7300   17.5440 He  0  0  0  0  0  0  0  0  0  0  0  0
  1  3  4  0
  1  4  1  0
  1 11  4  0
  2  4  2  0
  2  5  3  0
  2  9  2  0
  2 10  2  0
  2 12  4  0
  3  4  1  0
  3  8  1  0
  3 11  3  0
  4  5  2  0
  4  6  3  0
  4  7  3  0
  4  8  4  0
  4  9  1  0
  4 11  4  0
  5  9  4  0
  6  7  2  0
  6  8  1  0
  6  9  4  0
  6 10  3  0
  6 12  4  0
  8  9  4  0
  8 10  4  0
  8 11  3  0
 10 12  3  0
 11 12  3  0
M  END
$$$$

 Created by Python create_sdf_string function

 29 35  0  0  0  0  0  0  0  0999 V2000
    5.6564   -8.1101   17.5793 S   0  0  0  0  0  0  0  0  0  0  0  0
    5.1821   -8.4178   14.7074 C   0  0  0  0  0  0  0  0  0  0  0  0
    9.6395   -4.5380   17.0018 S   0  0  0  0  0  0  0  0  0  0  0  0
    8.2017   -5.2999   17.7065 O   0  0  0  0  0  0  0  0  0  0  0  0
    6.6384  -10.0302   16.6086 N   0  0  0  0  0  0  0  0  0  0  0  0
    8.6642   -7.2526   17.3428 N   0  0  0  0  0  0  0  0  0  0  0  0
    6.8447  -10.6415   17.2655 P   0  0  0  0  0  0  0  0  0  0  0  0
    8.0129   -8.1877   20.0549 N   0  0  0  0  0  0  0  0  0  0  0  0
    6.7618   -8.8399   14.7203 O   0  0  0  0  0  0  0  0  0  0  0  0
    8.9976   -5.3656   20.4445 C   0  0  0  0  0  0  0  0  0  0  0  0
    8.2759   -5.3461   19.7946 F   0  0  0  0  0  0  0  0  0  0  0  0
    9.6591   -8.5097   16.9347 O   0  0  0  0  0  0  0  0  0  0  0  0
    9.1417   -7.4663   18.5233 C   0  0  0  0  0  0  0  0  0  0  0  0
    8.9063   -7.5133   17.3506 F   0  0  0  0  0  0  0  0  0  0  0  0
    4.4707   -9.8939   18.6690 C   0  0  0  0  0  0  0  0  0  0  0  0
    7.5584  -10.5453   15.1704 He  0  0  0  0  0  0  0  0  0  0  0  0
    6.2276   -5.3663   14.9350 He  0  0  0  0  0  0  0  0  0  0  0  0
    8.7912   -8.1870   17.4198 He  0  0  0  0  0  0  0  0  0  0  0  0
    6.5371   -9.5369   16.5907 He  0  0  0  0  0  0  0  0  0  0  0  0
    7.7643   -6.0864   16.8458 He  0  0  0  0  0  0  0  0  0  0  0  0
    6.6970  -10.0670   18.5185 He  0  0  0  0  0  0  0  0  0  0  0  0
    8.0180   -7.6048   16.7089 He  0  0  0  0  0  0  0  0  0  0  0  0
    2.9940   -6.7020   18.3406 He  0  0  0  0  0  0  0  0  0  0  0  0
    8.5142   -7.1386   16.8864 He  0  0  0  0  0  0  0  0  0  0  0  0
   10.0255   -2.4994   17.2144 He  0  0  0  0  0  0  0  0  0  0  0  0
    4.7827   -8.7514   16.2174 He  0  0  0  0  0  0  0  0  0  0  0  0
    7.1969   -7.9174   14.5752 He  0  0  0  0  0  0  0  0  0  0  0  0
    8.0442   -9.1456   18.3855 He  0  0  0  0  0  0  0  0  0  0  0  0
    6.5634   -5.9765   16.8958 He  0  0  0  0  0  0  0  0  0  0  0  0
  1  4  2  0
  1  8  1  0
  1 10  2  0
  1 12  4  0
  1 14  3  0
  2  3  1  0
  2  5  4  0
  2  6  4  0
  2  7  3  0
  2  9  4  0
  2 13  4  0
  2 14  2  0
  3  4  1  0
  3 10  3  0
  3 14  2  0
  3 15  1  0
  4  7  3  0
  4 10  3  0
  4 11  2  0
  4 14  3  0
  5 12  2  0
  5 13  3  0
  5 14  4  0
  6  8  2  0
  6 11  4  0
  6 13  2  0
  6 15  4  0
  7  8  2  0
  7 10  4  0
  8  9  1  0
  8 10  2  0
  9 11  2  0
  9 13  3  0
 10 12  2  0
 13 15  3  0
M  END
$$$$

 Created by Python create_sdf_string function

 29 30  0  0  0  0  0  0  0  0999 V2000
    7.9437  -10.4593   16.0433 O   0  0  0  0  0  0  0  0  0  0  0  0
    4.1618   -8.1723   17.0719 P   0  0  0  0  0  0  0  0  0  0  0  0
    5.8597   -7.0413   15.3623 O   0  0  0  0  0  0  0  0  0  0  0  0
    6.0469   -6.0136   15.3153 B   0  0  0  0  0  0  0  0  0  0  0  0
    9.9379   -7.4676   17.5592 F   0  0  0  0  0  0  0  0  0  0  0  0
    9.4233   -5.3295   16.1807 C   0  0  0  0  0  0  0  0  0  0  0  0
   10.4604   -4.9709   17.1930 B   0  0  0  0  0  0  0  0  0  0  0  0
    5.2467   -8.8597   19.0584 N   0  0  0  0  0  0  0  0  0  0  0  0
    6.6536   -9.9218   17.7477 S   0  0  0  0  0  0  0  0  0  0  0  0
    8.4465   -6.8455   17.1341 P   0  0  0  0  0  0  0  0  0  0  0  0
    5.1713   -8.2237   16.0718 C   0  0  0  0  0  0  0  0  0  0  0  0
    9.3632   -7.6331   17.0732 Br  0  0  0  0  0  0  0  0  0  0  0  0
    8.4195   -4.8052   18.2608 S   0  0  0  0  0  0  0  0  0  0  0  0
    5.6747   -6.8298   17.5616 N   0  0  0  0  0  0  0  0  0  0  0  0
    5.2558   -8.9280   15.3328 He  0  0  0  0  0  0  0  0  0  0  0  0
    8.8964   -7.1229   15.9717 He  0  0  0  0  0  0  0  0  0  0  0  0
    5.7495  -10.9319   16.4852 He  0  0  0  0  0  0  0  0  0  0  0  0
   10.1340   -6.8366   19.2305 He  0  0  0  0  0  0  0  0  0  0  0  0
    8.3482   -8.3368   20.0688 He  0  0  0  0  0  0  0  0  0  0  0  0
    6.4743  -10.4343   14.6031 He  0  0  0  0  0  0  0  0  0  0  0  0
    8.8303   -7.4414   17.8774 He  0  0  0  0  0  0  0  0  0  0  0  0
    5.9616   -8.5788   18.2645 He  0  0  0  0  0  0  0  0  0  0  0  0
   10.7995   -5.2903   19.4028 He  0  0  0  0  0  0  0  0  0  0  0  0
   10.7212   -3.6752   19.1566 He  0  0  0  0  0  0  0  0  0  0  0  0
   11.3580   -1.8380   16.7386 He  0  0  0  0  0  0  0  0  0  0  0  0
    8.9017   -8.6822   16.1388 He  0  0  0  0  0  0  0  0  0  0  0  0
    9.0839   -7.4648   14.8991 He  0  0  0  0  0  0  0  0  0  0  0  0
    4.8206   -8.7222   17.3068 He  0  0  0  0  0  0  0  0  0  0  0  0
    3.3266   -9.4745   19.0438 He  0  0  0  0  0  0  0  0  0  0  0  0
  1  3  1  0
  1  4  3  0
  1  8  1  0
  2  3  2  0
  2  6  3  0
  2 10  2  0
  2 11  1  0
  3  4  2  0
  3  9  1  0
  3 12  4  0
  3 13  3  0
  4 10  3  0
  4 11  2  0
  5  8  1  0
  5 10  4  0
  5 12  1  0
  5 14  2  0
  6 13  4  0
  7  8  3  0
  7  9  1  0
  7 10  4  0
  8 11  2  0
  8 12  3  0
  8 13  1  0
  8 14  3  0
  9 10  4  0
  9 11  1  0
 10 14  2  0
 11 12  2  0
 11 13  2  0
M  END
$$$$

 Created by Python create_sdf_string function

 29 41  0  0  0  0  0  0  0  0999 V2000
    6.2017  -10.1791   16.1833 F   0  0  0  0  0  0  0  0  0  0  0  0
    2.8919   -8.1611   16.5232 O   0  0  0  0  0  0  0  0  0  0  0  0
    5.3349   -5.7941   16.2761 C   0  0  0  0  0  0  0  0  0  0  0  0
    5.9661   -6.6230   14.1436 P   0  0  0  0  0  0  0  0  0  0  0  0
    8.7476   -6.3856   20.2873 O   0  0  0  0  0  0  0  0  0  0  0  0
    9.5795   -4.0846   17.2696 Cl  0  0  0  0  0  0  0  0  0  0  0  0
    8.0824   -6.8392   15.5701 F   0  0  0  0  0  0  0  0  0  0  0  0
    5.9081  -10.3577   16.8659 C   0  0  0  0  0  0  0  0  0  0  0  0
    9.6537   -6.1509   17.8165 O   0  0  0  0  0  0  0  0  0  0  0  0
    8.4236   -6.2422   18.1684 Cl  0  0  0  0  0  0  0  0  0  0  0  0
    6.0339   -8.9879   18.4724 Br  0  0  0  0  0  0  0  0  0  0  0  0
   11.0715   -4.5795   17.8103 Se  0  0  0  0  0  0  0  0  0  0  0  0
    5.0160   -9.3108   16.8920 N   0  0  0  0  0  0  0  0  0  0  0  0
    9.4431   -7.9195   16.6837 N   0  0  0  0  0  0  0  0  0  0  0  0
    7.3107   -9.1251   15.6878 C   0  0  0  0  0  0  0  0  0  0  0  0
    8.5500   -7.6725   17.3392 C   0  0  0  0  0  0  0  0  0  0  0  0
    4.5083   -9.9291   16.9478 F   0  0  0  0  0  0  0  0  0  0  0  0
    4.6817   -9.6580   15.4996 He  0  0  0  0  0  0  0  0  0  0  0  0
   10.2897   -5.9689   16.6438 He  0  0  0  0  0  0  0  0  0  0  0  0
    5.6287   -9.3531   18.6637 He  0  0  0  0  0  0  0  0  0  0  0  0
    6.4142   -9.9773   18.1477 He  0  0  0  0  0  0  0  0  0  0  0  0
    9.1013   -8.1341   18.6356 He  0  0  0  0  0  0  0  0  0  0  0  0
    6.0409   -8.8417   14.9956 He  0  0  0  0  0  0  0  0  0  0  0  0
    8.1455   -6.2155   17.9629 He  0  0  0  0  0  0  0  0  0  0  0  0
   11.0641   -5.3394   18.1084 He  0  0  0  0  0  0  0  0  0  0  0  0
   10.8064   -4.4526   19.0294 He  0  0  0  0  0  0  0  0  0  0  0  0
    8.8040   -5.1316   17.9961 He  0  0  0  0  0  0  0  0  0  0  0  0
    4.9812   -7.7717   16.5535 He  0  0  0  0  0  0  0  0  0  0  0  0
    4.0100  -11.7338   17.9655 He  0  0  0  0  0  0  0  0  0  0  0  0
  1  3  3  0
  1  7  4  0
  1  8  3  0
  2  9  1  0
  2 12  2  0
  2 16  4  0
  3  5  2  0
  3  6  4  0
  3  8  2  0
  3 10  2  0
  3 15  4  0
  3 16  4  0
  4  6  2  0
  4  9  4  0
  4 11  3  0
  4 13  1  0
  4 16  2  0
  5  6  2  0
  5  7  2  0
  5 13  4  0
  5 15  3  0
  5 16  2  0
  6  7  4  0
  6 12  4  0
  7 10  4  0
  7 14  4  0
  8  9  1  0
  8 17  4  0
  9 10  2  0
  9 14  1  0
 10 12  3  0
 10 13  2  0
 10 15  3  0
 11 13  3  0
 11 14  1  0
 11 16  3  0
 12 14  3  0
 12 17  1  0
 14 16  4  0
 15 16  3  0
 16 17  1  0
M  END
$$$$

 Created by Python create_sdf_string function

 29 39  0  0  0  0  0  0  0  0999 V2000
    3.0453   -9.0318   17.7382 S   0  0  0  0  0  0  0  0  0  0  0  0
   10.0768   -5.8007   20.1627 O   0  0  0  0  0  0  0  0  0  0  0  0
   10.3328   -3.0997   18.2392 C   0  0  0  0  0  0  0  0  0  0  0  0
    5.6502   -9.7876   17.9385 S   0  0  0  0  0  0  0  0  0  0  0  0
    7.2366   -8.8724   15.7304 S   0  0  0  0  0  0  0  0  0  0  0  0
    6.2430   -8.2266   16.9462 C   0  0  0  0  0  0  0  0  0  0  0  0
    4.0767   -7.6646   15.3776 N   0  0  0  0  0  0  0  0  0  0  0  0
    8.5871   -5.4276   16.3237 N   0  0  0  0  0  0  0  0  0  0  0  0
    6.4649   -8.7840   19.8618 P   0  0  0  0  0  0  0  0  0  0  0  0
    8.7741   -6.1316   17.6141 C   0  0  0  0  0  0  0  0  0  0  0  0
   10.0269   -4.1488   16.5004 S   0  0  0  0  0  0  0  0  0  0  0  0
    7.0382   -9.8182   17.0891 F   0  0  0  0  0  0  0  0  0  0  0  0
    9.4410   -8.9628   15.7883 C   0  0  0  0  0  0  0  0  0  0  0  0
    3.0785   -7.6863   17.5032 F   0  0  0  0  0  0  0  0  0  0  0  0
    5.0796   -8.3532   16.1948 He  0  0  0  0  0  0  0  0  0  0  0  0
    8.0086   -6.1012   16.3189 He  0  0  0  0  0  0  0  0  0  0  0  0
    6.9799   -8.3613   15.0830 He  0  0  0  0  0  0  0  0  0  0  0  0
    6.4035   -7.0476   13.6025 He  0  0  0  0  0  0  0  0  0  0  0  0
    9.3250   -6.2803   16.8189 He  0  0  0  0  0  0  0  0  0  0  0  0
    9.2897   -5.3246   15.4635 He  0  0  0  0  0  0  0  0  0  0  0  0
   10.7734   -5.0104   17.9391 He  0  0  0  0  0  0  0  0  0  0  0  0
    8.8513   -8.6649   18.4296 He  0  0  0  0  0  0  0  0  0  0  0  0
   10.5099   -5.9682   18.4724 He  0  0  0  0  0  0  0  0  0  0  0  0
    9.9154   -4.4854   20.0255 He  0  0  0  0  0  0  0  0  0  0  0  0
    9.2463   -6.9044   17.0844 He  0  0  0  0  0  0  0  0  0  0  0  0
    8.5403   -9.5508   17.1952 He  0  0  0  0  0  0  0  0  0  0  0  0
    3.1065   -9.6693   17.5742 He  0  0  0  0  0  0  0  0  0  0  0  0
    9.0888   -5.0527   16.9146 He  0  0  0  0  0  0  0  0  0  0  0  0
    3.9509  -10.8775   17.6369 He  0  0  0  0  0  0  0  0  0  0  0  0
  1  2  1  0
  1 10  1  0
  1 11  1  0
  1 12  2  0
  1 14  1  0
  2  4  1  0
  2  5  3  0
  2  6  1  0
  2  7  3  0
  2  8  2  0
  2 11  1  0
  2 14  1  0
  3  4  4  0
  3  9  2  0
  3 12  4  0
  3 13  2  0
  3 14  4  0
  4  5  3  0
  4  6  1  0
  4  8  2  0
  4 10  1  0
  4 11  2  0
  4 12  3  0
  5  7  4  0
  5 11  4  0
  5 13  1  0
  6  9  3  0
  6 10  3  0
  6 13  2  0
  7 10  4  0
  7 11  1  0
  7 14  2  0
  8 10  4  0
  8 11  3  0
  8 12  1  0
 10 11  2  0
 10 13  4  0
 11 12  1  0
 12 13  2  0
M  END
$$$$

 Created by Python create_sdf_string function

 29 36  0  0  0  0  0  0  0  0999 V2000
    3.9687  -10.0570   17.1459 C   0  0  0  0  0  0  0  0  0  0  0  0
    7.9747   -6.7338   15.4819 Br  0  0  0  0  0  0  0  0  0  0  0  0
   11.6261   -3.7565   18.7972 S   0  0  0  0  0  0  0  0  0  0  0  0
    6.2072   -8.9591   16.6532 O   0  0  0  0  0  0  0  0  0  0  0  0
   10.2321   -5.6911   16.6925 F   0  0  0  0  0  0  0  0  0  0  0  0
   10.3118   -6.3811   17.7294 F   0  0  0  0  0  0  0  0  0  0  0  0
    4.7309   -9.0979   15.2806 O   0  0  0  0  0  0  0  0  0  0  0  0
    8.8148   -4.9578   16.3983 C   0  0  0  0  0  0  0  0  0  0  0  0
    7.9004   -8.2630   16.8024 I   0  0  0  0  0  0  0  0  0  0  0  0
   12.4982   -6.1291   19.4625 F   0  0  0  0  0  0  0  0  0  0  0  0
    7.9702   -9.6579   19.1850 F   0  0  0  0  0  0  0  0  0  0  0  0
    5.0241   -9.5067   17.9979 F   0  0  0  0  0  0  0  0  0  0  0  0
    8.0979   -5.6281   16.8609 F   0  0  0  0  0  0  0  0  0  0  0  0
    5.6885  -10.7123   18.0544 Br  0  0  0  0  0  0  0  0  0  0  0  0
    3.9542   -8.9423   15.8618 He  0  0  0  0  0  0  0  0  0  0  0  0
    8.2258   -8.0471   16.2096 He  0  0  0  0  0  0  0  0  0  0  0  0
    9.6773   -5.0783   19.1192 He  0  0  0  0  0  0  0  0  0  0  0  0
    6.6820   -7.4732   14.9862 He  0  0  0  0  0  0  0  0  0  0  0  0
    8.9080   -6.2137   15.5255 He  0  0  0  0  0  0  0  0  0  0  0  0
    8.4550   -5.7826   16.5655 He  0  0  0  0  0  0  0  0  0  0  0  0
    4.1728   -8.8319   17.7622 He  0  0  0  0  0  0  0  0  0  0  0  0
    6.5384   -8.8487   18.4854 He  0  0  0  0  0  0  0  0  0  0  0  0
    5.6772   -8.3411   19.5648 He  0  0  0  0  0  0  0  0  0  0  0  0
   10.6425   -6.3955   18.2872 He  0  0  0  0  0  0  0  0  0  0  0  0
    9.8438   -3.3460   15.7489 He  0  0  0  0  0  0  0  0  0  0  0  0
    8.4330   -7.2858   16.1100 He  0  0  0  0  0  0  0  0  0  0  0  0
    9.9148   -8.3844   16.0964 He  0  0  0  0  0  0  0  0  0  0  0  0
    6.9878   -7.3137   15.3476 He  0  0  0  0  0  0  0  0  0  0  0  0
    3.7923   -9.3305   17.6697 He  0  0  0  0  0  0  0  0  0  0  0  0
  1  2  4  0
  1  6  4  0
  1  8  2  0
  1 10  2  0
  1 14  2  0
  2  3  1  0
  2  9  1  0
  2 10  3  0
  2 12  3  0
  2 13  1  0
  2 14  3  0
  3  4  4  0
  3  7  4  0
  3  9  4  0
  3 10  1  0
  3 13  3  0
  3 14  1  0
  4 10  1  0
  4 11  2  0
  5  6  2  0
  5  8  2  0
  5 11  4  0
  5 13  4  0
  5 14  3  0
  6  9  2  0
  7 10  1  0
  8 11  3  0
  8 13  4  0
  8 14  4  0
  9 12  1  0
 10 11  2  0
 10 12  3  0
 10 14  3  0
 11 13  1  0
 12 13  2  0
 12 14  2  0
M  END
$$$$

 Created by Python create_sdf_string function

 29 26  0  0  0  0  0  0  0  0999 V2000
    8.2867   -6.4256   16.9637 P   0  0  0  0  0  0  0  0  0  0  0  0
    7.9651   -8.9695   17.1224 N   0  0  0  0  0  0  0  0  0  0  0  0
    8.6107   -5.8749   19.9114 B   0  0  0  0  0  0  0  0  0  0  0  0
    8.2154   -5.8476   16.3423 O   0  0  0  0  0  0  0  0  0  0  0  0
    9.6743   -3.4515   18.2967 B   0  0  0  0  0  0  0  0  0  0  0  0
    6.5495   -9.0655   16.9074 P   0  0  0  0  0  0  0  0  0  0  0  0
    6.9947   -9.2909   18.5165 P   0  0  0  0  0  0  0  0  0  0  0  0
    5.8559   -9.0923   16.9131 I   0  0  0  0  0  0  0  0  0  0  0  0
    7.5383   -8.5809   16.7493 C   0  0  0  0  0  0  0  0  0  0  0  0
    2.8387   -8.9459   16.1140 Cl  0  0  0  0  0  0  0  0  0  0  0  0
    8.3959   -7.3933   15.8453 F   0  0  0  0  0  0  0  0  0  0  0  0
    3.4464  -10.4012   18.1481 O   0  0  0  0  0  0  0  0  0  0  0  0
    2.4849  -10.5984   16.8828 He  0  0  0  0  0  0  0  0  0  0  0  0
    2.5906   -8.3727   15.6590 He  0  0  0  0  0  0  0  0  0  0  0  0
    4.8234   -7.0301   16.6829 He  0  0  0  0  0  0  0  0  0  0  0  0
    9.7891   -5.1719   16.9893 He  0  0  0  0  0  0  0  0  0  0  0  0
    5.6109   -8.2896   18.0404 He  0  0  0  0  0  0  0  0  0  0  0  0
   11.0362   -3.9239   17.1827 He  0  0  0  0  0  0  0  0  0  0  0  0
    9.2849   -6.8028   20.0192 He  0  0  0  0  0  0  0  0  0  0  0  0
    3.3285  -10.1760   15.5923 He  0  0  0  0  0  0  0  0  0  0  0  0
    9.6607   -4.1611   16.6278 He  0  0  0  0  0  0  0  0  0  0  0  0
    7.7733   -9.7783   18.1314 He  0  0  0  0  0  0  0  0  0  0  0  0
    9.8087   -5.5486   19.2728 He  0  0  0  0  0  0  0  0  0  0  0  0
   11.2230   -6.4687   19.3411 He  0  0  0  0  0  0  0  0  0  0  0  0
    8.5804   -4.8688   15.8342 He  0  0  0  0  0  0  0  0  0  0  0  0
    8.1775   -5.9692   17.8138 He  0  0  0  0  0  0  0  0  0  0  0  0
   10.3594   -7.8174   16.8560 He  0  0  0  0  0  0  0  0  0  0  0  0
    6.4775   -6.9874   15.8124 He  0  0  0  0  0  0  0  0  0  0  0  0
    5.8293   -9.2091   18.3999 He  0  0  0  0  0  0  0  0  0  0  0  0
  1  2  1  0
  1  4  4  0
  1  5  1  0
  1  8  3  0
  1  9  1  0
  1 12  1  0
  2  3  2  0
  2  5  2  0
  2  7  4  0
  2 11  1  0
  2 12  4  0
  3 10  4  0
  4  9  3  0
  4 10  4  0
  4 12  1  0
  5  7  4  0
  5  8  1  0
  5 10  3  0
  5 12  2  0
  6  9  2  0
  6 10  4  0
  6 11  2  0
  7  9  4  0
  7 12  2  0
  8 10  2  0
 10 12  3  0
M  END
$$$$

 Created by Python create_sdf_string function

 29 24  0  0  0  0  0  0  0  0999 V2000
    1.4059   -7.1649   15.3819 F   0  0  0  0  0  0  0  0  0  0  0  0
   10.3863   -7.5836   18.7156 O   0  0  0  0  0  0  0  0  0  0  0  0
   10.1263   -3.9162   17.8182 S   0  0  0  0  0  0  0  0  0  0  0  0
    6.2305   -7.8182   17.4876 Cl  0  0  0  0  0  0  0  0  0  0  0  0
    6.5296   -9.4555   17.7067 C   0  0  0  0  0  0  0  0  0  0  0  0
   11.3626   -3.6864   17.7688 N   0  0  0  0  0  0  0  0  0  0  0  0
    6.2962   -6.7165   17.6679 F   0  0  0  0  0  0  0  0  0  0  0  0
    2.2882   -9.2131   17.4023 F   0  0  0  0  0  0  0  0  0  0  0  0
    7.7984   -5.8458   16.9307 C   0  0  0  0  0  0  0  0  0  0  0  0
   10.6985   -3.5438   16.9682 O   0  0  0  0  0  0  0  0  0  0  0  0
    7.4635   -6.5658   19.0708 S   0  0  0  0  0  0  0  0  0  0  0  0
    5.2712   -7.5338   15.6051 F   0  0  0  0  0  0  0  0  0  0  0  0
    3.5373   -9.1718   15.3418 C   0  0  0  0  0  0  0  0  0  0  0  0
    4.8406   -8.9224   18.7775 P   0  0  0  0  0  0  0  0  0  0  0  0
    2.0361   -8.9144   15.3343 He  0  0  0  0  0  0  0  0  0  0  0  0
    8.6142   -8.2626   18.3289 He  0  0  0  0  0  0  0  0  0  0  0  0
    7.8815   -8.3519   18.1507 He  0  0  0  0  0  0  0  0  0  0  0  0
    3.2881   -8.0224   16.5438 He  0  0  0  0  0  0  0  0  0  0  0  0
    8.5929   -6.6887   17.5233 He  0  0  0  0  0  0  0  0  0  0  0  0
    8.7693   -5.1128   18.8619 He  0  0  0  0  0  0  0  0  0  0  0  0
   10.1766   -6.4142   20.5690 He  0  0  0  0  0  0  0  0  0  0  0  0
    8.0513   -8.3838   18.6417 He  0  0  0  0  0  0  0  0  0  0  0  0
    3.6807   -7.0014   17.0332 He  0  0  0  0  0  0  0  0  0  0  0  0
   11.0869   -5.1422   18.6797 He  0  0  0  0  0  0  0  0  0  0  0  0
   10.8876   -6.1575   19.6662 He  0  0  0  0  0  0  0  0  0  0  0  0
   10.3238   -5.9988   18.6322 He  0  0  0  0  0  0  0  0  0  0  0  0
    5.8035   -9.1683   16.0036 He  0  0  0  0  0  0  0  0  0  0  0  0
    9.4771   -6.9088   15.3289 He  0  0  0  0  0  0  0  0  0  0  0  0
    3.2432  -10.8888   19.2762 He  0  0  0  0  0  0  0  0  0  0  0  0
  1  2  4  0
  2  3  4  0
  2  4  2  0
  2  7  4  0
  2  8  3  0
  2 10  1  0
  2 12  2  0
  2 13  4  0
  3 14  4  0
  4 12  1  0
  4 13  4  0
  4 14  3  0
  5  6  4  0
  5  7  2  0
  5 10  3  0
  5 12  1  0
  5 13  2  0
  6 12  4  0
  7  9  4  0
  7 13  4  0
  7 14  3  0
  8 12  4  0
  8 14  2  0
 12 14  4  0
M  END
$$$$

 Created by Python create_sdf_string function

 29 72  0  0  0  0  0  0  0  0999 V2000
    2.1527   -9.1869   16.9161 C   0  0  0  0  0  0  0  0  0  0  0  0
    3.8223   -7.5473   14.1710 C   0  0  0  0  0  0  0  0  0  0  0  0
    6.0286   -6.9138   18.2759 P   0  0  0  0  0  0  0  0  0  0  0  0
    7.8038   -7.2213   18.4842 F   0  0  0  0  0  0  0  0  0  0  0  0
    3.5737  -10.0140   15.5571 O   0  0  0  0  0  0  0  0  0  0  0  0
    7.3418   -6.3771   15.6603 S   0  0  0  0  0  0  0  0  0  0  0  0
    7.3537   -7.2790   18.1318 P   0  0  0  0  0  0  0  0  0  0  0  0
   12.2157   -2.8328   16.9338 Br  0  0  0  0  0  0  0  0  0  0  0  0
    3.6881   -6.2685   18.2373 C   0  0  0  0  0  0  0  0  0  0  0  0
    8.1148   -5.4086   21.5117 O   0  0  0  0  0  0  0  0  0  0  0  0
    1.8463   -7.5455   15.9129 N   0  0  0  0  0  0  0  0  0  0  0  0
    6.3268   -6.4647   16.7858 C   0  0  0  0  0  0  0  0  0  0  0  0
   10.2719   -3.7948   18.8273 C   0  0  0  0  0  0  0  0  0  0  0  0
    9.5598   -5.3429   18.2333 Br  0  0  0  0  0  0  0  0  0  0  0  0
    9.1909   -4.2970   18.7048 O   0  0  0  0  0  0  0  0  0  0  0  0
   11.0913   -6.3643   18.0457 F   0  0  0  0  0  0  0  0  0  0  0  0
    5.8607   -9.3130   14.4962 S   0  0  0  0  0  0  0  0  0  0  0  0
    4.0348   -8.7992   14.5758 C   0  0  0  0  0  0  0  0  0  0  0  0
    7.8369   -9.0275   17.9924 He  0  0  0  0  0  0  0  0  0  0  0  0
    9.6869   -2.9973   17.5434 He  0  0  0  0  0  0  0  0  0  0  0  0
    9.6542   -5.8023   19.3733 He  0  0  0  0  0  0  0  0  0  0  0  0
    6.2276   -9.2679   16.9063 He  0  0  0  0  0  0  0  0  0  0  0  0
    7.7990   -5.7680   16.4424 He  0  0  0  0  0  0  0  0  0  0  0  0
    4.6541   -8.0285   15.5160 He  0  0  0  0  0  0  0  0  0  0  0  0
    6.2959   -6.8111   17.2713 He  0  0  0  0  0  0  0  0  0  0  0  0
    4.9498   -7.0449   16.6222 He  0  0  0  0  0  0  0  0  0  0  0  0
    9.4889   -6.5781   14.5545 He  0  0  0  0  0  0  0  0  0  0  0  0
    4.7359  -10.5319   18.9421 He  0  0  0  0  0  0  0  0  0  0  0  0
    6.1217   -8.6351   16.5619 He  0  0  0  0  0  0  0  0  0  0  0  0
  1  4  1  0
  1  6  1  0
  1  7  1  0
  1  8  1  0
  1  9  4  0
  1 10  4  0
  1 12  4  0
  1 14  3  0
  1 17  2  0
  2  3  4  0
  2  7  1  0
  2 10  3  0
  2 11  4  0
  2 13  3  0
  2 16  1  0
  2 18  2  0
  3  4  4  0
  3  5  4  0
  3  6  4  0
  3  7  1  0
  3  8  4  0
  3  9  3  0
  3 15  1  0
  4  6  1  0
  4  9  1  0
  4 10  2  0
  4 14  3  0
  4 17  1  0
  4 18  1  0
  5  7  2  0
  5  9  3  0
  5 11  1  0
  5 12  4  0
  5 13  4  0
  5 16  2  0
  5 17  2  0
  6  7  3  0
  6  8  3  0
  6 12  4  0
  6 14  1  0
  6 15  2  0
  6 16  4  0
  6 17  4  0
  6 18  2  0
  7  8  2  0
  7 13  1  0
  7 14  4  0
  7 18  2  0
  8  9  1  0
  8 10  2  0
  8 11  1  0
  8 12  1  0
  8 13  2  0
  8 15  2  0
  8 16  3  0
  9 15  1  0
  9 16  1  0
  9 17  2  0
 10 11  3  0
 10 15  3  0
 11 12  3  0
 11 13  3  0
 11 17  1  0
 12 13  2  0
 12 14  1  0
 12 18  1  0
 13 14  1  0
 13 16  3  0
 13 18  1  0
 14 15  4  0
 14 18  3  0
 16 17  1  0
M  END
$$$$

 Created by Python create_sdf_string function

 29 43  0  0  0  0  0  0  0  0999 V2000
    3.3847   -9.2674   15.1423 O   0  0  0  0  0  0  0  0  0  0  0  0
    3.1055   -5.5085   15.9204 S   0  0  0  0  0  0  0  0  0  0  0  0
    7.7645   -9.8508   17.5108 Se  0  0  0  0  0  0  0  0  0  0  0  0
    4.5395   -9.2445   15.4670 C   0  0  0  0  0  0  0  0  0  0  0  0
    5.5713   -6.8306   17.2797 F   0  0  0  0  0  0  0  0  0  0  0  0
    9.8063   -4.9261   18.6169 C   0  0  0  0  0  0  0  0  0  0  0  0
    8.5335   -6.4666   17.2971 C   0  0  0  0  0  0  0  0  0  0  0  0
    5.7661   -8.8567   17.7682 O   0  0  0  0  0  0  0  0  0  0  0  0
    3.6664   -7.6077   15.6281 C   0  0  0  0  0  0  0  0  0  0  0  0
    6.8740   -6.5873   16.4638 Cl  0  0  0  0  0  0  0  0  0  0  0  0
    5.9710   -6.9947   17.3767 O   0  0  0  0  0  0  0  0  0  0  0  0
   11.3478   -4.0553   20.0180 C   0  0  0  0  0  0  0  0  0  0  0  0
   11.0340   -5.9548   18.2634 C   0  0  0  0  0  0  0  0  0  0  0  0
    5.7205   -7.0302   17.4289 C   0  0  0  0  0  0  0  0  0  0  0  0
   12.9463   -6.5009   17.8202 F   0  0  0  0  0  0  0  0  0  0  0  0
    3.9465   -8.8255   15.3309 F   0  0  0  0  0  0  0  0  0  0  0  0
    5.8559   -8.5509   18.4088 He  0  0  0  0  0  0  0  0  0  0  0  0
    7.7895   -7.1358   16.8551 He  0  0  0  0  0  0  0  0  0  0  0  0
   10.5027   -2.7205   17.5501 He  0  0  0  0  0  0  0  0  0  0  0  0
   12.3171   -2.3526   16.8358 He  0  0  0  0  0  0  0  0  0  0  0  0
    4.0536   -5.8118   18.8114 He  0  0  0  0  0  0  0  0  0  0  0  0
    8.3590   -3.8421   19.8667 He  0  0  0  0  0  0  0  0  0  0  0  0
    5.9035   -8.3891   15.7445 He  0  0  0  0  0  0  0  0  0  0  0  0
   10.4034   -3.9986   19.2871 He  0  0  0  0  0  0  0  0  0  0  0  0
    7.0856   -9.4067   15.5772 He  0  0  0  0  0  0  0  0  0  0  0  0
    4.6118   -6.9850   16.3610 He  0  0  0  0  0  0  0  0  0  0  0  0
    8.8494   -6.8788   16.6593 He  0  0  0  0  0  0  0  0  0  0  0  0
    3.7380   -9.6067   16.8386 He  0  0  0  0  0  0  0  0  0  0  0  0
    7.4746   -7.3997   15.1148 He  0  0  0  0  0  0  0  0  0  0  0  0
  1  4  1  0
  1  5  1  0
  1 10  1  0
  1 11  3  0
  1 12  4  0
  1 15  3  0
  2  5  1  0
  2  6  2  0
  2  8  4  0
  3  6  1  0
  3  7  3  0
  3  9  2  0
  3 11  2  0
  3 15  4  0
  3 16  2  0
  4 10  1  0
  4 11  1  0
  4 14  2  0
  4 15  4  0
  4 16  2  0
  5 10  4  0
  5 14  2  0
  5 15  4  0
  6 11  3  0
  6 12  2  0
  6 14  4  0
  7  8  1  0
  7  9  3  0
  7 11  4  0
  7 12  3  0
  7 13  4  0
  7 14  3  0
  7 15  1  0
  8 13  4  0
  8 15  3  0
  9 10  4  0
  9 13  1  0
  9 14  1  0
  9 16  1  0
 10 16  4  0
 11 15  4  0
 12 14  3  0
 13 15  4  0
M  END
$$$$

 Created by Python create_sdf_string function

 29 41  0  0  0  0  0  0  0  0999 V2000
    2.5045   -8.0620   15.2344 C   0  0  0  0  0  0  0  0  0  0  0  0
    2.8758   -6.3753   16.4097 S   0  0  0  0  0  0  0  0  0  0  0  0
    7.5211   -7.9986   14.9530 F   0  0  0  0  0  0  0  0  0  0  0  0
   10.1577   -3.3320   17.3031 N   0  0  0  0  0  0  0  0  0  0  0  0
   10.1696   -7.0706   17.9419 N   0  0  0  0  0  0  0  0  0  0  0  0
    5.2113   -9.7140   17.8335 Cl  0  0  0  0  0  0  0  0  0  0  0  0
    8.5578   -4.1476   19.5119 N   0  0  0  0  0  0  0  0  0  0  0  0
    9.9822   -3.5031   19.4280 O   0  0  0  0  0  0  0  0  0  0  0  0
   11.0158   -6.2156   16.4520 Cl  0  0  0  0  0  0  0  0  0  0  0  0
    7.2263   -7.6537   14.9338 F   0  0  0  0  0  0  0  0  0  0  0  0
    4.0011   -7.9578   16.2524 F   0  0  0  0  0  0  0  0  0  0  0  0
    2.9929   -9.2365   14.2778 O   0  0  0  0  0  0  0  0  0  0  0  0
    9.3811   -6.9403   17.1635 N   0  0  0  0  0  0  0  0  0  0  0  0
    6.2561  -10.6392   17.9307 C   0  0  0  0  0  0  0  0  0  0  0  0
    7.3780   -8.0904   15.3536 O   0  0  0  0  0  0  0  0  0  0  0  0
    6.5231   -8.6714   18.4038 He  0  0  0  0  0  0  0  0  0  0  0  0
    8.4457   -6.4593   17.3044 He  0  0  0  0  0  0  0  0  0  0  0  0
    4.5565   -8.2948   15.6059 He  0  0  0  0  0  0  0  0  0  0  0  0
    5.8251   -6.7996   17.3386 He  0  0  0  0  0  0  0  0  0  0  0  0
    9.2101   -4.7832   19.0423 He  0  0  0  0  0  0  0  0  0  0  0  0
   12.2781   -1.1306   17.9615 He  0  0  0  0  0  0  0  0  0  0  0  0
    4.4474   -8.5267   18.5636 He  0  0  0  0  0  0  0  0  0  0  0  0
    3.0818   -6.8082   16.5927 He  0  0  0  0  0  0  0  0  0  0  0  0
    6.9269   -5.3511   19.5329 He  0  0  0  0  0  0  0  0  0  0  0  0
    6.4894   -6.9623   17.1437 He  0  0  0  0  0  0  0  0  0  0  0  0
    7.5288   -8.1540   17.1261 He  0  0  0  0  0  0  0  0  0  0  0  0
    9.4532   -3.9868   19.8218 He  0  0  0  0  0  0  0  0  0  0  0  0
    4.4786   -6.9372   18.1915 He  0  0  0  0  0  0  0  0  0  0  0  0
   11.8312   -6.5350   17.1705 He  0  0  0  0  0  0  0  0  0  0  0  0
  1  2  4  0
  1  4  3  0
  1 12  4  0
  1 14  3  0
  1 15  1  0
  2  3  2  0
  2  6  3  0
  2  9  4  0
  2 10  1  0
  2 12  3  0
  2 15  3  0
  3  4  4  0
  3  6  1  0
  3  9  4  0
  3 11  4  0
  3 15  3  0
  4  6  1  0
  4  7  1  0
  4 10  3  0
  4 11  2  0
  4 13  2  0
  4 14  3  0
  5  6  4  0
  5  9  4  0
  5 15  4  0
  6  8  1  0
  6  9  2  0
  6 14  2  0
  7 10  1  0
  7 14  1  0
  8 13  1  0
  8 15  1  0
  9 10  3  0
  9 12  2  0
 10 11  1  0
 10 12  3  0
 10 15  1  0
 11 15  4  0
 12 14  2  0
 13 14  3  0
 14 15  4  0
M  END
$$$$

 Created by Python create_sdf_string function

 29 41  0  0  0  0  0  0  0  0999 V2000
    6.2582   -8.5917   16.1703 Se  0  0  0  0  0  0  0  0  0  0  0  0
    8.7575   -5.6245   16.1055 C   0  0  0  0  0  0  0  0  0  0  0  0
    9.1054   -8.0384   18.2593 N   0  0  0  0  0  0  0  0  0  0  0  0
    7.8315   -6.6083   17.7467 P   0  0  0  0  0  0  0  0  0  0  0  0
   10.7876   -3.8159   18.1312 C   0  0  0  0  0  0  0  0  0  0  0  0
    9.4319   -7.1627   18.9173 C   0  0  0  0  0  0  0  0  0  0  0  0
   12.6529   -4.1188   16.7183 P   0  0  0  0  0  0  0  0  0  0  0  0
    4.6645   -8.5179   16.8469 Se  0  0  0  0  0  0  0  0  0  0  0  0
    8.6678   -5.2948   17.7461 Cl  0  0  0  0  0  0  0  0  0  0  0  0
   10.2019   -3.6497   19.1523 C   0  0  0  0  0  0  0  0  0  0  0  0
    8.9660   -5.7318   16.9986 B   0  0  0  0  0  0  0  0  0  0  0  0
    9.4626   -2.6108   19.1426 Se  0  0  0  0  0  0  0  0  0  0  0  0
    3.9267   -7.6500   17.2140 S   0  0  0  0  0  0  0  0  0  0  0  0
    6.7760  -10.8118   18.4773 N   0  0  0  0  0  0  0  0  0  0  0  0
    8.7328   -7.6995   16.3088 C   0  0  0  0  0  0  0  0  0  0  0  0
    2.2842   -8.0197   15.5697 He  0  0  0  0  0  0  0  0  0  0  0  0
    1.9357   -6.0349   15.4409 He  0  0  0  0  0  0  0  0  0  0  0  0
    5.2171   -9.9012   14.8523 He  0  0  0  0  0  0  0  0  0  0  0  0
    8.1843   -5.8428   17.2531 He  0  0  0  0  0  0  0  0  0  0  0  0
    4.8220   -7.1780   17.7255 He  0  0  0  0  0  0  0  0  0  0  0  0
    8.7787   -4.7998   20.0024 He  0  0  0  0  0  0  0  0  0  0  0  0
    3.4294   -7.0797   16.5004 He  0  0  0  0  0  0  0  0  0  0  0  0
    5.9356   -6.1771   18.4468 He  0  0  0  0  0  0  0  0  0  0  0  0
    8.8946   -8.9492   16.7122 He  0  0  0  0  0  0  0  0  0  0  0  0
    9.6004   -5.2780   18.9406 He  0  0  0  0  0  0  0  0  0  0  0  0
    7.0147   -7.9494   14.7143 He  0  0  0  0  0  0  0  0  0  0  0  0
    3.3338   -7.1908   16.1876 He  0  0  0  0  0  0  0  0  0  0  0  0
    1.7267  -10.0220   15.8706 He  0  0  0  0  0  0  0  0  0  0  0  0
    8.4675   -6.0451   19.1914 He  0  0  0  0  0  0  0  0  0  0  0  0
  1  2  1  0
  1  4  3  0
  1  7  1  0
  1  9  2  0
  1 12  2  0
  1 13  3  0
  1 15  3  0
  2  5  3  0
  2  7  1  0
  2  9  3  0
  2 15  2  0
  3  4  2  0
  3  9  4  0
  3 10  4  0
  3 13  1  0
  3 14  3  0
  4  5  4  0
  4  7  4  0
  4  8  1  0
  4 10  3  0
  4 11  2  0
  4 12  2  0
  4 13  4  0
  5  6  3  0
  5  7  4  0
  6  8  3  0
  6  9  1  0
  6 12  2  0
  6 14  3  0
  7 12  2  0
  7 13  2  0
  8  9  4  0
  8 13  3  0
  9 10  1  0
  9 11  1  0
 10 12  2  0
 10 13  4  0
 10 14  4  0
 10 15  1  0
 12 13  2  0
 13 15  2  0
M  END
$$$$

 Created by Python create_sdf_string function

 29 27  0  0  0  0  0  0  0  0999 V2000
    8.3346   -7.8717   15.0032 I   0  0  0  0  0  0  0  0  0  0  0  0
    9.0542   -9.2009   18.2219 F   0  0  0  0  0  0  0  0  0  0  0  0
    3.8465   -8.7848   15.6108 C   0  0  0  0  0  0  0  0  0  0  0  0
   10.4836   -4.0741   20.4723 Cl  0  0  0  0  0  0  0  0  0  0  0  0
    3.2777   -7.5239   16.1523 Cl  0  0  0  0  0  0  0  0  0  0  0  0
    7.0324   -6.3270   18.0834 F   0  0  0  0  0  0  0  0  0  0  0  0
    9.1237   -9.5080   17.0977 Br  0  0  0  0  0  0  0  0  0  0  0  0
   10.6292   -4.0632   19.2425 C   0  0  0  0  0  0  0  0  0  0  0  0
    8.9462   -5.9269   18.1985 F   0  0  0  0  0  0  0  0  0  0  0  0
    9.2162   -3.6741   18.9928 O   0  0  0  0  0  0  0  0  0  0  0  0
   10.1066   -6.0617   19.2411 C   0  0  0  0  0  0  0  0  0  0  0  0
    2.8347   -8.4536   16.3381 C   0  0  0  0  0  0  0  0  0  0  0  0
    1.7225   -9.0881   14.7430 O   0  0  0  0  0  0  0  0  0  0  0  0
    2.5576   -6.7760   13.6418 He  0  0  0  0  0  0  0  0  0  0  0  0
    0.3650   -6.6255   16.5959 He  0  0  0  0  0  0  0  0  0  0  0  0
    7.6933   -6.6385   16.3790 He  0  0  0  0  0  0  0  0  0  0  0  0
    7.6889   -7.5576   17.8242 He  0  0  0  0  0  0  0  0  0  0  0  0
   10.5405   -3.5978   18.4195 He  0  0  0  0  0  0  0  0  0  0  0  0
    9.8873   -7.2049   18.9632 He  0  0  0  0  0  0  0  0  0  0  0  0
    8.5224   -5.5941   16.7925 He  0  0  0  0  0  0  0  0  0  0  0  0
    4.3913   -8.2791   15.6079 He  0  0  0  0  0  0  0  0  0  0  0  0
   12.6635   -4.5343   16.9142 He  0  0  0  0  0  0  0  0  0  0  0  0
    4.4718   -6.9408   14.9417 He  0  0  0  0  0  0  0  0  0  0  0  0
    7.8863   -4.1129   17.6392 He  0  0  0  0  0  0  0  0  0  0  0  0
    4.0460   -7.7599   16.6864 He  0  0  0  0  0  0  0  0  0  0  0  0
    6.5625   -8.5426   15.4993 He  0  0  0  0  0  0  0  0  0  0  0  0
    8.2338   -4.3357   18.8022 He  0  0  0  0  0  0  0  0  0  0  0  0
    7.8618   -9.0779   20.8436 He  0  0  0  0  0  0  0  0  0  0  0  0
    9.8951   -7.5428   17.6273 He  0  0  0  0  0  0  0  0  0  0  0  0
  1  3  4  0
  1  4  3  0
  1  5  4  0
  1  6  2  0
  1  9  1  0
  1 11  1  0
  1 13  3  0
  2  5  2  0
  2  6  1  0
  2  9  1  0
  2 11  3  0
  3  6  1  0
  3  7  1  0
  3  8  1  0
  4  8  1  0
  4 11  2  0
  5 10  1  0
  5 12  3  0
  5 13  1  0
  6 11  2  0
  7  9  3  0
  7 10  4  0
  8  9  2  0
  9 11  4  0
 10 11  2  0
 10 13  2  0
 11 12  2  0
M  END
$$$$

 Created by Python create_sdf_string function

 29 67  0  0  0  0  0  0  0  0999 V2000
    1.3666   -7.1493   13.2395 F   0  0  0  0  0  0  0  0  0  0  0  0
    0.7261   -8.7378   14.3746 P   0  0  0  0  0  0  0  0  0  0  0  0
    7.0149   -8.9699   17.8567 N   0  0  0  0  0  0  0  0  0  0  0  0
    9.6783   -2.3097   18.6613 C   0  0  0  0  0  0  0  0  0  0  0  0
    9.9219   -7.4121   17.5416 S   0  0  0  0  0  0  0  0  0  0  0  0
    8.6595   -6.8478   16.5332 F   0  0  0  0  0  0  0  0  0  0  0  0
   11.7424   -4.7446   16.8475 C   0  0  0  0  0  0  0  0  0  0  0  0
    4.4652   -7.1321   16.4172 S   0  0  0  0  0  0  0  0  0  0  0  0
   11.1941   -5.1135   20.8652 Cl  0  0  0  0  0  0  0  0  0  0  0  0
    2.5020   -6.4799   13.9892 S   0  0  0  0  0  0  0  0  0  0  0  0
    8.9117   -7.6116   17.7831 F   0  0  0  0  0  0  0  0  0  0  0  0
    7.7723   -5.8017   17.4211 Br  0  0  0  0  0  0  0  0  0  0  0  0
    5.5677   -7.9398   14.6840 C   0  0  0  0  0  0  0  0  0  0  0  0
    6.1087   -9.3637   16.5793 O   0  0  0  0  0  0  0  0  0  0  0  0
    3.2232   -6.2574   15.7290 Cl  0  0  0  0  0  0  0  0  0  0  0  0
    0.9313   -8.1105   15.6869 S   0  0  0  0  0  0  0  0  0  0  0  0
    7.7729   -5.8177   18.5508 C   0  0  0  0  0  0  0  0  0  0  0  0
    8.8693   -7.6343   20.7795 Br  0  0  0  0  0  0  0  0  0  0  0  0
   11.0443   -9.3340   19.6456 F   0  0  0  0  0  0  0  0  0  0  0  0
    8.2716   -9.0450   14.0998 He  0  0  0  0  0  0  0  0  0  0  0  0
    6.1316   -7.3081   16.9319 He  0  0  0  0  0  0  0  0  0  0  0  0
    9.8287   -8.3578   17.0722 He  0  0  0  0  0  0  0  0  0  0  0  0
    4.8165   -8.5967   16.1523 He  0  0  0  0  0  0  0  0  0  0  0  0
    4.9642   -6.1702   15.5548 He  0  0  0  0  0  0  0  0  0  0  0  0
    8.8045   -4.4634   16.6602 He  0  0  0  0  0  0  0  0  0  0  0  0
    7.0557   -8.3397   19.3470 He  0  0  0  0  0  0  0  0  0  0  0  0
   11.5501   -3.6484   19.2289 He  0  0  0  0  0  0  0  0  0  0  0  0
    9.7390   -4.3504   19.7146 He  0  0  0  0  0  0  0  0  0  0  0  0
   10.0217   -6.5175   19.5011 He  0  0  0  0  0  0  0  0  0  0  0  0
  1  3  4  0
  1  9  1  0
  1 17  3  0
  1 19  2  0
  2  4  4  0
  2  6  4  0
  2  7  4  0
  2 13  2  0
  2 14  1  0
  3  4  3  0
  3  5  1  0
  3  6  2  0
  3  7  3  0
  3 10  3  0
  3 11  4  0
  3 13  3  0
  3 14  1  0
  3 18  4  0
  3 19  2  0
  4  5  3  0
  4  9  4  0
  4 13  2  0
  4 15  3  0
  5  6  1  0
  5  8  1  0
  5  9  4  0
  5 12  3  0
  5 16  1  0
  5 17  4  0
  5 19  1  0
  6 11  3  0
  6 12  1  0
  6 16  4  0
  6 17  2  0
  6 18  2  0
  7  8  1  0
  7 12  2  0
  7 17  2  0
  7 18  2  0
  8 10  1  0
  8 11  3  0
  8 15  4  0
  8 18  2  0
  9 10  2  0
  9 11  3  0
 10 13  3  0
 10 14  2  0
 10 16  3  0
 10 17  2  0
 10 19  1  0
 11 12  3  0
 11 13  4  0
 11 14  4  0
 11 15  3  0
 11 16  4  0
 12 13  2  0
 12 17  3  0
 13 18  3  0
 14 15  1  0
 14 17  2  0
 14 19  2  0
 15 17  4  0
 15 18  4  0
 15 19  2  0
 16 17  1  0
 16 19  3  0
 17 18  2  0
M  END
$$$$

 Created by Python create_sdf_string function

 29 41  0  0  0  0  0  0  0  0999 V2000
   -0.3986   -7.4392   15.6331 C   0  0  0  0  0  0  0  0  0  0  0  0
    5.0745   -9.2736   17.1559 C   0  0  0  0  0  0  0  0  0  0  0  0
   10.4852   -2.1954   18.8587 O   0  0  0  0  0  0  0  0  0  0  0  0
    9.5276   -7.8655   17.6205 N   0  0  0  0  0  0  0  0  0  0  0  0
    7.5081   -7.0752   17.9601 B   0  0  0  0  0  0  0  0  0  0  0  0
    5.0926   -6.8585   15.5534 Cl  0  0  0  0  0  0  0  0  0  0  0  0
    9.2143   -5.4873   17.1009 Cl  0  0  0  0  0  0  0  0  0  0  0  0
   10.8112   -4.0067   17.4874 O   0  0  0  0  0  0  0  0  0  0  0  0
   10.3253   -6.4676   18.7260 O   0  0  0  0  0  0  0  0  0  0  0  0
   12.1715   -2.8622   17.6344 N   0  0  0  0  0  0  0  0  0  0  0  0
    8.2198   -5.3123   19.2293 C   0  0  0  0  0  0  0  0  0  0  0  0
   10.9775   -5.6941   19.9242 N   0  0  0  0  0  0  0  0  0  0  0  0
    1.2092   -7.4893   14.4985 O   0  0  0  0  0  0  0  0  0  0  0  0
    8.2573   -6.4043   17.5626 Br  0  0  0  0  0  0  0  0  0  0  0  0
   10.4350   -7.2250   19.9690 C   0  0  0  0  0  0  0  0  0  0  0  0
    9.4403   -9.5445   17.3879 C   0  0  0  0  0  0  0  0  0  0  0  0
    1.1726   -8.5663   15.2214 He  0  0  0  0  0  0  0  0  0  0  0  0
    7.1398   -9.6199   16.0523 He  0  0  0  0  0  0  0  0  0  0  0  0
    5.2360   -6.4857   16.8307 He  0  0  0  0  0  0  0  0  0  0  0  0
    8.9952   -5.8611   17.4946 He  0  0  0  0  0  0  0  0  0  0  0  0
    6.6218   -7.8562   15.7826 He  0  0  0  0  0  0  0  0  0  0  0  0
    3.5288   -7.6412   16.0068 He  0  0  0  0  0  0  0  0  0  0  0  0
   11.1944   -3.7994   19.8290 He  0  0  0  0  0  0  0  0  0  0  0  0
    1.9319   -7.3308   15.9720 He  0  0  0  0  0  0  0  0  0  0  0  0
    7.0952   -7.1871   18.3934 He  0  0  0  0  0  0  0  0  0  0  0  0
    4.2452   -9.5130   14.5380 He  0  0  0  0  0  0  0  0  0  0  0  0
   11.4485   -6.9417   19.9734 He  0  0  0  0  0  0  0  0  0  0  0  0
    5.5268  -10.1759   17.4774 He  0  0  0  0  0  0  0  0  0  0  0  0
    3.9774   -5.4366   16.7357 He  0  0  0  0  0  0  0  0  0  0  0  0
  1  3  2  0
  1 10  2  0
  1 13  2  0
  2  4  3  0
  2  5  1  0
  2  6  3  0
  2  9  3  0
  2 12  2  0
  2 15  4  0
  3  4  1  0
  3  8  1  0
  3 12  3  0
  3 14  1  0
  3 16  1  0
  4  5  2  0
  4  8  4  0
  4 10  3  0
  4 13  4  0
  4 15  1  0
  5  6  2  0
  5  9  3  0
  5 11  1  0
  6  8  2  0
  6 10  2  0
  6 11  2  0
  6 13  4  0
  6 14  2  0
  6 15  1  0
  7  8  3  0
  7 10  4  0
  8 12  4  0
  8 16  2  0
  9 15  3  0
  9 16  3  0
 10 16  2  0
 11 12  1  0
 11 13  4  0
 11 15  1  0
 12 13  1  0
 13 16  4  0
 15 16  4  0
M  END
$$$$

 Created by Python create_sdf_string function

 29 64  0  0  0  0  0  0  0  0999 V2000
    1.5492   -7.9016   15.7569 C   0  0  0  0  0  0  0  0  0  0  0  0
    6.2191  -10.4971   15.9255 C   0  0  0  0  0  0  0  0  0  0  0  0
    9.8392   -4.0668   16.9265 F   0  0  0  0  0  0  0  0  0  0  0  0
    5.8399   -7.1093   15.6156 F   0  0  0  0  0  0  0  0  0  0  0  0
    7.3261   -8.4526   15.5709 C   0  0  0  0  0  0  0  0  0  0  0  0
   10.4459   -3.1603   18.2865 C   0  0  0  0  0  0  0  0  0  0  0  0
    4.0087   -6.8413   15.8566 O   0  0  0  0  0  0  0  0  0  0  0  0
    2.9551   -9.2317   16.2993 C   0  0  0  0  0  0  0  0  0  0  0  0
   12.8647   -3.9018   20.5019 C   0  0  0  0  0  0  0  0  0  0  0  0
    2.7455   -6.7256   17.4262 P   0  0  0  0  0  0  0  0  0  0  0  0
    7.6121   -7.5789   17.4279 S   0  0  0  0  0  0  0  0  0  0  0  0
   10.7637   -8.4683   17.7655 C   0  0  0  0  0  0  0  0  0  0  0  0
    7.2792   -5.2113   17.1685 C   0  0  0  0  0  0  0  0  0  0  0  0
   11.1805   -4.0501   20.0238 C   0  0  0  0  0  0  0  0  0  0  0  0
    3.7848   -9.3245   16.0942 P   0  0  0  0  0  0  0  0  0  0  0  0
   12.8807   -6.1769   20.3301 C   0  0  0  0  0  0  0  0  0  0  0  0
    5.1198   -7.3211   15.6290 P   0  0  0  0  0  0  0  0  0  0  0  0
    0.0839   -9.5168   14.8470 C   0  0  0  0  0  0  0  0  0  0  0  0
    9.7561   -6.3389   20.9860 S   0  0  0  0  0  0  0  0  0  0  0  0
    9.7048   -8.8146   17.8533 C   0  0  0  0  0  0  0  0  0  0  0  0
    2.6442   -8.6076   16.7625 He  0  0  0  0  0  0  0  0  0  0  0  0
    4.4720   -7.7358   15.7822 He  0  0  0  0  0  0  0  0  0  0  0  0
    8.8896   -6.6604   17.4395 He  0  0  0  0  0  0  0  0  0  0  0  0
    8.0750   -7.5988   16.5316 He  0  0  0  0  0  0  0  0  0  0  0  0
    9.2397   -5.1152   15.4445 He  0  0  0  0  0  0  0  0  0  0  0  0
   10.0060   -4.6342   18.6295 He  0  0  0  0  0  0  0  0  0  0  0  0
   11.2508   -2.6328   18.0628 He  0  0  0  0  0  0  0  0  0  0  0  0
    5.5746  -11.2884   17.1501 He  0  0  0  0  0  0  0  0  0  0  0  0
    6.9657   -7.6655   17.3716 He  0  0  0  0  0  0  0  0  0  0  0  0
  1  3  3  0
  1  4  3  0
  1 12  3  0
  1 13  2  0
  1 17  4  0
  1 19  4  0
  2  3  3  0
  2  6  4  0
  2 11  3  0
  2 16  2  0
  2 17  3  0
  2 20  3  0
  3  4  2  0
  3  5  1  0
  3  6  4  0
  3 14  4  0
  3 18  2  0
  3 19  3  0
  4  5  4  0
  4  6  3  0
  4  7  1  0
  4  8  4  0
  4  9  1  0
  4 12  1  0
  4 15  2  0
  4 16  3  0
  4 19  4  0
  4 20  4  0
  5 11  4  0
  5 13  3  0
  5 15  3  0
  5 16  2  0
  6  8  3  0
  6 11  2  0
  6 18  1  0
  7  8  4  0
  7 12  3  0
  7 13  4  0
  7 15  2  0
  7 20  1  0
  8 10  1  0
  8 13  2  0
  8 15  2  0
  8 17  3  0
  8 20  4  0
  9 12  2  0
 10 19  1  0
 11 13  2  0
 11 17  3  0
 12 14  1  0
 12 15  2  0
 13 14  4  0
 13 16  4  0
 13 18  4  0
 13 19  2  0
 13 20  2  0
 14 17  2  0
 14 20  2  0
 15 18  4  0
 15 19  4  0
 16 17  2  0
 16 19  3  0
 16 20  4  0
 18 20  2  0
M  END
$$$$

 Created by Python create_sdf_string function

 29 45  0  0  0  0  0  0  0  0999 V2000
    2.7594   -9.9090   17.2188 F   0  0  0  0  0  0  0  0  0  0  0  0
    1.7252   -7.0827   14.9903 F   0  0  0  0  0  0  0  0  0  0  0  0
    5.2622   -8.8601   16.0788 Br  0  0  0  0  0  0  0  0  0  0  0  0
    6.1991   -6.4387   16.1609 O   0  0  0  0  0  0  0  0  0  0  0  0
   10.2137   -5.5139   17.7732 P   0  0  0  0  0  0  0  0  0  0  0  0
    9.5615   -7.1221   16.3573 S   0  0  0  0  0  0  0  0  0  0  0  0
    5.0562   -7.5196   16.4721 Br  0  0  0  0  0  0  0  0  0  0  0  0
    8.4735   -5.1413   13.9831 P   0  0  0  0  0  0  0  0  0  0  0  0
    2.8442   -8.3730   15.8147 O   0  0  0  0  0  0  0  0  0  0  0  0
   11.0576   -4.2302   18.9297 P   0  0  0  0  0  0  0  0  0  0  0  0
    3.5501   -8.6233   14.4177 Se  0  0  0  0  0  0  0  0  0  0  0  0
   14.2598   -5.7805   19.0055 Br  0  0  0  0  0  0  0  0  0  0  0  0
    5.2521   -7.0779   15.2495 Cl  0  0  0  0  0  0  0  0  0  0  0  0
    1.8288   -9.5587   16.6503 I   0  0  0  0  0  0  0  0  0  0  0  0
    5.3582   -8.3008   18.4808 Cl  0  0  0  0  0  0  0  0  0  0  0  0
    6.8379   -8.2180   17.6031 C   0  0  0  0  0  0  0  0  0  0  0  0
    4.2998   -8.4090   17.2261 He  0  0  0  0  0  0  0  0  0  0  0  0
   10.5273   -3.3339   17.2110 He  0  0  0  0  0  0  0  0  0  0  0  0
    7.0400   -8.5660   16.0256 He  0  0  0  0  0  0  0  0  0  0  0  0
   10.1701   -6.7288   15.9995 He  0  0  0  0  0  0  0  0  0  0  0  0
   11.9053   -4.6187   21.2210 He  0  0  0  0  0  0  0  0  0  0  0  0
    3.9866   -7.1348   16.0536 He  0  0  0  0  0  0  0  0  0  0  0  0
   10.4053   -5.2689   18.2619 He  0  0  0  0  0  0  0  0  0  0  0  0
    8.2613   -7.6748   15.3754 He  0  0  0  0  0  0  0  0  0  0  0  0
   10.9801   -7.1384   17.8058 He  0  0  0  0  0  0  0  0  0  0  0  0
   11.2209   -3.6340   17.3143 He  0  0  0  0  0  0  0  0  0  0  0  0
    5.9540   -5.3821   17.4649 He  0  0  0  0  0  0  0  0  0  0  0  0
    6.9744   -9.8793   17.8032 He  0  0  0  0  0  0  0  0  0  0  0  0
    8.8597   -6.9779   18.2901 He  0  0  0  0  0  0  0  0  0  0  0  0
  1 10  4  0
  1 11  1  0
  1 15  2  0
  2  4  4  0
  2  5  4  0
  2 10  1  0
  2 11  3  0
  2 14  2  0
  3  5  2  0
  3  7  2  0
  3  9  3  0
  3 10  1  0
  3 12  4  0
  3 13  2  0
  3 15  3  0
  4  5  4  0
  4  7  3  0
  4  8  1  0
  4  9  2  0
  4 12  2  0
  5  7  4  0
  5  8  1  0
  5 11  2  0
  6  7  4  0
  6 11  2  0
  6 12  3  0
  6 13  1  0
  6 16  2  0
  7  8  2  0
  7 10  3  0
  7 11  4  0
  7 14  3  0
  7 16  1  0
  8 11  4  0
  8 13  4  0
  8 16  4  0
  9 10  2  0
  9 15  1  0
 10 11  2  0
 10 12  2  0
 11 13  1  0
 12 15  4  0
 13 15  4  0
 14 16  2  0
 15 16  4  0
M  END
$$$$

 Created by Python create_sdf_string function

 29 34  0  0  0  0  0  0  0  0999 V2000
    3.3373   -5.7707   16.6061 C   0  0  0  0  0  0  0  0  0  0  0  0
    8.4280   -7.3132   16.4893 Cl  0  0  0  0  0  0  0  0  0  0  0  0
   10.9217   -4.6146   18.2646 C   0  0  0  0  0  0  0  0  0  0  0  0
    9.9866   -4.9569   16.6691 F   0  0  0  0  0  0  0  0  0  0  0  0
    9.3571   -6.4037   17.1357 C   0  0  0  0  0  0  0  0  0  0  0  0
    8.6597   -4.7788   17.3982 F   0  0  0  0  0  0  0  0  0  0  0  0
    2.4173   -7.6712   15.4598 C   0  0  0  0  0  0  0  0  0  0  0  0
   12.4324   -4.4349   20.8107 C   0  0  0  0  0  0  0  0  0  0  0  0
   11.0906   -6.2113   19.9983 N   0  0  0  0  0  0  0  0  0  0  0  0
   10.9053   -3.5349   16.2059 C   0  0  0  0  0  0  0  0  0  0  0  0
   13.3620   -4.5620   17.3977 F   0  0  0  0  0  0  0  0  0  0  0  0
    4.1113   -8.6175   15.5832 C   0  0  0  0  0  0  0  0  0  0  0  0
    5.1785   -8.3129   19.3118 S   0  0  0  0  0  0  0  0  0  0  0  0
    9.6010   -8.0372   19.3964 S   0  0  0  0  0  0  0  0  0  0  0  0
    7.2808   -6.0959   18.4430 N   0  0  0  0  0  0  0  0  0  0  0  0
    4.5627   -9.9433   16.8129 He  0  0  0  0  0  0  0  0  0  0  0  0
    5.2982   -8.4182   15.7554 He  0  0  0  0  0  0  0  0  0  0  0  0
    5.7963   -7.7435   17.5529 He  0  0  0  0  0  0  0  0  0  0  0  0
   10.9361   -5.3514   17.0920 He  0  0  0  0  0  0  0  0  0  0  0  0
    7.5791   -5.3967   16.8216 He  0  0  0  0  0  0  0  0  0  0  0  0
    4.6788   -8.7792   15.5014 He  0  0  0  0  0  0  0  0  0  0  0  0
    3.9691   -8.2151   15.9006 He  0  0  0  0  0  0  0  0  0  0  0  0
    9.9386   -4.7917   20.3482 He  0  0  0  0  0  0  0  0  0  0  0  0
    9.0814   -9.2492   14.3271 He  0  0  0  0  0  0  0  0  0  0  0  0
    6.3706   -8.1016   17.3011 He  0  0  0  0  0  0  0  0  0  0  0  0
   10.6887   -4.6129   19.2009 He  0  0  0  0  0  0  0  0  0  0  0  0
    4.7457   -8.0030   14.8910 He  0  0  0  0  0  0  0  0  0  0  0  0
    7.0288   -9.8429   17.1305 He  0  0  0  0  0  0  0  0  0  0  0  0
    3.8510  -10.7108   16.7994 He  0  0  0  0  0  0  0  0  0  0  0  0
  1  7  2  0
  1  9  4  0
  1 15  3  0
  2  6  1  0
  2  7  2  0
  2 10  2  0
  2 11  3  0
  2 12  3  0
  2 15  2  0
  3  6  1  0
  3 12  2  0
  3 14  4  0
  4  5  2  0
  4  7  2  0
  4  9  2  0
  4 12  3  0
  4 14  4  0
  5 10  3  0
  6  7  3  0
  6  9  3  0
  6 10  3  0
  6 15  3  0
  7 12  3  0
  7 13  4  0
  8 12  1  0
  8 14  2  0
  9 11  1  0
  9 12  2  0
  9 13  4  0
 10 13  4  0
 10 15  4  0
 11 14  4  0
 11 15  4  0
 12 13  1  0
M  END
$$$$

 Created by Python create_sdf_string function

 29 32  0  0  0  0  0  0  0  0999 V2000
    5.1886   -9.3180   15.7635 B   0  0  0  0  0  0  0  0  0  0  0  0
    8.2698   -5.4971   19.2538 Se  0  0  0  0  0  0  0  0  0  0  0  0
    8.8384   -7.9013   15.1239 C   0  0  0  0  0  0  0  0  0  0  0  0
   10.0268   -5.1489   17.1804 C   0  0  0  0  0  0  0  0  0  0  0  0
   10.1907   -4.7501   17.0299 P   0  0  0  0  0  0  0  0  0  0  0  0
    4.6952   -8.7213   14.0634 F   0  0  0  0  0  0  0  0  0  0  0  0
    8.9655   -5.9376   16.0962 S   0  0  0  0  0  0  0  0  0  0  0  0
   12.2313   -3.3779   20.2641 P   0  0  0  0  0  0  0  0  0  0  0  0
    2.6998   -9.0687   17.1078 C   0  0  0  0  0  0  0  0  0  0  0  0
    8.7592   -5.4254   18.7918 C   0  0  0  0  0  0  0  0  0  0  0  0
   12.7231   -5.2134   16.6743 F   0  0  0  0  0  0  0  0  0  0  0  0
    5.4651   -9.7147   15.4168 C   0  0  0  0  0  0  0  0  0  0  0  0
    3.8067  -11.0478   16.6081 Cl  0  0  0  0  0  0  0  0  0  0  0  0
    5.3146  -10.6636   17.8170 He  0  0  0  0  0  0  0  0  0  0  0  0
    2.8665   -7.0433   16.0584 He  0  0  0  0  0  0  0  0  0  0  0  0
    6.9382   -8.2893   16.7983 He  0  0  0  0  0  0  0  0  0  0  0  0
    8.7100   -5.5577   18.4272 He  0  0  0  0  0  0  0  0  0  0  0  0
    9.4140   -6.6237   17.9440 He  0  0  0  0  0  0  0  0  0  0  0  0
    2.1601  -10.3503   15.1767 He  0  0  0  0  0  0  0  0  0  0  0  0
   11.9805   -4.0351   20.1500 He  0  0  0  0  0  0  0  0  0  0  0  0
    8.6011   -7.7506   16.0978 He  0  0  0  0  0  0  0  0  0  0  0  0
    5.1269   -7.0303   16.1181 He  0  0  0  0  0  0  0  0  0  0  0  0
   11.0672   -3.3685   21.2673 He  0  0  0  0  0  0  0  0  0  0  0  0
    4.6171   -6.8091   15.5604 He  0  0  0  0  0  0  0  0  0  0  0  0
   10.8573   -4.2628   16.7856 He  0  0  0  0  0  0  0  0  0  0  0  0
    6.1663   -7.8562   16.7791 He  0  0  0  0  0  0  0  0  0  0  0  0
    6.5219   -8.3428   17.9820 He  0  0  0  0  0  0  0  0  0  0  0  0
    9.5018   -7.7792   18.4929 He  0  0  0  0  0  0  0  0  0  0  0  0
    7.6517   -6.1972   16.7119 He  0  0  0  0  0  0  0  0  0  0  0  0
  1  5  4  0
  1  6  2  0
  1  8  2  0
  1 11  4  0
  1 12  3  0
  2  8  1  0
  2 10  1  0
  2 13  3  0
  3  4  3  0
  3  5  3  0
  3  8  1  0
  3 10  4  0
  3 12  4  0
  4  7  2  0
  4 10  1  0
  4 13  3  0
  5  8  3  0
  5 11  2  0
  5 12  4  0
  6  8  2  0
  6 11  1  0
  6 12  1  0
  6 13  3  0
  7  8  2  0
  7 10  3  0
  7 12  4  0
  7 13  3  0
  8 10  1  0
  8 11  4  0
  9 11  4  0
 10 13  4  0
 11 13  3  0
M  END
$$$$

 Created by Python create_sdf_string function

 29 50  0  0  0  0  0  0  0  0999 V2000
    4.6121  -10.5892   17.2232 C   0  0  0  0  0  0  0  0  0  0  0  0
    3.6603   -8.0024   16.3874 O   0  0  0  0  0  0  0  0  0  0  0  0
    6.6220   -8.6418   19.0782 F   0  0  0  0  0  0  0  0  0  0  0  0
    9.6740   -5.3875   17.2847 P   0  0  0  0  0  0  0  0  0  0  0  0
    7.9824   -6.9712   16.3363 C   0  0  0  0  0  0  0  0  0  0  0  0
   10.1256   -2.8428   17.2587 C   0  0  0  0  0  0  0  0  0  0  0  0
   10.3646   -6.0312   17.6772 C   0  0  0  0  0  0  0  0  0  0  0  0
    3.6471   -9.0576   15.4884 C   0  0  0  0  0  0  0  0  0  0  0  0
   12.3499   -3.2544   21.0294 N   0  0  0  0  0  0  0  0  0  0  0  0
    3.1385  -10.4299   17.4296 P   0  0  0  0  0  0  0  0  0  0  0  0
    7.4511   -6.9704   15.4394 C   0  0  0  0  0  0  0  0  0  0  0  0
    8.6768   -6.0063   19.0419 B   0  0  0  0  0  0  0  0  0  0  0  0
   12.4319   -6.0322   15.7547 O   0  0  0  0  0  0  0  0  0  0  0  0
   12.6526   -3.4396   20.0651 C   0  0  0  0  0  0  0  0  0  0  0  0
    4.5079   -7.9867   14.9438 C   0  0  0  0  0  0  0  0  0  0  0  0
   10.3098   -5.4372   14.8442 C   0  0  0  0  0  0  0  0  0  0  0  0
    6.3519   -7.0033   16.1768 P   0  0  0  0  0  0  0  0  0  0  0  0
    3.2082  -10.3619   16.9176 C   0  0  0  0  0  0  0  0  0  0  0  0
    3.5744   -8.1090   16.0746 He  0  0  0  0  0  0  0  0  0  0  0  0
    7.9497   -6.1268   19.0039 He  0  0  0  0  0  0  0  0  0  0  0  0
    8.6422   -5.4922   16.0539 He  0  0  0  0  0  0  0  0  0  0  0  0
    8.5603   -6.2371   15.8723 He  0  0  0  0  0  0  0  0  0  0  0  0
    1.4533   -7.6213   15.4857 He  0  0  0  0  0  0  0  0  0  0  0  0
    9.8470   -4.5872   19.4954 He  0  0  0  0  0  0  0  0  0  0  0  0
    4.2441   -8.4297   16.9505 He  0  0  0  0  0  0  0  0  0  0  0  0
    7.0504   -8.3435   15.3773 He  0  0  0  0  0  0  0  0  0  0  0  0
    7.4944   -8.7005   16.4399 He  0  0  0  0  0  0  0  0  0  0  0  0
    9.0436   -8.4546   17.9832 He  0  0  0  0  0  0  0  0  0  0  0  0
    7.2181   -5.2068   15.9332 He  0  0  0  0  0  0  0  0  0  0  0  0
  1  4  3  0
  1  6  2  0
  1  8  2  0
  1  9  3  0
  1 12  2  0
  1 14  1  0
  1 15  2  0
  1 17  1  0
  1 18  1  0
  2  8  1  0
  2 10  4  0
  3  4  3  0
  3  5  1  0
  3 11  2  0
  3 13  4  0
  3 16  3  0
  3 17  4  0
  3 18  4  0
  4 10  1  0
  4 16  1  0
  5 16  4  0
  5 18  4  0
  6  7  4  0
  6 10  3  0
  6 13  1  0
  6 14  4  0
  6 15  2  0
  6 16  2  0
  6 17  3  0
  7  8  3  0
  7 13  1  0
  7 14  4  0
  7 17  1  0
  8 13  4  0
  8 15  1  0
  8 16  3  0
  9 13  2  0
  9 14  1  0
  9 15  2  0
  9 16  1  0
  9 17  2  0
  9 18  3  0
 10 16  4  0
 11 18  1  0
 12 16  4  0
 13 15  4  0
 13 16  3  0
 14 16  2  0
 14 18  4  0
 15 16  3  0
M  END
$$$$

 Created by Python create_sdf_string function

 29 58  0  0  0  0  0  0  0  0999 V2000
    3.8273  -10.4126   15.6681 C   0  0  0  0  0  0  0  0  0  0  0  0
    3.4797   -8.2612   16.0741 C   0  0  0  0  0  0  0  0  0  0  0  0
    7.9947   -8.5668   18.8199 S   0  0  0  0  0  0  0  0  0  0  0  0
   10.6368   -5.1867   16.6794 Br  0  0  0  0  0  0  0  0  0  0  0  0
    8.7040   -6.9687   17.3933 N   0  0  0  0  0  0  0  0  0  0  0  0
    8.4940   -5.5739   14.4389 B   0  0  0  0  0  0  0  0  0  0  0  0
   11.4567   -4.7402   17.0678 N   0  0  0  0  0  0  0  0  0  0  0  0
    4.3591   -9.7745   16.8046 F   0  0  0  0  0  0  0  0  0  0  0  0
    3.1286  -11.2477   16.5555 C   0  0  0  0  0  0  0  0  0  0  0  0
   10.7814   -4.4134   20.7257 C   0  0  0  0  0  0  0  0  0  0  0  0
    6.6789   -6.5081   14.2190 F   0  0  0  0  0  0  0  0  0  0  0  0
    9.9023   -5.6522   19.0032 O   0  0  0  0  0  0  0  0  0  0  0  0
    3.0385   -9.4119   18.5438 C   0  0  0  0  0  0  0  0  0  0  0  0
    5.0027   -8.2168   15.1605 O   0  0  0  0  0  0  0  0  0  0  0  0
   11.1631   -4.3827   15.6286 Br  0  0  0  0  0  0  0  0  0  0  0  0
    6.8346   -8.5018   15.7268 Cl  0  0  0  0  0  0  0  0  0  0  0  0
    8.4021   -7.8547   18.7547 N   0  0  0  0  0  0  0  0  0  0  0  0
    2.9426   -9.8593   15.3985 He  0  0  0  0  0  0  0  0  0  0  0  0
    6.9851   -7.8265   17.3191 He  0  0  0  0  0  0  0  0  0  0  0  0
   11.5055   -5.6759   18.7828 He  0  0  0  0  0  0  0  0  0  0  0  0
    9.0015   -7.9811   16.8814 He  0  0  0  0  0  0  0  0  0  0  0  0
    1.4291   -8.6272   14.1829 He  0  0  0  0  0  0  0  0  0  0  0  0
   12.2563   -3.5508   19.4668 He  0  0  0  0  0  0  0  0  0  0  0  0
   11.2224   -3.7437   16.7668 He  0  0  0  0  0  0  0  0  0  0  0  0
   11.4190   -4.3713   21.0190 He  0  0  0  0  0  0  0  0  0  0  0  0
    6.4599   -7.6452   15.1582 He  0  0  0  0  0  0  0  0  0  0  0  0
    3.9489   -9.0366   16.9706 He  0  0  0  0  0  0  0  0  0  0  0  0
    6.0198   -9.3900   16.9424 He  0  0  0  0  0  0  0  0  0  0  0  0
    8.1282   -6.4548   15.9909 He  0  0  0  0  0  0  0  0  0  0  0  0
  1  7  1  0
  1  8  2  0
  1  9  3  0
  1 12  4  0
  1 14  3  0
  1 17  3  0
  2  4  1  0
  2  5  2  0
  2  7  4  0
  2  8  1  0
  2 12  3  0
  2 17  3  0
  3 10  3  0
  3 13  4  0
  3 15  1  0
  3 16  4  0
  3 17  4  0
  4  5  4  0
  4 10  2  0
  4 11  4  0
  4 12  4  0
  4 14  4  0
  4 15  1  0
  4 16  2  0
  5  6  4  0
  5 10  1  0
  5 12  4  0
  5 15  4  0
  5 16  3  0
  5 17  1  0
  6 13  2  0
  6 15  1  0
  6 17  2  0
  7  8  1  0
  7  9  3  0
  7 11  3  0
  7 17  4  0
  8 10  1  0
  8 12  4  0
  8 15  1  0
  8 17  3  0
  9 10  3  0
  9 13  3  0
  9 14  2  0
  9 17  1  0
 10 13  2  0
 10 14  1  0
 11 14  4  0
 11 15  1  0
 11 16  1  0
 12 14  4  0
 12 15  4  0
 12 17  1  0
 13 14  4  0
 13 16  2  0
 14 15  3  0
 15 16  4  0
 16 17  2  0
M  END
$$$$

 Created by Python create_sdf_string function

 29 36  0  0  0  0  0  0  0  0999 V2000
    3.4019   -8.5546   17.1307 Br  0  0  0  0  0  0  0  0  0  0  0  0
    4.0454   -9.6393   15.1219 S   0  0  0  0  0  0  0  0  0  0  0  0
    7.3219   -7.4123   17.6637 P   0  0  0  0  0  0  0  0  0  0  0  0
    8.9542   -5.0083   16.0079 O   0  0  0  0  0  0  0  0  0  0  0  0
    8.9088   -7.9333   18.7434 O   0  0  0  0  0  0  0  0  0  0  0  0
    2.3272   -9.5888   12.8886 F   0  0  0  0  0  0  0  0  0  0  0  0
   11.0572   -4.9183   18.9261 B   0  0  0  0  0  0  0  0  0  0  0  0
   10.1630   -5.2569   17.1461 C   0  0  0  0  0  0  0  0  0  0  0  0
   11.7797   -5.0891   21.0161 F   0  0  0  0  0  0  0  0  0  0  0  0
    4.3592   -7.2796   16.1492 Cl  0  0  0  0  0  0  0  0  0  0  0  0
    5.7804   -6.0859   16.0370 C   0  0  0  0  0  0  0  0  0  0  0  0
    8.2529   -8.0347   15.0429 S   0  0  0  0  0  0  0  0  0  0  0  0
    5.4790   -8.5935   18.4329 C   0  0  0  0  0  0  0  0  0  0  0  0
    4.8325   -8.2930   19.0567 B   0  0  0  0  0  0  0  0  0  0  0  0
    8.4289   -6.8846   17.1246 P   0  0  0  0  0  0  0  0  0  0  0  0
    8.7150   -6.7668   15.9677 N   0  0  0  0  0  0  0  0  0  0  0  0
    4.5333  -11.4550   14.8662 He  0  0  0  0  0  0  0  0  0  0  0  0
    6.6659   -8.3122   18.0429 He  0  0  0  0  0  0  0  0  0  0  0  0
    8.1401   -4.9502   17.1180 He  0  0  0  0  0  0  0  0  0  0  0  0
    8.2950   -5.8687   17.2006 He  0  0  0  0  0  0  0  0  0  0  0  0
   11.8786   -4.5756   17.4921 He  0  0  0  0  0  0  0  0  0  0  0  0
    9.4307   -5.0397   19.5579 He  0  0  0  0  0  0  0  0  0  0  0  0
    3.8226   -9.1420   17.4328 He  0  0  0  0  0  0  0  0  0  0  0  0
   11.0704   -4.3155   18.3482 He  0  0  0  0  0  0  0  0  0  0  0  0
    3.0293   -9.2542   17.1277 He  0  0  0  0  0  0  0  0  0  0  0  0
    5.7256   -7.5362   15.6423 He  0  0  0  0  0  0  0  0  0  0  0  0
   10.4657   -4.9103   16.9627 He  0  0  0  0  0  0  0  0  0  0  0  0
    4.1432  -10.6418   19.0120 He  0  0  0  0  0  0  0  0  0  0  0  0
    8.6365   -3.7482   17.3484 He  0  0  0  0  0  0  0  0  0  0  0  0
  2  8  3  0
  2 10  4  0
  2 14  2  0
  2 15  2  0
  3 12  3  0
  3 16  4  0
  4  7  3  0
  4 10  3  0
  4 11  3  0
  4 12  1  0
  4 15  1  0
  4 16  2  0
  5  7  1  0
  5 10  3  0
  6 12  3  0
  6 13  2  0
  6 15  4  0
  6 16  1  0
  7  8  1  0
  7 12  2  0
  8 10  3  0
  8 12  3  0
  8 14  2  0
  8 15  4  0
  8 16  2  0
  9 13  2  0
  9 14  2  0
 10 12  4  0
 10 13  2  0
 11 14  1  0
 11 15  2  0
 11 16  4  0
 12 13  4  0
 12 14  2  0
 12 15  1  0
 12 16  1  0
M  END
$$$$

 Created by Python create_sdf_string function

 29 19  0  0  0  0  0  0  0  0999 V2000
    2.9619   -8.0545   16.7103 Cl  0  0  0  0  0  0  0  0  0  0  0  0
    3.2527   -9.1639   15.0892 C   0  0  0  0  0  0  0  0  0  0  0  0
    4.2319   -8.6704   15.6950 O   0  0  0  0  0  0  0  0  0  0  0  0
    8.0546   -8.5890   16.7321 C   0  0  0  0  0  0  0  0  0  0  0  0
    7.2064   -8.1385   18.4503 N   0  0  0  0  0  0  0  0  0  0  0  0
    4.0845   -7.2533   18.1950 N   0  0  0  0  0  0  0  0  0  0  0  0
   11.2960   -4.4894   18.4468 C   0  0  0  0  0  0  0  0  0  0  0  0
   10.4940   -6.2637   18.9287 I   0  0  0  0  0  0  0  0  0  0  0  0
    5.1024   -8.6330   17.4308 Cl  0  0  0  0  0  0  0  0  0  0  0  0
   10.0259   -4.2759   17.9802 F   0  0  0  0  0  0  0  0  0  0  0  0
    7.3523   -4.4024   16.4449 N   0  0  0  0  0  0  0  0  0  0  0  0
    7.2193   -6.0559   16.1223 He  0  0  0  0  0  0  0  0  0  0  0  0
    9.0521   -6.4976   16.1113 He  0  0  0  0  0  0  0  0  0  0  0  0
    7.7922   -4.6996   16.9285 He  0  0  0  0  0  0  0  0  0  0  0  0
   11.6267   -4.6077   16.0412 He  0  0  0  0  0  0  0  0  0  0  0  0
    9.2710   -5.7643   19.9327 He  0  0  0  0  0  0  0  0  0  0  0  0
    8.1231   -8.4472   18.1844 He  0  0  0  0  0  0  0  0  0  0  0  0
    3.7213   -8.4976   16.3340 He  0  0  0  0  0  0  0  0  0  0  0  0
    3.5037   -8.5079   15.5161 He  0  0  0  0  0  0  0  0  0  0  0  0
    5.3982   -8.4588   16.4402 He  0  0  0  0  0  0  0  0  0  0  0  0
   10.7669   -5.1419   16.5804 He  0  0  0  0  0  0  0  0  0  0  0  0
   11.2718   -6.7083   16.2306 He  0  0  0  0  0  0  0  0  0  0  0  0
    4.5463   -9.5938   17.5218 He  0  0  0  0  0  0  0  0  0  0  0  0
   10.2674   -5.2391   19.8577 He  0  0  0  0  0  0  0  0  0  0  0  0
    5.8857   -6.7041   14.3978 He  0  0  0  0  0  0  0  0  0  0  0  0
    8.2467   -7.9841   15.7891 He  0  0  0  0  0  0  0  0  0  0  0  0
    5.5764   -7.5257   18.8150 He  0  0  0  0  0  0  0  0  0  0  0  0
    4.9904   -6.8261   20.7058 He  0  0  0  0  0  0  0  0  0  0  0  0
    7.9525   -6.8468   17.1444 He  0  0  0  0  0  0  0  0  0  0  0  0
  1  4  4  0
  2  3  4  0
  2  6  4  0
  3  5  2  0
  3  6  2  0
  3 11  2  0
  4  6  2  0
  4  8  3  0
  4  9  4  0
  4 10  3  0
  5 11  3  0
  6  8  3  0
  6  9  2  0
  6 10  2  0
  7  8  1  0
  7  9  4  0
  7 11  4  0
  8 11  2  0
  9 11  2  0
M  END
$$$$

 Created by Python create_sdf_string function

 29 42  0  0  0  0  0  0  0  0999 V2000
    1.6932   -8.6048   18.4428 N   0  0  0  0  0  0  0  0  0  0  0  0
    3.8349   -7.5570   16.4267 N   0  0  0  0  0  0  0  0  0  0  0  0
    8.7843   -8.2083   15.8666 F   0  0  0  0  0  0  0  0  0  0  0  0
    9.1149   -9.4089   19.3928 P   0  0  0  0  0  0  0  0  0  0  0  0
    8.0725   -6.4540   17.3161 F   0  0  0  0  0  0  0  0  0  0  0  0
    9.4269   -3.2752   16.1936 Cl  0  0  0  0  0  0  0  0  0  0  0  0
   11.2129   -4.7031   19.5714 C   0  0  0  0  0  0  0  0  0  0  0  0
    5.6784   -8.2603   18.0004 C   0  0  0  0  0  0  0  0  0  0  0  0
    8.6875   -9.1860   18.0008 F   0  0  0  0  0  0  0  0  0  0  0  0
    9.8411   -5.7200   17.8220 N   0  0  0  0  0  0  0  0  0  0  0  0
    3.9772   -8.4217   14.7962 Cl  0  0  0  0  0  0  0  0  0  0  0  0
   11.5992   -3.6212   16.4473 F   0  0  0  0  0  0  0  0  0  0  0  0
   10.6248   -7.2130   16.3050 F   0  0  0  0  0  0  0  0  0  0  0  0
   10.0218   -5.9185   17.6926 C   0  0  0  0  0  0  0  0  0  0  0  0
    5.3844   -9.2145   19.0848 N   0  0  0  0  0  0  0  0  0  0  0  0
    7.5281   -7.6276   14.1293 F   0  0  0  0  0  0  0  0  0  0  0  0
    8.4343   -6.4804   14.5715 F   0  0  0  0  0  0  0  0  0  0  0  0
    7.1650   -8.3393   18.2025 F   0  0  0  0  0  0  0  0  0  0  0  0
    3.8615   -8.9575   16.5454 He  0  0  0  0  0  0  0  0  0  0  0  0
    6.7970   -6.9996   17.6833 He  0  0  0  0  0  0  0  0  0  0  0  0
    8.5868   -5.0721   15.0484 He  0  0  0  0  0  0  0  0  0  0  0  0
    4.0518   -9.1858   15.8548 He  0  0  0  0  0  0  0  0  0  0  0  0
   10.5332   -5.3098   19.2963 He  0  0  0  0  0  0  0  0  0  0  0  0
    4.5890   -8.9394   17.2050 He  0  0  0  0  0  0  0  0  0  0  0  0
    4.3043   -8.6579   18.9085 He  0  0  0  0  0  0  0  0  0  0  0  0
   11.1780   -3.8508   16.4790 He  0  0  0  0  0  0  0  0  0  0  0  0
    8.3246   -6.7615   19.8955 He  0  0  0  0  0  0  0  0  0  0  0  0
    8.0047   -7.4323   17.3369 He  0  0  0  0  0  0  0  0  0  0  0  0
    8.2047   -6.0081   15.9658 He  0  0  0  0  0  0  0  0  0  0  0  0
  1  8  2  0
  1  9  2  0
  1 16  1  0
  1 18  1  0
  2  7  4  0
  2  8  2  0
  2 11  1  0
  3  6  3  0
  3 16  3  0
  3 18  4  0
  4  9  2  0
  4 10  3  0
  4 14  4  0
  4 15  2  0
  4 17  1  0
  5  6  3  0
  5 10  4  0
  5 13  3  0
  5 18  3  0
  6 10  4  0
  6 11  3  0
  6 12  1  0
  6 15  2  0
  6 17  1  0
  7  8  2  0
  7 12  1  0
  7 13  1  0
  7 14  1  0
  7 17  4  0
  8 17  3  0
  9 17  2  0
 10 11  3  0
 10 12  4  0
 10 17  2  0
 11 17  1  0
 12 14  3  0
 12 17  3  0
 13 15  2  0
 13 17  2  0
 14 17  4  0
 15 16  2  0
 17 18  1  0
M  END
$$$$

 Created by Python create_sdf_string function

 29 33  0  0  0  0  0  0  0  0999 V2000
    4.3142   -7.2907   18.2426 N   0  0  0  0  0  0  0  0  0  0  0  0
    8.9417   -8.8699   18.3777 Se  0  0  0  0  0  0  0  0  0  0  0  0
    5.9367   -7.8273   18.2434 F   0  0  0  0  0  0  0  0  0  0  0  0
    7.3099   -5.1035   16.9375 N   0  0  0  0  0  0  0  0  0  0  0  0
    8.8871   -5.1624   15.7606 O   0  0  0  0  0  0  0  0  0  0  0  0
    9.9927   -4.8786   15.9149 F   0  0  0  0  0  0  0  0  0  0  0  0
   10.5349   -4.5022   19.5288 F   0  0  0  0  0  0  0  0  0  0  0  0
    6.6261   -7.4245   17.6781 O   0  0  0  0  0  0  0  0  0  0  0  0
   10.3512   -5.2517   19.7308 C   0  0  0  0  0  0  0  0  0  0  0  0
    3.9749   -8.5019   16.5037 C   0  0  0  0  0  0  0  0  0  0  0  0
   10.3541   -6.6252   15.6642 F   0  0  0  0  0  0  0  0  0  0  0  0
   10.9385   -3.8876   18.4467 F   0  0  0  0  0  0  0  0  0  0  0  0
    5.0129   -9.5674   18.4716 N   0  0  0  0  0  0  0  0  0  0  0  0
    6.7020   -8.0681   18.0668 Cl  0  0  0  0  0  0  0  0  0  0  0  0
    8.0118   -6.7353   16.2595 Br  0  0  0  0  0  0  0  0  0  0  0  0
    2.5302  -10.0481   18.1987 He  0  0  0  0  0  0  0  0  0  0  0  0
    3.4960   -7.6437   15.9759 He  0  0  0  0  0  0  0  0  0  0  0  0
    7.2675   -6.7383   16.0375 He  0  0  0  0  0  0  0  0  0  0  0  0
    8.8615   -9.5736   16.0836 He  0  0  0  0  0  0  0  0  0  0  0  0
    1.8926   -9.9653   16.0040 He  0  0  0  0  0  0  0  0  0  0  0  0
    9.9826   -6.3971   17.5145 He  0  0  0  0  0  0  0  0  0  0  0  0
    4.1116   -9.1179   15.8899 He  0  0  0  0  0  0  0  0  0  0  0  0
   10.8201   -2.0218   18.5656 He  0  0  0  0  0  0  0  0  0  0  0  0
    4.5927   -9.1168   17.2020 He  0  0  0  0  0  0  0  0  0  0  0  0
   12.2310   -4.4301   15.1194 He  0  0  0  0  0  0  0  0  0  0  0  0
    6.6582   -8.1768   15.4548 He  0  0  0  0  0  0  0  0  0  0  0  0
    7.3301   -6.6981   14.9130 He  0  0  0  0  0  0  0  0  0  0  0  0
    8.3074   -5.2411   18.8987 He  0  0  0  0  0  0  0  0  0  0  0  0
    8.4298   -7.7518   17.2559 He  0  0  0  0  0  0  0  0  0  0  0  0
  1  2  2  0
  1  5  1  0
  1  6  1  0
  1  7  1  0
  2  3  3  0
  2  4  2  0
  2  5  4  0
  2 10  3  0
  2 15  3  0
  3  5  1  0
  3  6  2  0
  3 11  3  0
  3 12  4  0
  4  7  2  0
  4 10  1  0
  4 13  2  0
  4 14  2  0
  4 15  4  0
  5  9  2  0
  5 13  4  0
  5 15  3  0
  6 10  3  0
  7  9  1  0
  7 10  4  0
  7 11  4  0
  8 12  2  0
  8 13  2  0
  9 11  1  0
  9 15  3  0
 10 12  3  0
 11 15  1  0
 12 15  3  0
 13 14  4  0
M  END
$$$$

 Created by Python create_sdf_string function

 29 32  0  0  0  0  0  0  0  0999 V2000
    3.6852   -7.8358   17.0156 C   0  0  0  0  0  0  0  0  0  0  0  0
    7.8519   -6.1594   14.7413 O   0  0  0  0  0  0  0  0  0  0  0  0
    6.8972   -5.6010   16.4074 B   0  0  0  0  0  0  0  0  0  0  0  0
    9.5139   -3.2157   16.0390 C   0  0  0  0  0  0  0  0  0  0  0  0
   11.3316   -3.6588   18.3057 O   0  0  0  0  0  0  0  0  0  0  0  0
    9.4143   -8.7064   16.4641 O   0  0  0  0  0  0  0  0  0  0  0  0
    4.7481   -9.5540   16.0027 C   0  0  0  0  0  0  0  0  0  0  0  0
   11.0293   -5.6515   21.1040 S   0  0  0  0  0  0  0  0  0  0  0  0
    4.6487   -6.5231   17.0623 C   0  0  0  0  0  0  0  0  0  0  0  0
   10.5347   -3.2831   18.0036 I   0  0  0  0  0  0  0  0  0  0  0  0
   12.2929   -4.0002   18.1695 C   0  0  0  0  0  0  0  0  0  0  0  0
    4.3212  -10.1891   17.9460 F   0  0  0  0  0  0  0  0  0  0  0  0
   12.1175   -2.4934   15.2560 P   0  0  0  0  0  0  0  0  0  0  0  0
    6.1437   -7.6861   15.7830 F   0  0  0  0  0  0  0  0  0  0  0  0
    7.3571   -7.8049   18.2594 F   0  0  0  0  0  0  0  0  0  0  0  0
    6.9136   -6.8356   16.1687 O   0  0  0  0  0  0  0  0  0  0  0  0
    3.2866   -9.2133   16.5984 He  0  0  0  0  0  0  0  0  0  0  0  0
    4.6798   -8.6588   17.2028 He  0  0  0  0  0  0  0  0  0  0  0  0
    8.3934   -8.1750   18.6538 He  0  0  0  0  0  0  0  0  0  0  0  0
    6.6255   -7.0471   18.5740 He  0  0  0  0  0  0  0  0  0  0  0  0
    9.8943   -4.7827   15.5843 He  0  0  0  0  0  0  0  0  0  0  0  0
    6.0881   -8.9343   17.8673 He  0  0  0  0  0  0  0  0  0  0  0  0
    2.6530  -11.1572   16.5979 He  0  0  0  0  0  0  0  0  0  0  0  0
    9.7803   -4.9139   19.6043 He  0  0  0  0  0  0  0  0  0  0  0  0
    9.5975   -4.9023   17.2250 He  0  0  0  0  0  0  0  0  0  0  0  0
    3.9202   -6.6596   17.5434 He  0  0  0  0  0  0  0  0  0  0  0  0
    7.0567   -5.8914   15.8457 He  0  0  0  0  0  0  0  0  0  0  0  0
    9.2393   -7.2710   19.2276 He  0  0  0  0  0  0  0  0  0  0  0  0
    6.9479   -6.9655   18.4593 He  0  0  0  0  0  0  0  0  0  0  0  0
  1  8  2  0
  1  9  2  0
  2  3  4  0
  2  5  1  0
  2  6  1  0
  2  8  4  0
  2  9  1  0
  2 11  1  0
  2 13  1  0
  2 16  2  0
  4  9  2  0
  4 13  1  0
  5  8  4  0
  5  9  3  0
  5 11  3  0
  5 16  2  0
  6  7  2  0
  6  9  1  0
  6 13  1  0
  7  8  1  0
  7  9  3  0
  7 14  2  0
  8  9  1  0
  8 13  2  0
  8 16  3  0
  9 15  1  0
 10 11  4  0
 10 16  3  0
 11 15  2  0
 11 16  4  0
 13 14  3  0
 14 16  3  0
M  END
$$$$

 Created by Python create_sdf_string function

 29 66  0  0  0  0  0  0  0  0999 V2000
    3.2322   -9.7257   17.7538 I   0  0  0  0  0  0  0  0  0  0  0  0
    4.8831   -8.8292   17.7988 C   0  0  0  0  0  0  0  0  0  0  0  0
    3.6038   -7.9129   15.6124 C   0  0  0  0  0  0  0  0  0  0  0  0
    8.6568   -8.2880   18.6720 Cl  0  0  0  0  0  0  0  0  0  0  0  0
    7.0608   -7.5048   18.4810 F   0  0  0  0  0  0  0  0  0  0  0  0
   10.0071   -4.3022   15.3455 Cl  0  0  0  0  0  0  0  0  0  0  0  0
   11.7221   -4.1136   17.8569 O   0  0  0  0  0  0  0  0  0  0  0  0
    5.3524   -8.6135   19.1717 Cl  0  0  0  0  0  0  0  0  0  0  0  0
    9.5974   -8.1623   16.9566 C   0  0  0  0  0  0  0  0  0  0  0  0
    2.4653  -10.0482   17.7323 F   0  0  0  0  0  0  0  0  0  0  0  0
    8.6058   -4.2679   18.7425 N   0  0  0  0  0  0  0  0  0  0  0  0
    4.3416   -7.9494   16.5987 C   0  0  0  0  0  0  0  0  0  0  0  0
   10.0918   -4.6279   17.0560 C   0  0  0  0  0  0  0  0  0  0  0  0
    3.3848   -7.6383   17.2992 P   0  0  0  0  0  0  0  0  0  0  0  0
   11.0813   -3.4526   16.6672 C   0  0  0  0  0  0  0  0  0  0  0  0
    7.7807   -6.2031   16.4417 S   0  0  0  0  0  0  0  0  0  0  0  0
    9.0794   -8.0991   18.7823 C   0  0  0  0  0  0  0  0  0  0  0  0
    9.3962   -7.4153   19.0237 F   0  0  0  0  0  0  0  0  0  0  0  0
    6.7276   -7.1425   17.7572 C   0  0  0  0  0  0  0  0  0  0  0  0
    7.1959   -5.6321   13.8384 He  0  0  0  0  0  0  0  0  0  0  0  0
    8.4675   -4.8330   17.9537 He  0  0  0  0  0  0  0  0  0  0  0  0
    9.8686   -3.3854   16.1621 He  0  0  0  0  0  0  0  0  0  0  0  0
    2.8461  -10.9385   16.8747 He  0  0  0  0  0  0  0  0  0  0  0  0
    9.8026   -5.0295   20.5634 He  0  0  0  0  0  0  0  0  0  0  0  0
    9.7422   -3.7681   18.1419 He  0  0  0  0  0  0  0  0  0  0  0  0
   11.4126   -3.3719   18.4876 He  0  0  0  0  0  0  0  0  0  0  0  0
    4.3324  -11.3808   17.9862 He  0  0  0  0  0  0  0  0  0  0  0  0
    5.1985   -8.0789   16.8319 He  0  0  0  0  0  0  0  0  0  0  0  0
    5.7614   -6.8836   15.7114 He  0  0  0  0  0  0  0  0  0  0  0  0
  1  4  1  0
  1  9  1  0
  1 10  4  0
  1 12  3  0
  1 14  4  0
  1 15  3  0
  1 16  1  0
  2  3  3  0
  2  4  4  0
  2 10  3  0
  2 11  4  0
  2 14  3  0
  2 19  3  0
  3  6  1  0
  3  7  4  0
  3  8  4  0
  3 11  1  0
  3 12  4  0
  3 14  3  0
  3 15  3  0
  4  7  3  0
  4  8  1  0
  4 13  4  0
  4 14  1  0
  4 15  1  0
  5 10  1  0
  5 13  4  0
  5 14  4  0
  5 17  1  0
  5 19  4  0
  6  7  2  0
  6  8  4  0
  6 11  4  0
  6 13  4  0
  6 14  4  0
  6 16  3  0
  6 17  1  0
  6 18  3  0
  6 19  4  0
  7 10  4  0
  7 12  1  0
  7 14  3  0
  7 15  4  0
  7 18  1  0
  7 19  4  0
  8  9  1  0
  8 12  2  0
  8 15  4  0
  8 17  1  0
  8 18  1  0
  8 19  2  0
  9 13  4  0
  9 14  1  0
  9 18  2  0
  9 19  1  0
 10 17  2  0
 11 14  3  0
 11 16  4  0
 13 14  2  0
 13 17  1  0
 13 18  4  0
 15 19  2  0
 16 17  1  0
 16 19  2  0
 17 18  1  0
 18 19  2  0
M  END
$$$$

 Created by Python create_sdf_string function

 29 73  0  0  0  0  0  0  0  0999 V2000
    5.8184  -10.4562   16.5604 O   0  0  0  0  0  0  0  0  0  0  0  0
    6.2641   -6.7691   14.7082 O   0  0  0  0  0  0  0  0  0  0  0  0
    9.4054   -7.7077   17.5601 F   0  0  0  0  0  0  0  0  0  0  0  0
    8.0014   -7.4527   17.4827 C   0  0  0  0  0  0  0  0  0  0  0  0
   10.2727   -2.4243   15.5330 C   0  0  0  0  0  0  0  0  0  0  0  0
    9.3242   -4.3408   15.4795 C   0  0  0  0  0  0  0  0  0  0  0  0
   11.8306   -2.5867   17.4916 C   0  0  0  0  0  0  0  0  0  0  0  0
    5.3125   -8.7142   17.6944 P   0  0  0  0  0  0  0  0  0  0  0  0
    8.9946   -8.7647   16.1412 O   0  0  0  0  0  0  0  0  0  0  0  0
    3.8408  -10.2780   18.7590 Br  0  0  0  0  0  0  0  0  0  0  0  0
    8.6729   -4.7999   18.8387 P   0  0  0  0  0  0  0  0  0  0  0  0
    2.2864  -11.5270   18.2367 Cl  0  0  0  0  0  0  0  0  0  0  0  0
    9.4472   -4.8612   19.3531 N   0  0  0  0  0  0  0  0  0  0  0  0
    4.6751   -7.7401   15.6051 N   0  0  0  0  0  0  0  0  0  0  0  0
    9.2313   -3.6343   18.6478 Br  0  0  0  0  0  0  0  0  0  0  0  0
    9.1564   -3.2002   17.2427 N   0  0  0  0  0  0  0  0  0  0  0  0
    8.7129   -6.6232   17.2655 C   0  0  0  0  0  0  0  0  0  0  0  0
   10.6562   -5.9252   17.1584 S   0  0  0  0  0  0  0  0  0  0  0  0
    9.1312   -7.8722   18.5966 Cl  0  0  0  0  0  0  0  0  0  0  0  0
    5.7348   -7.3585   17.0125 F   0  0  0  0  0  0  0  0  0  0  0  0
    3.2891  -10.1519   16.9772 He  0  0  0  0  0  0  0  0  0  0  0  0
    2.9123   -7.8404   14.2046 He  0  0  0  0  0  0  0  0  0  0  0  0
   10.0904   -6.6913   18.7340 He  0  0  0  0  0  0  0  0  0  0  0  0
   10.5888   -3.6571   17.9355 He  0  0  0  0  0  0  0  0  0  0  0  0
    4.5421   -7.2256   17.5950 He  0  0  0  0  0  0  0  0  0  0  0  0
   12.1405   -4.1060   17.6140 He  0  0  0  0  0  0  0  0  0  0  0  0
    3.3657  -10.7656   17.8829 He  0  0  0  0  0  0  0  0  0  0  0  0
    6.1260   -6.5738   16.2986 He  0  0  0  0  0  0  0  0  0  0  0  0
    5.4509   -5.9831   15.4536 He  0  0  0  0  0  0  0  0  0  0  0  0
  1  6  4  0
  1  7  4  0
  1  9  2  0
  1 10  1  0
  1 11  4  0
  1 15  1  0
  1 17  3  0
  1 19  3  0
  1 20  3  0
  2  4  1  0
  2  7  1  0
  2 10  4  0
  2 12  2  0
  2 15  2  0
  2 17  1  0
  2 20  1  0
  3  5  4  0
  3 11  1  0
  3 18  3  0
  3 19  2  0
  4  8  3  0
  4 13  4  0
  4 15  3  0
  4 16  4  0
  4 17  1  0
  4 18  1  0
  4 20  1  0
  5  7  1  0
  5 11  1  0
  5 14  3  0
  5 15  2  0
  6  8  4  0
  6  9  4  0
  6 11  4  0
  6 12  2  0
  6 18  4  0
  6 20  3  0
  7  8  3  0
  7  9  3  0
  7 10  4  0
  7 13  4  0
  7 15  2  0
  7 16  4  0
  7 17  2  0
  8  9  4  0
  8 11  4  0
  8 12  2  0
  8 16  4  0
  8 18  3  0
  9 10  4  0
  9 19  4  0
 10 11  4  0
 10 12  1  0
 10 13  3  0
 10 16  4  0
 11 12  1  0
 11 13  3  0
 11 14  4  0
 13 14  2  0
 13 15  3  0
 13 16  3  0
 13 18  3  0
 13 20  4  0
 14 16  3  0
 14 17  1  0
 14 18  1  0
 15 18  1  0
 16 18  1  0
 16 20  4  0
 17 18  4  0
 17 20  4  0
 18 19  1  0
 19 20  2  0
M  END
$$$$

 Created by Python create_sdf_string function

 29 54  0  0  0  0  0  0  0  0999 V2000
    4.1653  -10.3293   16.8511 Cl  0  0  0  0  0  0  0  0  0  0  0  0
    5.2973  -10.6889   17.0416 C   0  0  0  0  0  0  0  0  0  0  0  0
    4.2614   -7.7807   15.8351 F   0  0  0  0  0  0  0  0  0  0  0  0
    6.2599   -7.0421   15.6350 Se  0  0  0  0  0  0  0  0  0  0  0  0
    6.6839   -8.0724   17.2678 C   0  0  0  0  0  0  0  0  0  0  0  0
   10.4274   -6.7946   18.3837 F   0  0  0  0  0  0  0  0  0  0  0  0
    9.5754   -1.8385   14.4341 Cl  0  0  0  0  0  0  0  0  0  0  0  0
   11.5865   -3.8875   16.6897 I   0  0  0  0  0  0  0  0  0  0  0  0
    4.2759  -10.1032   18.9864 P   0  0  0  0  0  0  0  0  0  0  0  0
    5.5088  -11.2564   20.3091 P   0  0  0  0  0  0  0  0  0  0  0  0
    1.9219  -11.4069   17.6839 C   0  0  0  0  0  0  0  0  0  0  0  0
    4.5534   -7.9035   16.4127 C   0  0  0  0  0  0  0  0  0  0  0  0
   10.5771   -2.7412   20.1447 C   0  0  0  0  0  0  0  0  0  0  0  0
   11.6335   -4.9619   18.4835 C   0  0  0  0  0  0  0  0  0  0  0  0
    8.7185   -6.7380   18.0571 C   0  0  0  0  0  0  0  0  0  0  0  0
    9.9411   -5.1322   17.0392 C   0  0  0  0  0  0  0  0  0  0  0  0
    9.4339   -7.4155   18.5358 C   0  0  0  0  0  0  0  0  0  0  0  0
    6.4949   -8.8819   16.1353 C   0  0  0  0  0  0  0  0  0  0  0  0
    7.3556   -6.9060   18.4307 He  0  0  0  0  0  0  0  0  0  0  0  0
    9.2588   -4.0333   16.3488 He  0  0  0  0  0  0  0  0  0  0  0  0
    8.5620   -9.4074   17.0147 He  0  0  0  0  0  0  0  0  0  0  0  0
    8.8426   -4.2948   19.5737 He  0  0  0  0  0  0  0  0  0  0  0  0
    9.9361   -4.5790   19.3775 He  0  0  0  0  0  0  0  0  0  0  0  0
   11.0039   -4.1292   18.3693 He  0  0  0  0  0  0  0  0  0  0  0  0
    5.3492  -10.3206   16.4631 He  0  0  0  0  0  0  0  0  0  0  0  0
    3.2194   -9.9744   17.6644 He  0  0  0  0  0  0  0  0  0  0  0  0
   10.0243   -2.9925   17.9569 He  0  0  0  0  0  0  0  0  0  0  0  0
    4.8098   -6.2053   18.7953 He  0  0  0  0  0  0  0  0  0  0  0  0
    6.4350   -5.3064   15.5655 He  0  0  0  0  0  0  0  0  0  0  0  0
  1  9  1  0
  1 11  1  0
  1 12  1  0
  1 15  1  0
  1 18  2  0
  2  3  1  0
  2  6  3  0
  2  8  3  0
  2 10  4  0
  2 11  2  0
  2 12  2  0
  2 13  1  0
  2 15  2  0
  2 17  4  0
  2 18  2  0
  3  6  1  0
  3  7  1  0
  3 10  1  0
  3 17  1  0
  4  6  1  0
  4 13  3  0
  4 16  2  0
  5  7  1  0
  5  9  1  0
  5 12  4  0
  5 13  2  0
  5 14  2  0
  5 18  4  0
  6  8  2  0
  6  9  3  0
  6 10  4  0
  6 12  1  0
  7 15  2  0
  8  9  3  0
  8 12  2  0
  8 14  4  0
  8 17  3  0
  9 11  2  0
  9 18  4  0
 10 11  1  0
 10 12  3  0
 10 17  3  0
 11 12  3  0
 11 15  1  0
 11 16  4  0
 11 17  2  0
 11 18  2  0
 12 15  2  0
 13 16  3  0
 13 18  1  0
 14 16  3  0
 14 18  3  0
 15 16  4  0
 15 18  4  0
M  END
$$$$

 Created by Python create_sdf_string function

 29 21  0  0  0  0  0  0  0  0999 V2000
    4.7564   -9.5975   16.6204 C   0  0  0  0  0  0  0  0  0  0  0  0
    4.2402   -7.6370   14.6730 C   0  0  0  0  0  0  0  0  0  0  0  0
    5.1421   -6.4704   15.2093 C   0  0  0  0  0  0  0  0  0  0  0  0
   10.2530   -6.5653   17.4018 C   0  0  0  0  0  0  0  0  0  0  0  0
   11.5287   -4.4684   15.0583 P   0  0  0  0  0  0  0  0  0  0  0  0
    4.3049   -9.6076   17.7057 P   0  0  0  0  0  0  0  0  0  0  0  0
    9.4592   -4.1894   18.7835 Cl  0  0  0  0  0  0  0  0  0  0  0  0
    2.6940  -11.6431   17.8039 C   0  0  0  0  0  0  0  0  0  0  0  0
    9.9481   -5.0588   19.4595 C   0  0  0  0  0  0  0  0  0  0  0  0
    4.9553   -8.5374   16.7853 N   0  0  0  0  0  0  0  0  0  0  0  0
    9.9728   -4.1175   20.2064 I   0  0  0  0  0  0  0  0  0  0  0  0
    9.5921   -4.7050   18.4827 C   0  0  0  0  0  0  0  0  0  0  0  0
    9.4270   -4.8893   16.0103 O   0  0  0  0  0  0  0  0  0  0  0  0
    9.5782   -8.0565   17.6701 F   0  0  0  0  0  0  0  0  0  0  0  0
    5.7063   -9.5326   18.5944 He  0  0  0  0  0  0  0  0  0  0  0  0
    7.2792   -7.4520   17.9727 He  0  0  0  0  0  0  0  0  0  0  0  0
    7.5185   -8.1834   15.9160 He  0  0  0  0  0  0  0  0  0  0  0  0
    8.3091   -4.3792   15.9512 He  0  0  0  0  0  0  0  0  0  0  0  0
    9.3893   -3.6920   16.3649 He  0  0  0  0  0  0  0  0  0  0  0  0
    8.3037   -8.2450   15.7192 He  0  0  0  0  0  0  0  0  0  0  0  0
    3.5103  -10.0363   19.4505 He  0  0  0  0  0  0  0  0  0  0  0  0
   11.6003   -4.1047   17.1797 He  0  0  0  0  0  0  0  0  0  0  0  0
    5.0876  -11.2201   16.8292 He  0  0  0  0  0  0  0  0  0  0  0  0
    2.7510  -11.3045   17.4024 He  0  0  0  0  0  0  0  0  0  0  0  0
   11.9213   -4.6578   17.5987 He  0  0  0  0  0  0  0  0  0  0  0  0
    5.4793   -6.2588   19.7976 He  0  0  0  0  0  0  0  0  0  0  0  0
    8.8203   -6.4194   17.5842 He  0  0  0  0  0  0  0  0  0  0  0  0
    6.4084   -9.4578   16.3426 He  0  0  0  0  0  0  0  0  0  0  0  0
    8.1642   -5.7433   15.1486 He  0  0  0  0  0  0  0  0  0  0  0  0
  1  2  1  0
  1 10  3  0
  1 14  1  0
  2  7  1  0
  2 11  1  0
  2 12  4  0
  3 10  4  0
  3 13  2  0
  3 14  2  0
  4  8  3  0
  4 10  4  0
  4 12  1  0
  5 13  3  0
  7  8  2  0
  8 10  1  0
  8 11  4  0
  8 12  1  0
  9 10  4  0
  9 12  3  0
 11 13  1  0
 11 14  1  0
M  END
$$$$

 Created by Python create_sdf_string function

 29 62  0  0  0  0  0  0  0  0999 V2000
    4.1835   -9.3553   17.3781 N   0  0  0  0  0  0  0  0  0  0  0  0
    4.7211   -9.3428   17.3910 N   0  0  0  0  0  0  0  0  0  0  0  0
    4.8681   -7.5540   16.2200 Se  0  0  0  0  0  0  0  0  0  0  0  0
    7.3684   -9.6446   14.8491 P   0  0  0  0  0  0  0  0  0  0  0  0
    9.3889   -6.6871   17.2189 C   0  0  0  0  0  0  0  0  0  0  0  0
   11.7541   -4.5507   15.4609 C   0  0  0  0  0  0  0  0  0  0  0  0
    4.8274   -9.3323   17.6813 C   0  0  0  0  0  0  0  0  0  0  0  0
    4.6894  -11.3634   18.0276 C   0  0  0  0  0  0  0  0  0  0  0  0
    8.7452   -5.2601   17.8503 I   0  0  0  0  0  0  0  0  0  0  0  0
    9.6411   -3.3029   20.7588 O   0  0  0  0  0  0  0  0  0  0  0  0
   11.3851   -3.3028   18.7863 Cl  0  0  0  0  0  0  0  0  0  0  0  0
    9.2906   -4.5127   20.3713 C   0  0  0  0  0  0  0  0  0  0  0  0
    3.3890  -11.8261   18.2786 C   0  0  0  0  0  0  0  0  0  0  0  0
   10.6286   -4.9961   17.8587 C   0  0  0  0  0  0  0  0  0  0  0  0
    4.6081   -6.5145   20.4409 C   0  0  0  0  0  0  0  0  0  0  0  0
    9.7471   -6.7044   16.3474 O   0  0  0  0  0  0  0  0  0  0  0  0
    9.1415   -7.2895   17.9314 C   0  0  0  0  0  0  0  0  0  0  0  0
    8.5925   -8.8536   16.2087 C   0  0  0  0  0  0  0  0  0  0  0  0
    7.2537   -5.8437   15.0593 O   0  0  0  0  0  0  0  0  0  0  0  0
    5.5634   -7.2321   16.4966 He  0  0  0  0  0  0  0  0  0  0  0  0
    7.7178   -8.0609   16.2850 He  0  0  0  0  0  0  0  0  0  0  0  0
    9.8773   -3.5368   15.9032 He  0  0  0  0  0  0  0  0  0  0  0  0
    7.7877   -4.4773   16.6461 He  0  0  0  0  0  0  0  0  0  0  0  0
    8.4809   -7.5497   15.3225 He  0  0  0  0  0  0  0  0  0  0  0  0
   10.6689   -6.0158   19.7099 He  0  0  0  0  0  0  0  0  0  0  0  0
    3.4582  -12.0502   18.9571 He  0  0  0  0  0  0  0  0  0  0  0  0
    4.3419   -8.6091   17.0208 He  0  0  0  0  0  0  0  0  0  0  0  0
    5.6624  -11.3755   16.5371 He  0  0  0  0  0  0  0  0  0  0  0  0
    7.6137   -6.8292   18.5076 He  0  0  0  0  0  0  0  0  0  0  0  0
  1  5  3  0
  1 12  3  0
  1 19  1  0
  2  3  3  0
  2  4  4  0
  2  5  4  0
  2  7  4  0
  2  8  1  0
  2  9  2  0
  2 10  1  0
  2 11  3  0
  2 13  1  0
  2 14  3  0
  2 17  3  0
  2 18  2  0
  3  5  1  0
  3 11  4  0
  3 14  1  0
  3 15  4  0
  3 16  3  0
  3 17  2  0
  3 18  4  0
  3 19  3  0
  4  7  1  0
  4  8  1  0
  4  9  4  0
  4 11  4  0
  4 18  1  0
  5 14  2  0
  5 15  2  0
  5 18  1  0
  5 19  3  0
  6  7  3  0
  6 15  3  0
  6 18  2  0
  7 16  3  0
  8  9  2  0
  8 12  1  0
  8 19  1  0
  9 11  2  0
  9 17  2  0
 10 11  1  0
 10 13  2  0
 10 19  1  0
 11 13  4  0
 11 14  3  0
 11 17  3  0
 12 15  3  0
 12 16  1  0
 12 17  3  0
 12 18  4  0
 13 14  1  0
 13 16  2  0
 14 17  3  0
 14 18  3  0
 14 19  1  0
 15 17  4  0
 15 18  1  0
 16 17  1  0
 16 19  3  0
 17 18  2  0
 18 19  2  0
M  END
$$$$

 Created by Python create_sdf_string function

 29 68  0  0  0  0  0  0  0  0999 V2000
    5.7285   -7.9643   16.9313 S   0  0  0  0  0  0  0  0  0  0  0  0
    5.0924  -10.2312   17.4929 C   0  0  0  0  0  0  0  0  0  0  0  0
    4.3101   -5.4931   14.8129 C   0  0  0  0  0  0  0  0  0  0  0  0
    8.6629   -6.3418   17.1834 C   0  0  0  0  0  0  0  0  0  0  0  0
    8.8105   -9.6103   14.9534 F   0  0  0  0  0  0  0  0  0  0  0  0
    9.7146   -5.9930   17.4361 C   0  0  0  0  0  0  0  0  0  0  0  0
    9.1905   -4.1134   16.9807 Cl  0  0  0  0  0  0  0  0  0  0  0  0
    8.3462   -3.3063   16.7563 Br  0  0  0  0  0  0  0  0  0  0  0  0
    5.0017  -10.1902   18.2075 N   0  0  0  0  0  0  0  0  0  0  0  0
    6.8655   -8.7233   15.3306 F   0  0  0  0  0  0  0  0  0  0  0  0
    5.0378  -10.5428   18.1131 Br  0  0  0  0  0  0  0  0  0  0  0  0
    8.7286   -4.8877   18.3245 F   0  0  0  0  0  0  0  0  0  0  0  0
    6.0664   -7.5819   16.6170 C   0  0  0  0  0  0  0  0  0  0  0  0
   10.5880   -3.6537   20.1027 O   0  0  0  0  0  0  0  0  0  0  0  0
    6.0070   -9.8178   16.4288 S   0  0  0  0  0  0  0  0  0  0  0  0
    9.4711   -3.1357   18.1233 C   0  0  0  0  0  0  0  0  0  0  0  0
    2.9228  -12.0147   18.2795 C   0  0  0  0  0  0  0  0  0  0  0  0
   11.3479   -4.9565   18.6764 Se  0  0  0  0  0  0  0  0  0  0  0  0
    5.3854   -8.1009   18.1408 C   0  0  0  0  0  0  0  0  0  0  0  0
    9.9919   -7.6970   19.1761 C   0  0  0  0  0  0  0  0  0  0  0  0
    8.8126   -8.0768   15.9189 N   0  0  0  0  0  0  0  0  0  0  0  0
    7.9506   -5.7793   15.1408 O   0  0  0  0  0  0  0  0  0  0  0  0
    5.4647   -7.0742   17.5809 He  0  0  0  0  0  0  0  0  0  0  0  0
   10.6351   -2.6228   16.2790 He  0  0  0  0  0  0  0  0  0  0  0  0
    9.8300   -4.2079   18.7362 He  0  0  0  0  0  0  0  0  0  0  0  0
    3.3835  -12.3855   19.7705 He  0  0  0  0  0  0  0  0  0  0  0  0
   11.0643   -4.9708   19.5220 He  0  0  0  0  0  0  0  0  0  0  0  0
    6.8164   -9.6390   17.7119 He  0  0  0  0  0  0  0  0  0  0  0  0
    9.9348   -4.5954   16.5145 He  0  0  0  0  0  0  0  0  0  0  0  0
  1  3  4  0
  1  9  2  0
  1 18  3  0
  1 20  3  0
  2  7  2  0
  2  9  4  0
  2 11  1  0
  2 12  1  0
  2 13  3  0
  2 17  3  0
  2 21  4  0
  2 22  2  0
  3 19  1  0
  4  9  1  0
  5 11  3  0
  5 16  4  0
  5 17  1  0
  6  9  1  0
  6 14  4  0
  6 20  3  0
  6 21  2  0
  7  8  3  0
  7 10  2  0
  7 16  4  0
  7 17  1  0
  7 18  4  0
  7 21  2  0
  8  9  1  0
  8 11  4  0
  8 15  2  0
  8 16  4  0
  8 17  3  0
  8 19  2  0
  8 20  4  0
  8 21  2  0
  8 22  4  0
  9 10  2  0
  9 11  2  0
  9 14  1  0
  9 16  3  0
  9 17  1  0
  9 19  2  0
  9 20  1  0
  9 22  2  0
 10 14  3  0
 10 18  3  0
 10 20  4  0
 11 12  1  0
 11 13  3  0
 11 14  4  0
 11 18  3  0
 12 14  4  0
 12 16  1  0
 12 20  2  0
 12 21  4  0
 12 22  3  0
 13 15  3  0
 13 18  3  0
 13 19  3  0
 14 22  3  0
 15 17  1  0
 15 18  1  0
 16 20  3  0
 16 21  2  0
 17 22  2  0
 19 21  2  0
 19 22  1  0
 20 22  2  0
M  END
$$$$

 Created by Python create_sdf_string function

 29 62  0  0  0  0  0  0  0  0999 V2000
    5.6961   -8.3309   16.7673 C   0  0  0  0  0  0  0  0  0  0  0  0
    5.2559  -10.2278   17.7281 C   0  0  0  0  0  0  0  0  0  0  0  0
    5.7001   -4.8645   17.1628 N   0  0  0  0  0  0  0  0  0  0  0  0
    6.1205   -6.6419   16.6465 F   0  0  0  0  0  0  0  0  0  0  0  0
    9.1510   -6.4593   14.9171 C   0  0  0  0  0  0  0  0  0  0  0  0
    8.6302   -9.1934   15.2787 O   0  0  0  0  0  0  0  0  0  0  0  0
   10.7835   -4.4214   15.5251 C   0  0  0  0  0  0  0  0  0  0  0  0
   12.0304   -2.5843   16.8169 C   0  0  0  0  0  0  0  0  0  0  0  0
    4.9545  -10.9229   18.1402 C   0  0  0  0  0  0  0  0  0  0  0  0
    5.4020   -9.5773   17.1991 S   0  0  0  0  0  0  0  0  0  0  0  0
   10.6511   -4.0474   18.7989 C   0  0  0  0  0  0  0  0  0  0  0  0
    9.3122   -6.2874   19.2476 C   0  0  0  0  0  0  0  0  0  0  0  0
    7.3712   -8.2830   17.0795 C   0  0  0  0  0  0  0  0  0  0  0  0
   11.3472   -4.1765   19.9136 O   0  0  0  0  0  0  0  0  0  0  0  0
    6.2383  -10.1578   17.5500 C   0  0  0  0  0  0  0  0  0  0  0  0
   11.2994   -3.8417   17.8418 S   0  0  0  0  0  0  0  0  0  0  0  0
    4.4412  -12.1540   19.0038 C   0  0  0  0  0  0  0  0  0  0  0  0
    7.4569   -9.0179   16.3713 P   0  0  0  0  0  0  0  0  0  0  0  0
    8.1789   -6.3005   16.2846 O   0  0  0  0  0  0  0  0  0  0  0  0
    8.1689   -4.7547   16.9839 P   0  0  0  0  0  0  0  0  0  0  0  0
    9.4699   -7.5304   18.2225 He  0  0  0  0  0  0  0  0  0  0  0  0
    8.9133   -3.1719   15.6220 He  0  0  0  0  0  0  0  0  0  0  0  0
    6.4698   -8.6146   16.3583 He  0  0  0  0  0  0  0  0  0  0  0  0
    2.4880  -11.6186   20.0512 He  0  0  0  0  0  0  0  0  0  0  0  0
   10.9076   -4.5061   19.3009 He  0  0  0  0  0  0  0  0  0  0  0  0
   11.5990   -5.1424   19.0926 He  0  0  0  0  0  0  0  0  0  0  0  0
    4.5890   -8.9879   18.7173 He  0  0  0  0  0  0  0  0  0  0  0  0
   10.1492   -5.1904   16.9415 He  0  0  0  0  0  0  0  0  0  0  0  0
    9.2239   -8.3194   17.1993 He  0  0  0  0  0  0  0  0  0  0  0  0
  1  4  2  0
  1  7  2  0
  1 10  2  0
  1 12  4  0
  1 13  1  0
  1 14  2  0
  1 15  2  0
  1 18  3  0
  1 19  1  0
  1 20  3  0
  2  3  1  0
  2  9  3  0
  2 11  3  0
  2 12  2  0
  2 13  1  0
  3  4  1  0
  3  5  4  0
  3 10  3  0
  3 15  2  0
  3 18  2  0
  4  6  2  0
  4 10  2  0
  4 12  4  0
  5  7  4  0
  5  9  2  0
  5 11  4  0
  5 12  4  0
  5 14  4  0
  6 10  4  0
  6 14  3  0
  6 19  4  0
  6 20  3  0
  7  9  2  0
  7 14  4  0
  7 16  3  0
  8 10  2  0
  8 15  1  0
  9 12  3  0
  9 13  4  0
  9 16  2  0
  9 18  3  0
 10 15  2  0
 10 17  3  0
 10 19  2  0
 10 20  3  0
 11 17  3  0
 11 18  2  0
 12 13  2  0
 12 15  3  0
 12 20  1  0
 13 16  2  0
 13 20  3  0
 14 16  3  0
 14 18  2  0
 15 18  1  0
 15 19  1  0
 16 18  3  0
 16 20  2  0
 17 18  1  0
 17 20  2  0
 18 19  3  0
 19 20  2  0
M  END
$$$$

 Created by Python create_sdf_string function

 29 61  0  0  0  0  0  0  0  0999 V2000
    5.6582   -7.9359   17.2114 C   0  0  0  0  0  0  0  0  0  0  0  0
    4.0708  -11.5911   18.0378 C   0  0  0  0  0  0  0  0  0  0  0  0
    5.7479   -6.8106   15.0167 C   0  0  0  0  0  0  0  0  0  0  0  0
    5.9940   -6.5138   15.8382 C   0  0  0  0  0  0  0  0  0  0  0  0
    7.6417   -6.7541   15.5904 F   0  0  0  0  0  0  0  0  0  0  0  0
    8.2602   -8.8946   16.3513 O   0  0  0  0  0  0  0  0  0  0  0  0
   11.8916   -4.7630   16.0193 C   0  0  0  0  0  0  0  0  0  0  0  0
    6.3582   -8.8349   16.3661 C   0  0  0  0  0  0  0  0  0  0  0  0
    2.3132  -10.9120   19.1362 N   0  0  0  0  0  0  0  0  0  0  0  0
    8.3629   -6.2548   17.1533 P   0  0  0  0  0  0  0  0  0  0  0  0
    7.0282   -8.6798   17.5654 C   0  0  0  0  0  0  0  0  0  0  0  0
   10.2911   -4.2253   20.9643 C   0  0  0  0  0  0  0  0  0  0  0  0
   10.8253   -5.2521   20.0729 N   0  0  0  0  0  0  0  0  0  0  0  0
    6.1186  -10.0634   17.0007 S   0  0  0  0  0  0  0  0  0  0  0  0
   11.1834   -5.1524   18.9702 S   0  0  0  0  0  0  0  0  0  0  0  0
    4.0964   -9.3902   17.7113 C   0  0  0  0  0  0  0  0  0  0  0  0
    5.7740   -8.8564   16.2717 C   0  0  0  0  0  0  0  0  0  0  0  0
    9.7558   -4.2947   16.9279 C   0  0  0  0  0  0  0  0  0  0  0  0
    8.5463   -9.4627   18.1020 Se  0  0  0  0  0  0  0  0  0  0  0  0
    9.0996   -6.7113   16.7954 S   0  0  0  0  0  0  0  0  0  0  0  0
    9.7918   -5.7968   17.8142 N   0  0  0  0  0  0  0  0  0  0  0  0
    9.1485   -7.2798   18.4288 He  0  0  0  0  0  0  0  0  0  0  0  0
    8.4103   -3.1581   16.9320 He  0  0  0  0  0  0  0  0  0  0  0  0
   10.6806   -3.1324   16.3213 He  0  0  0  0  0  0  0  0  0  0  0  0
    4.5009   -9.6486   18.7310 He  0  0  0  0  0  0  0  0  0  0  0  0
    5.5293   -9.2587   16.6569 He  0  0  0  0  0  0  0  0  0  0  0  0
   11.3032   -2.2447   18.8645 He  0  0  0  0  0  0  0  0  0  0  0  0
   11.1539   -3.7205   17.9283 He  0  0  0  0  0  0  0  0  0  0  0  0
    3.5327  -10.8489   19.4873 He  0  0  0  0  0  0  0  0  0  0  0  0
  1  2  3  0
  1  5  1  0
  1  9  4  0
  1 18  1  0
  2  6  1  0
  2  8  3  0
  2 13  3  0
  2 17  3  0
  2 20  1  0
  3  4  2  0
  3  8  1  0
  3  9  3  0
  3 12  3  0
  3 16  4  0
  4  5  3  0
  4 11  3  0
  4 16  1  0
  4 17  2  0
  4 19  2  0
  5  8  1  0
  5 14  3  0
  5 15  3  0
  5 19  3  0
  5 21  1  0
  6 12  2  0
  6 17  3  0
  6 21  2  0
  7 10  2  0
  7 12  3  0
  7 14  2  0
  7 16  3  0
  7 18  4  0
  8 10  1  0
  8 12  1  0
  8 14  4  0
  8 15  2  0
  8 18  4  0
  8 20  4  0
  8 21  2  0
  9 10  4  0
  9 11  4  0
  9 15  2  0
  9 17  3  0
  9 20  2  0
 10 14  2  0
 10 16  4  0
 10 19  2  0
 11 17  4  0
 12 20  1  0
 13 19  4  0
 14 16  1  0
 14 17  3  0
 14 20  3  0
 15 17  4  0
 15 18  2  0
 15 19  1  0
 16 19  3  0
 16 20  4  0
 16 21  2  0
 17 18  3  0
 17 21  2  0
M  END
$$$$

 Created by Python create_sdf_string function

 29 48  0  0  0  0  0  0  0  0999 V2000
    3.7775  -10.4895   19.6962 C   0  0  0  0  0  0  0  0  0  0  0  0
    7.1069   -7.2011   14.2996 N   0  0  0  0  0  0  0  0  0  0  0  0
    3.7410  -10.7111   17.7495 C   0  0  0  0  0  0  0  0  0  0  0  0
    6.7995   -8.1497   16.9239 C   0  0  0  0  0  0  0  0  0  0  0  0
    6.2394   -8.9998   16.2328 N   0  0  0  0  0  0  0  0  0  0  0  0
   11.3768   -3.7977   19.1940 O   0  0  0  0  0  0  0  0  0  0  0  0
    3.2712  -11.8328   19.6196 F   0  0  0  0  0  0  0  0  0  0  0  0
    9.4763   -5.8843   18.1825 O   0  0  0  0  0  0  0  0  0  0  0  0
    6.4547   -8.5236   16.7323 S   0  0  0  0  0  0  0  0  0  0  0  0
   10.3337   -3.5155   21.0218 C   0  0  0  0  0  0  0  0  0  0  0  0
   10.2098   -5.0633   19.5252 C   0  0  0  0  0  0  0  0  0  0  0  0
    5.6108  -10.6770   16.7158 C   0  0  0  0  0  0  0  0  0  0  0  0
   10.2809   -3.2750   17.7914 C   0  0  0  0  0  0  0  0  0  0  0  0
    3.9452  -10.2956   18.6494 Br  0  0  0  0  0  0  0  0  0  0  0  0
    5.6975   -8.7740   16.7116 C   0  0  0  0  0  0  0  0  0  0  0  0
    8.9386   -5.3957   17.2759 N   0  0  0  0  0  0  0  0  0  0  0  0
    9.0449   -7.3740   16.9854 O   0  0  0  0  0  0  0  0  0  0  0  0
    8.7740   -5.4839   16.9992 O   0  0  0  0  0  0  0  0  0  0  0  0
   10.2667   -4.0805   18.6719 F   0  0  0  0  0  0  0  0  0  0  0  0
    5.3372   -7.7230   17.8029 He  0  0  0  0  0  0  0  0  0  0  0  0
    6.1807   -7.2145   16.4558 He  0  0  0  0  0  0  0  0  0  0  0  0
    5.9117   -6.0232   15.0615 He  0  0  0  0  0  0  0  0  0  0  0  0
    8.4093   -9.5752   17.3115 He  0  0  0  0  0  0  0  0  0  0  0  0
    8.2284   -6.6003   17.8256 He  0  0  0  0  0  0  0  0  0  0  0  0
   12.5737   -4.8566   16.5607 He  0  0  0  0  0  0  0  0  0  0  0  0
    9.6307   -4.0653   14.2061 He  0  0  0  0  0  0  0  0  0  0  0  0
   11.3333   -4.2637   17.1508 He  0  0  0  0  0  0  0  0  0  0  0  0
   10.0843   -5.8685   20.0108 He  0  0  0  0  0  0  0  0  0  0  0  0
    4.1998   -8.3534   17.4925 He  0  0  0  0  0  0  0  0  0  0  0  0
  1  5  3  0
  1  8  4  0
  1 12  4  0
  1 15  1  0
  1 16  3  0
  2  6  2  0
  2  7  1  0
  2  8  2  0
  2 11  2  0
  3  8  3  0
  3  9  4  0
  3 12  1  0
  3 13  3  0
  3 17  2  0
  3 19  1  0
  4  6  3  0
  4  7  1  0
  4 10  4  0
  4 15  1  0
  4 17  3  0
  5  6  2  0
  5 13  3  0
  5 17  3  0
  6  7  3  0
  6 10  4  0
  6 14  1  0
  6 18  2  0
  6 19  4  0
  7 11  1  0
  7 14  1  0
  7 18  2  0
  8  9  1  0
  8 12  3  0
  9 10  3  0
  9 18  2  0
  9 19  2  0
 10 15  1  0
 10 18  3  0
 10 19  4  0
 11 12  2  0
 12 14  4  0
 12 19  3  0
 13 14  4  0
 14 15  3  0
 14 18  3  0
 15 17  4  0
 17 18  3  0
 18 19  1  0
M  END
$$$$

 Created by Python create_sdf_string function

 29 35  0  0  0  0  0  0  0  0999 V2000
    6.7641   -7.1035   16.7986 C   0  0  0  0  0  0  0  0  0  0  0  0
    6.1908   -6.7398   16.7293 O   0  0  0  0  0  0  0  0  0  0  0  0
    7.7567   -9.0300   18.0046 C   0  0  0  0  0  0  0  0  0  0  0  0
   12.0906   -3.5173   15.7580 O   0  0  0  0  0  0  0  0  0  0  0  0
    8.8186   -3.6583   16.4013 O   0  0  0  0  0  0  0  0  0  0  0  0
    2.2860  -10.3816   19.2063 F   0  0  0  0  0  0  0  0  0  0  0  0
    6.9571   -8.3344   15.2772 C   0  0  0  0  0  0  0  0  0  0  0  0
    5.5144   -8.5690   17.0674 C   0  0  0  0  0  0  0  0  0  0  0  0
    2.4883  -10.7987   19.9058 F   0  0  0  0  0  0  0  0  0  0  0  0
   10.0106   -6.5247   18.0589 N   0  0  0  0  0  0  0  0  0  0  0  0
   10.2020   -4.4575   20.7029 F   0  0  0  0  0  0  0  0  0  0  0  0
   11.2711   -3.6042   17.5557 C   0  0  0  0  0  0  0  0  0  0  0  0
    4.3730   -9.6388   19.4348 C   0  0  0  0  0  0  0  0  0  0  0  0
    4.0576   -9.2599   17.5257 C   0  0  0  0  0  0  0  0  0  0  0  0
    5.6340   -7.9930   18.2877 C   0  0  0  0  0  0  0  0  0  0  0  0
   10.2085   -5.6978   16.6539 C   0  0  0  0  0  0  0  0  0  0  0  0
    4.4684  -11.7181   16.2911 He  0  0  0  0  0  0  0  0  0  0  0  0
    7.3088   -7.1474   15.3575 He  0  0  0  0  0  0  0  0  0  0  0  0
    8.6555   -6.6096   15.4993 He  0  0  0  0  0  0  0  0  0  0  0  0
    8.2487   -6.2673   16.9183 He  0  0  0  0  0  0  0  0  0  0  0  0
   11.0677   -3.8337   17.3834 He  0  0  0  0  0  0  0  0  0  0  0  0
   11.0495   -3.6748   20.1412 He  0  0  0  0  0  0  0  0  0  0  0  0
    7.1515   -9.9045   16.1713 He  0  0  0  0  0  0  0  0  0  0  0  0
   11.7844   -4.2037   20.5185 He  0  0  0  0  0  0  0  0  0  0  0  0
    6.3496  -10.0595   16.7159 He  0  0  0  0  0  0  0  0  0  0  0  0
   10.0816   -5.4997   19.4056 He  0  0  0  0  0  0  0  0  0  0  0  0
    9.6585   -4.7350   17.4858 He  0  0  0  0  0  0  0  0  0  0  0  0
    7.8627   -5.3914   16.4650 He  0  0  0  0  0  0  0  0  0  0  0  0
   10.8255   -3.7426   19.1395 He  0  0  0  0  0  0  0  0  0  0  0  0
  1  2  1  0
  1  3  4  0
  1  6  3  0
  1 11  1  0
  1 14  3  0
  1 16  3  0
  2  4  1  0
  2  6  3  0
  2  8  3  0
  2  9  3  0
  2 10  1  0
  3  4  4  0
  3 15  2  0
  4  6  1  0
  4  7  1  0
  4  9  4  0
  5  6  1  0
  5  9  4  0
  5 13  2  0
  5 16  1  0
  6 10  1  0
  6 13  4  0
  6 16  1  0
  7  8  2  0
  7 13  4  0
  8  9  4  0
  9 12  2  0
  9 14  1  0
 10 11  2  0
 10 12  2  0
 10 13  4  0
 11 15  1  0
 11 16  2  0
 13 16  3  0
 14 15  3  0
M  END
$$$$

 Created by Python create_sdf_string function

 29 43  0  0  0  0  0  0  0  0999 V2000
    6.3227  -10.6992   17.5860 Cl  0  0  0  0  0  0  0  0  0  0  0  0
    8.9584   -6.4403   17.7294 C   0  0  0  0  0  0  0  0  0  0  0  0
   12.6010   -2.6781   16.7271 O   0  0  0  0  0  0  0  0  0  0  0  0
   10.4457   -5.0790   16.9855 P   0  0  0  0  0  0  0  0  0  0  0  0
    6.1645   -8.0528   16.1139 C   0  0  0  0  0  0  0  0  0  0  0  0
   11.5065   -5.2184   20.1662 O   0  0  0  0  0  0  0  0  0  0  0  0
    4.2647  -10.9125   19.2777 O   0  0  0  0  0  0  0  0  0  0  0  0
    6.9666  -10.7041   15.1400 O   0  0  0  0  0  0  0  0  0  0  0  0
   10.4496   -4.5180   20.0590 C   0  0  0  0  0  0  0  0  0  0  0  0
   11.3701   -4.8200   21.6713 P   0  0  0  0  0  0  0  0  0  0  0  0
    4.4532  -11.4479   17.7181 B   0  0  0  0  0  0  0  0  0  0  0  0
    3.2920   -9.3964   18.3735 C   0  0  0  0  0  0  0  0  0  0  0  0
    4.5321   -8.7748   18.1946 C   0  0  0  0  0  0  0  0  0  0  0  0
   10.6527   -4.7331   17.2660 C   0  0  0  0  0  0  0  0  0  0  0  0
    8.0904   -6.1390   17.5073 C   0  0  0  0  0  0  0  0  0  0  0  0
   11.4003   -5.0708   19.3629 O   0  0  0  0  0  0  0  0  0  0  0  0
    5.9783   -7.8958   16.7799 He  0  0  0  0  0  0  0  0  0  0  0  0
    4.5030   -6.2681   17.0218 He  0  0  0  0  0  0  0  0  0  0  0  0
    7.9810   -8.0221   13.4384 He  0  0  0  0  0  0  0  0  0  0  0  0
    8.6949   -8.1601   15.1879 He  0  0  0  0  0  0  0  0  0  0  0  0
    7.9689   -8.6901   17.0872 He  0  0  0  0  0  0  0  0  0  0  0  0
    9.5965   -3.8419   16.2660 He  0  0  0  0  0  0  0  0  0  0  0  0
    3.0223   -9.8537   19.3672 He  0  0  0  0  0  0  0  0  0  0  0  0
    5.5272   -9.2039   16.8964 He  0  0  0  0  0  0  0  0  0  0  0  0
    9.0609   -7.4422   18.6062 He  0  0  0  0  0  0  0  0  0  0  0  0
    4.8512   -9.8684   17.3031 He  0  0  0  0  0  0  0  0  0  0  0  0
   11.7396   -2.3053   18.6948 He  0  0  0  0  0  0  0  0  0  0  0  0
   11.4095   -5.3461   18.8599 He  0  0  0  0  0  0  0  0  0  0  0  0
    8.5992   -6.4323   16.8758 He  0  0  0  0  0  0  0  0  0  0  0  0
  1  2  3  0
  1  3  3  0
  1 16  2  0
  2  6  4  0
  2  8  3  0
  2  9  2  0
  2 11  3  0
  2 14  3  0
  2 16  3  0
  3  4  1  0
  3  9  4  0
  3 11  2  0
  3 12  3  0
  3 14  1  0
  4  5  2  0
  4  9  1  0
  4 10  4  0
  4 11  4  0
  4 13  1  0
  5  8  1  0
  5 13  2  0
  5 14  4  0
  6  7  3  0
  6  9  4  0
  6 10  4  0
  6 11  2  0
  6 14  4  0
  6 15  1  0
  6 16  4  0
  7 11  4  0
  7 12  2  0
  7 13  1  0
  7 15  3  0
  8 11  3  0
  8 13  1  0
  9 10  3  0
 10 14  4  0
 10 16  2  0
 11 16  3  0
 12 14  3  0
 12 16  3  0
 13 14  3  0
 13 15  1  0
M  END
$$$$

 Created by Python create_sdf_string function

 29 32  0  0  0  0  0  0  0  0999 V2000
    5.3595   -7.4998   16.5656 P   0  0  0  0  0  0  0  0  0  0  0  0
    7.5909   -7.3100   15.3096 F   0  0  0  0  0  0  0  0  0  0  0  0
   11.8049   -2.6603   16.7891 O   0  0  0  0  0  0  0  0  0  0  0  0
   10.2469   -3.8323   15.5773 C   0  0  0  0  0  0  0  0  0  0  0  0
    8.5281   -5.2440   17.2705 C   0  0  0  0  0  0  0  0  0  0  0  0
    5.3297   -9.1299   17.2758 C   0  0  0  0  0  0  0  0  0  0  0  0
   11.2395   -5.0377   20.7635 F   0  0  0  0  0  0  0  0  0  0  0  0
    4.3883  -10.8695   18.5785 O   0  0  0  0  0  0  0  0  0  0  0  0
    8.7114   -7.7919   17.8855 O   0  0  0  0  0  0  0  0  0  0  0  0
    6.5738   -9.2327   13.9030 Cl  0  0  0  0  0  0  0  0  0  0  0  0
   10.7439   -4.3261   19.5189 N   0  0  0  0  0  0  0  0  0  0  0  0
   10.5448   -3.1532   18.7200 O   0  0  0  0  0  0  0  0  0  0  0  0
    4.4616  -11.2867   18.9541 F   0  0  0  0  0  0  0  0  0  0  0  0
   10.9468   -2.3464   17.2757 C   0  0  0  0  0  0  0  0  0  0  0  0
    7.7128   -5.9949   16.7886 C   0  0  0  0  0  0  0  0  0  0  0  0
    7.5580   -5.6844   17.2793 C   0  0  0  0  0  0  0  0  0  0  0  0
   12.7921   -5.9140   18.6503 C   0  0  0  0  0  0  0  0  0  0  0  0
    6.7886   -8.2005   17.4417 He  0  0  0  0  0  0  0  0  0  0  0  0
    6.2749  -10.3499   17.1334 He  0  0  0  0  0  0  0  0  0  0  0  0
    7.8046   -7.2653   13.9466 He  0  0  0  0  0  0  0  0  0  0  0  0
    7.8585   -9.3440   16.8847 He  0  0  0  0  0  0  0  0  0  0  0  0
    8.9530   -4.9751   18.7802 He  0  0  0  0  0  0  0  0  0  0  0  0
    1.9730  -10.5417   17.4734 He  0  0  0  0  0  0  0  0  0  0  0  0
    6.6929   -8.3811   16.5576 He  0  0  0  0  0  0  0  0  0  0  0  0
   10.8535   -4.4696   22.8492 He  0  0  0  0  0  0  0  0  0  0  0  0
    3.9397   -9.8601   17.8708 He  0  0  0  0  0  0  0  0  0  0  0  0
   12.1121   -4.3843   17.8496 He  0  0  0  0  0  0  0  0  0  0  0  0
    2.7902  -10.3022   17.2038 He  0  0  0  0  0  0  0  0  0  0  0  0
    5.0041   -8.2606   17.4096 He  0  0  0  0  0  0  0  0  0  0  0  0
  1  3  2  0
  1 12  3  0
  1 13  1  0
  1 14  2  0
  1 15  3  0
  2 10  2  0
  2 14  3  0
  3  7  2  0
  3 14  1  0
  3 16  4  0
  4  6  3  0
  4 13  1  0
  5  7  2  0
  5 15  1  0
  6  8  3  0
  6  9  1  0
  6 11  1  0
  6 15  3  0
  6 17  1  0
  7 11  4  0
  7 15  2  0
  8  9  4  0
  8 11  3  0
  8 15  2  0
  9 12  1  0
  9 14  4  0
 10 16  2  0
 11 17  3  0
 12 14  4  0
 12 16  1  0
 12 17  1  0
 13 14  3  0
M  END
$$$$

 Created by Python create_sdf_string function

 29 38  0  0  0  0  0  0  0  0999 V2000
    6.6466   -7.4390   16.9404 Cl  0  0  0  0  0  0  0  0  0  0  0  0
    5.6808  -10.7205   18.3099 F   0  0  0  0  0  0  0  0  0  0  0  0
    8.6346   -7.0621   16.6679 C   0  0  0  0  0  0  0  0  0  0  0  0
   12.0641   -3.3035   15.3228 C   0  0  0  0  0  0  0  0  0  0  0  0
    9.1499   -4.6255   15.9983 C   0  0  0  0  0  0  0  0  0  0  0  0
    6.1402   -8.6313   15.3839 O   0  0  0  0  0  0  0  0  0  0  0  0
   11.1562   -4.9538   20.0991 C   0  0  0  0  0  0  0  0  0  0  0  0
    2.8423  -10.7849   17.4511 C   0  0  0  0  0  0  0  0  0  0  0  0
    7.7073  -10.2309   15.5387 C   0  0  0  0  0  0  0  0  0  0  0  0
   11.9904   -4.0514   21.7928 C   0  0  0  0  0  0  0  0  0  0  0  0
    3.6339   -9.0132   16.4875 C   0  0  0  0  0  0  0  0  0  0  0  0
   11.2273   -4.2957   17.6916 C   0  0  0  0  0  0  0  0  0  0  0  0
   10.9647   -4.6438   18.3862 C   0  0  0  0  0  0  0  0  0  0  0  0
    3.0482   -8.7553   16.5975 C   0  0  0  0  0  0  0  0  0  0  0  0
   12.4879   -4.1896   16.8190 C   0  0  0  0  0  0  0  0  0  0  0  0
    8.6363   -6.5079   15.9539 P   0  0  0  0  0  0  0  0  0  0  0  0
   12.1015   -3.7290   18.9487 C   0  0  0  0  0  0  0  0  0  0  0  0
    5.0404   -8.7192   16.4025 He  0  0  0  0  0  0  0  0  0  0  0  0
    8.6712   -6.8126   15.7022 He  0  0  0  0  0  0  0  0  0  0  0  0
    7.5817   -8.8142   16.7922 He  0  0  0  0  0  0  0  0  0  0  0  0
    9.3151   -4.8774   18.6504 He  0  0  0  0  0  0  0  0  0  0  0  0
    8.6692   -5.9965   17.0960 He  0  0  0  0  0  0  0  0  0  0  0  0
    2.7731  -11.4743   18.2291 He  0  0  0  0  0  0  0  0  0  0  0  0
    5.5117   -8.6317   17.4394 He  0  0  0  0  0  0  0  0  0  0  0  0
    9.1416   -7.5494   18.6873 He  0  0  0  0  0  0  0  0  0  0  0  0
   10.7988   -5.7046   19.9424 He  0  0  0  0  0  0  0  0  0  0  0  0
    2.8125  -10.5966   19.3553 He  0  0  0  0  0  0  0  0  0  0  0  0
    5.6734   -9.1512   17.3188 He  0  0  0  0  0  0  0  0  0  0  0  0
    8.0035   -5.2166   16.9495 He  0  0  0  0  0  0  0  0  0  0  0  0
  1  2  2  0
  1  4  4  0
  1  6  1  0
  1  7  4  0
  1  8  4  0
  1  9  2  0
  1 14  4  0
  2  5  4  0
  2  8  2  0
  2 12  1  0
  2 13  1  0
  2 14  1  0
  2 15  3  0
  3  7  1  0
  3  8  3  0
  3 10  2  0
  3 11  4  0
  3 16  3  0
  3 17  3  0
  4  6  3  0
  4 15  1  0
  5  8  3  0
  6 11  3  0
  6 12  1  0
  7 13  4  0
  7 14  3  0
  8 14  3  0
  8 15  1  0
  8 17  1  0
  9 13  3  0
 10 11  4  0
 11 12  1  0
 11 13  2  0
 11 14  4  0
 12 16  2  0
 14 15  4  0
 14 17  1  0
 15 16  1  0
M  END
$$$$

 Created by Python create_sdf_string function

 29 50  0  0  0  0  0  0  0  0999 V2000
    7.4999   -7.6540   15.2219 C   0  0  0  0  0  0  0  0  0  0  0  0
    7.4496   -7.8814   17.4869 S   0  0  0  0  0  0  0  0  0  0  0  0
   10.8180   -3.4096   16.0856 N   0  0  0  0  0  0  0  0  0  0  0  0
    9.9777   -4.4659   16.3232 N   0  0  0  0  0  0  0  0  0  0  0  0
    9.3152   -6.6358   16.7738 C   0  0  0  0  0  0  0  0  0  0  0  0
    2.6678  -10.2584   18.5806 C   0  0  0  0  0  0  0  0  0  0  0  0
    6.2416   -8.5811   15.5473 C   0  0  0  0  0  0  0  0  0  0  0  0
    6.9896   -9.1567   18.2516 C   0  0  0  0  0  0  0  0  0  0  0  0
    2.6860  -11.8673   17.8156 C   0  0  0  0  0  0  0  0  0  0  0  0
    8.2845   -7.8108   15.8528 F   0  0  0  0  0  0  0  0  0  0  0  0
   10.7064   -5.1747   20.4445 Br  0  0  0  0  0  0  0  0  0  0  0  0
   12.0208   -4.6903   21.5075 C   0  0  0  0  0  0  0  0  0  0  0  0
    2.8438   -9.4409   15.5430 F   0  0  0  0  0  0  0  0  0  0  0  0
   10.5699   -3.5254   17.7029 C   0  0  0  0  0  0  0  0  0  0  0  0
    3.5944  -11.6076   19.7158 N   0  0  0  0  0  0  0  0  0  0  0  0
   10.5052   -4.7010   18.2350 P   0  0  0  0  0  0  0  0  0  0  0  0
    3.1780   -9.1622   17.6717 C   0  0  0  0  0  0  0  0  0  0  0  0
    4.5128  -10.1928   17.0324 C   0  0  0  0  0  0  0  0  0  0  0  0
   11.8142   -3.4968   17.0030 O   0  0  0  0  0  0  0  0  0  0  0  0
    8.4418   -6.3627   15.6107 C   0  0  0  0  0  0  0  0  0  0  0  0
   10.5729   -4.7338   20.4638 C   0  0  0  0  0  0  0  0  0  0  0  0
    6.7524   -7.6180   17.0982 He  0  0  0  0  0  0  0  0  0  0  0  0
    3.9249  -10.1664   18.2915 He  0  0  0  0  0  0  0  0  0  0  0  0
    4.3663   -9.2658   17.0937 He  0  0  0  0  0  0  0  0  0  0  0  0
    9.3138   -7.7801   16.7880 He  0  0  0  0  0  0  0  0  0  0  0  0
    8.9789   -5.5188   18.6792 He  0  0  0  0  0  0  0  0  0  0  0  0
   10.3226   -4.3089   19.3210 He  0  0  0  0  0  0  0  0  0  0  0  0
    8.4323   -7.1340   19.1305 He  0  0  0  0  0  0  0  0  0  0  0  0
    7.4758   -3.9356   16.5126 He  0  0  0  0  0  0  0  0  0  0  0  0
  1  7  2  0
  1  9  3  0
  1 16  3  0
  1 17  2  0
  1 20  2  0
  2  8  2  0
  2 11  4  0
  3  4  2  0
  3 10  4  0
  3 14  3  0
  3 19  1  0
  4 10  2  0
  4 14  3  0
  4 15  3  0
  5  8  1  0
  5 10  4  0
  5 13  2  0
  6  7  2  0
  6  8  2  0
  6  9  4  0
  6 19  1  0
  7  8  3  0
  7 10  4  0
  7 11  4  0
  7 12  1  0
  7 17  3  0
  7 21  1  0
  8 10  2  0
  8 11  2  0
  9 15  4  0
  9 17  3  0
  9 18  2  0
  9 21  1  0
 10 11  2  0
 10 19  4  0
 11 12  1  0
 11 13  3  0
 11 18  1  0
 11 21  3  0
 12 20  4  0
 13 16  4  0
 13 17  4  0
 13 18  3  0
 13 21  3  0
 14 15  1  0
 14 18  4  0
 14 21  3  0
 17 19  2  0
 19 20  1  0
 20 21  2  0
M  END
$$$$

 Created by Python create_sdf_string function

 29 42  0  0  0  0  0  0  0  0999 V2000
    7.4934   -7.4519   17.2606 C   0  0  0  0  0  0  0  0  0  0  0  0
    4.1013  -10.1922   18.1670 C   0  0  0  0  0  0  0  0  0  0  0  0
    8.5403   -7.1532   14.7115 S   0  0  0  0  0  0  0  0  0  0  0  0
    7.3080   -8.8916   16.3993 F   0  0  0  0  0  0  0  0  0  0  0  0
    7.3156   -8.0482   17.9997 C   0  0  0  0  0  0  0  0  0  0  0  0
   11.2092   -3.1084   16.3673 C   0  0  0  0  0  0  0  0  0  0  0  0
    8.3602   -3.6364   15.2643 N   0  0  0  0  0  0  0  0  0  0  0  0
    2.7241   -9.9313   17.3238 C   0  0  0  0  0  0  0  0  0  0  0  0
    2.1829  -11.6730   19.2365 C   0  0  0  0  0  0  0  0  0  0  0  0
    7.9355   -8.7125   14.8658 C   0  0  0  0  0  0  0  0  0  0  0  0
   10.5773   -5.1550   21.2171 I   0  0  0  0  0  0  0  0  0  0  0  0
   10.8467   -4.9980   21.4916 N   0  0  0  0  0  0  0  0  0  0  0  0
    3.0759  -10.1550   15.3096 C   0  0  0  0  0  0  0  0  0  0  0  0
   10.3633   -3.8053   16.7554 O   0  0  0  0  0  0  0  0  0  0  0  0
    1.6513   -9.9497   17.1936 F   0  0  0  0  0  0  0  0  0  0  0  0
    4.4511   -9.0433   16.2104 C   0  0  0  0  0  0  0  0  0  0  0  0
   12.1150   -2.2982   16.5782 O   0  0  0  0  0  0  0  0  0  0  0  0
    9.1048   -5.7839   16.5846 C   0  0  0  0  0  0  0  0  0  0  0  0
    9.8346   -4.6450   19.3270 Se  0  0  0  0  0  0  0  0  0  0  0  0
    3.3111  -10.8555   18.2144 He  0  0  0  0  0  0  0  0  0  0  0  0
    9.6743   -6.8744   19.2944 He  0  0  0  0  0  0  0  0  0  0  0  0
    8.4493   -6.5161   17.9566 He  0  0  0  0  0  0  0  0  0  0  0  0
    5.7936   -8.6497   15.3581 He  0  0  0  0  0  0  0  0  0  0  0  0
    6.9409   -8.9050   17.7592 He  0  0  0  0  0  0  0  0  0  0  0  0
   11.8912   -4.1134   19.5196 He  0  0  0  0  0  0  0  0  0  0  0  0
    8.9265   -7.0644   18.6750 He  0  0  0  0  0  0  0  0  0  0  0  0
    2.1175  -11.7341   18.5599 He  0  0  0  0  0  0  0  0  0  0  0  0
   11.2863   -5.1338   18.5832 He  0  0  0  0  0  0  0  0  0  0  0  0
    8.0115   -4.5106   15.4196 He  0  0  0  0  0  0  0  0  0  0  0  0
  1  2  4  0
  1  5  1  0
  1 10  1  0
  1 14  1  0
  1 17  4  0
  2  4  2  0
  2  7  3  0
  2 16  4  0
  2 19  3  0
  3 15  4  0
  3 18  3  0
  4  7  2  0
  4 10  3  0
  4 14  1  0
  4 18  3  0
  5 10  1  0
  5 14  2  0
  6 12  1  0
  7 14  1  0
  8 10  3  0
  8 12  1  0
  8 15  3  0
  8 17  3  0
  8 19  3  0
  9 11  4  0
  9 12  3  0
  9 14  3  0
 10 11  1  0
 10 12  1  0
 10 15  1  0
 10 16  1  0
 11 14  4  0
 11 15  4  0
 11 17  2  0
 11 19  3  0
 12 15  3  0
 12 17  2  0
 12 19  2  0
 13 19  1  0
 14 15  4  0
 14 18  4  0
 15 18  2  0
M  END
$$$$

 Created by Python create_sdf_string function

 29 62  0  0  0  0  0  0  0  0999 V2000
    8.5436   -7.4101   17.1375 C   0  0  0  0  0  0  0  0  0  0  0  0
    3.5408  -10.4355   18.3934 C   0  0  0  0  0  0  0  0  0  0  0  0
    4.4116   -9.3489   17.1921 S   0  0  0  0  0  0  0  0  0  0  0  0
    7.9819   -7.0748   15.1960 C   0  0  0  0  0  0  0  0  0  0  0  0
    8.2667   -8.4107   16.0513 B   0  0  0  0  0  0  0  0  0  0  0  0
    7.0843   -8.9509   17.1486 F   0  0  0  0  0  0  0  0  0  0  0  0
   11.4752   -3.7025   16.7955 F   0  0  0  0  0  0  0  0  0  0  0  0
    9.0229   -6.3840   18.2850 C   0  0  0  0  0  0  0  0  0  0  0  0
    2.8916  -10.3780   18.2077 C   0  0  0  0  0  0  0  0  0  0  0  0
    5.3149   -8.0480   18.5675 C   0  0  0  0  0  0  0  0  0  0  0  0
    1.8664  -11.2300   18.3841 C   0  0  0  0  0  0  0  0  0  0  0  0
    8.9125   -7.1046   17.5379 C   0  0  0  0  0  0  0  0  0  0  0  0
   11.9104   -4.5049   21.2220 N   0  0  0  0  0  0  0  0  0  0  0  0
    2.8442   -8.4930   16.2963 F   0  0  0  0  0  0  0  0  0  0  0  0
    9.8900   -4.1444   16.3913 B   0  0  0  0  0  0  0  0  0  0  0  0
    2.1610  -12.6141   17.4462 C   0  0  0  0  0  0  0  0  0  0  0  0
    1.5469   -9.7152   18.1417 C   0  0  0  0  0  0  0  0  0  0  0  0
    3.6605   -8.9503   17.0102 C   0  0  0  0  0  0  0  0  0  0  0  0
   11.8561   -1.7097   15.8112 O   0  0  0  0  0  0  0  0  0  0  0  0
    8.2425   -5.3494   15.3867 O   0  0  0  0  0  0  0  0  0  0  0  0
    8.5985   -6.4545   17.9718 C   0  0  0  0  0  0  0  0  0  0  0  0
   10.5621   -4.4641   19.3784 Cl  0  0  0  0  0  0  0  0  0  0  0  0
    9.9319   -6.5062   18.5321 He  0  0  0  0  0  0  0  0  0  0  0  0
    9.4507   -4.5085   17.1893 He  0  0  0  0  0  0  0  0  0  0  0  0
    5.8215   -8.8822   15.1899 He  0  0  0  0  0  0  0  0  0  0  0  0
   11.0859   -4.9773   18.7980 He  0  0  0  0  0  0  0  0  0  0  0  0
    8.2421   -8.3262   14.1036 He  0  0  0  0  0  0  0  0  0  0  0  0
   10.2591   -5.7461   21.1362 He  0  0  0  0  0  0  0  0  0  0  0  0
   10.1177   -3.7641   18.7730 He  0  0  0  0  0  0  0  0  0  0  0  0
  1  6  1  0
  1  9  4  0
  1 14  4  0
  1 18  3  0
  1 19  2  0
  1 20  1  0
  1 22  3  0
  2  3  4  0
  2  7  1  0
  2 10  3  0
  2 13  2  0
  2 17  2  0
  2 20  4  0
  2 22  4  0
  3  4  2  0
  3  6  1  0
  3  7  2  0
  3 13  3  0
  3 15  4  0
  3 18  4  0
  3 19  1  0
  4  6  1  0
  4 11  1  0
  4 13  1  0
  5  7  4  0
  5 15  1  0
  5 20  2  0
  6 10  4  0
  6 15  4  0
  6 21  1  0
  6 22  4  0
  7 12  4  0
  7 16  4  0
  7 18  2  0
  8 13  1  0
  8 16  2  0
  8 17  4  0
  8 18  1  0
  8 21  3  0
  8 22  1  0
  9 11  4  0
  9 12  3  0
  9 15  2  0
  9 22  3  0
 10 16  4  0
 10 22  2  0
 11 16  4  0
 11 19  4  0
 12 15  1  0
 12 22  2  0
 13 14  1  0
 13 18  3  0
 13 21  2  0
 14 16  4  0
 14 17  4  0
 14 18  4  0
 15 18  2  0
 15 20  3  0
 15 22  3  0
 17 19  1  0
 20 21  2  0
 20 22  4  0
M  END
$$$$

 Created by Python create_sdf_string function

 29 66  0  0  0  0  0  0  0  0999 V2000
    8.2836   -7.4939   16.8449 Br  0  0  0  0  0  0  0  0  0  0  0  0
    4.2394  -11.3316   17.8096 C   0  0  0  0  0  0  0  0  0  0  0  0
    5.2177   -8.6541   16.6316 C   0  0  0  0  0  0  0  0  0  0  0  0
    7.0824   -7.5294   15.5084 N   0  0  0  0  0  0  0  0  0  0  0  0
    8.2635   -8.2985   15.8361 C   0  0  0  0  0  0  0  0  0  0  0  0
    6.0165   -8.2483   16.3985 C   0  0  0  0  0  0  0  0  0  0  0  0
    9.4925   -7.2393   19.9592 B   0  0  0  0  0  0  0  0  0  0  0  0
   10.9560   -4.4664   17.4794 C   0  0  0  0  0  0  0  0  0  0  0  0
    9.4034   -6.0911   17.9877 P   0  0  0  0  0  0  0  0  0  0  0  0
    6.0683  -10.0409   14.4309 C   0  0  0  0  0  0  0  0  0  0  0  0
    6.8038   -8.4901   17.9311 C   0  0  0  0  0  0  0  0  0  0  0  0
    9.8243   -4.2523   18.8241 C   0  0  0  0  0  0  0  0  0  0  0  0
    2.6939  -10.6952   19.8509 N   0  0  0  0  0  0  0  0  0  0  0  0
    9.6884   -6.5496   17.3795 C   0  0  0  0  0  0  0  0  0  0  0  0
    8.5360   -8.7259   15.0657 C   0  0  0  0  0  0  0  0  0  0  0  0
   10.3269   -6.1037   20.6817 C   0  0  0  0  0  0  0  0  0  0  0  0
   10.9596   -4.1714   20.8184 P   0  0  0  0  0  0  0  0  0  0  0  0
    2.1019   -8.3550   17.4895 N   0  0  0  0  0  0  0  0  0  0  0  0
    9.8271   -4.3324   16.2661 C   0  0  0  0  0  0  0  0  0  0  0  0
   11.1913   -3.4782   18.2360 C   0  0  0  0  0  0  0  0  0  0  0  0
    1.4076   -8.8127   18.2381 F   0  0  0  0  0  0  0  0  0  0  0  0
    3.6174   -8.9525   17.9787 N   0  0  0  0  0  0  0  0  0  0  0  0
   11.1152   -1.8523   16.8666 F   0  0  0  0  0  0  0  0  0  0  0  0
    9.6479   -3.8275   18.0031 N   0  0  0  0  0  0  0  0  0  0  0  0
   10.8486   -2.6556   17.8609 He  0  0  0  0  0  0  0  0  0  0  0  0
    2.3984  -11.5560   17.3151 He  0  0  0  0  0  0  0  0  0  0  0  0
    1.7312  -12.4815   18.7728 He  0  0  0  0  0  0  0  0  0  0  0  0
    9.7233   -6.2240   17.8797 He  0  0  0  0  0  0  0  0  0  0  0  0
   10.1692   -4.3903   19.1688 He  0  0  0  0  0  0  0  0  0  0  0  0
  1  2  4  0
  1  3  2  0
  1 11  2  0
  1 15  1  0
  1 18  4  0
  2  3  4  0
  2 12  4  0
  2 14  2  0
  2 18  1  0
  2 19  3  0
  2 20  2  0
  3  4  3  0
  3  7  2  0
  3  9  1  0
  3 17  4  0
  4  6  3  0
  4  7  1  0
  4  9  3  0
  4 10  3  0
  4 15  1  0
  4 16  1  0
  4 17  1  0
  4 22  3  0
  4 24  3  0
  5  8  4  0
  5 10  2  0
  5 12  4  0
  5 14  1  0
  6  7  1  0
  6  9  3  0
  6 11  4  0
  6 15  3  0
  6 21  3  0
  7  9  1  0
  7 12  3  0
  7 16  1  0
  7 24  1  0
  8  9  2  0
  8 10  1  0
  8 15  3  0
  8 16  3  0
  8 19  1  0
  9 20  1  0
  9 23  3  0
 10 15  1  0
 11 12  4  0
 11 13  3  0
 11 23  3  0
 11 24  2  0
 12 20  4  0
 14 15  2  0
 14 16  1  0
 14 17  4  0
 14 23  4  0
 15 17  4  0
 15 18  2  0
 16 17  1  0
 16 21  1  0
 17 20  1  0
 17 22  4  0
 17 23  3  0
 18 21  2  0
 18 22  4  0
 20 21  4  0
 21 22  3  0
 22 23  1  0
M  END
$$$$

 Created by Python create_sdf_string function

 29 65  0  0  0  0  0  0  0  0999 V2000
    7.9131   -8.5573   17.1684 C   0  0  0  0  0  0  0  0  0  0  0  0
    4.5055  -10.8086   19.0433 C   0  0  0  0  0  0  0  0  0  0  0  0
    4.2461   -8.6450   14.8474 F   0  0  0  0  0  0  0  0  0  0  0  0
    6.6470   -8.3657   16.8914 Cl  0  0  0  0  0  0  0  0  0  0  0  0
    9.0096   -7.7921   19.9828 C   0  0  0  0  0  0  0  0  0  0  0  0
   10.3269   -2.9967   17.9893 C   0  0  0  0  0  0  0  0  0  0  0  0
    9.4930   -3.4744   16.0632 C   0  0  0  0  0  0  0  0  0  0  0  0
    9.9628   -6.9618   17.7313 C   0  0  0  0  0  0  0  0  0  0  0  0
    1.4959  -10.6140   18.4486 C   0  0  0  0  0  0  0  0  0  0  0  0
    6.4197   -7.6276   15.9310 C   0  0  0  0  0  0  0  0  0  0  0  0
    7.4532   -7.6310   17.4297 O   0  0  0  0  0  0  0  0  0  0  0  0
    8.5242   -7.0604   16.4576 C   0  0  0  0  0  0  0  0  0  0  0  0
    8.7462   -8.9726   15.0086 F   0  0  0  0  0  0  0  0  0  0  0  0
    2.7958   -9.0112   17.6514 N   0  0  0  0  0  0  0  0  0  0  0  0
    1.8595  -11.8609   19.2532 O   0  0  0  0  0  0  0  0  0  0  0  0
   11.0994   -2.9372   17.9359 C   0  0  0  0  0  0  0  0  0  0  0  0
    0.8560   -9.1505   17.6678 Cl  0  0  0  0  0  0  0  0  0  0  0  0
    3.5101   -9.2465   17.6653 N   0  0  0  0  0  0  0  0  0  0  0  0
    9.4303   -4.2558   16.8594 N   0  0  0  0  0  0  0  0  0  0  0  0
    9.5206   -7.2483   18.0474 C   0  0  0  0  0  0  0  0  0  0  0  0
    6.5722   -8.6666   15.1477 He  0  0  0  0  0  0  0  0  0  0  0  0
    8.9802   -8.1067   14.9823 He  0  0  0  0  0  0  0  0  0  0  0  0
   10.8079   -5.5535   19.4979 He  0  0  0  0  0  0  0  0  0  0  0  0
    2.3300  -10.0159   19.4547 He  0  0  0  0  0  0  0  0  0  0  0  0
   10.2663   -5.8165   21.4974 He  0  0  0  0  0  0  0  0  0  0  0  0
   10.8855   -4.3376   21.6282 He  0  0  0  0  0  0  0  0  0  0  0  0
    9.5288   -4.1800   16.6208 He  0  0  0  0  0  0  0  0  0  0  0  0
   11.9560   -2.3115   16.0429 He  0  0  0  0  0  0  0  0  0  0  0  0
   10.4537   -4.3853   19.0868 He  0  0  0  0  0  0  0  0  0  0  0  0
  1  3  4  0
  1  4  4  0
  1 10  3  0
  1 12  1  0
  1 13  2  0
  1 14  4  0
  2  7  2  0
  2  8  1  0
  2  9  4  0
  2 12  3  0
  2 17  4  0
  3  4  1  0
  3  8  3  0
  3 12  3  0
  3 16  3  0
  3 18  1  0
  3 20  1  0
  4  8  1  0
  4  9  1  0
  4 10  2  0
  4 11  4  0
  4 13  3  0
  4 20  1  0
  5  9  2  0
  5 10  1  0
  5 13  2  0
  5 15  4  0
  5 18  3  0
  5 19  4  0
  5 20  1  0
  6 11  1  0
  6 12  4  0
  6 16  4  0
  6 19  4  0
  7 10  1  0
  7 11  4  0
  7 12  2  0
  7 16  3  0
  7 18  2  0
  8  9  4  0
  8 15  3  0
  8 18  4  0
  8 19  3  0
  9 10  2  0
  9 17  4  0
  9 18  3  0
  9 19  3  0
 10 12  2  0
 10 14  1  0
 10 15  4  0
 10 19  3  0
 11 13  1  0
 11 16  4  0
 11 20  3  0
 12 20  1  0
 13 16  1  0
 13 19  3  0
 14 17  4  0
 14 18  1  0
 14 19  1  0
 15 16  2  0
 15 17  1  0
 16 19  2  0
 17 18  1  0
 17 19  1  0
M  END
$$$$

 Created by Python create_sdf_string function

 29 60  0  0  0  0  0  0  0  0999 V2000
    8.3956   -8.2883   18.8738 C   0  0  0  0  0  0  0  0  0  0  0  0
    3.4460   -9.8654   18.2618 C   0  0  0  0  0  0  0  0  0  0  0  0
    4.4963   -8.9109   16.2745 C   0  0  0  0  0  0  0  0  0  0  0  0
    7.2004   -7.9974   15.4592 C   0  0  0  0  0  0  0  0  0  0  0  0
    8.2270   -7.5807   15.3889 C   0  0  0  0  0  0  0  0  0  0  0  0
    5.9785   -8.2714   17.5366 C   0  0  0  0  0  0  0  0  0  0  0  0
   10.1501   -7.3948   19.7066 C   0  0  0  0  0  0  0  0  0  0  0  0
    9.9871   -5.9962   17.8184 C   0  0  0  0  0  0  0  0  0  0  0  0
    6.4859   -7.2687   16.4960 B   0  0  0  0  0  0  0  0  0  0  0  0
    6.6200   -8.2745   18.3470 N   0  0  0  0  0  0  0  0  0  0  0  0
    1.5611  -11.3452   19.0464 C   0  0  0  0  0  0  0  0  0  0  0  0
    8.1318   -7.5004   16.0721 C   0  0  0  0  0  0  0  0  0  0  0  0
    6.9093   -9.0862   15.7444 O   0  0  0  0  0  0  0  0  0  0  0  0
   10.5658   -3.5784   20.4296 C   0  0  0  0  0  0  0  0  0  0  0  0
    2.5822   -9.3380   16.7818 F   0  0  0  0  0  0  0  0  0  0  0  0
    9.0080   -4.4020   17.0438 C   0  0  0  0  0  0  0  0  0  0  0  0
    2.2155   -9.6824   17.3406 C   0  0  0  0  0  0  0  0  0  0  0  0
   10.9762   -2.7946   17.0479 O   0  0  0  0  0  0  0  0  0  0  0  0
   10.5520   -4.4573   16.8303 O   0  0  0  0  0  0  0  0  0  0  0  0
    8.0146   -7.3815   17.9868 C   0  0  0  0  0  0  0  0  0  0  0  0
   10.7581   -4.6622   17.3807 He  0  0  0  0  0  0  0  0  0  0  0  0
    8.5951   -5.3889   15.9620 He  0  0  0  0  0  0  0  0  0  0  0  0
    1.2355  -10.7324   18.0949 He  0  0  0  0  0  0  0  0  0  0  0  0
   11.1210   -3.6614   19.2349 He  0  0  0  0  0  0  0  0  0  0  0  0
   10.6871   -6.1612   20.9283 He  0  0  0  0  0  0  0  0  0  0  0  0
    1.3235  -11.2997   18.3330 He  0  0  0  0  0  0  0  0  0  0  0  0
   11.0707   -3.1523   18.6551 He  0  0  0  0  0  0  0  0  0  0  0  0
    3.7182   -8.7941   16.3710 He  0  0  0  0  0  0  0  0  0  0  0  0
   10.8585   -4.8144   19.2170 He  0  0  0  0  0  0  0  0  0  0  0  0
  1  3  3  0
  1  4  2  0
  1 10  1  0
  1 12  1  0
  1 13  3  0
  1 16  2  0
  2  6  4  0
  2 11  4  0
  2 13  2  0
  3 10  1  0
  3 12  4  0
  3 16  3  0
  3 17  2  0
  3 18  3  0
  4  6  2  0
  4  9  2  0
  4 13  2  0
  4 14  3  0
  4 18  2  0
  4 20  4  0
  5  7  1  0
  5  8  1  0
  5 11  1  0
  5 13  1  0
  5 16  2  0
  5 18  4  0
  6  9  1  0
  6 11  1  0
  6 15  2  0
  6 16  3  0
  7  9  1  0
  7 11  3  0
  7 13  2  0
  7 17  2  0
  7 20  3  0
  8 13  4  0
  8 17  1  0
  9 13  3  0
 10 11  2  0
 10 12  3  0
 10 19  2  0
 11 12  2  0
 11 16  2  0
 11 18  1  0
 11 19  2  0
 11 20  4  0
 12 13  2  0
 12 16  2  0
 12 17  3  0
 12 19  3  0
 12 20  1  0
 13 14  2  0
 13 16  1  0
 14 18  4  0
 14 19  3  0
 15 16  2  0
 15 17  1  0
 15 19  1  0
 16 19  2  0
 19 20  4  0
M  END
$$$$

 Created by Python create_sdf_string function

 29 61  0  0  0  0  0  0  0  0999 V2000
    9.0373   -6.3260   18.5536 C   0  0  0  0  0  0  0  0  0  0  0  0
    3.3531  -10.1082   18.7566 C   0  0  0  0  0  0  0  0  0  0  0  0
    7.0652   -8.4234   16.1371 C   0  0  0  0  0  0  0  0  0  0  0  0
    8.2369   -7.4213   15.4359 C   0  0  0  0  0  0  0  0  0  0  0  0
    9.6594   -7.3075   18.0202 Cl  0  0  0  0  0  0  0  0  0  0  0  0
   10.5461   -6.1636   18.4222 C   0  0  0  0  0  0  0  0  0  0  0  0
    0.4611  -10.2239   18.3310 O   0  0  0  0  0  0  0  0  0  0  0  0
    6.9073   -7.2896   16.9162 Cl  0  0  0  0  0  0  0  0  0  0  0  0
    4.9724   -7.4192   19.1896 C   0  0  0  0  0  0  0  0  0  0  0  0
   10.5458   -2.5879   18.8809 C   0  0  0  0  0  0  0  0  0  0  0  0
    2.7906  -11.8933   18.9382 C   0  0  0  0  0  0  0  0  0  0  0  0
    7.1927   -7.1501   16.2341 C   0  0  0  0  0  0  0  0  0  0  0  0
   11.3910   -5.0208   21.4746 C   0  0  0  0  0  0  0  0  0  0  0  0
   11.9446   -4.5842   21.2792 F   0  0  0  0  0  0  0  0  0  0  0  0
    2.6194   -9.1879   16.0828 O   0  0  0  0  0  0  0  0  0  0  0  0
    9.3213   -5.5418   16.0097 C   0  0  0  0  0  0  0  0  0  0  0  0
    1.8322  -11.8381   18.5973 O   0  0  0  0  0  0  0  0  0  0  0  0
   10.9388   -2.2451   17.1159 C   0  0  0  0  0  0  0  0  0  0  0  0
    1.5947   -9.9291   16.2366 C   0  0  0  0  0  0  0  0  0  0  0  0
    4.6811   -8.2240   17.1854 P   0  0  0  0  0  0  0  0  0  0  0  0
    9.5700   -3.6365   17.6202 C   0  0  0  0  0  0  0  0  0  0  0  0
    7.5955   -7.5248   17.6596 C   0  0  0  0  0  0  0  0  0  0  0  0
    4.2873   -8.7634   16.8486 He  0  0  0  0  0  0  0  0  0  0  0  0
    5.5712   -9.2049   17.7647 He  0  0  0  0  0  0  0  0  0  0  0  0
   10.1844   -4.6475   18.1147 He  0  0  0  0  0  0  0  0  0  0  0  0
    8.0866   -5.7094   14.7759 He  0  0  0  0  0  0  0  0  0  0  0  0
    6.0460  -10.0921   15.7730 He  0  0  0  0  0  0  0  0  0  0  0  0
   11.5256   -2.3681   16.5941 He  0  0  0  0  0  0  0  0  0  0  0  0
   10.0125   -4.7984   19.3054 He  0  0  0  0  0  0  0  0  0  0  0  0
  1  5  3  0
  1  9  1  0
  1 10  3  0
  1 18  3  0
  2  5  1  0
  2 12  2  0
  2 14  1  0
  2 16  4  0
  2 18  1  0
  2 20  4  0
  3  4  2  0
  3  5  4  0
  3  8  1  0
  3  9  4  0
  3 20  1  0
  3 21  3  0
  4  6  2  0
  4 12  1  0
  4 14  2  0
  4 15  4  0
  4 17  1  0
  4 20  1  0
  5  6  1  0
  5  8  3  0
  5 10  1  0
  5 11  4  0
  5 12  2  0
  5 20  1  0
  5 22  2  0
  6  7  2  0
  6 17  4  0
  7  8  1  0
  7 19  2  0
  8 12  3  0
  8 19  3  0
  8 20  1  0
  9 11  4  0
  9 16  4  0
  9 18  4  0
  9 19  4  0
  9 22  4  0
 10 15  3  0
 10 22  1  0
 11 12  3  0
 11 14  1  0
 12 20  3  0
 13 14  4  0
 13 15  2  0
 13 21  4  0
 14 16  4  0
 14 19  2  0
 14 21  4  0
 14 22  2  0
 15 19  4  0
 15 20  3  0
 16 17  2  0
 16 19  4  0
 17 19  3  0
 19 20  2  0
 19 21  1  0
 21 22  1  0
M  END
$$$$

 Created by Python create_sdf_string function

 29 50  0  0  0  0  0  0  0  0999 V2000
    8.7861   -5.2305   17.4475 C   0  0  0  0  0  0  0  0  0  0  0  0
    3.2219  -10.4707   18.5396 C   0  0  0  0  0  0  0  0  0  0  0  0
    6.2953   -8.6641   14.9966 C   0  0  0  0  0  0  0  0  0  0  0  0
    5.0751   -9.1924   17.6335 S   0  0  0  0  0  0  0  0  0  0  0  0
   10.2509   -7.9630   17.7865 I   0  0  0  0  0  0  0  0  0  0  0  0
   10.4226   -4.4046   17.4878 C   0  0  0  0  0  0  0  0  0  0  0  0
    7.5587   -5.3816   15.0825 O   0  0  0  0  0  0  0  0  0  0  0  0
    0.5815  -10.8302   17.3930 O   0  0  0  0  0  0  0  0  0  0  0  0
    7.0166   -7.9023   16.6365 C   0  0  0  0  0  0  0  0  0  0  0  0
    6.0257   -8.5230   17.7445 P   0  0  0  0  0  0  0  0  0  0  0  0
    6.0306  -10.8709   15.9170 O   0  0  0  0  0  0  0  0  0  0  0  0
   11.6772   -5.4626   20.9209 C   0  0  0  0  0  0  0  0  0  0  0  0
   11.4957   -3.7807   20.7703 O   0  0  0  0  0  0  0  0  0  0  0  0
    2.0998   -8.2659   16.4752 S   0  0  0  0  0  0  0  0  0  0  0  0
    9.4451   -4.2340   15.3104 C   0  0  0  0  0  0  0  0  0  0  0  0
   10.9078   -2.6605   17.2628 Se  0  0  0  0  0  0  0  0  0  0  0  0
    1.5015   -9.9148   16.5695 C   0  0  0  0  0  0  0  0  0  0  0  0
    4.4501  -10.1660   17.3010 C   0  0  0  0  0  0  0  0  0  0  0  0
    9.7262   -3.4928   16.5756 F   0  0  0  0  0  0  0  0  0  0  0  0
   10.1792   -5.2340   19.9752 O   0  0  0  0  0  0  0  0  0  0  0  0
    5.2601   -8.7827   17.4914 He  0  0  0  0  0  0  0  0  0  0  0  0
    8.3943   -7.7682   15.5169 He  0  0  0  0  0  0  0  0  0  0  0  0
    9.9220   -6.4683   18.8194 He  0  0  0  0  0  0  0  0  0  0  0  0
   11.5097   -2.7001   18.6251 He  0  0  0  0  0  0  0  0  0  0  0  0
    2.5880  -11.5810   18.8631 He  0  0  0  0  0  0  0  0  0  0  0  0
    8.0339   -7.9125   16.6947 He  0  0  0  0  0  0  0  0  0  0  0  0
    3.2351  -11.5941   18.9162 He  0  0  0  0  0  0  0  0  0  0  0  0
   11.8319   -3.1268   16.7086 He  0  0  0  0  0  0  0  0  0  0  0  0
    7.8568   -7.2355   18.6800 He  0  0  0  0  0  0  0  0  0  0  0  0
  1  2  2  0
  1 10  1  0
  1 13  4  0
  1 14  3  0
  1 15  1  0
  2  7  3  0
  2 16  2  0
  2 17  1  0
  2 18  2  0
  3  4  4  0
  3  9  1  0
  3 10  1  0
  3 13  1  0
  3 15  2  0
  4  5  2  0
  4  7  1  0
  4 11  1  0
  5  8  4  0
  5 14  2  0
  5 15  2  0
  5 16  1  0
  6  8  1  0
  6 11  3  0
  6 14  4  0
  6 17  3  0
  6 19  1  0
  6 20  2  0
  7 11  2  0
  7 15  4  0
  8 10  1  0
  8 11  2  0
  8 12  3  0
  8 14  1  0
  9 13  1  0
  9 14  1  0
  9 16  2  0
  9 18  3  0
 10 14  2  0
 11 12  1  0
 11 13  3  0
 11 15  4  0
 11 18  3  0
 12 15  2  0
 12 17  2  0
 13 14  1  0
 13 15  2  0
 13 16  1  0
 13 20  3  0
 15 18  3  0
 18 20  3  0
M  END
$$$$

 Created by Python create_sdf_string function

 29 26  0  0  0  0  0  0  0  0999 V2000
    8.8932   -5.7492   16.6445 F   0  0  0  0  0  0  0  0  0  0  0  0
    8.5473   -8.1880   14.3121 C   0  0  0  0  0  0  0  0  0  0  0  0
    5.5963   -8.8876   16.6119 C   0  0  0  0  0  0  0  0  0  0  0  0
   10.0436   -8.5537   18.4996 C   0  0  0  0  0  0  0  0  0  0  0  0
   10.0890   -5.4207   17.4086 C   0  0  0  0  0  0  0  0  0  0  0  0
    8.0967   -5.3380   16.2291 O   0  0  0  0  0  0  0  0  0  0  0  0
    7.4633   -8.3371   16.4496 C   0  0  0  0  0  0  0  0  0  0  0  0
    2.1421  -12.1560   19.2247 C   0  0  0  0  0  0  0  0  0  0  0  0
    7.7455   -7.9384   16.5642 C   0  0  0  0  0  0  0  0  0  0  0  0
    6.1168  -10.8285   16.3915 O   0  0  0  0  0  0  0  0  0  0  0  0
   12.4760   -4.0419   20.0187 O   0  0  0  0  0  0  0  0  0  0  0  0
    9.2016   -5.8146   16.8345 C   0  0  0  0  0  0  0  0  0  0  0  0
    2.5757   -9.9752   17.0264 C   0  0  0  0  0  0  0  0  0  0  0  0
   10.1451   -4.5722   16.3543 C   0  0  0  0  0  0  0  0  0  0  0  0
    8.4812   -7.9250   17.7449 C   0  0  0  0  0  0  0  0  0  0  0  0
    1.9929   -9.8312   18.4411 He  0  0  0  0  0  0  0  0  0  0  0  0
    5.1637   -8.9080   17.0620 He  0  0  0  0  0  0  0  0  0  0  0  0
    7.0123   -8.8542   16.0864 He  0  0  0  0  0  0  0  0  0  0  0  0
   10.9570   -5.3088   18.2730 He  0  0  0  0  0  0  0  0  0  0  0  0
    1.1696   -9.8458   17.0923 He  0  0  0  0  0  0  0  0  0  0  0  0
    6.8874   -7.9811   17.0627 He  0  0  0  0  0  0  0  0  0  0  0  0
   11.6123   -2.8245   18.8545 He  0  0  0  0  0  0  0  0  0  0  0  0
    9.3957   -5.5193   20.7442 He  0  0  0  0  0  0  0  0  0  0  0  0
    2.9338   -9.6266   17.2532 He  0  0  0  0  0  0  0  0  0  0  0  0
    3.2725  -10.4799   19.2505 He  0  0  0  0  0  0  0  0  0  0  0  0
   11.7001   -3.3213   18.3191 He  0  0  0  0  0  0  0  0  0  0  0  0
    4.1221   -9.2388   17.5187 He  0  0  0  0  0  0  0  0  0  0  0  0
   11.3962   -2.7885   16.9083 He  0  0  0  0  0  0  0  0  0  0  0  0
   10.6596   -5.0563   19.9068 He  0  0  0  0  0  0  0  0  0  0  0  0
  1  2  2  0
  1  3  1  0
  1  5  1  0
  1  6  4  0
  1 14  3  0
  2  4  3  0
  2  6  4  0
  3  4  3  0
  3 11  4  0
  3 12  1  0
  4  6  3  0
  4  9  1  0
  4 11  2  0
  5 10  1  0
  5 14  3  0
  5 15  1  0
  6  9  2  0
  7  9  1  0
  7 14  1  0
  8 10  4  0
  8 13  3  0
  8 14  3  0
  9 15  4  0
 10 13  2  0
 10 14  3  0
 11 12  3  0
M  END
$$$$

 Created by Python create_sdf_string function

 29 57  0  0  0  0  0  0  0  0999 V2000
    8.6304   -5.9004   16.1265 Se  0  0  0  0  0  0  0  0  0  0  0  0
    1.3049  -10.7374   17.8786 N   0  0  0  0  0  0  0  0  0  0  0  0
    7.0402   -8.8512   15.9066 C   0  0  0  0  0  0  0  0  0  0  0  0
    9.2540   -7.5349   14.4600 C   0  0  0  0  0  0  0  0  0  0  0  0
    5.3990   -7.7846   16.7821 C   0  0  0  0  0  0  0  0  0  0  0  0
    9.4234   -7.8698   18.1089 O   0  0  0  0  0  0  0  0  0  0  0  0
   10.4440   -4.9892   17.7054 C   0  0  0  0  0  0  0  0  0  0  0  0
    8.4553   -5.0950   15.5040 O   0  0  0  0  0  0  0  0  0  0  0  0
   10.4031   -3.9221   17.8509 C   0  0  0  0  0  0  0  0  0  0  0  0
    0.8829   -9.9046   16.9495 C   0  0  0  0  0  0  0  0  0  0  0  0
    6.1252   -8.1436   17.2743 C   0  0  0  0  0  0  0  0  0  0  0  0
   10.9564   -2.9070   17.6594 O   0  0  0  0  0  0  0  0  0  0  0  0
    2.2089  -11.1740   18.6091 C   0  0  0  0  0  0  0  0  0  0  0  0
    7.3243  -10.8159   15.8183 O   0  0  0  0  0  0  0  0  0  0  0  0
    9.8666   -4.8280   20.7115 C   0  0  0  0  0  0  0  0  0  0  0  0
    9.0884   -6.0548   16.7550 F   0  0  0  0  0  0  0  0  0  0  0  0
    3.2019  -10.5468   17.8482 C   0  0  0  0  0  0  0  0  0  0  0  0
   11.0798   -3.2764   19.6044 S   0  0  0  0  0  0  0  0  0  0  0  0
    2.1886   -9.0538   16.7722 O   0  0  0  0  0  0  0  0  0  0  0  0
   11.3845   -2.5324   17.8778 C   0  0  0  0  0  0  0  0  0  0  0  0
   10.0693   -4.5608   16.1745 C   0  0  0  0  0  0  0  0  0  0  0  0
    8.2256   -6.7889   17.6528 C   0  0  0  0  0  0  0  0  0  0  0  0
    5.3756   -9.4749   17.3467 He  0  0  0  0  0  0  0  0  0  0  0  0
    6.8401   -9.1521   15.9637 He  0  0  0  0  0  0  0  0  0  0  0  0
    7.8571   -8.0939   16.7335 He  0  0  0  0  0  0  0  0  0  0  0  0
   13.1606   -3.9252   20.0757 He  0  0  0  0  0  0  0  0  0  0  0  0
    2.2651   -8.8738   17.0935 He  0  0  0  0  0  0  0  0  0  0  0  0
    4.0970   -9.3452   17.4999 He  0  0  0  0  0  0  0  0  0  0  0  0
    9.7524   -4.4231   20.7004 He  0  0  0  0  0  0  0  0  0  0  0  0
  1  3  3  0
  1  6  4  0
  1  7  1  0
  2  4  1  0
  2  5  1  0
  2 10  4  0
  2 11  4  0
  2 16  3  0
  2 17  1  0
  2 19  2  0
  2 22  3  0
  3 14  3  0
  3 16  4  0
  3 17  1  0
  3 22  4  0
  4 20  4  0
  4 22  1  0
  5 16  2  0
  6  8  3  0
  6 10  4  0
  6 14  1  0
  6 15  1  0
  6 17  1  0
  7  9  1  0
  7 10  1  0
  7 12  3  0
  7 13  4  0
  7 21  1  0
  8  9  3  0
  8 11  2  0
  8 13  2  0
  8 14  1  0
  8 16  2  0
  8 17  1  0
  8 19  2  0
  9 16  3  0
  9 20  2  0
  9 21  1  0
  9 22  2  0
 10 13  4  0
 10 18  1  0
 10 19  4  0
 12 14  4  0
 12 15  2  0
 12 20  1  0
 12 22  1  0
 13 17  4  0
 13 20  2  0
 14 15  2  0
 15 16  2  0
 15 19  4  0
 15 20  4  0
 15 21  2  0
 16 18  2  0
 16 21  2  0
 18 20  2  0
 18 22  3  0
M  END
$$$$

 Created by Python create_sdf_string function

 29 45  0  0  0  0  0  0  0  0999 V2000
   10.1463   -5.4065   17.1633 P   0  0  0  0  0  0  0  0  0  0  0  0
    0.8315  -11.5515   18.4596 C   0  0  0  0  0  0  0  0  0  0  0  0
    4.9548   -9.1661   18.6580 C   0  0  0  0  0  0  0  0  0  0  0  0
    6.3268   -9.2998   15.9495 C   0  0  0  0  0  0  0  0  0  0  0  0
    8.9463   -8.7224   17.6706 C   0  0  0  0  0  0  0  0  0  0  0  0
   10.0159   -5.0400   17.6091 Cl  0  0  0  0  0  0  0  0  0  0  0  0
    7.5192   -5.0021   16.7241 O   0  0  0  0  0  0  0  0  0  0  0  0
   10.2631   -5.0940   17.2452 C   0  0  0  0  0  0  0  0  0  0  0  0
   -0.1357  -10.4623   16.5036 C   0  0  0  0  0  0  0  0  0  0  0  0
    9.0955   -9.1702   15.5260 C   0  0  0  0  0  0  0  0  0  0  0  0
    5.9707   -7.8451   18.3484 C   0  0  0  0  0  0  0  0  0  0  0  0
   11.7822   -2.7247   18.4724 O   0  0  0  0  0  0  0  0  0  0  0  0
    2.9555  -11.0953   18.1753 O   0  0  0  0  0  0  0  0  0  0  0  0
    7.1814  -10.1874   15.3913 O   0  0  0  0  0  0  0  0  0  0  0  0
   11.5598   -4.3595   20.8186 N   0  0  0  0  0  0  0  0  0  0  0  0
    3.6133  -12.0027   17.7428 C   0  0  0  0  0  0  0  0  0  0  0  0
    2.5992   -9.2673   16.8953 S   0  0  0  0  0  0  0  0  0  0  0  0
   11.8377   -3.3741   17.8753 C   0  0  0  0  0  0  0  0  0  0  0  0
    8.5001   -6.7888   17.3459 C   0  0  0  0  0  0  0  0  0  0  0  0
   10.4123   -4.5892   20.4216 F   0  0  0  0  0  0  0  0  0  0  0  0
    8.1344   -8.0454   16.5814 He  0  0  0  0  0  0  0  0  0  0  0  0
    3.5461   -8.1642   17.6138 He  0  0  0  0  0  0  0  0  0  0  0  0
    7.2578   -8.9717   17.7738 He  0  0  0  0  0  0  0  0  0  0  0  0
   11.3477   -4.0658   20.4899 He  0  0  0  0  0  0  0  0  0  0  0  0
    3.4881   -7.9877   16.6729 He  0  0  0  0  0  0  0  0  0  0  0  0
    9.0890   -5.8864   16.2093 He  0  0  0  0  0  0  0  0  0  0  0  0
   11.8198   -3.2478   19.8006 He  0  0  0  0  0  0  0  0  0  0  0  0
    2.4726   -8.2446   16.1337 He  0  0  0  0  0  0  0  0  0  0  0  0
   10.8829   -4.3176   15.7747 He  0  0  0  0  0  0  0  0  0  0  0  0
  1  2  2  0
  1  3  2  0
  1  5  1  0
  1 13  3  0
  1 16  4  0
  1 19  4  0
  2  7  1  0
  2  9  4  0
  2 15  3  0
  2 16  4  0
  2 17  2  0
  3  6  3  0
  3  8  1  0
  3  9  3  0
  3 17  1  0
  4 10  4  0
  4 12  3  0
  4 19  4  0
  5  6  3  0
  5 16  2  0
  5 17  4  0
  5 19  1  0
  6  7  2  0
  6 15  4  0
  7 13  3  0
  7 14  2  0
  7 17  4  0
  7 18  1  0
  7 20  2  0
  8 17  2  0
  9 10  4  0
  9 17  1  0
 10 11  3  0
 10 13  4  0
 11 17  2  0
 11 19  3  0
 11 20  3  0
 13 14  2  0
 13 20  2  0
 14 15  4  0
 14 16  3  0
 15 16  2  0
 15 19  4  0
 15 20  3  0
 16 17  4  0
M  END
$$$$

 Created by Python create_sdf_string function

 29 68  0  0  0  0  0  0  0  0999 V2000
    9.2366   -4.8695   17.8719 C   0  0  0  0  0  0  0  0  0  0  0  0
    0.8030  -10.9175   17.5735 C   0  0  0  0  0  0  0  0  0  0  0  0
    4.9246   -9.5840   18.3053 Cl  0  0  0  0  0  0  0  0  0  0  0  0
    6.9666   -8.4029   16.6553 C   0  0  0  0  0  0  0  0  0  0  0  0
    7.6356   -8.7315   16.6405 C   0  0  0  0  0  0  0  0  0  0  0  0
    3.8120   -9.0238   17.5942 C   0  0  0  0  0  0  0  0  0  0  0  0
    9.4902   -7.1921   17.8317 C   0  0  0  0  0  0  0  0  0  0  0  0
    9.5864   -5.3133   18.5831 C   0  0  0  0  0  0  0  0  0  0  0  0
    7.3271   -4.7353   15.7050 O   0  0  0  0  0  0  0  0  0  0  0  0
    9.7421   -5.2261   17.5076 C   0  0  0  0  0  0  0  0  0  0  0  0
    0.7867  -10.3007   17.0769 C   0  0  0  0  0  0  0  0  0  0  0  0
    9.9261   -7.7552   15.5150 N   0  0  0  0  0  0  0  0  0  0  0  0
    5.9882   -8.1549   17.4926 N   0  0  0  0  0  0  0  0  0  0  0  0
   11.5573   -2.2045   17.2077 O   0  0  0  0  0  0  0  0  0  0  0  0
    7.3208   -9.0876   17.7640 O   0  0  0  0  0  0  0  0  0  0  0  0
    6.1628  -10.6718   15.3712 F   0  0  0  0  0  0  0  0  0  0  0  0
   11.5605   -3.8869   19.6874 C   0  0  0  0  0  0  0  0  0  0  0  0
   10.3955   -4.5670   20.8960 C   0  0  0  0  0  0  0  0  0  0  0  0
    2.5506   -8.3248   16.8823 C   0  0  0  0  0  0  0  0  0  0  0  0
    8.6209   -5.1668   16.6158 C   0  0  0  0  0  0  0  0  0  0  0  0
   11.5972   -4.0795   19.5415 Cl  0  0  0  0  0  0  0  0  0  0  0  0
    2.6894  -10.0018   17.1324 F   0  0  0  0  0  0  0  0  0  0  0  0
   11.1409   -3.5699   17.5529 C   0  0  0  0  0  0  0  0  0  0  0  0
    8.9805   -6.1513   16.5590 C   0  0  0  0  0  0  0  0  0  0  0  0
    2.6753  -11.1145   18.2409 He  0  0  0  0  0  0  0  0  0  0  0  0
    2.5631  -10.5795   18.8147 He  0  0  0  0  0  0  0  0  0  0  0  0
    1.8711  -10.0473   16.3364 He  0  0  0  0  0  0  0  0  0  0  0  0
   11.7115   -4.1594   16.3887 He  0  0  0  0  0  0  0  0  0  0  0  0
    9.6962   -5.0820   20.1576 He  0  0  0  0  0  0  0  0  0  0  0  0
  1  5  4  0
  1 10  4  0
  1 12  1  0
  1 14  2  0
  1 16  2  0
  1 20  1  0
  1 22  4  0
  2  4  4  0
  2 20  1  0
  2 24  1  0
  3  6  3  0
  3  8  4  0
  3 15  1  0
  3 18  4  0
  3 20  3  0
  4  6  4  0
  4  8  3  0
  4 22  2  0
  4 23  1  0
  5  6  4  0
  5  8  3  0
  5 11  1  0
  5 19  1  0
  5 22  2  0
  5 24  1  0
  6 13  1  0
  6 23  3  0
  6 24  3  0
  7 10  4  0
  7 12  2  0
  7 14  4  0
  7 15  1  0
  7 19  2  0
  7 20  2  0
  7 24  1  0
  8 11  4  0
  8 14  1  0
  8 22  2  0
  8 23  1  0
  9 10  4  0
  9 13  2  0
  9 14  4  0
  9 15  3  0
  9 16  2  0
  9 21  3  0
 10 12  4  0
 11 16  1  0
 11 23  4  0
 12 14  4  0
 12 17  2  0
 12 18  4  0
 12 21  4  0
 12 22  3  0
 13 19  4  0
 13 23  2  0
 15 17  3  0
 16 20  1  0
 16 21  2  0
 16 22  4  0
 17 19  2  0
 17 20  3  0
 18 21  2  0
 18 24  3  0
 19 22  1  0
 20 22  2  0
 20 24  4  0
 21 22  1  0
 22 24  2  0
M  END
$$$$

 Created by Python create_sdf_string function

 29 48  0  0  0  0  0  0  0  0999 V2000
    9.6621   -5.3057   17.6908 N   0  0  0  0  0  0  0  0  0  0  0  0
    1.3094  -11.1178   18.3048 C   0  0  0  0  0  0  0  0  0  0  0  0
    6.2537  -10.0272   18.7408 C   0  0  0  0  0  0  0  0  0  0  0  0
    7.7882   -7.8152   16.5731 C   0  0  0  0  0  0  0  0  0  0  0  0
    3.8911   -8.7505   17.0561 C   0  0  0  0  0  0  0  0  0  0  0  0
   10.2255   -4.4223   18.7510 O   0  0  0  0  0  0  0  0  0  0  0  0
    7.7372   -5.0299   15.5818 C   0  0  0  0  0  0  0  0  0  0  0  0
    0.9721  -10.4473   17.0922 C   0  0  0  0  0  0  0  0  0  0  0  0
    4.3812   -7.9854   16.9674 N   0  0  0  0  0  0  0  0  0  0  0  0
   12.4154   -1.8339   16.4446 O   0  0  0  0  0  0  0  0  0  0  0  0
    2.7663  -11.1107   18.4938 C   0  0  0  0  0  0  0  0  0  0  0  0
    7.4714   -8.5382   17.1534 O   0  0  0  0  0  0  0  0  0  0  0  0
   10.6745   -3.6182   21.3273 C   0  0  0  0  0  0  0  0  0  0  0  0
    8.2334   -5.3573   16.7108 C   0  0  0  0  0  0  0  0  0  0  0  0
    3.1314  -10.3074   18.8217 C   0  0  0  0  0  0  0  0  0  0  0  0
   10.7973   -3.9948   20.6696 N   0  0  0  0  0  0  0  0  0  0  0  0
    1.1533   -9.0059   16.2653 C   0  0  0  0  0  0  0  0  0  0  0  0
   10.9589   -4.1959   17.7813 C   0  0  0  0  0  0  0  0  0  0  0  0
   11.9284   -3.8824   16.8658 N   0  0  0  0  0  0  0  0  0  0  0  0
    8.4132   -7.0076   16.8190 C   0  0  0  0  0  0  0  0  0  0  0  0
    9.6116   -4.6682   20.4767 C   0  0  0  0  0  0  0  0  0  0  0  0
    6.7210   -8.4681   15.2989 He  0  0  0  0  0  0  0  0  0  0  0  0
    8.7672   -7.4325   18.3545 He  0  0  0  0  0  0  0  0  0  0  0  0
   10.6374   -5.7467   17.7197 He  0  0  0  0  0  0  0  0  0  0  0  0
    7.9920   -8.1505   16.4968 He  0  0  0  0  0  0  0  0  0  0  0  0
    5.8009   -9.7055   14.6886 He  0  0  0  0  0  0  0  0  0  0  0  0
   11.7969   -4.1592   19.1459 He  0  0  0  0  0  0  0  0  0  0  0  0
    3.6702   -7.4811   16.3544 He  0  0  0  0  0  0  0  0  0  0  0  0
    3.0011   -9.8339   17.1668 He  0  0  0  0  0  0  0  0  0  0  0  0
  1  5  2  0
  1  6  4  0
  1 14  1  0
  1 15  3  0
  1 21  2  0
  2  8  4  0
  2 11  4  0
  2 14  3  0
  3  5  1  0
  3 12  1  0
  3 15  2  0
  3 16  4  0
  4  6  2  0
  4 18  3  0
  4 20  1  0
  5  8  2  0
  5 10  2  0
  5 12  3  0
  5 13  3  0
  5 14  4  0
  5 17  4  0
  6 11  3  0
  6 16  1  0
  6 17  2  0
  6 21  2  0
  7 12  2  0
  7 14  2  0
  7 20  4  0
  8 13  1  0
  8 16  3  0
  8 17  3  0
  9 15  1  0
  9 16  3  0
  9 18  4  0
 10 11  3  0
 10 13  4  0
 10 16  4  0
 10 19  1  0
 10 20  3  0
 11 19  2  0
 13 17  1  0
 13 19  3  0
 14 20  1  0
 16 19  3  0
 16 20  1  0
 18 20  2  0
 18 21  3  0
 19 21  2  0
M  END
$$$$

 Created by Python create_sdf_string function

 29 35  0  0  0  0  0  0  0  0999 V2000
   10.2098   -4.6657   17.9256 N   0  0  0  0  0  0  0  0  0  0  0  0
    6.8209   -8.8368   18.1175 C   0  0  0  0  0  0  0  0  0  0  0  0
    8.7557   -7.8080   18.5080 C   0  0  0  0  0  0  0  0  0  0  0  0
    1.1585   -9.9253   17.0781 N   0  0  0  0  0  0  0  0  0  0  0  0
    2.3653  -10.7875   18.2261 C   0  0  0  0  0  0  0  0  0  0  0  0
    7.7371   -8.6590   18.1115 C   0  0  0  0  0  0  0  0  0  0  0  0
    5.7070   -9.4670   15.3252 C   0  0  0  0  0  0  0  0  0  0  0  0
   11.2598   -3.8720   19.1961 I   0  0  0  0  0  0  0  0  0  0  0  0
   10.1450   -4.8951   21.6218 C   0  0  0  0  0  0  0  0  0  0  0  0
    3.8225   -8.0395   16.3110 Cl  0  0  0  0  0  0  0  0  0  0  0  0
    9.0206   -5.7305   15.8565 C   0  0  0  0  0  0  0  0  0  0  0  0
    3.6341  -10.3502   17.5578 C   0  0  0  0  0  0  0  0  0  0  0  0
   11.7565   -4.0229   20.4142 C   0  0  0  0  0  0  0  0  0  0  0  0
    2.3510   -9.2666   16.5388 C   0  0  0  0  0  0  0  0  0  0  0  0
    2.8215   -9.6936   17.4099 C   0  0  0  0  0  0  0  0  0  0  0  0
   11.5144   -3.2870   17.9108 C   0  0  0  0  0  0  0  0  0  0  0  0
   11.2240   -4.1927   16.8912 N   0  0  0  0  0  0  0  0  0  0  0  0
    8.6971   -6.6521   16.1928 C   0  0  0  0  0  0  0  0  0  0  0  0
   10.6275   -4.2398   21.2703 F   0  0  0  0  0  0  0  0  0  0  0  0
    0.9305  -10.9968   18.5882 He  0  0  0  0  0  0  0  0  0  0  0  0
    6.8957   -8.7769   16.2194 He  0  0  0  0  0  0  0  0  0  0  0  0
    7.2578   -7.0826   16.8250 He  0  0  0  0  0  0  0  0  0  0  0  0
    4.8553   -7.7996   16.5672 He  0  0  0  0  0  0  0  0  0  0  0  0
   10.1676   -4.8064   18.8801 He  0  0  0  0  0  0  0  0  0  0  0  0
    7.3321   -4.2926   15.5161 He  0  0  0  0  0  0  0  0  0  0  0  0
   10.5524   -5.0069   17.5497 He  0  0  0  0  0  0  0  0  0  0  0  0
    8.8772   -7.9198   17.0685 He  0  0  0  0  0  0  0  0  0  0  0  0
    4.2337   -7.2155   16.8634 He  0  0  0  0  0  0  0  0  0  0  0  0
   12.3527   -2.7698   17.1662 He  0  0  0  0  0  0  0  0  0  0  0  0
  1 11  1  0
  2 13  2  0
  3  6  3  0
  3  7  4  0
  3 11  4  0
  3 14  1  0
  3 15  2  0
  4  6  2  0
  4  7  1  0
  4  9  2  0
  4 14  1  0
  4 15  2  0
  4 18  3  0
  5 11  4  0
  5 12  2  0
  5 15  2  0
  5 17  4  0
  6  7  2  0
  6 14  2  0
  6 17  1  0
  7  8  3  0
  8  9  4  0
  8 13  4  0
  8 16  4  0
  8 18  2  0
  9 13  1  0
 10 16  4  0
 10 18  2  0
 11 18  1  0
 12 13  2  0
 12 15  2  0
 13 18  3  0
 14 15  1  0
 16 17  4  0
 18 19  1  0
M  END
$$$$

 Created by Python create_sdf_string function

 29 68  0  0  0  0  0  0  0  0999 V2000
    8.6506   -5.5266   18.5133 N   0  0  0  0  0  0  0  0  0  0  0  0
    5.6994   -8.1337   18.1518 C   0  0  0  0  0  0  0  0  0  0  0  0
    6.8727   -8.3837   15.9555 O   0  0  0  0  0  0  0  0  0  0  0  0
    7.4251   -7.1875   15.6630 C   0  0  0  0  0  0  0  0  0  0  0  0
    9.6338   -7.7863   19.2072 C   0  0  0  0  0  0  0  0  0  0  0  0
   10.1709   -3.7339   18.6932 N   0  0  0  0  0  0  0  0  0  0  0  0
    7.3572   -4.2889   16.4079 O   0  0  0  0  0  0  0  0  0  0  0  0
    9.2622   -5.5639   17.0230 C   0  0  0  0  0  0  0  0  0  0  0  0
    1.2294  -10.8029   17.0015 N   0  0  0  0  0  0  0  0  0  0  0  0
    9.5495   -7.5253   16.6037 C   0  0  0  0  0  0  0  0  0  0  0  0
    3.8076   -7.0726   16.6759 C   0  0  0  0  0  0  0  0  0  0  0  0
   11.9929   -2.3275   18.0314 O   0  0  0  0  0  0  0  0  0  0  0  0
    1.7274  -10.1453   18.2786 C   0  0  0  0  0  0  0  0  0  0  0  0
    7.3432   -8.0837   18.1673 C   0  0  0  0  0  0  0  0  0  0  0  0
    6.1830   -9.9375   15.4285 C   0  0  0  0  0  0  0  0  0  0  0  0
   11.8562   -4.6086   19.0707 C   0  0  0  0  0  0  0  0  0  0  0  0
    3.7541   -7.9801   17.0658 C   0  0  0  0  0  0  0  0  0  0  0  0
    8.6104   -5.5322   15.8785 Cl  0  0  0  0  0  0  0  0  0  0  0  0
    3.6844  -10.3903   18.0779 C   0  0  0  0  0  0  0  0  0  0  0  0
   11.0138   -3.5212   20.6560 N   0  0  0  0  0  0  0  0  0  0  0  0
    1.9924   -9.5002   17.1027 Cl  0  0  0  0  0  0  0  0  0  0  0  0
    2.8267   -9.7917   16.6423 Cl  0  0  0  0  0  0  0  0  0  0  0  0
   11.0856   -3.1519   17.4790 C   0  0  0  0  0  0  0  0  0  0  0  0
    9.0594   -6.6554   16.1187 Cl  0  0  0  0  0  0  0  0  0  0  0  0
    1.1988  -10.8258   18.4296 He  0  0  0  0  0  0  0  0  0  0  0  0
    5.5335   -8.9621   17.2348 He  0  0  0  0  0  0  0  0  0  0  0  0
   10.9635   -5.0813   21.3650 He  0  0  0  0  0  0  0  0  0  0  0  0
   11.2336   -4.3973   16.2036 He  0  0  0  0  0  0  0  0  0  0  0  0
   10.6097   -4.2981   20.9750 He  0  0  0  0  0  0  0  0  0  0  0  0
  1  6  2  0
  1  8  1  0
  1 13  3  0
  1 18  1  0
  2 13  2  0
  2 22  3  0
  3  4  1  0
  3  5  2  0
  3  7  2  0
  3  9  1  0
  3 12  1  0
  3 15  1  0
  3 18  2  0
  3 21  4  0
  3 23  3  0
  3 24  1  0
  4 10  4  0
  4 14  1  0
  4 17  1  0
  4 21  3  0
  4 23  3  0
  5 10  1  0
  5 11  3  0
  5 14  1  0
  5 15  4  0
  5 17  3  0
  6  8  1  0
  6  9  4  0
  6 15  1  0
  6 17  1  0
  7 14  4  0
  7 20  2  0
  7 24  3  0
  8 12  4  0
  8 20  3  0
  9 10  1  0
  9 15  3  0
  9 20  3  0
  9 21  1  0
  9 23  4  0
 10 12  2  0
 10 13  2  0
 10 19  2  0
 10 24  1  0
 12 14  1  0
 12 16  4  0
 12 20  1  0
 12 23  2  0
 12 24  4  0
 13 15  1  0
 13 19  3  0
 13 23  2  0
 14 15  4  0
 14 20  2  0
 15 20  2  0
 15 21  4  0
 15 22  2  0
 16 17  3  0
 16 20  4  0
 16 23  4  0
 17 22  1  0
 17 23  4  0
 18 21  3  0
 18 24  1  0
 19 22  4  0
 19 23  2  0
 20 23  2  0
 21 22  4  0
M  END
$$$$

 Created by Python create_sdf_string function

 29 44  0  0  0  0  0  0  0  0999 V2000
    9.6332   -5.7977   17.7380 N   0  0  0  0  0  0  0  0  0  0  0  0
    6.5547   -7.9670   18.2767 C   0  0  0  0  0  0  0  0  0  0  0  0
    6.7079   -7.2600   15.9212 N   0  0  0  0  0  0  0  0  0  0  0  0
    5.0405   -8.3123   16.9951 N   0  0  0  0  0  0  0  0  0  0  0  0
    9.0042   -7.1985   17.8049 C   0  0  0  0  0  0  0  0  0  0  0  0
   10.0374   -4.3528   18.6620 C   0  0  0  0  0  0  0  0  0  0  0  0
    9.1606   -5.0550   17.5424 C   0  0  0  0  0  0  0  0  0  0  0  0
    0.5922  -10.7938   17.0568 N   0  0  0  0  0  0  0  0  0  0  0  0
    9.6709   -7.3274   17.1712 Se  0  0  0  0  0  0  0  0  0  0  0  0
    3.4120   -7.3323   16.4613 C   0  0  0  0  0  0  0  0  0  0  0  0
    2.2802  -10.8599   18.8766 N   0  0  0  0  0  0  0  0  0  0  0  0
    7.6238   -7.7264   18.0382 C   0  0  0  0  0  0  0  0  0  0  0  0
    5.5495   -9.7769   16.3223 F   0  0  0  0  0  0  0  0  0  0  0  0
   10.1959   -3.8301   18.8151 C   0  0  0  0  0  0  0  0  0  0  0  0
   10.5452   -5.2949   20.8155 C   0  0  0  0  0  0  0  0  0  0  0  0
    4.4877   -8.6636   17.2423 C   0  0  0  0  0  0  0  0  0  0  0  0
    9.5778   -5.7577   16.1945 O   0  0  0  0  0  0  0  0  0  0  0  0
   10.8025   -3.6869   20.1858 S   0  0  0  0  0  0  0  0  0  0  0  0
    3.1742   -8.9653   17.3220 C   0  0  0  0  0  0  0  0  0  0  0  0
    8.8901   -6.1529   16.4987 N   0  0  0  0  0  0  0  0  0  0  0  0
    9.6202   -5.9071   20.6115 C   0  0  0  0  0  0  0  0  0  0  0  0
    0.9318  -11.2351   17.8338 He  0  0  0  0  0  0  0  0  0  0  0  0
    7.4700   -8.0047   15.9049 He  0  0  0  0  0  0  0  0  0  0  0  0
    7.4196   -4.7985   15.4248 He  0  0  0  0  0  0  0  0  0  0  0  0
   12.0699   -2.8822   17.6585 He  0  0  0  0  0  0  0  0  0  0  0  0
    3.5067   -9.6251   18.5278 He  0  0  0  0  0  0  0  0  0  0  0  0
    1.7202  -10.2087   16.1783 He  0  0  0  0  0  0  0  0  0  0  0  0
   11.1085   -3.2569   17.8188 He  0  0  0  0  0  0  0  0  0  0  0  0
   10.5955   -3.7547   16.3736 He  0  0  0  0  0  0  0  0  0  0  0  0
  1  5  1  0
  1  8  1  0
  1 14  3  0
  1 17  2  0
  1 18  3  0
  2  4  1  0
  2 11  2  0
  2 12  4  0
  2 21  3  0
  3 17  2  0
  4 13  1  0
  4 19  4  0
  4 21  2  0
  5  9  1  0
  5 10  2  0
  5 12  1  0
  5 17  2  0
  6  7  1  0
  6  9  4  0
  6 14  4  0
  6 19  1  0
  6 21  4  0
  7 10  1  0
  7 15  4  0
  7 16  4  0
  8 13  3  0
  8 14  4  0
  8 15  3  0
  8 16  4  0
  9 11  4  0
  9 12  3  0
  9 14  3  0
  9 15  1  0
  9 20  1  0
 10 15  1  0
 11 17  2  0
 13 15  1  0
 13 20  3  0
 14 18  4  0
 14 20  3  0
 15 18  4  0
 16 19  1  0
 17 20  1  0
 19 20  3  0
M  END
$$$$

 Created by Python create_sdf_string function

 29 59  0  0  0  0  0  0  0  0999 V2000
    9.7452   -5.5439   17.5250 P   0  0  0  0  0  0  0  0  0  0  0  0
    0.0627  -10.9591   18.1819 C   0  0  0  0  0  0  0  0  0  0  0  0
    6.8334   -8.2537   17.4329 C   0  0  0  0  0  0  0  0  0  0  0  0
    6.6571   -7.5701   15.8883 C   0  0  0  0  0  0  0  0  0  0  0  0
    7.3170   -6.5973   15.7534 C   0  0  0  0  0  0  0  0  0  0  0  0
    4.6186   -8.6885   17.0917 F   0  0  0  0  0  0  0  0  0  0  0  0
    8.9541   -7.3331   18.4397 C   0  0  0  0  0  0  0  0  0  0  0  0
    9.6276   -5.3489   18.7090 C   0  0  0  0  0  0  0  0  0  0  0  0
    7.6354   -5.6168   15.9616 O   0  0  0  0  0  0  0  0  0  0  0  0
    0.8126  -10.4877   16.6937 N   0  0  0  0  0  0  0  0  0  0  0  0
    9.1825   -7.2241   17.5407 C   0  0  0  0  0  0  0  0  0  0  0  0
    4.3208   -8.0256   15.7577 N   0  0  0  0  0  0  0  0  0  0  0  0
   11.4683   -2.4277   17.8638 C   0  0  0  0  0  0  0  0  0  0  0  0
    2.1907  -11.1955   18.6455 N   0  0  0  0  0  0  0  0  0  0  0  0
    7.1274   -8.0903   17.5605 O   0  0  0  0  0  0  0  0  0  0  0  0
    6.3507   -9.3998   16.0914 I   0  0  0  0  0  0  0  0  0  0  0  0
   10.7132   -3.5955   18.6393 C   0  0  0  0  0  0  0  0  0  0  0  0
   10.4279   -5.1535   21.1246 C   0  0  0  0  0  0  0  0  0  0  0  0
    4.1676   -8.6189   16.9153 C   0  0  0  0  0  0  0  0  0  0  0  0
    3.5060  -10.3055   18.7043 C   0  0  0  0  0  0  0  0  0  0  0  0
   11.1180   -3.5393   19.5694 N   0  0  0  0  0  0  0  0  0  0  0  0
    2.8807   -9.0478   16.9048 I   0  0  0  0  0  0  0  0  0  0  0  0
   11.6296   -3.4865   17.2766 C   0  0  0  0  0  0  0  0  0  0  0  0
    9.4506   -3.9869   16.2803 C   0  0  0  0  0  0  0  0  0  0  0  0
    9.1631   -5.4067   20.1097 C   0  0  0  0  0  0  0  0  0  0  0  0
    9.2141   -5.2426   17.4747 He  0  0  0  0  0  0  0  0  0  0  0  0
    8.1005   -5.6000   16.4826 He  0  0  0  0  0  0  0  0  0  0  0  0
    1.5202   -9.2850   16.6292 He  0  0  0  0  0  0  0  0  0  0  0  0
    8.7093   -7.0726   16.1064 He  0  0  0  0  0  0  0  0  0  0  0  0
  1  3  3  0
  1  7  1  0
  1  8  2  0
  1 12  1  0
  2  7  4  0
  2 10  4  0
  2 14  4  0
  3  6  1  0
  3  8  3  0
  3 12  4  0
  3 15  4  0
  3 16  1  0
  3 18  2  0
  3 23  3  0
  4  5  1  0
  4  6  3  0
  4 14  1  0
  4 16  1  0
  4 19  3  0
  4 21  2  0
  4 23  3  0
  5 10  2  0
  5 15  1  0
  5 19  1  0
  6 15  1  0
  6 16  1  0
  6 19  1  0
  7 15  1  0
  7 16  4  0
  7 17  1  0
  7 18  1  0
  8 12  3  0
  8 16  4  0
  8 17  4  0
  8 19  3  0
  8 25  4  0
  9 12  1  0
 10 18  4  0
 11 12  4  0
 11 13  3  0
 11 19  4  0
 11 25  3  0
 12 19  2  0
 13 18  2  0
 13 23  4  0
 13 24  4  0
 14 19  2  0
 14 20  1  0
 15 21  2  0
 16 18  2  0
 17 20  2  0
 17 21  4  0
 17 23  4  0
 18 19  3  0
 18 21  3  0
 18 25  4  0
 19 22  1  0
 22 23  3  0
 23 25  3  0
M  END
$$$$

 Created by Python create_sdf_string function

 29 59  0  0  0  0  0  0  0  0999 V2000
    9.4178   -5.9604   18.2593 O   0  0  0  0  0  0  0  0  0  0  0  0
    1.4076  -10.0115   17.5102 C   0  0  0  0  0  0  0  0  0  0  0  0
    6.0027   -7.6215   15.4095 C   0  0  0  0  0  0  0  0  0  0  0  0
    7.0614   -7.3838   15.8899 C   0  0  0  0  0  0  0  0  0  0  0  0
    4.3094   -8.8389   16.7249 N   0  0  0  0  0  0  0  0  0  0  0  0
    7.1063   -4.8640   15.3599 O   0  0  0  0  0  0  0  0  0  0  0  0
    9.1811   -4.6776   16.7749 C   0  0  0  0  0  0  0  0  0  0  0  0
    0.5756  -10.4920   16.6344 N   0  0  0  0  0  0  0  0  0  0  0  0
    4.0656   -7.1900   15.6152 F   0  0  0  0  0  0  0  0  0  0  0  0
   10.4996   -2.9423   17.0857 Cl  0  0  0  0  0  0  0  0  0  0  0  0
    1.5355  -10.9543   19.1020 N   0  0  0  0  0  0  0  0  0  0  0  0
    7.0076   -8.0102   17.7352 C   0  0  0  0  0  0  0  0  0  0  0  0
    6.2706   -9.4710   16.2132 C   0  0  0  0  0  0  0  0  0  0  0  0
   10.8095   -4.6603   21.0055 C   0  0  0  0  0  0  0  0  0  0  0  0
    4.1505   -8.2114   17.0215 N   0  0  0  0  0  0  0  0  0  0  0  0
    8.1720   -6.7733   16.4748 C   0  0  0  0  0  0  0  0  0  0  0  0
   11.3348   -3.7227   20.2534 N   0  0  0  0  0  0  0  0  0  0  0  0
    0.8796   -9.5160   16.1989 C   0  0  0  0  0  0  0  0  0  0  0  0
    2.7721   -9.4012   16.6161 C   0  0  0  0  0  0  0  0  0  0  0  0
   11.1882   -3.0980   16.9081 C   0  0  0  0  0  0  0  0  0  0  0  0
    9.1568   -4.1266   16.3520 C   0  0  0  0  0  0  0  0  0  0  0  0
    8.3088   -7.0081   16.0979 N   0  0  0  0  0  0  0  0  0  0  0  0
   10.4743   -5.6448   19.4017 C   0  0  0  0  0  0  0  0  0  0  0  0
    6.1040   -9.2763   18.5351 He  0  0  0  0  0  0  0  0  0  0  0  0
    8.1209   -6.9008   18.0243 He  0  0  0  0  0  0  0  0  0  0  0  0
    9.9089   -5.3719   18.5373 He  0  0  0  0  0  0  0  0  0  0  0  0
    9.3733   -7.7476   16.8322 He  0  0  0  0  0  0  0  0  0  0  0  0
   10.7087   -4.2197   18.6244 He  0  0  0  0  0  0  0  0  0  0  0  0
    2.9499   -9.7161   18.3263 He  0  0  0  0  0  0  0  0  0  0  0  0
  1  6  2  0
  1  7  4  0
  1  8  2  0
  1  9  3  0
  1 17  4  0
  1 20  3  0
  1 21  4  0
  2  8  4  0
  2 11  4  0
  2 17  3  0
  2 18  2  0
  3  4  1  0
  3 13  1  0
  3 14  4  0
  3 18  3  0
  3 21  3  0
  3 23  4  0
  4 13  4  0
  4 16  3  0
  4 22  1  0
  5  6  4  0
  5  8  1  0
  5 10  1  0
  5 12  4  0
  5 15  1  0
  6  9  3  0
  6 14  3  0
  6 16  2  0
  6 21  1  0
  7  8  2  0
  7  9  4  0
  7 11  2  0
  7 16  1  0
  7 21  4  0
  8  9  1  0
  8 12  3  0
  8 18  4  0
  9 12  2  0
  9 15  2  0
 10 20  4  0
 10 21  4  0
 10 23  3  0
 11 18  3  0
 11 23  1  0
 12 14  2  0
 12 18  1  0
 12 19  3  0
 12 23  2  0
 14 17  4  0
 14 23  4  0
 15 19  1  0
 15 21  4  0
 16 20  4  0
 16 22  1  0
 16 23  1  0
 17 18  2  0
 18 19  2  0
 19 21  3  0
 19 22  3  0
M  END
$$$$

 Created by Python create_sdf_string function

 29 43  0  0  0  0  0  0  0  0999 V2000
    9.1778   -5.8198   17.9522 C   0  0  0  0  0  0  0  0  0  0  0  0
    0.5994  -10.9377   18.4114 C   0  0  0  0  0  0  0  0  0  0  0  0
    5.6242   -8.4216   17.9788 O   0  0  0  0  0  0  0  0  0  0  0  0
    6.4153   -7.8024   16.5024 C   0  0  0  0  0  0  0  0  0  0  0  0
    4.6341   -9.4197   17.4250 O   0  0  0  0  0  0  0  0  0  0  0  0
    9.3334   -7.4138   18.0949 C   0  0  0  0  0  0  0  0  0  0  0  0
   10.3954   -4.9736   18.5250 C   0  0  0  0  0  0  0  0  0  0  0  0
    7.8604   -5.7513   15.2214 O   0  0  0  0  0  0  0  0  0  0  0  0
    8.4077   -5.2002   16.5672 C   0  0  0  0  0  0  0  0  0  0  0  0
   10.2747   -3.5970   16.0894 C   0  0  0  0  0  0  0  0  0  0  0  0
    7.2300   -8.2943   18.0371 C   0  0  0  0  0  0  0  0  0  0  0  0
    5.9421   -9.3025   16.2183 C   0  0  0  0  0  0  0  0  0  0  0  0
    3.7429   -9.1120   17.1708 C   0  0  0  0  0  0  0  0  0  0  0  0
    8.4819   -5.9282   15.7381 C   0  0  0  0  0  0  0  0  0  0  0  0
    2.9836  -10.2582   18.1347 C   0  0  0  0  0  0  0  0  0  0  0  0
   11.6421   -4.4563   20.5992 N   0  0  0  0  0  0  0  0  0  0  0  0
    2.8755   -9.9601   16.2317 C   0  0  0  0  0  0  0  0  0  0  0  0
   11.1740   -3.7791   17.3327 C   0  0  0  0  0  0  0  0  0  0  0  0
    7.9534   -7.3075   15.5122 N   0  0  0  0  0  0  0  0  0  0  0  0
   10.5026   -5.6085   20.2544 C   0  0  0  0  0  0  0  0  0  0  0  0
    5.5857   -8.4008   15.5617 He  0  0  0  0  0  0  0  0  0  0  0  0
    0.2547  -10.2658   17.4051 He  0  0  0  0  0  0  0  0  0  0  0  0
    9.6004   -7.4792   17.3183 He  0  0  0  0  0  0  0  0  0  0  0  0
    3.9341   -6.9939   15.5955 He  0  0  0  0  0  0  0  0  0  0  0  0
    1.8605  -10.3166   19.0415 He  0  0  0  0  0  0  0  0  0  0  0  0
   10.8676   -3.8357   19.4512 He  0  0  0  0  0  0  0  0  0  0  0  0
   10.5507   -4.7911   20.6073 He  0  0  0  0  0  0  0  0  0  0  0  0
    1.6026   -8.9763   16.0117 He  0  0  0  0  0  0  0  0  0  0  0  0
    9.1995   -4.3384   15.8090 He  0  0  0  0  0  0  0  0  0  0  0  0
  1  6  1  0
  1  7  4  0
  1  8  2  0
  1  9  4  0
  1 10  1  0
  1 12  2  0
  1 14  4  0
  2  9  4  0
  2 11  4  0
  2 14  4  0
  3  5  1  0
  3  8  1  0
  3 11  1  0
  3 12  1  0
  4 11  1  0
  4 19  1  0
  4 20  1  0
  5 11  3  0
  5 12  3  0
  5 15  1  0
  6 17  3  0
  7  9  1  0
  7 20  4  0
  8 15  3  0
  8 16  2  0
  9 12  4  0
  9 14  1  0
  9 16  1  0
 10 15  4  0
 10 17  2  0
 10 18  4  0
 11 15  2  0
 11 17  3  0
 11 18  4  0
 12 14  2  0
 12 16  3  0
 13 17  1  0
 13 18  4  0
 14 19  1  0
 15 17  4  0
 15 20  1  0
 16 19  2  0
 18 20  2  0
M  END
$$$$

 Created by Python create_sdf_string function

 29 30  0  0  0  0  0  0  0  0999 V2000
    9.4807   -5.5501   17.6757 C   0  0  0  0  0  0  0  0  0  0  0  0
    0.2426  -11.3028   18.3073 C   0  0  0  0  0  0  0  0  0  0  0  0
    6.0082   -7.9894   15.9577 F   0  0  0  0  0  0  0  0  0  0  0  0
    6.5349   -7.7444   16.4528 C   0  0  0  0  0  0  0  0  0  0  0  0
   10.0985   -4.7764   19.0639 P   0  0  0  0  0  0  0  0  0  0  0  0
    6.3689   -6.1083   15.0613 O   0  0  0  0  0  0  0  0  0  0  0  0
    9.1511   -5.5714   16.2124 C   0  0  0  0  0  0  0  0  0  0  0  0
    1.1989   -9.9471   17.2771 C   0  0  0  0  0  0  0  0  0  0  0  0
    9.1988   -7.5952   17.3968 C   0  0  0  0  0  0  0  0  0  0  0  0
    4.3813   -7.2686   15.3123 C   0  0  0  0  0  0  0  0  0  0  0  0
   10.9258   -3.4476   16.2600 C   0  0  0  0  0  0  0  0  0  0  0  0
    7.3053   -7.7991   18.4586 S   0  0  0  0  0  0  0  0  0  0  0  0
    5.8379   -9.8705   15.8602 C   0  0  0  0  0  0  0  0  0  0  0  0
   11.1953   -5.2121   21.2017 P   0  0  0  0  0  0  0  0  0  0  0  0
    3.5808   -9.0456   17.0209 C   0  0  0  0  0  0  0  0  0  0  0  0
    7.8585   -5.7595   15.8839 C   0  0  0  0  0  0  0  0  0  0  0  0
    2.2537  -10.6931   18.4754 C   0  0  0  0  0  0  0  0  0  0  0  0
    2.1953   -9.6670   17.3974 C   0  0  0  0  0  0  0  0  0  0  0  0
   11.0834   -3.6000   17.7346 C   0  0  0  0  0  0  0  0  0  0  0  0
    9.3079   -4.5293   15.7361 C   0  0  0  0  0  0  0  0  0  0  0  0
    5.8168   -8.3139   18.3468 He  0  0  0  0  0  0  0  0  0  0  0  0
    4.8930   -8.8504   17.0002 He  0  0  0  0  0  0  0  0  0  0  0  0
    8.5495   -7.1422   18.3695 He  0  0  0  0  0  0  0  0  0  0  0  0
    2.1436  -11.0278   18.4776 He  0  0  0  0  0  0  0  0  0  0  0  0
   10.9295   -4.4229   19.3699 He  0  0  0  0  0  0  0  0  0  0  0  0
   10.7030   -3.2779   20.5350 He  0  0  0  0  0  0  0  0  0  0  0  0
    1.1543  -10.0183   16.4231 He  0  0  0  0  0  0  0  0  0  0  0  0
    7.4683   -7.0667   15.5096 He  0  0  0  0  0  0  0  0  0  0  0  0
   10.3464   -5.5880   19.8410 He  0  0  0  0  0  0  0  0  0  0  0  0
  1  5  4  0
  1 17  1  0
  2  8  4  0
  2 17  3  0
  3  7  2  0
  3 10  1  0
  3 13  1  0
  3 14  4  0
  4  5  2  0
  4  9  2  0
  4 12  1  0
  5 10  4  0
  5 20  3  0
  6 16  2  0
  6 18  2  0
  7 16  1  0
  7 19  2  0
  7 20  4  0
  8  9  1  0
  8 11  3  0
  8 15  1  0
  8 17  2  0
  8 18  3  0
 10 15  1  0
 10 17  4  0
 11 18  3  0
 11 20  4  0
 15 18  1  0
 18 20  4  0
 19 20  4  0
M  END
$$$$

 Created by Python create_sdf_string function

 29 53  0  0  0  0  0  0  0  0999 V2000
    9.6643   -5.4467   17.8326 C   0  0  0  0  0  0  0  0  0  0  0  0
    0.2458  -11.0292   18.6129 C   0  0  0  0  0  0  0  0  0  0  0  0
    5.4442   -8.1424   18.6759 C   0  0  0  0  0  0  0  0  0  0  0  0
    5.8282   -8.0901   16.3886 C   0  0  0  0  0  0  0  0  0  0  0  0
    6.6016   -6.9498   16.6602 C   0  0  0  0  0  0  0  0  0  0  0  0
    4.6940   -9.5613   17.5701 N   0  0  0  0  0  0  0  0  0  0  0  0
    8.9934   -7.4161   18.3671 C   0  0  0  0  0  0  0  0  0  0  0  0
   10.1551   -5.0634   18.3439 C   0  0  0  0  0  0  0  0  0  0  0  0
    6.6021   -5.8249   15.0896 O   0  0  0  0  0  0  0  0  0  0  0  0
    9.6260   -4.5179   17.1472 C   0  0  0  0  0  0  0  0  0  0  0  0
    9.0610   -8.0190   18.0081 C   0  0  0  0  0  0  0  0  0  0  0  0
    4.3753   -7.5088   15.3135 C   0  0  0  0  0  0  0  0  0  0  0  0
   10.5984   -3.8746   17.1045 C   0  0  0  0  0  0  0  0  0  0  0  0
    1.9245  -11.7756   18.0078 C   0  0  0  0  0  0  0  0  0  0  0  0
    7.3133   -7.6064   17.1095 C   0  0  0  0  0  0  0  0  0  0  0  0
    6.3336   -9.7690   16.1033 C   0  0  0  0  0  0  0  0  0  0  0  0
   10.6082   -3.0862   18.9894 C   0  0  0  0  0  0  0  0  0  0  0  0
   10.9103   -4.0755   21.4267 C   0  0  0  0  0  0  0  0  0  0  0  0
    3.5747   -8.5412   16.9402 C   0  0  0  0  0  0  0  0  0  0  0  0
    7.5777   -6.0941   15.7072 C   0  0  0  0  0  0  0  0  0  0  0  0
   11.3066   -3.4976   20.7810 N   0  0  0  0  0  0  0  0  0  0  0  0
    1.0747  -10.1838   16.5814 C   0  0  0  0  0  0  0  0  0  0  0  0
    2.3050  -10.1286   17.3016 C   0  0  0  0  0  0  0  0  0  0  0  0
   10.5824   -3.0242   18.0800 C   0  0  0  0  0  0  0  0  0  0  0  0
   10.9404   -5.9037   19.9165 C   0  0  0  0  0  0  0  0  0  0  0  0
    0.1448  -11.0546   16.9686 He  0  0  0  0  0  0  0  0  0  0  0  0
    2.5213  -10.7062   18.0364 He  0  0  0  0  0  0  0  0  0  0  0  0
    9.5247   -3.1169   16.5447 He  0  0  0  0  0  0  0  0  0  0  0  0
    7.4796   -7.2728   15.5797 He  0  0  0  0  0  0  0  0  0  0  0  0
  1  4  2  0
  1  7  1  0
  1 10  4  0
  1 24  2  0
  2 14  4  0
  2 19  3  0
  2 21  3  0
  3  4  3  0
  3  6  1  0
  3 15  1  0
  3 19  1  0
  4 16  1  0
  4 24  2  0
  5 11  3  0
  5 13  1  0
  5 15  1  0
  5 22  4  0
  6 10  1  0
  6 19  2  0
  6 20  2  0
  6 22  4  0
  7 13  2  0
  7 14  2  0
  7 18  3  0
  7 21  1  0
  8 17  4  0
  8 23  1  0
  8 25  3  0
  9 15  2  0
 10 13  1  0
 10 14  3  0
 10 15  4  0
 10 18  2  0
 10 20  3  0
 10 22  1  0
 11 13  2  0
 11 15  1  0
 12 23  3  0
 13 16  1  0
 13 19  3  0
 13 21  3  0
 13 24  4  0
 15 16  2  0
 15 25  3  0
 17 21  4  0
 18 20  3  0
 18 21  4  0
 18 23  4  0
 18 25  4  0
 19 23  1  0
 19 25  3  0
 21 22  4  0
 22 23  4  0
M  END
$$$$

 Created by Python create_sdf_string function

 29 41  0  0  0  0  0  0  0  0999 V2000
    9.6106   -6.0949   17.5428 F   0  0  0  0  0  0  0  0  0  0  0  0
   -0.3413  -11.6207   17.9670 C   0  0  0  0  0  0  0  0  0  0  0  0
    6.0425   -8.6295   18.3430 C   0  0  0  0  0  0  0  0  0  0  0  0
    6.3317   -8.5727   15.4896 N   0  0  0  0  0  0  0  0  0  0  0  0
    6.6136   -7.7687   16.8453 C   0  0  0  0  0  0  0  0  0  0  0  0
    4.5845   -8.8966   17.8052 N   0  0  0  0  0  0  0  0  0  0  0  0
    9.3620   -6.7230   18.4515 C   0  0  0  0  0  0  0  0  0  0  0  0
   10.5006   -4.8213   19.1154 O   0  0  0  0  0  0  0  0  0  0  0  0
    6.8048   -5.2977   15.0765 O   0  0  0  0  0  0  0  0  0  0  0  0
    9.1733   -4.5310   16.8031 C   0  0  0  0  0  0  0  0  0  0  0  0
    8.6775   -7.7999   17.5857 C   0  0  0  0  0  0  0  0  0  0  0  0
    5.0432   -7.7585   15.3684 S   0  0  0  0  0  0  0  0  0  0  0  0
   10.7621   -3.0831   17.2256 C   0  0  0  0  0  0  0  0  0  0  0  0
    1.4334  -11.1952   19.2551 S   0  0  0  0  0  0  0  0  0  0  0  0
    6.9963   -8.0438   17.7602 C   0  0  0  0  0  0  0  0  0  0  0  0
    6.3877   -9.3418   16.0689 C   0  0  0  0  0  0  0  0  0  0  0  0
   11.1737   -3.6939   19.4487 C   0  0  0  0  0  0  0  0  0  0  0  0
    7.8838   -5.9150   16.3832 C   0  0  0  0  0  0  0  0  0  0  0  0
   11.0944   -4.1276   20.5798 N   0  0  0  0  0  0  0  0  0  0  0  0
    1.1569   -9.8600   16.9349 F   0  0  0  0  0  0  0  0  0  0  0  0
    2.3385   -9.7876   17.6572 C   0  0  0  0  0  0  0  0  0  0  0  0
   10.7717   -2.0193   17.6368 C   0  0  0  0  0  0  0  0  0  0  0  0
    9.9932   -3.7570   16.4862 C   0  0  0  0  0  0  0  0  0  0  0  0
   11.2056   -5.0229   20.1909 S   0  0  0  0  0  0  0  0  0  0  0  0
    0.2587  -11.0001   16.9711 He  0  0  0  0  0  0  0  0  0  0  0  0
   10.9448   -3.9367   21.0166 He  0  0  0  0  0  0  0  0  0  0  0  0
    3.5616   -8.9913   16.4940 He  0  0  0  0  0  0  0  0  0  0  0  0
    2.9340  -11.5878   18.0978 He  0  0  0  0  0  0  0  0  0  0  0  0
    6.8017   -6.6195   15.0972 He  0  0  0  0  0  0  0  0  0  0  0  0
  1  7  1  0
  1  8  4  0
  1 21  4  0
  2  3  4  0
  2  6  1  0
  2  7  1  0
  2 14  4  0
  3 15  1  0
  3 16  4  0
  3 17  4  0
  4  5  1  0
  4 12  1  0
  4 14  4  0
  4 16  1  0
  4 22  3  0
  5  8  3  0
  5 15  1  0
  6 11  4  0
  6 15  4  0
  7 11  1  0
  7 12  1  0
  7 19  4  0
  8 13  3  0
  8 17  4  0
  8 24  4  0
  9 18  2  0
  9 20  4  0
 10 15  2  0
 10 22  3  0
 10 23  4  0
 11 15  1  0
 11 21  3  0
 13 16  2  0
 13 22  4  0
 13 23  3  0
 15 19  2  0
 15 22  2  0
 16 20  3  0
 17 22  4  0
 18 19  3  0
 20 21  1  0
M  END
$$$$

 Created by Python create_sdf_string function

 29 42  0  0  0  0  0  0  0  0999 V2000
    9.7271   -5.3166   18.4012 C   0  0  0  0  0  0  0  0  0  0  0  0
    0.0320  -11.4653   18.2397 C   0  0  0  0  0  0  0  0  0  0  0  0
    5.7390   -8.6453   18.2900 C   0  0  0  0  0  0  0  0  0  0  0  0
    6.9951   -8.0234   16.6181 C   0  0  0  0  0  0  0  0  0  0  0  0
    5.2260   -9.1656   17.7642 N   0  0  0  0  0  0  0  0  0  0  0  0
   10.0436   -7.2047   17.9126 C   0  0  0  0  0  0  0  0  0  0  0  0
   10.5265   -5.4443   19.3096 C   0  0  0  0  0  0  0  0  0  0  0  0
    6.5291   -5.5753   15.3332 P   0  0  0  0  0  0  0  0  0  0  0  0
    9.3665   -5.2432   17.2207 C   0  0  0  0  0  0  0  0  0  0  0  0
    0.4674  -10.1116   16.4973 C   0  0  0  0  0  0  0  0  0  0  0  0
    4.4130   -7.6709   15.0802 C   0  0  0  0  0  0  0  0  0  0  0  0
   10.9885   -2.7443   17.0192 C   0  0  0  0  0  0  0  0  0  0  0  0
    1.5553  -11.3540   18.9131 C   0  0  0  0  0  0  0  0  0  0  0  0
    6.6496  -10.1484   15.2026 F   0  0  0  0  0  0  0  0  0  0  0  0
   10.8340   -3.3873   19.1287 C   0  0  0  0  0  0  0  0  0  0  0  0
   11.0423   -5.0376   21.5894 C   0  0  0  0  0  0  0  0  0  0  0  0
    3.7968   -9.0069   17.0379 C   0  0  0  0  0  0  0  0  0  0  0  0
    8.3481   -5.7502   16.1066 C   0  0  0  0  0  0  0  0  0  0  0  0
    3.2304  -10.4795   18.2150 Cl  0  0  0  0  0  0  0  0  0  0  0  0
   11.4792   -3.0527   20.4862 N   0  0  0  0  0  0  0  0  0  0  0  0
    2.3896   -9.9238   16.9837 O   0  0  0  0  0  0  0  0  0  0  0  0
   10.5192   -2.5691   17.7771 C   0  0  0  0  0  0  0  0  0  0  0  0
    9.5498   -4.6237   16.0727 C   0  0  0  0  0  0  0  0  0  0  0  0
    7.7141   -6.9566   15.2906 C   0  0  0  0  0  0  0  0  0  0  0  0
   10.7095   -5.3440   20.6834 N   0  0  0  0  0  0  0  0  0  0  0  0
    5.6454   -9.1651   15.5574 He  0  0  0  0  0  0  0  0  0  0  0  0
    8.2651   -7.9632   17.5804 He  0  0  0  0  0  0  0  0  0  0  0  0
    7.4719   -8.0955   17.5675 He  0  0  0  0  0  0  0  0  0  0  0  0
    1.1189  -10.4755   16.4092 He  0  0  0  0  0  0  0  0  0  0  0  0
  1  6  1  0
  1  9  4  0
  1 12  2  0
  2 10  4  0
  2 13  4  0
  3  5  1  0
  3  6  3  0
  3  8  3  0
  3 21  2  0
  3 23  3  0
  4  9  2  0
  4 15  2  0
  4 24  1  0
  5 17  1  0
  5 18  4  0
  7  8  1  0
  7 15  4  0
  7 17  1  0
  7 18  3  0
  9 18  4  0
  9 20  4  0
 10 24  3  0
 11 13  1  0
 11 17  1  0
 11 23  3  0
 11 24  3  0
 12 14  2  0
 12 22  4  0
 12 23  4  0
 13 17  1  0
 13 18  3  0
 15 20  4  0
 15 22  4  0
 16 25  4  0
 17 21  1  0
 17 22  4  0
 18 19  4  0
 18 21  1  0
 18 24  1  0
 20 24  1  0
 21 25  1  0
 22 24  2  0
M  END
$$$$

 Created by Python create_sdf_string function

 29 57  0  0  0  0  0  0  0  0999 V2000
   -0.0509  -11.5093   18.3518 C   0  0  0  0  0  0  0  0  0  0  0  0
    6.0769   -8.9767   18.0646 C   0  0  0  0  0  0  0  0  0  0  0  0
    6.1294   -8.3995   15.6636 C   0  0  0  0  0  0  0  0  0  0  0  0
    6.8657   -7.4711   16.1614 C   0  0  0  0  0  0  0  0  0  0  0  0
   10.1928   -6.5901   18.6749 C   0  0  0  0  0  0  0  0  0  0  0  0
   10.0822   -4.7574   19.2722 C   0  0  0  0  0  0  0  0  0  0  0  0
    7.2764   -5.8716   15.0392 O   0  0  0  0  0  0  0  0  0  0  0  0
    9.2209   -5.4035   17.1908 F   0  0  0  0  0  0  0  0  0  0  0  0
    8.7342   -7.4981   17.6689 C   0  0  0  0  0  0  0  0  0  0  0  0
    4.3348   -8.4405   15.4105 C   0  0  0  0  0  0  0  0  0  0  0  0
   10.5791   -3.2440   16.6516 C   0  0  0  0  0  0  0  0  0  0  0  0
    1.6293  -11.2722   18.8551 C   0  0  0  0  0  0  0  0  0  0  0  0
    7.2328   -8.5660   17.0078 C   0  0  0  0  0  0  0  0  0  0  0  0
    6.0729  -10.1896   15.6254 C   0  0  0  0  0  0  0  0  0  0  0  0
   10.6878   -4.0192   19.2566 C   0  0  0  0  0  0  0  0  0  0  0  0
   11.9894   -4.4395   21.2506 C   0  0  0  0  0  0  0  0  0  0  0  0
    3.7720   -8.7353   16.6651 C   0  0  0  0  0  0  0  0  0  0  0  0
    8.8114   -6.1893   16.3578 C   0  0  0  0  0  0  0  0  0  0  0  0
    3.4815  -10.6660   18.1155 N   0  0  0  0  0  0  0  0  0  0  0  0
   11.0813   -3.1942   19.9345 N   0  0  0  0  0  0  0  0  0  0  0  0
    0.9390   -9.4932   17.0756 Cl  0  0  0  0  0  0  0  0  0  0  0  0
    2.4914   -9.7431   16.6301 C   0  0  0  0  0  0  0  0  0  0  0  0
   11.2506   -2.8280   18.0752 C   0  0  0  0  0  0  0  0  0  0  0  0
    9.8561   -4.0088   16.7034 C   0  0  0  0  0  0  0  0  0  0  0  0
   10.8400   -5.6494   20.3165 N   0  0  0  0  0  0  0  0  0  0  0  0
    9.7963   -6.0216   18.4353 He  0  0  0  0  0  0  0  0  0  0  0  0
    5.1763   -9.4595   17.9831 He  0  0  0  0  0  0  0  0  0  0  0  0
    1.1645  -10.4295   17.0017 He  0  0  0  0  0  0  0  0  0  0  0  0
    7.9585   -6.9234   16.0084 He  0  0  0  0  0  0  0  0  0  0  0  0
  1  6  2  0
  1 12  4  0
  1 14  4  0
  1 16  2  0
  1 17  1  0
  1 19  2  0
  2 12  2  0
  2 13  2  0
  2 15  2  0
  3  4  4  0
  3 10  1  0
  3 19  2  0
  4  8  2  0
  4 13  1  0
  4 21  1  0
  5  7  3  0
  5  9  1  0
  5 23  1  0
  6 20  3  0
  7  9  4  0
  7 11  3  0
  7 16  3  0
  7 22  1  0
  8  9  2  0
  8 12  3  0
  8 16  3  0
  8 21  3  0
  8 24  4  0
  8 25  4  0
  9 11  1  0
  9 19  3  0
  9 22  3  0
 10 12  3  0
 10 17  1  0
 10 18  4  0
 11 20  2  0
 11 23  4  0
 12 18  1  0
 12 19  2  0
 12 25  3  0
 13 16  3  0
 13 19  3  0
 13 23  3  0
 14 19  2  0
 14 20  3  0
 15 20  4  0
 15 23  4  0
 15 25  2  0
 16 20  4  0
 17 22  1  0
 19 24  4  0
 20 23  2  0
 21 22  4  0
 21 25  1  0
 22 23  1  0
 22 25  3  0
 23 25  1  0
M  END
$$$$

 Created by Python create_sdf_string function

 29 59  0  0  0  0  0  0  0  0999 V2000
    6.6924   -8.7392   17.7357 C   0  0  0  0  0  0  0  0  0  0  0  0
    7.1324   -7.9120   16.4151 C   0  0  0  0  0  0  0  0  0  0  0  0
    9.6025   -6.7519   18.7461 C   0  0  0  0  0  0  0  0  0  0  0  0
   10.5868   -4.9864   19.3470 C   0  0  0  0  0  0  0  0  0  0  0  0
    7.1449   -5.8971   14.8939 O   0  0  0  0  0  0  0  0  0  0  0  0
    9.2763   -5.1919   16.8917 C   0  0  0  0  0  0  0  0  0  0  0  0
    0.3928  -10.1543   16.8435 C   0  0  0  0  0  0  0  0  0  0  0  0
    7.9785   -7.8113   17.7022 C   0  0  0  0  0  0  0  0  0  0  0  0
    4.5773   -8.3447   15.9535 P   0  0  0  0  0  0  0  0  0  0  0  0
   11.5087   -3.1714   16.5082 C   0  0  0  0  0  0  0  0  0  0  0  0
    8.0352   -8.3194   17.3482 C   0  0  0  0  0  0  0  0  0  0  0  0
    6.1016  -10.0818   15.4258 C   0  0  0  0  0  0  0  0  0  0  0  0
   10.7060   -3.8480   19.1158 C   0  0  0  0  0  0  0  0  0  0  0  0
   11.8790   -4.4050   20.6068 C   0  0  0  0  0  0  0  0  0  0  0  0
    3.3259   -8.9828   17.0288 N   0  0  0  0  0  0  0  0  0  0  0  0
    8.7734   -6.3988   16.8290 N   0  0  0  0  0  0  0  0  0  0  0  0
    2.8115  -10.5407   18.3373 N   0  0  0  0  0  0  0  0  0  0  0  0
   11.8711   -3.5364   20.4251 N   0  0  0  0  0  0  0  0  0  0  0  0
    1.6951   -9.5690   16.5334 C   0  0  0  0  0  0  0  0  0  0  0  0
    2.4600  -10.0463   17.1547 C   0  0  0  0  0  0  0  0  0  0  0  0
   10.9130   -2.6200   18.0023 C   0  0  0  0  0  0  0  0  0  0  0  0
    9.7099   -3.8604   16.1187 C   0  0  0  0  0  0  0  0  0  0  0  0
    7.6469   -6.3320   16.1363 C   0  0  0  0  0  0  0  0  0  0  0  0
   10.9739   -5.7025   20.7997 N   0  0  0  0  0  0  0  0  0  0  0  0
    9.7483   -5.5346   18.2787 He  0  0  0  0  0  0  0  0  0  0  0  0
    0.7649  -11.5045   18.0007 He  0  0  0  0  0  0  0  0  0  0  0  0
    5.8552   -8.8351   15.5112 He  0  0  0  0  0  0  0  0  0  0  0  0
    4.7689   -9.0326   17.8958 He  0  0  0  0  0  0  0  0  0  0  0  0
    1.3688  -11.8389   18.2739 He  0  0  0  0  0  0  0  0  0  0  0  0
  1  5  2  0
  1 11  1  0
  1 24  1  0
  2  3  2  0
  2  6  3  0
  2 11  1  0
  2 15  4  0
  2 19  3  0
  2 20  4  0
  2 21  3  0
  3  5  2  0
  3  6  4  0
  3 10  1  0
  3 12  4  0
  3 13  2  0
  4 18  4  0
  4 19  1  0
  4 24  4  0
  5  6  2  0
  5  9  2  0
  5 16  1  0
  5 17  1  0
  5 23  2  0
  6 16  1  0
  6 18  1  0
  6 22  4  0
  7 14  3  0
  7 15  4  0
  7 19  4  0
  8  9  2  0
  8 11  1  0
  8 14  2  0
  8 16  1  0
  8 20  1  0
  9 11  1  0
  9 15  1  0
  9 17  1  0
 10 11  3  0
 10 16  1  0
 10 21  4  0
 10 22  4  0
 10 23  3  0
 11 17  2  0
 11 21  2  0
 12 18  3  0
 13 16  1  0
 13 18  4  0
 13 20  4  0
 13 21  4  0
 14 23  3  0
 14 24  4  0
 15 20  1  0
 16 23  1  0
 17 20  4  0
 17 23  4  0
 17 24  4  0
 18 22  4  0
 19 20  4  0
 22 24  1  0
M  END
$$$$

 Created by Python create_sdf_string function

 29 26  0  0  0  0  0  0  0  0999 V2000
    9.6662   -5.3317   18.3102 C   0  0  0  0  0  0  0  0  0  0  0  0
    0.2275  -11.2983   17.4182 C   0  0  0  0  0  0  0  0  0  0  0  0
    5.9433   -8.5717   15.4752 Br  0  0  0  0  0  0  0  0  0  0  0  0
    6.8781   -8.4877   16.4987 C   0  0  0  0  0  0  0  0  0  0  0  0
    4.7931   -9.1447   18.3829 C   0  0  0  0  0  0  0  0  0  0  0  0
    9.7026   -6.7702   18.5740 C   0  0  0  0  0  0  0  0  0  0  0  0
    7.1620   -5.7020   15.0928 O   0  0  0  0  0  0  0  0  0  0  0  0
    0.5240  -10.3337   16.8016 C   0  0  0  0  0  0  0  0  0  0  0  0
    8.4355   -6.7672   18.0601 C   0  0  0  0  0  0  0  0  0  0  0  0
   10.7886   -3.0993   17.1690 Cl  0  0  0  0  0  0  0  0  0  0  0  0
    7.6273   -8.6073   17.1885 C   0  0  0  0  0  0  0  0  0  0  0  0
    6.2144  -10.0362   15.6935 C   0  0  0  0  0  0  0  0  0  0  0  0
   11.2017   -3.2900   19.0705 C   0  0  0  0  0  0  0  0  0  0  0  0
   12.1447   -4.5945   20.9720 C   0  0  0  0  0  0  0  0  0  0  0  0
    8.5738   -6.5424   17.0628 N   0  0  0  0  0  0  0  0  0  0  0  0
   11.9416   -3.2558   20.3849 S   0  0  0  0  0  0  0  0  0  0  0  0
    1.7283   -9.6362   16.7313 C   0  0  0  0  0  0  0  0  0  0  0  0
    2.8287  -10.1491   16.9458 C   0  0  0  0  0  0  0  0  0  0  0  0
   10.3937   -4.1249   16.6057 C   0  0  0  0  0  0  0  0  0  0  0  0
   11.1386   -5.4774   20.7988 N   0  0  0  0  0  0  0  0  0  0  0  0
    6.0376   -8.5295   17.9606 He  0  0  0  0  0  0  0  0  0  0  0  0
   10.8553   -5.1888   19.3065 He  0  0  0  0  0  0  0  0  0  0  0  0
    9.8012   -5.3317   17.2025 He  0  0  0  0  0  0  0  0  0  0  0  0
    4.4547   -8.7533   16.0118 He  0  0  0  0  0  0  0  0  0  0  0  0
    1.5818  -11.9060   18.6813 He  0  0  0  0  0  0  0  0  0  0  0  0
    3.6972   -9.3436   17.1074 He  0  0  0  0  0  0  0  0  0  0  0  0
    2.8924  -10.4005   18.2257 He  0  0  0  0  0  0  0  0  0  0  0  0
   10.5485   -2.3566   18.2229 He  0  0  0  0  0  0  0  0  0  0  0  0
    7.6713   -6.9193   16.1069 He  0  0  0  0  0  0  0  0  0  0  0  0
  1  6  1  0
  1 11  2  0
  1 13  3  0
  2  8  2  0
  2 16  1  0
  3  7  3  0
  3  8  3  0
  3 12  1  0
  4  8  2  0
  4 11  1  0
  5  8  3  0
  5 11  2  0
  6  9  1  0
  6 15  1  0
  7  9  4  0
  8 17  4  0
  8 20  2  0
  9 11  1  0
  9 15  1  0
 11 17  4  0
 12 19  3  0
 13 16  4  0
 14 15  3  0
 14 16  2  0
 14 20  2  0
 17 18  1  0
M  END
$$$$

 Created by Python create_sdf_string function

 29 43  0  0  0  0  0  0  0  0999 V2000
   10.4774   -5.8581   18.4511 C   0  0  0  0  0  0  0  0  0  0  0  0
    0.3884  -11.4873   17.9597 C   0  0  0  0  0  0  0  0  0  0  0  0
    6.9840   -8.2813   15.6406 B   0  0  0  0  0  0  0  0  0  0  0  0
    9.5412   -6.7840   17.9761 N   0  0  0  0  0  0  0  0  0  0  0  0
   10.2057   -5.0624   19.4967 C   0  0  0  0  0  0  0  0  0  0  0  0
    6.8799   -6.0369   15.4067 O   0  0  0  0  0  0  0  0  0  0  0  0
    0.1940  -10.4655   16.5698 C   0  0  0  0  0  0  0  0  0  0  0  0
    8.3588   -7.2894   17.8112 C   0  0  0  0  0  0  0  0  0  0  0  0
    4.3174   -8.3879   15.9136 C   0  0  0  0  0  0  0  0  0  0  0  0
   11.0556   -3.0464   16.8763 C   0  0  0  0  0  0  0  0  0  0  0  0
    1.5224  -11.3521   17.8920 C   0  0  0  0  0  0  0  0  0  0  0  0
    7.3576   -8.1379   17.6161 C   0  0  0  0  0  0  0  0  0  0  0  0
    5.8923  -10.1924   15.0657 C   0  0  0  0  0  0  0  0  0  0  0  0
   11.4110   -3.9579   19.1330 C   0  0  0  0  0  0  0  0  0  0  0  0
   11.6516   -4.2214   21.5773 C   0  0  0  0  0  0  0  0  0  0  0  0
    4.2164   -9.3412   17.2322 N   0  0  0  0  0  0  0  0  0  0  0  0
    8.2233   -6.5552   17.3078 N   0  0  0  0  0  0  0  0  0  0  0  0
    2.9447  -11.0040   18.2525 C   0  0  0  0  0  0  0  0  0  0  0  0
   11.7033   -3.5984   21.0928 N   0  0  0  0  0  0  0  0  0  0  0  0
    2.1918   -9.7907   17.3616 C   0  0  0  0  0  0  0  0  0  0  0  0
   11.5044   -2.6703   17.9784 N   0  0  0  0  0  0  0  0  0  0  0  0
   10.1405   -3.4909   16.8002 C   0  0  0  0  0  0  0  0  0  0  0  0
    7.8151   -6.6493   15.7551 C   0  0  0  0  0  0  0  0  0  0  0  0
   10.7764   -5.4151   20.3566 N   0  0  0  0  0  0  0  0  0  0  0  0
    5.6471   -8.4635   18.4349 He  0  0  0  0  0  0  0  0  0  0  0  0
    5.8591   -8.7119   15.4748 He  0  0  0  0  0  0  0  0  0  0  0  0
    4.8660   -9.1814   17.6189 He  0  0  0  0  0  0  0  0  0  0  0  0
    9.3093   -5.2106   17.2131 He  0  0  0  0  0  0  0  0  0  0  0  0
    1.9591   -9.8866   16.6115 He  0  0  0  0  0  0  0  0  0  0  0  0
  1  2  4  0
  1  4  1  0
  1  5  4  0
  1  6  1  0
  1  7  1  0
  1 20  3  0
  2 11  4  0
  2 12  2  0
  2 19  2  0
  2 24  3  0
  3  9  4  0
  3 12  1  0
  3 21  1  0
  3 23  1  0
  4  5  2  0
  4  8  1  0
  4 22  1  0
  5 13  3  0
  5 14  4  0
  5 16  3  0
  5 24  4  0
  6  8  3  0
  6 23  2  0
  7 13  3  0
  7 18  3  0
  7 23  3  0
  8 12  1  0
  8 16  2  0
  8 17  1  0
  9 10  1  0
  9 16  1  0
 10 11  3  0
 10 22  4  0
 11 19  4  0
 11 22  4  0
 14 18  1  0
 15 19  4  0
 15 22  3  0
 15 24  4  0
 16 19  3  0
 16 20  1  0
 17 23  1  0
 18 20  3  0
M  END
$$$$

 Created by Python create_sdf_string function

 29 60  0  0  0  0  0  0  0  0999 V2000
   10.4159   -5.7633   18.3709 C   0  0  0  0  0  0  0  0  0  0  0  0
    0.3228  -11.3955   17.2238 C   0  0  0  0  0  0  0  0  0  0  0  0
    6.1755   -8.5619   18.3216 C   0  0  0  0  0  0  0  0  0  0  0  0
    6.1973   -8.4260   15.3355 I   0  0  0  0  0  0  0  0  0  0  0  0
    6.8223   -7.3720   16.1614 C   0  0  0  0  0  0  0  0  0  0  0  0
    4.8952   -8.7856   17.3973 O   0  0  0  0  0  0  0  0  0  0  0  0
    9.7317   -6.7499   18.6130 N   0  0  0  0  0  0  0  0  0  0  0  0
   10.2489   -4.9763   19.1869 C   0  0  0  0  0  0  0  0  0  0  0  0
    6.9200   -5.7546   15.5554 O   0  0  0  0  0  0  0  0  0  0  0  0
    9.4004   -5.2443   17.2392 C   0  0  0  0  0  0  0  0  0  0  0  0
    0.4566  -10.1427   17.1635 N   0  0  0  0  0  0  0  0  0  0  0  0
    7.8549   -7.4390   17.5676 C   0  0  0  0  0  0  0  0  0  0  0  0
   11.1192   -3.0435   16.8536 C   0  0  0  0  0  0  0  0  0  0  0  0
    1.5510  -11.1070   18.2483 C   0  0  0  0  0  0  0  0  0  0  0  0
    7.4625   -8.0090   16.8024 C   0  0  0  0  0  0  0  0  0  0  0  0
    5.7366  -10.0568   14.8666 C   0  0  0  0  0  0  0  0  0  0  0  0
   11.6062   -3.6011   19.3764 O   0  0  0  0  0  0  0  0  0  0  0  0
   11.0818   -4.7421   21.6473 C   0  0  0  0  0  0  0  0  0  0  0  0
    4.2140   -9.1481   17.0594 N   0  0  0  0  0  0  0  0  0  0  0  0
    8.7905   -6.2250   16.8652 N   0  0  0  0  0  0  0  0  0  0  0  0
    2.5763  -10.8642   18.5345 C   0  0  0  0  0  0  0  0  0  0  0  0
   11.9087   -3.1907   20.4544 N   0  0  0  0  0  0  0  0  0  0  0  0
    1.2658   -9.4761   16.6405 C   0  0  0  0  0  0  0  0  0  0  0  0
   11.4224   -3.1078   18.3134 N   0  0  0  0  0  0  0  0  0  0  0  0
    9.7533   -3.9014   16.7213 S   0  0  0  0  0  0  0  0  0  0  0  0
    7.1938   -6.3958   16.0768 C   0  0  0  0  0  0  0  0  0  0  0  0
   10.7895   -5.5346   20.6559 C   0  0  0  0  0  0  0  0  0  0  0  0
    4.1449   -8.2690   15.9381 He  0  0  0  0  0  0  0  0  0  0  0  0
    2.3713   -9.5175   17.1263 He  0  0  0  0  0  0  0  0  0  0  0  0
  1  2  2  0
  1  7  1  0
  1  8  3  0
  1 10  4  0
  1 12  2  0
  1 14  4  0
  1 19  3  0
  2 11  4  0
  2 12  4  0
  2 14  2  0
  2 22  1  0
  3  6  1  0
  3  9  3  0
  3 10  2  0
  3 13  4  0
  3 15  1  0
  3 17  2  0
  3 18  3  0
  3 25  1  0
  4  8  1  0
  4 17  4  0
  5  6  3  0
  5  8  4  0
  5 15  1  0
  5 26  1  0
  6 11  3  0
  6 19  1  0
  6 26  3  0
  7 12  1  0
  7 15  3  0
  7 22  3  0
  8 17  4  0
  8 21  1  0
  8 23  1  0
  8 27  2  0
  9 10  1  0
  9 19  1  0
  9 20  1  0
  9 24  3  0
  9 26  2  0
 10 20  1  0
 11 23  4  0
 12 15  1  0
 12 20  1  0
 13 22  3  0
 13 24  4  0
 13 25  4  0
 14 19  1  0
 14 21  4  0
 14 27  4  0
 15 19  2  0
 17 19  3  0
 17 22  4  0
 17 24  4  0
 18 22  2  0
 18 25  1  0
 18 27  4  0
 20 25  4  0
 21 25  4  0
 22 24  2  0
M  END
$$$$

 Created by Python create_sdf_string function

 29 53  0  0  0  0  0  0  0  0999 V2000
   10.1224   -5.4208   18.3953 C   0  0  0  0  0  0  0  0  0  0  0  0
    0.6575  -10.9915   17.3646 C   0  0  0  0  0  0  0  0  0  0  0  0
    6.3163   -8.5543   17.8412 C   0  0  0  0  0  0  0  0  0  0  0  0
    6.1168   -8.3102   15.4256 C   0  0  0  0  0  0  0  0  0  0  0  0
    5.3352   -9.2853   17.9302 C   0  0  0  0  0  0  0  0  0  0  0  0
    9.3312   -6.8129   18.7896 N   0  0  0  0  0  0  0  0  0  0  0  0
   10.2115   -4.6904   19.3665 C   0  0  0  0  0  0  0  0  0  0  0  0
    7.3631   -5.2595   15.0799 O   0  0  0  0  0  0  0  0  0  0  0  0
    9.1775   -5.3765   17.2333 C   0  0  0  0  0  0  0  0  0  0  0  0
    0.8796   -9.9656   16.9758 N   0  0  0  0  0  0  0  0  0  0  0  0
    8.4788   -7.6982   17.5475 C   0  0  0  0  0  0  0  0  0  0  0  0
   10.5607   -3.5462   16.9071 N   0  0  0  0  0  0  0  0  0  0  0  0
    1.4988  -11.2232   18.3831 C   0  0  0  0  0  0  0  0  0  0  0  0
    7.2562   -8.0785   17.0283 C   0  0  0  0  0  0  0  0  0  0  0  0
    5.4224   -9.5689   15.3246 C   0  0  0  0  0  0  0  0  0  0  0  0
   11.2997   -3.7213   19.3510 C   0  0  0  0  0  0  0  0  0  0  0  0
   11.5024   -3.9699   21.6816 C   0  0  0  0  0  0  0  0  0  0  0  0
    8.2141   -6.4567   16.7546 N   0  0  0  0  0  0  0  0  0  0  0  0
    2.5528  -10.5759   17.8618 C   0  0  0  0  0  0  0  0  0  0  0  0
   11.4091   -3.2933   20.6063 N   0  0  0  0  0  0  0  0  0  0  0  0
    1.0465   -9.1734   16.6462 C   0  0  0  0  0  0  0  0  0  0  0  0
    2.6351   -9.5919   17.6827 C   0  0  0  0  0  0  0  0  0  0  0  0
   10.1544   -3.6168   16.6216 C   0  0  0  0  0  0  0  0  0  0  0  0
    7.3311   -6.4317   15.6300 C   0  0  0  0  0  0  0  0  0  0  0  0
   10.7773   -5.7769   20.9121 C   0  0  0  0  0  0  0  0  0  0  0  0
    6.6670   -7.5069   15.8533 He  0  0  0  0  0  0  0  0  0  0  0  0
    4.8857   -8.6932   15.8211 He  0  0  0  0  0  0  0  0  0  0  0  0
    3.9649   -9.6154   17.1135 He  0  0  0  0  0  0  0  0  0  0  0  0
   11.5904   -2.9218   18.2622 He  0  0  0  0  0  0  0  0  0  0  0  0
  1  6  1  0
  1  7  4  0
  1  9  4  0
  1 12  3  0
  1 20  3  0
  1 22  1  0
  2  5  1  0
  2 10  4  0
  2 25  2  0
  3  4  2  0
  3  5  1  0
  3 11  3  0
  3 12  1  0
  3 14  1  0
  3 15  4  0
  3 17  1  0
  4 12  3  0
  4 15  1  0
  4 17  3  0
  4 23  2  0
  5  9  1  0
  5 10  3  0
  5 18  1  0
  5 25  3  0
  6  7  2  0
  6 11  1  0
  7  9  3  0
  7 12  3  0
  7 15  4  0
  7 16  4  0
  7 25  4  0
  8 10  4  0
  8 19  4  0
  8 24  3  0
  8 25  1  0
  9 10  4  0
  9 18  1  0
  9 23  4  0
 11 23  4  0
 12 23  4  0
 12 24  4  0
 13 19  1  0
 14 20  4  0
 14 25  4  0
 15 18  1  0
 17 20  4  0
 17 21  1  0
 17 22  2  0
 17 24  1  0
 17 25  4  0
 18 24  1  0
 19 22  4  0
 20 21  2  0
M  END
$$$$

 Created by Python create_sdf_string function

 29 61  0  0  0  0  0  0  0  0999 V2000
    9.7649   -5.5163   18.6583 C   0  0  0  0  0  0  0  0  0  0  0  0
    0.1378  -10.8822   17.4208 C   0  0  0  0  0  0  0  0  0  0  0  0
    6.5545   -8.4826   18.0131 Br  0  0  0  0  0  0  0  0  0  0  0  0
    5.4457   -7.8975   15.3533 C   0  0  0  0  0  0  0  0  0  0  0  0
    6.8874   -7.7060   15.9834 C   0  0  0  0  0  0  0  0  0  0  0  0
    5.2484   -9.2046   18.0623 C   0  0  0  0  0  0  0  0  0  0  0  0
    9.4204   -6.9211   18.3517 Cl  0  0  0  0  0  0  0  0  0  0  0  0
   10.6228   -4.6494   19.3990 C   0  0  0  0  0  0  0  0  0  0  0  0
    8.9591   -4.8020   17.0399 C   0  0  0  0  0  0  0  0  0  0  0  0
    0.5329  -10.0572   16.7583 N   0  0  0  0  0  0  0  0  0  0  0  0
    8.8132   -7.4682   17.2363 C   0  0  0  0  0  0  0  0  0  0  0  0
    4.7583   -9.0651   15.8350 B   0  0  0  0  0  0  0  0  0  0  0  0
   10.4725   -3.0922   16.6108 C   0  0  0  0  0  0  0  0  0  0  0  0
    1.3158  -11.4000   18.4960 C   0  0  0  0  0  0  0  0  0  0  0  0
    7.6005   -8.7522   16.9415 C   0  0  0  0  0  0  0  0  0  0  0  0
    5.0966   -9.4523   15.4065 C   0  0  0  0  0  0  0  0  0  0  0  0
   11.3343   -3.8252   18.9551 C   0  0  0  0  0  0  0  0  0  0  0  0
   11.3914   -4.3135   21.2083 C   0  0  0  0  0  0  0  0  0  0  0  0
    4.3502   -9.1092   17.1500 N   0  0  0  0  0  0  0  0  0  0  0  0
    8.1919   -5.9904   16.6629 N   0  0  0  0  0  0  0  0  0  0  0  0
    2.2299  -10.6232   18.0932 C   0  0  0  0  0  0  0  0  0  0  0  0
   11.4565   -3.0159   20.7471 N   0  0  0  0  0  0  0  0  0  0  0  0
    1.4759   -9.5452   16.8398 C   0  0  0  0  0  0  0  0  0  0  0  0
    2.7834   -9.3433   17.2941 C   0  0  0  0  0  0  0  0  0  0  0  0
   11.3859   -2.9856   18.4685 C   0  0  0  0  0  0  0  0  0  0  0  0
    9.7449   -4.2981   16.3686 C   0  0  0  0  0  0  0  0  0  0  0  0
    7.4769   -6.3327   15.8335 C   0  0  0  0  0  0  0  0  0  0  0  0
   10.8825   -5.3430   20.4612 C   0  0  0  0  0  0  0  0  0  0  0  0
    7.2488   -5.1614   15.1425 He  0  0  0  0  0  0  0  0  0  0  0  0
  1  7  1  0
  1  8  4  0
  1  9  4  0
  1 12  1  0
  2  4  4  0
  2  5  1  0
  2 10  4  0
  2 26  2  0
  3  6  1  0
  3  9  1  0
  3 15  1  0
  3 24  1  0
  3 25  1  0
  3 27  2  0
  4  5  1  0
  4 12  1  0
  4 22  4  0
  5 22  4  0
  5 24  4  0
  5 27  1  0
  6 16  4  0
  6 19  1  0
  6 20  2  0
  6 24  1  0
  7 10  3  0
  7 15  3  0
  7 23  2  0
  8 17  4  0
  8 22  4  0
  8 27  1  0
  8 28  4  0
  9 20  1  0
  9 26  4  0
 10 15  3  0
 10 19  2  0
 10 20  1  0
 10 23  4  0
 11 15  1  0
 11 18  4  0
 11 20  1  0
 12 16  1  0
 12 17  1  0
 12 19  1  0
 12 24  3  0
 13 25  4  0
 13 26  4  0
 13 28  3  0
 14 19  4  0
 14 21  3  0
 15 24  4  0
 16 23  2  0
 17 19  2  0
 17 22  4  0
 17 25  4  0
 18 22  4  0
 18 26  3  0
 18 28  2  0
 19 22  3  0
 19 24  1  0
 20 27  1  0
 21 24  4  0
M  END
$$$$

 Created by Python create_sdf_string function

 29 42  0  0  0  0  0  0  0  0999 V2000
    9.6968   -5.3195   18.6719 C   0  0  0  0  0  0  0  0  0  0  0  0
    0.1790  -10.7261   17.7651 C   0  0  0  0  0  0  0  0  0  0  0  0
    6.2819   -8.5903   17.9923 I   0  0  0  0  0  0  0  0  0  0  0  0
    6.8390   -7.5627   15.8502 C   0  0  0  0  0  0  0  0  0  0  0  0
    4.8192   -9.1463   17.8961 C   0  0  0  0  0  0  0  0  0  0  0  0
    9.6944   -7.0471   18.5447 C   0  0  0  0  0  0  0  0  0  0  0  0
   10.5137   -4.7765   19.0895 C   0  0  0  0  0  0  0  0  0  0  0  0
    6.9070   -5.4293   15.1484 O   0  0  0  0  0  0  0  0  0  0  0  0
    0.0819   -9.7737   16.4017 N   0  0  0  0  0  0  0  0  0  0  0  0
    8.5417   -7.1649   17.6761 C   0  0  0  0  0  0  0  0  0  0  0  0
    4.5891   -8.7150   15.6513 C   0  0  0  0  0  0  0  0  0  0  0  0
   10.8013   -3.1227   16.8696 C   0  0  0  0  0  0  0  0  0  0  0  0
    1.0839  -11.2737   18.2579 C   0  0  0  0  0  0  0  0  0  0  0  0
    5.2757   -9.4235   15.2573 C   0  0  0  0  0  0  0  0  0  0  0  0
   11.3488   -3.4117   19.4820 C   0  0  0  0  0  0  0  0  0  0  0  0
   11.3617   -4.4845   21.5162 C   0  0  0  0  0  0  0  0  0  0  0  0
    4.1691   -8.8805   17.1794 N   0  0  0  0  0  0  0  0  0  0  0  0
    8.0581   -6.1892   16.7399 N   0  0  0  0  0  0  0  0  0  0  0  0
    2.0794  -10.8685   18.3531 C   0  0  0  0  0  0  0  0  0  0  0  0
   11.6397   -3.1269   20.4378 N   0  0  0  0  0  0  0  0  0  0  0  0
    1.6350   -9.5213   16.3189 C   0  0  0  0  0  0  0  0  0  0  0  0
    2.5737   -9.7671   17.5026 C   0  0  0  0  0  0  0  0  0  0  0  0
   11.3664   -2.7001   18.3094 C   0  0  0  0  0  0  0  0  0  0  0  0
    9.8977   -4.3004   16.3478 C   0  0  0  0  0  0  0  0  0  0  0  0
    7.3348   -5.7072   15.8439 C   0  0  0  0  0  0  0  0  0  0  0  0
   10.9021   -5.6639   20.3772 C   0  0  0  0  0  0  0  0  0  0  0  0
    5.6127   -7.6519   15.5912 He  0  0  0  0  0  0  0  0  0  0  0  0
    9.2564   -4.8867   17.0032 He  0  0  0  0  0  0  0  0  0  0  0  0
    7.3951   -8.1242   16.9260 He  0  0  0  0  0  0  0  0  0  0  0  0
  1  4  2  0
  1  6  1  0
  1  7  4  0
  1 24  4  0
  1 25  4  0
  2  9  4  0
  2 13  4  0
  2 22  4  0
  3  5  1  0
  3 26  2  0
  4 17  4  0
  4 25  1  0
  5 16  1  0
  5 17  1  0
  5 19  4  0
  5 25  3  0
  6 10  1  0
  6 17  4  0
  7 15  4  0
  7 26  4  0
  8 19  3  0
  8 25  2  0
  9 10  2  0
  9 21  4  0
 10 13  4  0
 10 18  1  0
 11 14  1  0
 11 17  1  0
 11 20  1  0
 12 24  4  0
 15 18  2  0
 15 20  4  0
 15 23  4  0
 16 19  3  0
 16 20  4  0
 17 18  1  0
 17 22  1  0
 18 21  1  0
 18 25  3  0
 20 24  3  0
 21 22  4  0
 22 24  2  0
M  END
$$$$

 Created by Python create_sdf_string function

 29 53  0  0  0  0  0  0  0  0999 V2000
    9.6709   -5.5236   18.3006 C   0  0  0  0  0  0  0  0  0  0  0  0
   -0.0843  -11.1506   17.8266 C   0  0  0  0  0  0  0  0  0  0  0  0
    6.5358   -8.5379   18.3429 C   0  0  0  0  0  0  0  0  0  0  0  0
    5.5721   -8.0591   15.3584 C   0  0  0  0  0  0  0  0  0  0  0  0
    7.0534   -7.4111   16.0032 C   0  0  0  0  0  0  0  0  0  0  0  0
    5.3133   -8.9739   18.1278 C   0  0  0  0  0  0  0  0  0  0  0  0
    9.5342   -7.1295   18.7378 C   0  0  0  0  0  0  0  0  0  0  0  0
   10.6623   -4.6611   19.2280 C   0  0  0  0  0  0  0  0  0  0  0  0
    6.7651   -5.2667   15.0770 O   0  0  0  0  0  0  0  0  0  0  0  0
    9.4148   -5.2951   17.3153 C   0  0  0  0  0  0  0  0  0  0  0  0
   -0.2377   -9.7593   16.5661 N   0  0  0  0  0  0  0  0  0  0  0  0
    8.2365   -7.2254   17.7284 C   0  0  0  0  0  0  0  0  0  0  0  0
    4.4088   -8.4954   15.3045 C   0  0  0  0  0  0  0  0  0  0  0  0
   10.7385   -2.6574   16.7815 C   0  0  0  0  0  0  0  0  0  0  0  0
    1.0756  -10.9454   18.3811 C   0  0  0  0  0  0  0  0  0  0  0  0
    7.3284   -8.2933   17.1859 C   0  0  0  0  0  0  0  0  0  0  0  0
    5.4185   -9.5654   15.2500 C   0  0  0  0  0  0  0  0  0  0  0  0
   11.2036   -3.5590   19.2803 C   0  0  0  0  0  0  0  0  0  0  0  0
   11.5113   -4.3837   21.4307 C   0  0  0  0  0  0  0  0  0  0  0  0
    3.9949   -9.2674   17.1098 N   0  0  0  0  0  0  0  0  0  0  0  0
    7.8948   -6.1062   16.9366 N   0  0  0  0  0  0  0  0  0  0  0  0
    2.5771  -10.8740   17.9678 C   0  0  0  0  0  0  0  0  0  0  0  0
   11.6256   -3.0433   20.4309 N   0  0  0  0  0  0  0  0  0  0  0  0
    1.5090   -9.4829   16.1764 C   0  0  0  0  0  0  0  0  0  0  0  0
    2.5963   -9.5035   17.1750 C   0  0  0  0  0  0  0  0  0  0  0  0
    7.4339   -5.9693   15.9879 C   0  0  0  0  0  0  0  0  0  0  0  0
   11.0389   -2.7025   17.9707 He  0  0  0  0  0  0  0  0  0  0  0  0
    9.7037   -4.1977   16.7474 He  0  0  0  0  0  0  0  0  0  0  0  0
   10.9253   -5.3318   20.5787 He  0  0  0  0  0  0  0  0  0  0  0  0
  1  7  1  0
  1  8  3  0
  1 10  4  0
  1 14  2  0
  2  6  2  0
  2 11  4  0
  2 15  4  0
  2 20  3  0
  2 23  3  0
  3  6  1  0
  3 15  3  0
  3 16  1  0
  4  5  1  0
  4 13  2  0
  4 17  1  0
  4 24  1  0
  5 16  1  0
  5 26  4  0
  6 13  2  0
  6 20  1  0
  6 26  2  0
  7 11  1  0
  7 12  1  0
  7 26  4  0
  8 18  4  0
  9 11  2  0
  9 26  2  0
 10 12  3  0
 10 21  1  0
 10 24  1  0
 11 23  1  0
 11 24  4  0
 12 16  1  0
 12 19  1  0
 12 21  1  0
 13 17  1  0
 13 20  1  0
 14 15  4  0
 14 16  2  0
 14 21  3  0
 15 21  2  0
 15 22  4  0
 15 23  2  0
 17 21  3  0
 17 23  1  0
 18 22  1  0
 18 23  4  0
 19 23  4  0
 19 26  3  0
 21 23  4  0
 21 26  1  0
 22 25  4  0
 24 25  4  0
M  END
$$$$

 Created by Python create_sdf_string function

 29 39  0  0  0  0  0  0  0  0999 V2000
    0.1202  -10.8639   17.9391 C   0  0  0  0  0  0  0  0  0  0  0  0
    6.9756   -7.4980   16.0037 C   0  0  0  0  0  0  0  0  0  0  0  0
    4.8181   -9.0349   17.8356 C   0  0  0  0  0  0  0  0  0  0  0  0
    9.2829   -6.9751   18.7925 C   0  0  0  0  0  0  0  0  0  0  0  0
    6.9847   -5.6448   15.2350 O   0  0  0  0  0  0  0  0  0  0  0  0
    9.1255   -5.1383   17.2217 C   0  0  0  0  0  0  0  0  0  0  0  0
    0.3508   -9.8828   16.7526 N   0  0  0  0  0  0  0  0  0  0  0  0
    8.0943   -7.5437   17.6210 C   0  0  0  0  0  0  0  0  0  0  0  0
    4.4792   -8.6939   15.7964 C   0  0  0  0  0  0  0  0  0  0  0  0
   10.4588   -2.7661   16.9308 C   0  0  0  0  0  0  0  0  0  0  0  0
    7.0296   -8.2889   17.1050 C   0  0  0  0  0  0  0  0  0  0  0  0
    5.3397   -9.7353   15.3404 C   0  0  0  0  0  0  0  0  0  0  0  0
   11.2291   -3.8916   19.2077 C   0  0  0  0  0  0  0  0  0  0  0  0
   11.2703   -4.2984   21.1873 C   0  0  0  0  0  0  0  0  0  0  0  0
    3.8915   -9.2868   16.8281 S   0  0  0  0  0  0  0  0  0  0  0  0
    8.4234   -6.1523   16.9159 N   0  0  0  0  0  0  0  0  0  0  0  0
   11.6257   -3.0368   20.3856 N   0  0  0  0  0  0  0  0  0  0  0  0
    1.2561   -9.2270   16.2669 C   0  0  0  0  0  0  0  0  0  0  0  0
    2.3641   -9.5118   16.9016 C   0  0  0  0  0  0  0  0  0  0  0  0
   11.3294   -2.4606   18.0327 N   0  0  0  0  0  0  0  0  0  0  0  0
    9.4568   -3.8864   16.6855 C   0  0  0  0  0  0  0  0  0  0  0  0
    7.3043   -6.3304   15.9847 C   0  0  0  0  0  0  0  0  0  0  0  0
   10.9145   -5.3740   20.4809 C   0  0  0  0  0  0  0  0  0  0  0  0
    9.9090   -5.4336   18.4398 He  0  0  0  0  0  0  0  0  0  0  0  0
    6.0934   -9.0578   18.1034 He  0  0  0  0  0  0  0  0  0  0  0  0
    5.7463   -7.7323   15.7094 He  0  0  0  0  0  0  0  0  0  0  0  0
   11.0016   -5.2233   19.0245 He  0  0  0  0  0  0  0  0  0  0  0  0
    0.8386  -11.2112   18.4602 He  0  0  0  0  0  0  0  0  0  0  0  0
    2.4086  -10.3365   18.5736 He  0  0  0  0  0  0  0  0  0  0  0  0
  1  7  4  0
  1 19  4  0
  2 11  1  0
  2 17  1  0
  2 22  1  0
  3 15  1  0
  4  8  1  0
  4 10  3  0
  5  8  2  0
  5 16  1  0
  5 22  2  0
  6  7  3  0
  6 16  1  0
  6 19  3  0
  6 21  4  0
  7 18  4  0
  7 21  1  0
  8 11  1  0
  8 16  1  0
  9 12  1  0
  9 15  1  0
  9 17  3  0
 10 20  4  0
 10 21  4  0
 11 12  1  0
 11 13  2  0
 13 17  4  0
 13 20  4  0
 14 17  4  0
 14 23  4  0
 15 19  4  0
 16 18  3  0
 16 19  2  0
 16 21  1  0
 16 22  1  0
 18 19  4  0
 18 20  4  0
 19 23  2  0
 21 23  3  0
M  END
$$$$

 Created by Python create_sdf_string function

 29 41  0  0  0  0  0  0  0  0999 V2000
    9.8299   -5.7819   18.5885 C   0  0  0  0  0  0  0  0  0  0  0  0
   -0.0272  -11.0586   17.4155 C   0  0  0  0  0  0  0  0  0  0  0  0
    6.0268   -9.1109   17.9672 Cl  0  0  0  0  0  0  0  0  0  0  0  0
    5.2711   -8.2098   15.5718 C   0  0  0  0  0  0  0  0  0  0  0  0
    7.0544   -7.6513   15.8731 C   0  0  0  0  0  0  0  0  0  0  0  0
    4.9708   -8.9032   18.0875 C   0  0  0  0  0  0  0  0  0  0  0  0
    9.0140   -6.9395   18.6826 C   0  0  0  0  0  0  0  0  0  0  0  0
   10.4251   -4.7320   19.3535 C   0  0  0  0  0  0  0  0  0  0  0  0
    6.8691   -5.4356   14.9071 O   0  0  0  0  0  0  0  0  0  0  0  0
    9.2092   -5.3612   17.3771 C   0  0  0  0  0  0  0  0  0  0  0  0
    0.0692  -10.0494   16.6522 N   0  0  0  0  0  0  0  0  0  0  0  0
    8.3897   -7.3788   17.5050 S   0  0  0  0  0  0  0  0  0  0  0  0
    4.3121   -8.8246   16.0065 C   0  0  0  0  0  0  0  0  0  0  0  0
    1.0438  -11.1820   18.4540 C   0  0  0  0  0  0  0  0  0  0  0  0
    5.2930   -9.7437   15.3499 C   0  0  0  0  0  0  0  0  0  0  0  0
   10.8525   -3.4939   18.9873 C   0  0  0  0  0  0  0  0  0  0  0  0
   11.7269   -4.6237   21.0210 C   0  0  0  0  0  0  0  0  0  0  0  0
    3.5096   -9.1149   17.2210 N   0  0  0  0  0  0  0  0  0  0  0  0
    8.2119   -6.1857   16.6211 N   0  0  0  0  0  0  0  0  0  0  0  0
   11.6407   -3.4650   20.3096 N   0  0  0  0  0  0  0  0  0  0  0  0
    1.1926   -9.6488   16.2039 C   0  0  0  0  0  0  0  0  0  0  0  0
    2.3477   -9.6219   17.2846 C   0  0  0  0  0  0  0  0  0  0  0  0
   11.0927   -2.7971   17.8282 N   0  0  0  0  0  0  0  0  0  0  0  0
    9.6873   -4.1593   16.8471 C   0  0  0  0  0  0  0  0  0  0  0  0
    7.0456   -6.5797   15.6780 C   0  0  0  0  0  0  0  0  0  0  0  0
   10.9173   -5.3786   20.1013 C   0  0  0  0  0  0  0  0  0  0  0  0
   10.4955   -3.0434   16.9641 He  0  0  0  0  0  0  0  0  0  0  0  0
    7.2143   -8.2029   17.2352 He  0  0  0  0  0  0  0  0  0  0  0  0
    2.6009  -10.0674   17.8756 He  0  0  0  0  0  0  0  0  0  0  0  0
  1  7  1  0
  1  8  4  0
  1 10  1  0
  2 11  4  0
  3  6  2  0
  3 12  2  0
  3 14  2  0
  3 19  3  0
  4  5  1  0
  4 13  1  0
  4 15  1  0
  4 26  4  0
  5 16  1  0
  5 25  1  0
  6 14  2  0
  6 18  1  0
  7 12  1  0
  8 16  4  0
  8 18  1  0
  8 26  4  0
  9 18  2  0
  9 25  2  0
 10 13  2  0
 10 24  4  0
 11 19  1  0
 11 21  4  0
 12 17  3  0
 12 19  1  0
 12 21  1  0
 12 26  1  0
 13 15  1  0
 13 17  2  0
 15 20  4  0
 16 20  4  0
 16 23  4  0
 17 20  4  0
 17 26  4  0
 18 20  4  0
 19 25  1  0
 21 22  4  0
 22 23  2  0
M  END
$$$$

 Created by Python create_sdf_string function

 29 48  0  0  0  0  0  0  0  0999 V2000
    9.6577   -5.7318   18.5311 C   0  0  0  0  0  0  0  0  0  0  0  0
   -0.2266  -10.7329   17.5782 N   0  0  0  0  0  0  0  0  0  0  0  0
    5.8176   -8.8985   18.1729 C   0  0  0  0  0  0  0  0  0  0  0  0
    5.6600   -8.0833   15.4944 C   0  0  0  0  0  0  0  0  0  0  0  0
    6.8058   -7.7306   15.8037 N   0  0  0  0  0  0  0  0  0  0  0  0
    4.7727   -9.5023   17.5948 Se  0  0  0  0  0  0  0  0  0  0  0  0
    9.2800   -7.2450   18.6698 C   0  0  0  0  0  0  0  0  0  0  0  0
   10.3444   -5.1010   19.3333 C   0  0  0  0  0  0  0  0  0  0  0  0
    6.8034   -5.6513   14.9034 O   0  0  0  0  0  0  0  0  0  0  0  0
    8.9731   -5.1495   17.4349 C   0  0  0  0  0  0  0  0  0  0  0  0
   -0.0924  -10.0464   16.2381 N   0  0  0  0  0  0  0  0  0  0  0  0
    8.2968   -7.2094   17.3921 C   0  0  0  0  0  0  0  0  0  0  0  0
    4.1287   -8.7913   15.7864 C   0  0  0  0  0  0  0  0  0  0  0  0
    1.0176  -11.0712   18.3231 C   0  0  0  0  0  0  0  0  0  0  0  0
    7.0151   -8.3195   17.1804 C   0  0  0  0  0  0  0  0  0  0  0  0
    5.4324   -9.5267   15.3889 C   0  0  0  0  0  0  0  0  0  0  0  0
   10.9532   -3.7264   19.0904 C   0  0  0  0  0  0  0  0  0  0  0  0
   11.5920   -4.5389   20.8920 O   0  0  0  0  0  0  0  0  0  0  0  0
    3.6830   -8.9668   17.1803 N   0  0  0  0  0  0  0  0  0  0  0  0
    8.2372   -6.3899   16.6679 N   0  0  0  0  0  0  0  0  0  0  0  0
    1.7743  -10.1292   18.3303 C   0  0  0  0  0  0  0  0  0  0  0  0
   11.7472   -3.2312   20.3382 N   0  0  0  0  0  0  0  0  0  0  0  0
    1.4950   -9.1852   16.5956 C   0  0  0  0  0  0  0  0  0  0  0  0
    2.4606   -9.8536   17.1622 C   0  0  0  0  0  0  0  0  0  0  0  0
   11.1333   -2.6798   18.6184 N   0  0  0  0  0  0  0  0  0  0  0  0
    9.6619   -4.2600   16.6044 C   0  0  0  0  0  0  0  0  0  0  0  0
    7.3057   -6.1241   15.6663 C   0  0  0  0  0  0  0  0  0  0  0  0
   10.7659   -5.5803   20.4372 C   0  0  0  0  0  0  0  0  0  0  0  0
   10.3103   -2.8237   16.9848 He  0  0  0  0  0  0  0  0  0  0  0  0
  1  7  1  0
  1  8  4  0
  1 21  2  0
  2 11  4  0
  2 14  4  0
  3  4  3  0
  3  6  2  0
  3 15  1  0
  3 18  3  0
  3 28  2  0
  4  5  1  0
  4 13  1  0
  4 16  1  0
  5 15  1  0
  5 27  1  0
  6 19  1  0
  6 24  1  0
  6 25  4  0
  7 12  2  0
  7 15  4  0
  8 16  2  0
  8 17  4  0
  8 22  4  0
  8 28  4  0
  9 21  3  0
  9 24  4  0
  9 27  2  0
 10 20  1  0
 10 26  4  0
 10 27  2  0
 11 17  1  0
 11 23  4  0
 12 15  1  0
 12 20  1  0
 13 16  1  0
 13 19  1  0
 13 27  2  0
 14 21  4  0
 14 26  1  0
 17 22  4  0
 17 27  3  0
 18 22  4  0
 18 28  4  0
 19 24  3  0
 20 26  1  0
 20 27  1  0
 23 24  4  0
 23 26  4  0
M  END
$$$$

 Created by Python create_sdf_string function

 29 51  0  0  0  0  0  0  0  0999 V2000
    9.7249   -5.8695   18.4974 C   0  0  0  0  0  0  0  0  0  0  0  0
    0.1195  -10.6220   17.6814 N   0  0  0  0  0  0  0  0  0  0  0  0
    5.6310   -8.6158   17.7829 C   0  0  0  0  0  0  0  0  0  0  0  0
    5.3204   -8.0879   15.5339 C   0  0  0  0  0  0  0  0  0  0  0  0
    6.5569   -7.8108   15.6173 N   0  0  0  0  0  0  0  0  0  0  0  0
    5.1326   -9.3913   17.6260 C   0  0  0  0  0  0  0  0  0  0  0  0
    9.1344   -7.1657   18.5691 C   0  0  0  0  0  0  0  0  0  0  0  0
   10.3049   -5.2243   19.2859 C   0  0  0  0  0  0  0  0  0  0  0  0
    7.1382   -5.6937   14.9093 O   0  0  0  0  0  0  0  0  0  0  0  0
    9.0810   -5.3513   17.0923 C   0  0  0  0  0  0  0  0  0  0  0  0
    0.2837  -10.2610   16.3333 N   0  0  0  0  0  0  0  0  0  0  0  0
    8.3081   -7.4649   17.8799 C   0  0  0  0  0  0  0  0  0  0  0  0
    4.1487   -8.9511   15.4642 C   0  0  0  0  0  0  0  0  0  0  0  0
   10.5145   -2.9155   17.0359 C   0  0  0  0  0  0  0  0  0  0  0  0
    0.6863  -11.1478   18.4749 C   0  0  0  0  0  0  0  0  0  0  0  0
    7.0788   -8.2022   17.0379 C   0  0  0  0  0  0  0  0  0  0  0  0
    5.3332   -9.3334   15.2282 C   0  0  0  0  0  0  0  0  0  0  0  0
   11.0514   -3.6002   19.0072 C   0  0  0  0  0  0  0  0  0  0  0  0
   11.4430   -4.8545   21.3006 O   0  0  0  0  0  0  0  0  0  0  0  0
    3.7855   -8.6906   17.1993 N   0  0  0  0  0  0  0  0  0  0  0  0
    8.2250   -6.3802   17.2134 N   0  0  0  0  0  0  0  0  0  0  0  0
    1.9813  -10.2364   18.2865 C   0  0  0  0  0  0  0  0  0  0  0  0
    1.7196   -9.4512   16.2062 C   0  0  0  0  0  0  0  0  0  0  0  0
    2.0489   -9.8090   17.2252 C   0  0  0  0  0  0  0  0  0  0  0  0
   10.9299   -2.4859   18.2897 N   0  0  0  0  0  0  0  0  0  0  0  0
    9.5931   -4.0813   16.7314 C   0  0  0  0  0  0  0  0  0  0  0  0
   10.8960   -5.7581   20.1587 C   0  0  0  0  0  0  0  0  0  0  0  0
   11.6343   -3.3105   20.2556 He  0  0  0  0  0  0  0  0  0  0  0  0
    7.4240   -6.7224   16.0078 He  0  0  0  0  0  0  0  0  0  0  0  0
  1  7  1  0
  1  8  4  0
  1 10  4  0
  1 14  2  0
  1 24  1  0
  2 11  4  0
  2 15  4  0
  3 12  2  0
  3 16  1  0
  4  5  1  0
  4 12  1  0
  4 13  1  0
  4 17  1  0
  5  7  2  0
  5 16  1  0
  5 25  3  0
  6 17  3  0
  6 20  1  0
  6 21  3  0
  7 12  2  0
  7 26  4  0
  8 11  1  0
  8 16  4  0
  8 18  4  0
  8 22  3  0
  8 27  4  0
  9 10  3  0
  9 14  2  0
 10 21  1  0
 10 23  4  0
 10 26  4  0
 11 19  4  0
 11 23  4  0
 11 26  3  0
 12 16  1  0
 12 21  1  0
 13 15  2  0
 13 17  1  0
 13 20  3  0
 14 25  4  0
 14 26  4  0
 15 17  1  0
 15 19  2  0
 15 22  4  0
 18 22  4  0
 18 25  4  0
 19 24  2  0
 19 27  4  0
 20 24  1  0
 22 24  4  0
 23 24  4  0
M  END
$$$$

 Created by Python create_sdf_string function

 29 43  0  0  0  0  0  0  0  0999 V2000
    9.4911   -5.6799   18.6915 C   0  0  0  0  0  0  0  0  0  0  0  0
    0.0642  -10.7314   17.4837 N   0  0  0  0  0  0  0  0  0  0  0  0
    5.7424   -8.5938   18.0592 C   0  0  0  0  0  0  0  0  0  0  0  0
    5.4064   -8.1161   15.5648 C   0  0  0  0  0  0  0  0  0  0  0  0
    6.7344   -7.5981   15.8900 N   0  0  0  0  0  0  0  0  0  0  0  0
    4.8474   -9.2913   17.9557 C   0  0  0  0  0  0  0  0  0  0  0  0
    9.3702   -7.1381   18.3137 C   0  0  0  0  0  0  0  0  0  0  0  0
   10.5992   -5.0607   19.1289 C   0  0  0  0  0  0  0  0  0  0  0  0
    7.0617   -5.7007   14.9705 O   0  0  0  0  0  0  0  0  0  0  0  0
    9.0676   -5.3552   17.2411 C   0  0  0  0  0  0  0  0  0  0  0  0
    0.1426  -10.2400   16.2210 N   0  0  0  0  0  0  0  0  0  0  0  0
    8.1317   -7.5006   17.7721 C   0  0  0  0  0  0  0  0  0  0  0  0
    4.0866   -8.8169   15.6397 C   0  0  0  0  0  0  0  0  0  0  0  0
   10.0597   -2.9572   16.8943 C   0  0  0  0  0  0  0  0  0  0  0  0
    7.1807   -8.2776   17.2496 C   0  0  0  0  0  0  0  0  0  0  0  0
    5.0490   -9.4040   15.5577 C   0  0  0  0  0  0  0  0  0  0  0  0
   11.1292   -3.7680   19.1052 C   0  0  0  0  0  0  0  0  0  0  0  0
   11.3762   -4.7626   21.2609 C   0  0  0  0  0  0  0  0  0  0  0  0
    3.7811   -9.3560   17.0191 N   0  0  0  0  0  0  0  0  0  0  0  0
    8.1511   -6.5682   16.6058 N   0  0  0  0  0  0  0  0  0  0  0  0
   11.5211   -3.3819   20.4612 N   0  0  0  0  0  0  0  0  0  0  0  0
    1.3603   -9.5474   16.2913 C   0  0  0  0  0  0  0  0  0  0  0  0
    2.4752   -9.5213   17.2371 C   0  0  0  0  0  0  0  0  0  0  0  0
   10.7505   -3.0903   18.2509 N   0  0  0  0  0  0  0  0  0  0  0  0
    9.4163   -4.0752   16.6820 C   0  0  0  0  0  0  0  0  0  0  0  0
    7.4965   -6.2947   15.7759 C   0  0  0  0  0  0  0  0  0  0  0  0
   10.7892   -5.3548   20.3302 C   0  0  0  0  0  0  0  0  0  0  0  0
    0.8485  -11.2005   18.5479 He  0  0  0  0  0  0  0  0  0  0  0  0
    2.1080  -10.1863   18.3700 He  0  0  0  0  0  0  0  0  0  0  0  0
  1  7  1  0
  1  8  2  0
  1 10  1  0
  1 18  3  0
  1 21  2  0
  2 11  4  0
  2 16  4  0
  3 15  1  0
  3 26  3  0
  4  7  3  0
  4 13  1  0
  4 16  1  0
  4 25  3  0
  5 15  1  0
  5 26  1  0
  6 19  1  0
  6 25  1  0
  7 12  2  0
  8  9  3  0
  8 16  2  0
  8 17  4  0
  9 26  2  0
 10 16  3  0
 10 25  4  0
 10 27  2  0
 11 15  1  0
 11 17  1  0
 11 24  1  0
 12 15  3  0
 12 20  1  0
 13 16  1  0
 13 19  1  0
 13 25  1  0
 14 16  4  0
 14 24  4  0
 14 25  4  0
 17 21  4  0
 17 24  4  0
 18 26  2  0
 18 27  4  0
 19 23  1  0
 20 26  1  0
 22 23  4  0
M  END
$$$$

 Created by Python create_sdf_string function

 29 51  0  0  0  0  0  0  0  0999 V2000
    9.7132   -6.0452   18.4282 C   0  0  0  0  0  0  0  0  0  0  0  0
   -0.0683  -10.6956   17.5128 N   0  0  0  0  0  0  0  0  0  0  0  0
    5.8733   -8.3977   18.2313 C   0  0  0  0  0  0  0  0  0  0  0  0
    5.5513   -8.0895   15.4876 N   0  0  0  0  0  0  0  0  0  0  0  0
    6.7440   -7.7063   15.9651 N   0  0  0  0  0  0  0  0  0  0  0  0
    4.9782   -9.4967   17.8372 C   0  0  0  0  0  0  0  0  0  0  0  0
    9.2804   -7.0410   18.4150 C   0  0  0  0  0  0  0  0  0  0  0  0
   10.2312   -5.1561   19.4674 F   0  0  0  0  0  0  0  0  0  0  0  0
    6.8904   -5.6716   14.8565 O   0  0  0  0  0  0  0  0  0  0  0  0
    9.1173   -5.6214   17.2441 C   0  0  0  0  0  0  0  0  0  0  0  0
    0.0838  -10.1492   16.5555 N   0  0  0  0  0  0  0  0  0  0  0  0
    8.3391   -7.5911   17.7337 C   0  0  0  0  0  0  0  0  0  0  0  0
    3.9330   -8.7330   15.7546 C   0  0  0  0  0  0  0  0  0  0  0  0
   10.4043   -2.9355   16.8863 C   0  0  0  0  0  0  0  0  0  0  0  0
    0.8276  -11.0546   18.0980 C   0  0  0  0  0  0  0  0  0  0  0  0
    5.2808   -9.1522   15.1329 C   0  0  0  0  0  0  0  0  0  0  0  0
   10.6279   -3.4635   19.1004 N   0  0  0  0  0  0  0  0  0  0  0  0
   11.4354   -4.5052   21.1319 C   0  0  0  0  0  0  0  0  0  0  0  0
    3.6422   -9.1428   17.2822 N   0  0  0  0  0  0  0  0  0  0  0  0
    8.1623   -6.4492   16.7769 N   0  0  0  0  0  0  0  0  0  0  0  0
    2.1922  -10.4637   18.4479 C   0  0  0  0  0  0  0  0  0  0  0  0
   11.6320   -3.3306   20.2139 N   0  0  0  0  0  0  0  0  0  0  0  0
    1.7072   -9.9138   16.3631 C   0  0  0  0  0  0  0  0  0  0  0  0
    2.4580   -9.6359   17.1062 S   0  0  0  0  0  0  0  0  0  0  0  0
   10.9436   -2.9190   18.0768 N   0  0  0  0  0  0  0  0  0  0  0  0
    9.5870   -4.1739   16.6649 C   0  0  0  0  0  0  0  0  0  0  0  0
    7.4104   -6.5213   15.7626 C   0  0  0  0  0  0  0  0  0  0  0  0
   10.7873   -5.5145   20.5025 C   0  0  0  0  0  0  0  0  0  0  0  0
    6.9731   -8.2632   17.2214 He  0  0  0  0  0  0  0  0  0  0  0  0
  1  4  1  0
  1  7  1  0
  1  8  4  0
  1 10  4  0
  1 16  2  0
  2  4  3  0
  2 11  4  0
  2 15  4  0
  2 19  3  0
  2 26  3  0
  3  6  1  0
  3 23  1  0
  4  5  1  0
  4 13  1  0
  4 14  1  0
  4 16  1  0
  4 24  1  0
  5 27  1  0
  6 19  1  0
  7 12  2  0
  7 18  1  0
  8 17  4  0
  8 26  3  0
  8 28  4  0
  9 27  2  0
 10 14  2  0
 10 16  3  0
 10 17  2  0
 10 20  1  0
 10 26  4  0
 12 20  1  0
 12 27  2  0
 13 16  1  0
 13 18  3  0
 13 19  1  0
 14 25  1  0
 14 26  4  0
 14 27  3  0
 15 21  4  0
 15 23  3  0
 17 22  4  0
 17 25  4  0
 18 20  4  0
 18 22  4  0
 18 27  1  0
 18 28  4  0
 19 24  1  0
 20 27  1  0
 21 23  2  0
 21 24  4  0
 23 24  4  0
M  END
$$$$

 Created by Python create_sdf_string function

 29 46  0  0  0  0  0  0  0  0999 V2000
    9.9814   -5.6632   18.2061 C   0  0  0  0  0  0  0  0  0  0  0  0
   -0.1404  -10.9742   17.5668 N   0  0  0  0  0  0  0  0  0  0  0  0
    6.0370   -8.4605   18.2888 F   0  0  0  0  0  0  0  0  0  0  0  0
    5.2689   -8.1427   15.6082 C   0  0  0  0  0  0  0  0  0  0  0  0
    6.4920   -7.7983   16.0216 N   0  0  0  0  0  0  0  0  0  0  0  0
    4.8331   -9.7327   17.7073 C   0  0  0  0  0  0  0  0  0  0  0  0
   10.4997   -5.0090   19.0951 C   0  0  0  0  0  0  0  0  0  0  0  0
    6.8043   -5.6205   15.1089 O   0  0  0  0  0  0  0  0  0  0  0  0
    8.9308   -5.3264   17.3243 C   0  0  0  0  0  0  0  0  0  0  0  0
    0.4659  -10.1584   16.0230 N   0  0  0  0  0  0  0  0  0  0  0  0
    8.2772   -7.5939   17.7027 C   0  0  0  0  0  0  0  0  0  0  0  0
    4.0559   -8.7759   15.8647 C   0  0  0  0  0  0  0  0  0  0  0  0
   10.5083   -3.0222   17.1731 C   0  0  0  0  0  0  0  0  0  0  0  0
    0.8034  -10.9916   18.6608 C   0  0  0  0  0  0  0  0  0  0  0  0
    7.1105   -8.3834   17.4088 C   0  0  0  0  0  0  0  0  0  0  0  0
    5.0999   -9.3858   15.1752 C   0  0  0  0  0  0  0  0  0  0  0  0
   10.7535   -3.7933   18.9801 C   0  0  0  0  0  0  0  0  0  0  0  0
   11.5332   -4.3461   21.1794 C   0  0  0  0  0  0  0  0  0  0  0  0
    3.6450   -9.1791   17.3337 P   0  0  0  0  0  0  0  0  0  0  0  0
    8.2149   -6.3287   16.9288 N   0  0  0  0  0  0  0  0  0  0  0  0
    2.1102  -10.2337   18.4026 C   0  0  0  0  0  0  0  0  0  0  0  0
   11.2617   -3.3923   20.3386 N   0  0  0  0  0  0  0  0  0  0  0  0
    1.3853   -9.7467   16.0404 C   0  0  0  0  0  0  0  0  0  0  0  0
    2.4789   -9.8991   17.1396 C   0  0  0  0  0  0  0  0  0  0  0  0
   10.7831   -2.7181   18.0237 N   0  0  0  0  0  0  0  0  0  0  0  0
    9.5097   -4.3550   16.5382 C   0  0  0  0  0  0  0  0  0  0  0  0
    7.2669   -6.5959   16.0438 C   0  0  0  0  0  0  0  0  0  0  0  0
   10.6886   -5.4204   20.5733 C   0  0  0  0  0  0  0  0  0  0  0  0
    9.4072   -7.0881   18.4036 He  0  0  0  0  0  0  0  0  0  0  0  0
  1  3  4  0
  1  7  4  0
  1  9  4  0
  2  8  1  0
  2 10  4  0
  2 14  4  0
  3  6  1  0
  3 12  2  0
  3 13  4  0
  4  5  1  0
  4 12  1  0
  4 16  1  0
  4 28  1  0
  5 15  1  0
  5 27  1  0
  6 19  3  0
  6 25  2  0
  7  9  2  0
  7 17  4  0
  7 28  4  0
  8 12  4  0
  8 26  2  0
  8 27  2  0
  9 20  1  0
  9 26  4  0
 10 17  3  0
 10 23  4  0
 10 28  1  0
 11 13  3  0
 11 15  1  0
 11 20  1  0
 11 23  1  0
 12 16  1  0
 12 19  1  0
 13 25  4  0
 13 26  4  0
 14 21  4  0
 14 26  2  0
 15 21  4  0
 17 22  4  0
 17 25  2  0
 19 24  1  0
 20 23  1  0
 20 27  1  0
 21 24  4  0
 26 27  3  0
M  END
$$$$

 Created by Python create_sdf_string function

 29 32  0  0  0  0  0  0  0  0999 V2000
    9.7868   -5.9622   17.9774 C   0  0  0  0  0  0  0  0  0  0  0  0
   -0.3573  -10.8666   17.6148 N   0  0  0  0  0  0  0  0  0  0  0  0
    5.7537   -8.5915   18.0810 C   0  0  0  0  0  0  0  0  0  0  0  0
    5.2472   -8.2008   15.6342 C   0  0  0  0  0  0  0  0  0  0  0  0
    6.4981   -7.7789   16.2860 N   0  0  0  0  0  0  0  0  0  0  0  0
    4.7678   -9.5986   17.6822 C   0  0  0  0  0  0  0  0  0  0  0  0
   10.4795   -5.1151   19.3158 C   0  0  0  0  0  0  0  0  0  0  0  0
    7.0674   -5.6846   15.2035 O   0  0  0  0  0  0  0  0  0  0  0  0
    9.2270   -5.6047   17.3386 C   0  0  0  0  0  0  0  0  0  0  0  0
    0.3363  -10.1828   16.2710 N   0  0  0  0  0  0  0  0  0  0  0  0
    8.1564   -7.5881   17.6124 C   0  0  0  0  0  0  0  0  0  0  0  0
    4.0293   -8.5279   16.0536 C   0  0  0  0  0  0  0  0  0  0  0  0
   10.1145   -3.2125   16.9845 C   0  0  0  0  0  0  0  0  0  0  0  0
    0.9845  -10.9210   18.4900 C   0  0  0  0  0  0  0  0  0  0  0  0
    4.9520   -9.3542   15.0575 C   0  0  0  0  0  0  0  0  0  0  0  0
   10.7781   -3.6234   19.1392 C   0  0  0  0  0  0  0  0  0  0  0  0
   11.3037   -4.4774   21.2045 C   0  0  0  0  0  0  0  0  0  0  0  0
    3.8506   -9.2700   17.0192 N   0  0  0  0  0  0  0  0  0  0  0  0
    8.0190   -6.3359   16.7627 N   0  0  0  0  0  0  0  0  0  0  0  0
    1.9895  -10.3604   18.2680 C   0  0  0  0  0  0  0  0  0  0  0  0
   11.3040   -3.3247   20.2949 N   0  0  0  0  0  0  0  0  0  0  0  0
    1.4805   -9.8636   16.2754 C   0  0  0  0  0  0  0  0  0  0  0  0
    2.6196   -9.9113   17.1880 C   0  0  0  0  0  0  0  0  0  0  0  0
   10.6138   -2.7609   18.3667 N   0  0  0  0  0  0  0  0  0  0  0  0
   10.8004   -5.5209   20.3802 C   0  0  0  0  0  0  0  0  0  0  0  0
    9.3966   -7.3659   18.4300 He  0  0  0  0  0  0  0  0  0  0  0  0
    6.9877   -8.5720   17.2625 He  0  0  0  0  0  0  0  0  0  0  0  0
    9.4752   -4.2700   16.5112 He  0  0  0  0  0  0  0  0  0  0  0  0
    7.0648   -6.3006   15.8407 He  0  0  0  0  0  0  0  0  0  0  0  0
  1  7  4  0
  1  9  4  0
  1 16  1  0
  2  6  3  0
  2 10  4  0
  2 12  2  0
  2 14  4  0
  3  6  1  0
  4  5  1  0
  4 13  3  0
  4 15  1  0
  4 21  2  0
  5 15  4  0
  6 18  1  0
  7  8  4  0
  7 16  4  0
  7 25  3  0
  9 19  1  0
 11 19  1  0
 12 15  1  0
 12 18  1  0
 12 25  2  0
 13 24  4  0
 14 20  4  0
 16 21  4  0
 16 23  4  0
 17 21  4  0
 17 25  2  0
 18 20  3  0
 18 23  1  0
 20 23  4  0
 22 23  2  0
M  END
$$$$

 Created by Python create_sdf_string function

 29 40  0  0  0  0  0  0  0  0999 V2000
    0.0044  -10.8346   17.5977 N   0  0  0  0  0  0  0  0  0  0  0  0
    5.8675   -8.6878   18.0734 C   0  0  0  0  0  0  0  0  0  0  0  0
    5.3499   -7.8490   15.5720 C   0  0  0  0  0  0  0  0  0  0  0  0
    6.5166   -7.6765   15.9983 N   0  0  0  0  0  0  0  0  0  0  0  0
    4.7924   -9.7328   17.8713 C   0  0  0  0  0  0  0  0  0  0  0  0
    9.1842   -7.3834   18.4778 C   0  0  0  0  0  0  0  0  0  0  0  0
   10.4636   -5.0461   19.1506 C   0  0  0  0  0  0  0  0  0  0  0  0
    8.9384   -5.3606   17.1308 C   0  0  0  0  0  0  0  0  0  0  0  0
    0.3382  -10.1843   16.3121 N   0  0  0  0  0  0  0  0  0  0  0  0
    8.3478   -7.4739   17.7220 C   0  0  0  0  0  0  0  0  0  0  0  0
    4.0856   -8.4518   15.9513 C   0  0  0  0  0  0  0  0  0  0  0  0
   10.2013   -3.0919   16.9103 C   0  0  0  0  0  0  0  0  0  0  0  0
    0.5559  -11.1731   18.6391 C   0  0  0  0  0  0  0  0  0  0  0  0
    7.1371   -8.4565   17.2553 C   0  0  0  0  0  0  0  0  0  0  0  0
    4.9368   -9.5144   14.8516 C   0  0  0  0  0  0  0  0  0  0  0  0
   10.7847   -3.6301   19.1608 C   0  0  0  0  0  0  0  0  0  0  0  0
   11.2418   -4.3996   21.1201 C   0  0  0  0  0  0  0  0  0  0  0  0
    3.7583   -9.5376   16.8807 N   0  0  0  0  0  0  0  0  0  0  0  0
    8.1443   -6.6209   16.6850 N   0  0  0  0  0  0  0  0  0  0  0  0
    1.8019  -10.6221   18.1564 C   0  0  0  0  0  0  0  0  0  0  0  0
   11.6130   -3.3029   20.2442 N   0  0  0  0  0  0  0  0  0  0  0  0
    1.5938   -9.6524   16.1132 N   0  0  0  0  0  0  0  0  0  0  0  0
    2.5547   -9.8070   17.3282 C   0  0  0  0  0  0  0  0  0  0  0  0
   10.7513   -2.9402   18.2566 N   0  0  0  0  0  0  0  0  0  0  0  0
    9.3464   -4.2439   16.5363 C   0  0  0  0  0  0  0  0  0  0  0  0
    7.3310   -6.5666   15.7601 C   0  0  0  0  0  0  0  0  0  0  0  0
   10.6984   -5.6509   20.5616 C   0  0  0  0  0  0  0  0  0  0  0  0
    9.5774   -5.7469   18.2102 He  0  0  0  0  0  0  0  0  0  0  0  0
    7.0755   -5.5857   15.0851 He  0  0  0  0  0  0  0  0  0  0  0  0
  1 13  4  0
  2  5  1  0
  2 14  1  0
  3  4  1  0
  3 11  1  0
  3 15  1  0
  3 19  4  0
  4 12  1  0
  4 14  1  0
  4 26  1  0
  5 18  1  0
  6  7  2  0
  6 10  2  0
  7 16  4  0
  7 23  4  0
  7 27  4  0
  8 19  1  0
  8 25  4  0
  9 16  4  0
  9 22  4  0
 10 14  1  0
 10 18  1  0
 10 19  1  0
 11 15  1  0
 11 18  1  0
 12 24  4  0
 13 20  4  0
 13 23  4  0
 16 21  4  0
 16 24  4  0
 17 21  4  0
 17 23  3  0
 17 27  4  0
 18 23  1  0
 19 22  1  0
 19 26  1  0
 19 27  1  0
 20 23  4  0
 21 23  3  0
 22 23  4  0
M  END
$$$$

 Created by Python create_sdf_string function

 29 50  0  0  0  0  0  0  0  0999 V2000
    9.5924   -5.7245   18.3892 C   0  0  0  0  0  0  0  0  0  0  0  0
   -0.1076  -10.8591   17.4542 N   0  0  0  0  0  0  0  0  0  0  0  0
    5.8800   -8.8166   18.0305 C   0  0  0  0  0  0  0  0  0  0  0  0
    5.0323   -7.9992   15.4947 C   0  0  0  0  0  0  0  0  0  0  0  0
    6.6420   -7.6424   16.2316 N   0  0  0  0  0  0  0  0  0  0  0  0
    4.8726   -9.8292   17.8505 C   0  0  0  0  0  0  0  0  0  0  0  0
   10.3850   -5.0922   19.2207 C   0  0  0  0  0  0  0  0  0  0  0  0
    6.9178   -5.6533   14.9375 Cl  0  0  0  0  0  0  0  0  0  0  0  0
    9.2547   -5.3795   17.2156 C   0  0  0  0  0  0  0  0  0  0  0  0
    0.2831  -10.2211   16.2827 N   0  0  0  0  0  0  0  0  0  0  0  0
    8.2250   -7.4999   17.6371 C   0  0  0  0  0  0  0  0  0  0  0  0
    3.8173   -8.6300   15.9503 C   0  0  0  0  0  0  0  0  0  0  0  0
   10.0599   -3.1552   16.8264 C   0  0  0  0  0  0  0  0  0  0  0  0
    0.7302  -10.8118   18.4421 C   0  0  0  0  0  0  0  0  0  0  0  0
    7.0377   -8.4883   17.2448 C   0  0  0  0  0  0  0  0  0  0  0  0
    4.9909   -9.1738   15.0121 C   0  0  0  0  0  0  0  0  0  0  0  0
   10.8479   -3.6047   19.1762 N   0  0  0  0  0  0  0  0  0  0  0  0
   11.3184   -4.3778   21.1913 C   0  0  0  0  0  0  0  0  0  0  0  0
    3.5868   -9.7289   17.0094 N   0  0  0  0  0  0  0  0  0  0  0  0
    8.1824   -6.4186   16.8217 N   0  0  0  0  0  0  0  0  0  0  0  0
    2.2844  -10.7848   18.4673 C   0  0  0  0  0  0  0  0  0  0  0  0
   11.2882   -3.1965   20.3162 N   0  0  0  0  0  0  0  0  0  0  0  0
    1.4979   -9.4636   16.2133 N   0  0  0  0  0  0  0  0  0  0  0  0
    2.4550  -10.0709   17.2958 C   0  0  0  0  0  0  0  0  0  0  0  0
   10.8826   -2.8712   18.0036 N   0  0  0  0  0  0  0  0  0  0  0  0
    9.3073   -4.3555   16.8541 C   0  0  0  0  0  0  0  0  0  0  0  0
    7.1936   -6.5139   15.8196 C   0  0  0  0  0  0  0  0  0  0  0  0
   10.5446   -5.5502   20.3396 C   0  0  0  0  0  0  0  0  0  0  0  0
    9.3482   -7.4109   18.5339 He  0  0  0  0  0  0  0  0  0  0  0  0
  1  7  4  0
  1  9  4  0
  1 18  4  0
  2 10  4  0
  2 14  4  0
  2 19  3  0
  3  6  1  0
  4  5  1  0
  4  7  1  0
  4 12  1  0
  4 13  1  0
  4 16  1  0
  4 24  2  0
  4 28  2  0
  5  6  1  0
  5 15  1  0
  5 24  1  0
  5 27  1  0
  6 10  1  0
  6 11  2  0
  6 19  1  0
  7 17  4  0
  7 26  2  0
  7 28  4  0
  8 27  2  0
  9 15  3  0
  9 19  1  0
  9 26  4  0
 10 11  2  0
 10 23  4  0
 11 15  1  0
 11 20  1  0
 12 16  1  0
 12 19  1  0
 13 25  4  0
 13 26  4  0
 14 21  4  0
 14 24  1  0
 14 25  3  0
 15 21  3  0
 17 22  4  0
 17 25  4  0
 18 22  4  0
 18 28  4  0
 19 24  1  0
 20 23  2  0
 20 27  1  0
 21 24  4  0
 23 24  4  0
 25 27  3  0
M  END
$$$$

 Created by Python create_sdf_string function

 29 41  0  0  0  0  0  0  0  0999 V2000
    9.7742   -5.8300   18.4412 C   0  0  0  0  0  0  0  0  0  0  0  0
   -0.3024  -10.9507   17.5180 N   0  0  0  0  0  0  0  0  0  0  0  0
    5.8107   -8.8973   18.1254 C   0  0  0  0  0  0  0  0  0  0  0  0
    5.1541   -8.0877   15.5801 C   0  0  0  0  0  0  0  0  0  0  0  0
    6.4117   -7.5965   15.9004 Cl  0  0  0  0  0  0  0  0  0  0  0  0
    4.7129   -9.8187   17.6930 C   0  0  0  0  0  0  0  0  0  0  0  0
    9.1996   -7.1976   18.5531 C   0  0  0  0  0  0  0  0  0  0  0  0
   10.1474   -5.0740   19.2178 C   0  0  0  0  0  0  0  0  0  0  0  0
    6.9228   -5.6341   15.0114 O   0  0  0  0  0  0  0  0  0  0  0  0
    8.9982   -5.5756   17.2586 C   0  0  0  0  0  0  0  0  0  0  0  0
    0.1440  -10.1037   16.2726 N   0  0  0  0  0  0  0  0  0  0  0  0
    8.1320   -7.6245   17.6018 C   0  0  0  0  0  0  0  0  0  0  0  0
    3.8398   -8.5185   15.9648 C   0  0  0  0  0  0  0  0  0  0  0  0
   10.0320   -3.1425   16.9901 C   0  0  0  0  0  0  0  0  0  0  0  0
    0.8639  -11.1077   18.5436 C   0  0  0  0  0  0  0  0  0  0  0  0
    7.0976   -8.4170   17.3595 C   0  0  0  0  0  0  0  0  0  0  0  0
    5.0350   -9.2395   15.1408 C   0  0  0  0  0  0  0  0  0  0  0  0
   11.3752   -4.3214   21.0275 C   0  0  0  0  0  0  0  0  0  0  0  0
    3.8518   -9.4351   16.9771 N   0  0  0  0  0  0  0  0  0  0  0  0
    8.1026   -6.4588   16.6756 N   0  0  0  0  0  0  0  0  0  0  0  0
    2.0216  -10.5449   18.3178 C   0  0  0  0  0  0  0  0  0  0  0  0
   11.5318   -3.1561   20.1989 N   0  0  0  0  0  0  0  0  0  0  0  0
    1.2574   -9.7560   16.2486 N   0  0  0  0  0  0  0  0  0  0  0  0
    2.2690   -9.9679   17.0941 C   0  0  0  0  0  0  0  0  0  0  0  0
   10.6938   -2.8781   17.9493 N   0  0  0  0  0  0  0  0  0  0  0  0
    7.3819   -6.5231   15.8055 C   0  0  0  0  0  0  0  0  0  0  0  0
   10.7389   -5.5032   20.6110 C   0  0  0  0  0  0  0  0  0  0  0  0
   10.7623   -3.6741   18.9977 He  0  0  0  0  0  0  0  0  0  0  0  0
    9.3862   -4.3031   16.5042 He  0  0  0  0  0  0  0  0  0  0  0  0
  1  4  4  0
  1  6  2  0
  1  7  1  0
  1  8  4  0
  1 10  4  0
  1 17  2  0
  2 11  4  0
  2 15  4  0
  3  5  2  0
  3  6  1  0
  3 16  1  0
  3 23  4  0
  4  5  1  0
  4 16  4  0
  4 17  1  0
  4 24  3  0
  5 16  1  0
  5 26  1  0
  6 18  1  0
  6 19  1  0
  7 12  2  0
  8  9  2  0
  8 18  3  0
  8 20  1  0
  8 27  4  0
  9 15  1  0
 10 20  1  0
 11 23  4  0
 12 16  1  0
 12 20  1  0
 13 17  1  0
 13 19  1  0
 14 25  4  0
 15 21  4  0
 17 21  3  0
 18 27  4  0
 19 24  1  0
 21 23  2  0
 21 24  4  0
 22 23  4  0
 23 24  4  0
M  END
$$$$

 Created by Python create_sdf_string function

 29 42  0  0  0  0  0  0  0  0999 V2000
    9.5677   -5.7062   18.2728 C   0  0  0  0  0  0  0  0  0  0  0  0
   -0.2330  -11.0016   17.5140 N   0  0  0  0  0  0  0  0  0  0  0  0
    5.9371   -8.8472   17.9381 C   0  0  0  0  0  0  0  0  0  0  0  0
    5.3124   -8.0924   15.5283 C   0  0  0  0  0  0  0  0  0  0  0  0
    6.4632   -7.5930   15.8841 C   0  0  0  0  0  0  0  0  0  0  0  0
    4.8440   -9.8541   17.6878 C   0  0  0  0  0  0  0  0  0  0  0  0
    9.1734   -7.2362   18.6522 C   0  0  0  0  0  0  0  0  0  0  0  0
   10.3934   -5.1380   19.1864 C   0  0  0  0  0  0  0  0  0  0  0  0
    6.7793   -5.5038   15.1598 O   0  0  0  0  0  0  0  0  0  0  0  0
    9.1510   -5.6142   17.2298 C   0  0  0  0  0  0  0  0  0  0  0  0
    0.1375  -10.3570   16.3719 N   0  0  0  0  0  0  0  0  0  0  0  0
    3.8649   -8.5716   15.9801 C   0  0  0  0  0  0  0  0  0  0  0  0
   10.0982   -3.1169   16.9290 C   0  0  0  0  0  0  0  0  0  0  0  0
    0.7951  -11.1102   18.4404 C   0  0  0  0  0  0  0  0  0  0  0  0
    7.0659   -8.4285   17.1129 C   0  0  0  0  0  0  0  0  0  0  0  0
    5.0508   -9.1927   15.1372 C   0  0  0  0  0  0  0  0  0  0  0  0
   10.7998   -3.6765   19.0152 C   0  0  0  0  0  0  0  0  0  0  0  0
   11.3819   -4.2654   21.2606 C   0  0  0  0  0  0  0  0  0  0  0  0
    3.4852   -9.5656   16.9375 N   0  0  0  0  0  0  0  0  0  0  0  0
    8.2984   -6.3042   16.6937 F   0  0  0  0  0  0  0  0  0  0  0  0
    2.0686  -10.5631   18.2556 C   0  0  0  0  0  0  0  0  0  0  0  0
   11.4152   -3.2401   20.2981 N   0  0  0  0  0  0  0  0  0  0  0  0
    1.3142   -9.6429   16.2108 N   0  0  0  0  0  0  0  0  0  0  0  0
    2.4367   -9.7980   17.0665 C   0  0  0  0  0  0  0  0  0  0  0  0
   10.6318   -2.8979   18.0315 N   0  0  0  0  0  0  0  0  0  0  0  0
    9.3267   -4.3088   16.4504 C   0  0  0  0  0  0  0  0  0  0  0  0
    7.2556   -6.2856   15.7116 C   0  0  0  0  0  0  0  0  0  0  0  0
   10.7170   -5.3351   20.4121 C   0  0  0  0  0  0  0  0  0  0  0  0
    8.1273   -7.4824   17.7282 He  0  0  0  0  0  0  0  0  0  0  0  0
  1  7  1  0
  1  8  4  0
  1 10  4  0
  1 26  2  0
  2 11  4  0
  2 14  4  0
  3  6  1  0
  3 15  1  0
  4  5  1  0
  4 12  1  0
  4 16  1  0
  5 15  1  0
  5 27  1  0
  6 14  2  0
  6 19  1  0
  7 12  4  0
  7 19  2  0
  8 17  4  0
  9 16  2  0
  9 27  2  0
 10 11  1  0
 10 20  1  0
 10 26  4  0
 11 15  3  0
 11 23  4  0
 12 15  2  0
 12 16  1  0
 12 19  2  0
 13 14  2  0
 13 23  1  0
 13 25  4  0
 13 26  4  0
 14 21  3  0
 16 26  2  0
 17 25  4  0
 18 22  4  0
 18 28  4  0
 19 24  2  0
 20 22  2  0
 20 27  1  0
 21 24  4  0
 23 24  4  0
M  END
$$$$

 Created by Python create_sdf_string function

 29 44  0  0  0  0  0  0  0  0999 V2000
    9.5777   -5.7451   18.3164 C   0  0  0  0  0  0  0  0  0  0  0  0
   -0.1576  -10.9558   17.4740 N   0  0  0  0  0  0  0  0  0  0  0  0
    5.8725   -8.9615   17.9926 C   0  0  0  0  0  0  0  0  0  0  0  0
    5.3185   -7.9423   15.5868 C   0  0  0  0  0  0  0  0  0  0  0  0
    6.6605   -7.7850   15.8510 C   0  0  0  0  0  0  0  0  0  0  0  0
    4.9237   -9.6845   17.7626 C   0  0  0  0  0  0  0  0  0  0  0  0
    9.1054   -7.2102   18.7000 C   0  0  0  0  0  0  0  0  0  0  0  0
   10.1947   -5.0194   19.2338 C   0  0  0  0  0  0  0  0  0  0  0  0
    6.7080   -5.4412   15.1309 O   0  0  0  0  0  0  0  0  0  0  0  0
    9.1523   -5.4018   17.0093 C   0  0  0  0  0  0  0  0  0  0  0  0
    0.1228  -10.2684   16.4503 N   0  0  0  0  0  0  0  0  0  0  0  0
    8.1080   -7.4406   17.4652 C   0  0  0  0  0  0  0  0  0  0  0  0
    3.9714   -8.6904   15.9874 C   0  0  0  0  0  0  0  0  0  0  0  0
   10.0366   -3.1677   16.9287 C   0  0  0  0  0  0  0  0  0  0  0  0
    1.0016  -10.9541   18.5699 C   0  0  0  0  0  0  0  0  0  0  0  0
    7.0521   -8.2514   17.0229 C   0  0  0  0  0  0  0  0  0  0  0  0
    4.9217   -9.0816   15.1524 C   0  0  0  0  0  0  0  0  0  0  0  0
   10.6400   -3.5622   19.1198 C   0  0  0  0  0  0  0  0  0  0  0  0
   11.4307   -4.3054   21.1797 C   0  0  0  0  0  0  0  0  0  0  0  0
    3.6253   -9.5130   16.9940 N   0  0  0  0  0  0  0  0  0  0  0  0
    2.0441  -10.6774   18.4537 C   0  0  0  0  0  0  0  0  0  0  0  0
   11.2289   -3.2015   20.2767 N   0  0  0  0  0  0  0  0  0  0  0  0
    2.3571   -9.9836   17.1076 C   0  0  0  0  0  0  0  0  0  0  0  0
   10.8270   -2.8546   18.0760 N   0  0  0  0  0  0  0  0  0  0  0  0
    9.4238   -4.2598   16.6116 C   0  0  0  0  0  0  0  0  0  0  0  0
    7.2367   -6.3045   15.8385 C   0  0  0  0  0  0  0  0  0  0  0  0
   10.6942   -5.5226   20.5533 C   0  0  0  0  0  0  0  0  0  0  0  0
    8.1641   -6.3703   16.6570 He  0  0  0  0  0  0  0  0  0  0  0  0
    1.2000   -9.8413   16.2468 He  0  0  0  0  0  0  0  0  0  0  0  0
  1  4  2  0
  1  7  1  0
  1  8  4  0
  1 10  4  0
  1 25  4  0
  2 11  4  0
  2 15  4  0
  3  6  1  0
  3 15  4  0
  3 16  1  0
  4  5  1  0
  4 13  1  0
  4 17  1  0
  5 16  1  0
  5 26  1  0
  6 11  2  0
  6 20  1  0
  7 12  2  0
  7 21  2  0
  7 24  4  0
  8 17  3  0
  8 18  4  0
  8 20  1  0
  8 27  4  0
  9 26  2  0
 10 20  1  0
 10 25  4  0
 12 16  1  0
 12 23  3  0
 13 17  1  0
 13 20  1  0
 13 23  1  0
 14 24  4  0
 14 25  4  0
 15 16  4  0
 15 21  4  0
 18 20  3  0
 18 22  4  0
 18 24  4  0
 19 22  4  0
 19 27  4  0
 20 23  1  0
 21 23  4  0
 21 24  2  0
M  END
$$$$

 Created by Python create_sdf_string function

 29 40  0  0  0  0  0  0  0  0999 V2000
    9.6275   -5.7556   18.4208 F   0  0  0  0  0  0  0  0  0  0  0  0
   -0.2301  -10.9189   17.5769 N   0  0  0  0  0  0  0  0  0  0  0  0
    6.0208   -9.0493   17.8539 C   0  0  0  0  0  0  0  0  0  0  0  0
    5.1155   -7.9421   15.4626 C   0  0  0  0  0  0  0  0  0  0  0  0
    6.5951   -7.6313   15.7234 C   0  0  0  0  0  0  0  0  0  0  0  0
    4.9423   -9.7028   17.7531 C   0  0  0  0  0  0  0  0  0  0  0  0
    9.0410   -7.1548   18.4757 C   0  0  0  0  0  0  0  0  0  0  0  0
   10.2980   -4.9827   19.2762 C   0  0  0  0  0  0  0  0  0  0  0  0
    9.1618   -5.3987   17.1291 C   0  0  0  0  0  0  0  0  0  0  0  0
    0.1858  -10.1619   16.3045 N   0  0  0  0  0  0  0  0  0  0  0  0
    8.0438   -7.4837   17.6339 C   0  0  0  0  0  0  0  0  0  0  0  0
    3.9692   -8.6438   15.8698 C   0  0  0  0  0  0  0  0  0  0  0  0
   10.0779   -3.1811   17.0266 C   0  0  0  0  0  0  0  0  0  0  0  0
    0.8401  -11.0728   18.6214 C   0  0  0  0  0  0  0  0  0  0  0  0
    6.9680   -8.3131   17.0224 C   0  0  0  0  0  0  0  0  0  0  0  0
    4.9448   -9.0135   15.1217 C   0  0  0  0  0  0  0  0  0  0  0  0
   10.8069   -3.6283   19.1571 C   0  0  0  0  0  0  0  0  0  0  0  0
   11.1816   -4.2982   21.1502 C   0  0  0  0  0  0  0  0  0  0  0  0
    3.6822   -9.3505   17.0108 N   0  0  0  0  0  0  0  0  0  0  0  0
    8.1907   -6.4595   16.6836 N   0  0  0  0  0  0  0  0  0  0  0  0
    2.1100  -10.6918   18.3130 C   0  0  0  0  0  0  0  0  0  0  0  0
   11.3545   -3.3066   20.4103 N   0  0  0  0  0  0  0  0  0  0  0  0
    1.3557   -9.7691   16.2479 C   0  0  0  0  0  0  0  0  0  0  0  0
   10.7044   -2.7613   18.0815 N   0  0  0  0  0  0  0  0  0  0  0  0
    9.3618   -4.1447   16.5227 C   0  0  0  0  0  0  0  0  0  0  0  0
    7.2955   -6.3971   15.7019 C   0  0  0  0  0  0  0  0  0  0  0  0
   10.6097   -5.3404   20.4272 C   0  0  0  0  0  0  0  0  0  0  0  0
    6.9051   -5.5643   15.0717 He  0  0  0  0  0  0  0  0  0  0  0  0
    2.3786  -10.0261   17.1349 He  0  0  0  0  0  0  0  0  0  0  0  0
  1  7  1  0
  1  8  4  0
  1  9  4  0
  1 13  1  0
  2  7  1  0
  2 10  4  0
  2 14  4  0
  2 23  3  0
  3  6  1  0
  3 15  1  0
  4  5  1  0
  4 12  1  0
  4 23  4  0
  5 15  1  0
  5 26  1  0
  6  8  1  0
  6 19  1  0
  6 22  1  0
  7 11  2  0
  8  9  3  0
  8 13  3  0
  8 17  4  0
  8 23  2  0
  8 27  4  0
  9 12  2  0
  9 20  1  0
  9 25  4  0
 10 23  4  0
 11 15  1  0
 11 20  1  0
 12 16  1  0
 12 19  1  0
 13 21  1  0
 13 24  4  0
 13 25  4  0
 14 16  3  0
 17 24  4  0
 18 22  4  0
 18 27  4  0
 20 26  1  0
M  END
$$$$

 Created by Python create_sdf_string function

 29 41  0  0  0  0  0  0  0  0999 V2000
    9.5783   -5.7699   18.3971 C   0  0  0  0  0  0  0  0  0  0  0  0
   -0.1746  -11.0244   17.6810 N   0  0  0  0  0  0  0  0  0  0  0  0
    5.1561   -7.8514   15.5507 C   0  0  0  0  0  0  0  0  0  0  0  0
    6.6077   -7.5885   15.7059 C   0  0  0  0  0  0  0  0  0  0  0  0
    4.9058   -9.6923   17.6127 C   0  0  0  0  0  0  0  0  0  0  0  0
    9.0007   -7.0401   18.5305 C   0  0  0  0  0  0  0  0  0  0  0  0
   10.2135   -5.1613   19.1675 C   0  0  0  0  0  0  0  0  0  0  0  0
    7.0924   -5.6062   14.9849 O   0  0  0  0  0  0  0  0  0  0  0  0
    9.0375   -5.4547   17.1021 C   0  0  0  0  0  0  0  0  0  0  0  0
    0.0756  -10.1847   16.4709 N   0  0  0  0  0  0  0  0  0  0  0  0
    8.0943   -7.4112   17.7509 C   0  0  0  0  0  0  0  0  0  0  0  0
    4.1617   -8.6272   15.8032 C   0  0  0  0  0  0  0  0  0  0  0  0
   10.2005   -3.2558   16.9446 C   0  0  0  0  0  0  0  0  0  0  0  0
    0.8411  -11.0126   18.4460 C   0  0  0  0  0  0  0  0  0  0  0  0
    7.0127   -8.5399   16.9999 C   0  0  0  0  0  0  0  0  0  0  0  0
    4.8127   -9.1399   15.0261 C   0  0  0  0  0  0  0  0  0  0  0  0
   10.7457   -3.6668   19.1898 C   0  0  0  0  0  0  0  0  0  0  0  0
   11.2145   -4.2370   21.1667 C   0  0  0  0  0  0  0  0  0  0  0  0
    3.6695   -9.2783   17.1149 N   0  0  0  0  0  0  0  0  0  0  0  0
    8.1927   -6.4162   16.6899 N   0  0  0  0  0  0  0  0  0  0  0  0
    2.2101  -10.7498   18.3178 C   0  0  0  0  0  0  0  0  0  0  0  0
   11.1983   -3.2239   20.2855 N   0  0  0  0  0  0  0  0  0  0  0  0
    1.4623   -9.9207   16.2623 C   0  0  0  0  0  0  0  0  0  0  0  0
    2.4210   -9.8173   17.2696 C   0  0  0  0  0  0  0  0  0  0  0  0
   10.8598   -2.8622   18.1345 N   0  0  0  0  0  0  0  0  0  0  0  0
    9.5907   -4.2003   16.6501 C   0  0  0  0  0  0  0  0  0  0  0  0
    7.2386   -6.2894   15.6695 C   0  0  0  0  0  0  0  0  0  0  0  0
   10.7173   -5.3875   20.4534 C   0  0  0  0  0  0  0  0  0  0  0  0
    5.9177   -9.0180   17.7752 He  0  0  0  0  0  0  0  0  0  0  0  0
  1  6  1  0
  1  7  4  0
  1  9  4  0
  2 10  4  0
  2 14  4  0
  3  4  1  0
  3 12  1  0
  3 16  1  0
  3 23  2  0
  4  6  4  0
  4 12  2  0
  4 15  1  0
  4 27  1  0
  5  9  1  0
  5 11  4  0
  5 19  1  0
  6 11  2  0
  7 17  4  0
  7 28  4  0
  8 19  4  0
  8 27  2  0
  9 11  3  0
  9 26  4  0
 10 23  4  0
 11 15  1  0
 11 20  1  0
 12 16  1  0
 12 19  1  0
 13 25  4  0
 13 26  4  0
 13 27  3  0
 14 21  4  0
 17 22  4  0
 17 25  4  0
 18 22  4  0
 18 27  3  0
 18 28  4  0
 19 24  1  0
 20 27  1  0
 21 24  4  0
 23 24  4  0
M  END
$$$$

 Created by Python create_sdf_string function

 29 42  0  0  0  0  0  0  0  0999 V2000
    9.6026   -5.7943   18.3854 C   0  0  0  0  0  0  0  0  0  0  0  0
   -0.0155  -10.9789   17.6775 N   0  0  0  0  0  0  0  0  0  0  0  0
    5.9926   -8.9304   17.6655 C   0  0  0  0  0  0  0  0  0  0  0  0
    5.1121   -7.9396   15.5373 C   0  0  0  0  0  0  0  0  0  0  0  0
    6.6216   -7.7363   15.6508 C   0  0  0  0  0  0  0  0  0  0  0  0
    4.9540   -9.7940   17.5652 C   0  0  0  0  0  0  0  0  0  0  0  0
    8.9515   -7.1632   18.6032 C   0  0  0  0  0  0  0  0  0  0  0  0
   10.3722   -4.8924   19.2859 C   0  0  0  0  0  0  0  0  0  0  0  0
    7.0421   -5.5346   14.8949 O   0  0  0  0  0  0  0  0  0  0  0  0
    9.0465   -5.3645   17.2003 C   0  0  0  0  0  0  0  0  0  0  0  0
    0.2678  -10.1740   16.4882 N   0  0  0  0  0  0  0  0  0  0  0  0
    8.0850   -7.3596   17.5520 C   0  0  0  0  0  0  0  0  0  0  0  0
    3.9811   -8.6361   15.9441 C   0  0  0  0  0  0  0  0  0  0  0  0
   10.0932   -3.1753   16.8300 C   0  0  0  0  0  0  0  0  0  0  0  0
    0.8487  -11.0509   18.5108 C   0  0  0  0  0  0  0  0  0  0  0  0
    6.9396   -8.4508   16.9301 C   0  0  0  0  0  0  0  0  0  0  0  0
    4.6704   -9.1136   15.1222 C   0  0  0  0  0  0  0  0  0  0  0  0
   10.8265   -3.6327   19.2476 C   0  0  0  0  0  0  0  0  0  0  0  0
   11.2222   -4.3508   21.0151 C   0  0  0  0  0  0  0  0  0  0  0  0
    3.6153   -9.3079   17.0627 N   0  0  0  0  0  0  0  0  0  0  0  0
    8.1751   -6.5289   16.7795 N   0  0  0  0  0  0  0  0  0  0  0  0
    2.1727  -10.6446   18.3616 C   0  0  0  0  0  0  0  0  0  0  0  0
    1.3569   -9.8325   16.2657 C   0  0  0  0  0  0  0  0  0  0  0  0
    2.3284   -9.8522   17.2005 C   0  0  0  0  0  0  0  0  0  0  0  0
   10.7889   -2.9782   18.1429 N   0  0  0  0  0  0  0  0  0  0  0  0
    9.4483   -4.1708   16.5561 C   0  0  0  0  0  0  0  0  0  0  0  0
    7.3001   -6.3730   15.6192 C   0  0  0  0  0  0  0  0  0  0  0  0
   10.7067   -5.3203   20.5041 C   0  0  0  0  0  0  0  0  0  0  0  0
   11.1751   -3.1794   20.3323 He  0  0  0  0  0  0  0  0  0  0  0  0
  1  6  2  0
  1  7  3  0
  1  8  4  0
  1 10  4  0
  2 15  4  0
  3  6  1  0
  3 16  1  0
  4  5  1  0
  4 13  1  0
  4 17  1  0
  5 16  1  0
  5 27  1  0
  6 17  2  0
  6 20  1  0
  7 12  2  0
  8 18  4  0
  8 21  4  0
  8 28  4  0
  9 21  2  0
  9 27  2  0
 10 15  1  0
 10 21  1  0
 10 24  2  0
 10 26  4  0
 11 21  2  0
 11 23  4  0
 12 16  1  0
 12 21  1  0
 13 17  1  0
 13 20  1  0
 14 25  4  0
 14 26  4  0
 15 22  4  0
 19 23  3  0
 19 25  3  0
 19 28  4  0
 20 26  2  0
 21 25  1  0
 21 27  1  0
 22 24  4  0
 23 24  4  0
 25 26  2  0
M  END
$$$$

 Created by Python create_sdf_string function

 29 39  0  0  0  0  0  0  0  0999 V2000
    9.5141   -5.7824   18.5272 C   0  0  0  0  0  0  0  0  0  0  0  0
   -0.0609  -10.9350   17.5401 N   0  0  0  0  0  0  0  0  0  0  0  0
    6.0023   -8.9087   17.7177 C   0  0  0  0  0  0  0  0  0  0  0  0
    5.0244   -7.8856   15.6848 C   0  0  0  0  0  0  0  0  0  0  0  0
    6.6148   -7.7329   15.7041 C   0  0  0  0  0  0  0  0  0  0  0  0
    4.8777   -9.8587   17.5513 C   0  0  0  0  0  0  0  0  0  0  0  0
    8.9630   -7.0704   18.6421 C   0  0  0  0  0  0  0  0  0  0  0  0
   10.3248   -5.1031   19.2622 C   0  0  0  0  0  0  0  0  0  0  0  0
    7.0327   -5.5741   14.8194 O   0  0  0  0  0  0  0  0  0  0  0  0
    9.1341   -5.4041   17.1820 C   0  0  0  0  0  0  0  0  0  0  0  0
    0.2367  -10.2336   16.5402 N   0  0  0  0  0  0  0  0  0  0  0  0
    8.0714   -7.4390   17.6126 C   0  0  0  0  0  0  0  0  0  0  0  0
    3.9646   -8.4001   15.9507 C   0  0  0  0  0  0  0  0  0  0  0  0
   10.1901   -3.1129   16.8943 C   0  0  0  0  0  0  0  0  0  0  0  0
    0.9602  -11.1365   18.5084 C   0  0  0  0  0  0  0  0  0  0  0  0
    6.9884   -8.4425   17.0173 C   0  0  0  0  0  0  0  0  0  0  0  0
    4.6984   -9.0369   15.0943 C   0  0  0  0  0  0  0  0  0  0  0  0
   10.6559   -3.6178   19.0791 C   0  0  0  0  0  0  0  0  0  0  0  0
   11.2428   -4.2521   21.1405 C   0  0  0  0  0  0  0  0  0  0  0  0
    3.6430   -9.4347   17.0182 N   0  0  0  0  0  0  0  0  0  0  0  0
    8.2084   -6.3595   16.6770 N   0  0  0  0  0  0  0  0  0  0  0  0
    2.0760  -10.6144   18.3999 O   0  0  0  0  0  0  0  0  0  0  0  0
   11.2511   -3.1601   20.3308 N   0  0  0  0  0  0  0  0  0  0  0  0
    1.3662   -9.7304   16.3291 C   0  0  0  0  0  0  0  0  0  0  0  0
    2.3827   -9.9634   17.2237 C   0  0  0  0  0  0  0  0  0  0  0  0
   10.7635   -2.8987   18.1685 N   0  0  0  0  0  0  0  0  0  0  0  0
    7.3503   -6.3925   15.6532 C   0  0  0  0  0  0  0  0  0  0  0  0
   10.6628   -5.5153   20.4480 C   0  0  0  0  0  0  0  0  0  0  0  0
    9.4663   -4.1597   16.6806 He  0  0  0  0  0  0  0  0  0  0  0  0
  1  4  2  0
  1  7  1  0
  1  8  4  0
  1 10  4  0
  2 11  4  0
  2 15  4  0
  3  6  1  0
  3 16  1  0
  3 19  3  0
  4  5  1  0
  4 13  1  0
  4 17  1  0
  4 21  3  0
  5 16  1  0
  5 27  1  0
  6 20  1  0
  6 25  4  0
  7 12  2  0
  7 19  1  0
  7 23  2  0
  8 18  4  0
  8 28  4  0
  9 10  4  0
  9 27  2  0
 10 21  1  0
 11 23  4  0
 12 16  1  0
 12 21  1  0
 13 17  1  0
 13 20  1  0
 14 26  4  0
 15 22  4  0
 15 27  3  0
 18 23  4  0
 18 26  4  0
 19 23  4  0
 19 28  4  0
 21 27  1  0
 22 25  4  0
M  END
$$$$

 Created by Python create_sdf_string function

 29 35  0  0  0  0  0  0  0  0999 V2000
    9.4624   -5.8410   18.4519 C   0  0  0  0  0  0  0  0  0  0  0  0
    0.0255  -11.0192   17.5921 N   0  0  0  0  0  0  0  0  0  0  0  0
    5.9579   -8.8903   17.7398 C   0  0  0  0  0  0  0  0  0  0  0  0
    5.0325   -7.8758   15.6874 C   0  0  0  0  0  0  0  0  0  0  0  0
    6.5361   -7.6885   15.7554 C   0  0  0  0  0  0  0  0  0  0  0  0
    4.8789   -9.7401   17.5930 C   0  0  0  0  0  0  0  0  0  0  0  0
    8.9882   -7.0932   18.7039 C   0  0  0  0  0  0  0  0  0  0  0  0
   10.2300   -4.9757   19.2030 N   0  0  0  0  0  0  0  0  0  0  0  0
    7.0569   -5.6370   14.8777 O   0  0  0  0  0  0  0  0  0  0  0  0
    9.0398   -5.4490   17.2615 C   0  0  0  0  0  0  0  0  0  0  0  0
    0.1534  -10.2538   16.5420 N   0  0  0  0  0  0  0  0  0  0  0  0
    8.0997   -7.4855   17.5049 O   0  0  0  0  0  0  0  0  0  0  0  0
    3.8619   -8.4146   16.0491 C   0  0  0  0  0  0  0  0  0  0  0  0
   10.2022   -3.2300   16.9444 C   0  0  0  0  0  0  0  0  0  0  0  0
    0.9023  -11.1381   18.5454 C   0  0  0  0  0  0  0  0  0  0  0  0
    7.0837   -8.4056   17.1120 C   0  0  0  0  0  0  0  0  0  0  0  0
    4.6908   -8.9293   15.0652 C   0  0  0  0  0  0  0  0  0  0  0  0
   10.7026   -3.6900   19.0670 C   0  0  0  0  0  0  0  0  0  0  0  0
   11.2173   -4.3221   21.1982 C   0  0  0  0  0  0  0  0  0  0  0  0
    3.6431   -9.4430   16.9565 N   0  0  0  0  0  0  0  0  0  0  0  0
    8.1276   -6.2710   16.6716 N   0  0  0  0  0  0  0  0  0  0  0  0
    2.0107  -10.6467   18.3183 C   0  0  0  0  0  0  0  0  0  0  0  0
   11.3493   -3.1510   20.3708 N   0  0  0  0  0  0  0  0  0  0  0  0
    2.3313   -9.9395   17.2280 C   0  0  0  0  0  0  0  0  0  0  0  0
   10.6931   -2.8848   18.0741 N   0  0  0  0  0  0  0  0  0  0  0  0
    9.4968   -4.2628   16.5545 C   0  0  0  0  0  0  0  0  0  0  0  0
    7.2016   -6.5062   15.6967 C   0  0  0  0  0  0  0  0  0  0  0  0
   10.6885   -5.4352   20.4361 C   0  0  0  0  0  0  0  0  0  0  0  0
    1.3395   -9.6770   16.3003 He  0  0  0  0  0  0  0  0  0  0  0  0
  1  7  1  0
  1  8  4  0
  1 10  4  0
  2 11  4  0
  2 15  4  0
  3  6  1  0
  3 16  1  0
  4  5  1  0
  4  9  2  0
  4 13  1  0
  4 17  1  0
  5 16  1  0
  5 27  1  0
  6 20  1  0
  7 12  2  0
  8 18  4  0
  8 28  4  0
  9 27  2  0
 10 18  1  0
 10 21  1  0
 10 26  4  0
 11 14  2  0
 12 16  1  0
 12 21  1  0
 13 17  1  0
 13 20  1  0
 14 25  4  0
 14 26  4  0
 15 22  4  0
 18 23  4  0
 18 25  4  0
 19 23  4  0
 19 28  4  0
 20 24  1  0
 21 27  1  0
M  END
$$$$

 Created by Python create_sdf_string function

 29 39  0  0  0  0  0  0  0  0999 V2000
    9.4736   -5.7927   18.4165 C   0  0  0  0  0  0  0  0  0  0  0  0
   -0.1141  -10.9505   17.5928 N   0  0  0  0  0  0  0  0  0  0  0  0
    6.0185   -8.9467   17.7003 C   0  0  0  0  0  0  0  0  0  0  0  0
    5.0602   -7.8318   15.7444 C   0  0  0  0  0  0  0  0  0  0  0  0
    6.6582   -7.7317   15.7534 C   0  0  0  0  0  0  0  0  0  0  0  0
    4.8923   -9.8182   17.6363 C   0  0  0  0  0  0  0  0  0  0  0  0
    8.9977   -7.1608   18.5847 C   0  0  0  0  0  0  0  0  0  0  0  0
   10.2266   -4.9980   19.2847 N   0  0  0  0  0  0  0  0  0  0  0  0
    7.0264   -5.6362   14.8775 O   0  0  0  0  0  0  0  0  0  0  0  0
    9.0570   -5.3977   17.1554 C   0  0  0  0  0  0  0  0  0  0  0  0
    0.2365  -10.3009   16.4354 N   0  0  0  0  0  0  0  0  0  0  0  0
    8.1339   -7.4388   17.5724 C   0  0  0  0  0  0  0  0  0  0  0  0
    3.8662   -8.4133   15.9882 C   0  0  0  0  0  0  0  0  0  0  0  0
   10.1871   -3.2540   16.8551 C   0  0  0  0  0  0  0  0  0  0  0  0
    0.8252  -11.1504   18.5293 C   0  0  0  0  0  0  0  0  0  0  0  0
    7.1023   -8.3494   17.0316 C   0  0  0  0  0  0  0  0  0  0  0  0
    4.6392   -8.8527   15.0605 C   0  0  0  0  0  0  0  0  0  0  0  0
   10.6293   -3.7154   19.1007 C   0  0  0  0  0  0  0  0  0  0  0  0
   11.3056   -4.2903   21.1698 C   0  0  0  0  0  0  0  0  0  0  0  0
    3.6053   -9.3859   16.9789 N   0  0  0  0  0  0  0  0  0  0  0  0
    8.1844   -6.3656   16.6445 N   0  0  0  0  0  0  0  0  0  0  0  0
    2.1118  -10.6725   18.3153 C   0  0  0  0  0  0  0  0  0  0  0  0
   11.2991   -3.2806   20.3604 N   0  0  0  0  0  0  0  0  0  0  0  0
    1.4097   -9.7299   16.2731 N   0  0  0  0  0  0  0  0  0  0  0  0
    2.4155   -9.8673   17.2084 C   0  0  0  0  0  0  0  0  0  0  0  0
   10.7505   -2.8846   18.1247 N   0  0  0  0  0  0  0  0  0  0  0  0
    9.4453   -4.2790   16.5952 C   0  0  0  0  0  0  0  0  0  0  0  0
    7.2619   -6.4387   15.6371 C   0  0  0  0  0  0  0  0  0  0  0  0
   10.7726   -5.2887   20.4791 C   0  0  0  0  0  0  0  0  0  0  0  0
  1  7  1  0
  1  8  4  0
  1 10  4  0
  2 11  4  0
  2 15  4  0
  3  6  1  0
  3 16  1  0
  3 26  1  0
  4  5  1  0
  4 13  4  0
  4 17  1  0
  5 16  1  0
  5 28  1  0
  6 20  1  0
  7 12  2  0
  8 18  4  0
  8 29  4  0
  9 28  2  0
 10 21  1  0
 10 27  4  0
 11 14  2  0
 11 24  4  0
 12 16  1  0
 12 21  1  0
 13 17  1  0
 13 20  1  0
 14 26  4  0
 14 27  4  0
 15 22  4  0
 18 23  4  0
 18 26  4  0
 19 23  4  0
 19 24  2  0
 19 29  4  0
 20 21  4  0
 20 25  1  0
 21 28  1  0
 22 25  4  0
 24 25  4  0
M  END
$$$$

 Created by Python create_sdf_string function

 29 36  0  0  0  0  0  0  0  0999 V2000
    9.5298   -5.8175   18.3987 C   0  0  0  0  0  0  0  0  0  0  0  0
   -0.0415  -10.9156   17.6074 N   0  0  0  0  0  0  0  0  0  0  0  0
    6.0471   -9.0053   17.7022 C   0  0  0  0  0  0  0  0  0  0  0  0
    5.2267   -7.7876   15.7625 C   0  0  0  0  0  0  0  0  0  0  0  0
    6.6311   -7.7484   15.7361 C   0  0  0  0  0  0  0  0  0  0  0  0
    4.8689   -9.8049   17.6078 C   0  0  0  0  0  0  0  0  0  0  0  0
    9.1247   -7.1264   18.5855 C   0  0  0  0  0  0  0  0  0  0  0  0
   10.3121   -5.0336   19.2598 C   0  0  0  0  0  0  0  0  0  0  0  0
    6.9940   -5.6246   14.7749 O   0  0  0  0  0  0  0  0  0  0  0  0
    9.0573   -5.3939   17.1710 C   0  0  0  0  0  0  0  0  0  0  0  0
    0.3377  -10.2381   16.5288 P   0  0  0  0  0  0  0  0  0  0  0  0
    8.1444   -7.3981   17.4945 C   0  0  0  0  0  0  0  0  0  0  0  0
    3.7636   -8.4685   16.0003 C   0  0  0  0  0  0  0  0  0  0  0  0
   10.1785   -3.1894   16.9248 C   0  0  0  0  0  0  0  0  0  0  0  0
    0.8945  -11.1366   18.5170 C   0  0  0  0  0  0  0  0  0  0  0  0
    7.1140   -8.2910   17.0168 C   0  0  0  0  0  0  0  0  0  0  0  0
    4.5580   -8.7288   15.0926 C   0  0  0  0  0  0  0  0  0  0  0  0
   10.7277   -3.6787   19.1380 C   0  0  0  0  0  0  0  0  0  0  0  0
   11.3105   -4.3048   21.1890 C   0  0  0  0  0  0  0  0  0  0  0  0
    3.5549   -9.4446   17.0034 N   0  0  0  0  0  0  0  0  0  0  0  0
    8.1436   -6.3010   16.6461 N   0  0  0  0  0  0  0  0  0  0  0  0
    2.0903  -10.6778   18.3138 C   0  0  0  0  0  0  0  0  0  0  0  0
   11.2328   -3.2181   20.2665 N   0  0  0  0  0  0  0  0  0  0  0  0
    2.4514   -9.9473   17.2110 C   0  0  0  0  0  0  0  0  0  0  0  0
   10.7028   -2.9824   18.0928 N   0  0  0  0  0  0  0  0  0  0  0  0
    9.4976   -4.2620   16.6100 C   0  0  0  0  0  0  0  0  0  0  0  0
    7.2280   -6.4849   15.6559 C   0  0  0  0  0  0  0  0  0  0  0  0
   10.6119   -5.3123   20.4888 C   0  0  0  0  0  0  0  0  0  0  0  0
    1.4218   -9.7933   16.3057 He  0  0  0  0  0  0  0  0  0  0  0  0
  1  7  1  0
  1  8  4  0
  1 10  4  0
  2 11  4  0
  2 15  4  0
  3  6  1  0
  3 16  1  0
  4  5  1  0
  4 13  1  0
  4 17  1  0
  5  8  2  0
  5 16  1  0
  5 27  1  0
  6 20  1  0
  7 12  2  0
  7 13  1  0
  7 27  1  0
  8 18  4  0
  8 28  4  0
  9 27  2  0
 10 21  1  0
 12 16  1  0
 12 21  1  0
 13 17  1  0
 13 20  1  0
 13 26  1  0
 14 25  4  0
 14 26  4  0
 15 22  4  0
 18 25  4  0
 19 23  4  0
 19 28  4  0
 20 24  1  0
 21 24  3  0
 21 27  1  0
 22 24  4  0
M  END
$$$$

 Created by Python create_sdf_string function

 29 36  0  0  0  0  0  0  0  0999 V2000
    9.5739   -5.8057   18.3563 C   0  0  0  0  0  0  0  0  0  0  0  0
   -0.0082  -10.9274   17.5734 N   0  0  0  0  0  0  0  0  0  0  0  0
    6.0487   -9.0788   17.7178 C   0  0  0  0  0  0  0  0  0  0  0  0
    5.1061   -7.7820   15.7567 C   0  0  0  0  0  0  0  0  0  0  0  0
    6.6479   -7.6954   15.7852 C   0  0  0  0  0  0  0  0  0  0  0  0
    4.8868   -9.7622   17.6746 C   0  0  0  0  0  0  0  0  0  0  0  0
    9.0810   -7.1020   18.5482 C   0  0  0  0  0  0  0  0  0  0  0  0
   10.2494   -5.0085   19.2265 C   0  0  0  0  0  0  0  0  0  0  0  0
    7.0039   -5.6889   14.7790 O   0  0  0  0  0  0  0  0  0  0  0  0
    9.1146   -5.3657   17.1457 C   0  0  0  0  0  0  0  0  0  0  0  0
    0.2493  -10.3032   16.5132 C   0  0  0  0  0  0  0  0  0  0  0  0
    8.1512   -7.4169   17.5205 C   0  0  0  0  0  0  0  0  0  0  0  0
    3.7423   -8.3265   16.0603 C   0  0  0  0  0  0  0  0  0  0  0  0
   10.2580   -3.1868   16.9021 C   0  0  0  0  0  0  0  0  0  0  0  0
    0.8835  -11.1523   18.5304 C   0  0  0  0  0  0  0  0  0  0  0  0
    7.0956   -8.3134   17.0941 C   0  0  0  0  0  0  0  0  0  0  0  0
    4.5799   -8.6741   15.1293 C   0  0  0  0  0  0  0  0  0  0  0  0
   11.3016   -4.2949   21.1440 C   0  0  0  0  0  0  0  0  0  0  0  0
    3.6236   -9.4698   17.0434 N   0  0  0  0  0  0  0  0  0  0  0  0
    8.1950   -6.3084   16.6512 N   0  0  0  0  0  0  0  0  0  0  0  0
    2.0602  -10.6337   18.3066 C   0  0  0  0  0  0  0  0  0  0  0  0
   11.2828   -3.2396   20.2964 N   0  0  0  0  0  0  0  0  0  0  0  0
    1.4497   -9.7298   16.3121 N   0  0  0  0  0  0  0  0  0  0  0  0
    2.3732   -9.9781   17.2467 C   0  0  0  0  0  0  0  0  0  0  0  0
   10.7351   -2.9369   18.1494 N   0  0  0  0  0  0  0  0  0  0  0  0
    9.4608   -4.2420   16.5453 C   0  0  0  0  0  0  0  0  0  0  0  0
    7.3068   -6.4456   15.6093 C   0  0  0  0  0  0  0  0  0  0  0  0
   10.6572   -5.3728   20.5406 C   0  0  0  0  0  0  0  0  0  0  0  0
   10.7593   -3.6600   19.1056 He  0  0  0  0  0  0  0  0  0  0  0  0
  1  7  1  0
  1  8  4  0
  1 10  4  0
  2 11  4  0
  2 15  4  0
  3  6  1  0
  3 16  1  0
  3 22  1  0
  4  5  1  0
  4 13  1  0
  4 17  1  0
  5 27  1  0
  6 14  2  0
  6 19  1  0
  7 12  2  0
  8 24  3  0
  8 28  4  0
  9 27  2  0
 10 20  1  0
 10 26  4  0
 11 23  4  0
 12 16  1  0
 12 20  1  0
 13 17  1  0
 13 19  1  0
 14 25  4  0
 14 26  4  0
 15 21  4  0
 16 25  2  0
 18 21  3  0
 18 22  4  0
 18 28  4  0
 19 24  1  0
 20 27  1  0
 21 24  4  0
 23 24  4  0
M  END
$$$$

 Created by Python create_sdf_string function

 29 40  0  0  0  0  0  0  0  0999 V2000
    9.6169   -5.7779   18.3306 C   0  0  0  0  0  0  0  0  0  0  0  0
   -0.0127  -10.9713   17.5529 N   0  0  0  0  0  0  0  0  0  0  0  0
    6.0366   -9.0842   17.6917 C   0  0  0  0  0  0  0  0  0  0  0  0
    5.0622   -7.7495   15.6993 C   0  0  0  0  0  0  0  0  0  0  0  0
    6.6191   -7.7477   15.8007 C   0  0  0  0  0  0  0  0  0  0  0  0
    4.8871   -9.7664   17.6573 C   0  0  0  0  0  0  0  0  0  0  0  0
    9.0539   -7.1024   18.5324 C   0  0  0  0  0  0  0  0  0  0  0  0
   10.2911   -4.9945   19.2188 C   0  0  0  0  0  0  0  0  0  0  0  0
    7.0776   -5.7063   14.7613 Cl  0  0  0  0  0  0  0  0  0  0  0  0
    9.1645   -5.3856   17.1574 C   0  0  0  0  0  0  0  0  0  0  0  0
    0.2302  -10.3010   16.4930 C   0  0  0  0  0  0  0  0  0  0  0  0
    8.1844   -7.4139   17.5065 C   0  0  0  0  0  0  0  0  0  0  0  0
    3.7737   -8.3015   16.1188 C   0  0  0  0  0  0  0  0  0  0  0  0
   10.2119   -3.2577   16.9102 C   0  0  0  0  0  0  0  0  0  0  0  0
    0.9081  -11.1291   18.4656 C   0  0  0  0  0  0  0  0  0  0  0  0
    7.0956   -8.3004   17.0328 C   0  0  0  0  0  0  0  0  0  0  0  0
    4.5925   -8.7275   15.1260 C   0  0  0  0  0  0  0  0  0  0  0  0
   10.7231   -3.6618   19.0836 C   0  0  0  0  0  0  0  0  0  0  0  0
   11.2780   -4.3392   21.2354 C   0  0  0  0  0  0  0  0  0  0  0  0
    3.5937   -9.4527   16.9981 N   0  0  0  0  0  0  0  0  0  0  0  0
    8.2355   -6.3610   16.6273 N   0  0  0  0  0  0  0  0  0  0  0  0
    2.0706  -10.6726   18.3674 C   0  0  0  0  0  0  0  0  0  0  0  0
   11.3545   -3.2774   20.3362 N   0  0  0  0  0  0  0  0  0  0  0  0
    1.3988   -9.6600   16.3320 N   0  0  0  0  0  0  0  0  0  0  0  0
    2.3351   -9.9144   17.2770 C   0  0  0  0  0  0  0  0  0  0  0  0
   10.8440   -2.8508   18.1408 N   0  0  0  0  0  0  0  0  0  0  0  0
    9.5170   -4.2044   16.5022 C   0  0  0  0  0  0  0  0  0  0  0  0
    7.2369   -6.4244   15.6492 C   0  0  0  0  0  0  0  0  0  0  0  0
   10.6431   -5.3645   20.5303 C   0  0  0  0  0  0  0  0  0  0  0  0
  1  7  1  0
  1  8  4  0
  1 10  4  0
  1 13  3  0
  2  3  2  0
  2 11  4  0
  2 15  4  0
  2 28  2  0
  3  6  1  0
  3 16  1  0
  4  5  1  0
  4 11  2  0
  4 13  1  0
  4 17  1  0
  5 16  1  0
  5 28  1  0
  6 20  1  0
  7  9  3  0
  7 12  2  0
  8 18  4  0
  8 29  4  0
  9 28  2  0
 10 21  1  0
 10 27  4  0
 11 24  4  0
 12 16  1  0
 12 21  1  0
 13 17  1  0
 13 20  1  0
 14 26  4  0
 14 27  4  0
 15 22  4  0
 18 23  4  0
 18 26  4  0
 19 23  4  0
 19 29  4  0
 20 25  1  0
 21 28  1  0
 22 25  4  0
 24 25  4  0
M  END
$$$$

 Created by Python create_sdf_string function

 29 37  0  0  0  0  0  0  0  0999 V2000
    9.5883   -5.8243   18.3549 C   0  0  0  0  0  0  0  0  0  0  0  0
   -0.0014  -10.9636   17.5610 N   0  0  0  0  0  0  0  0  0  0  0  0
    6.0495   -9.0570   17.6904 C   0  0  0  0  0  0  0  0  0  0  0  0
    5.0500   -7.6906   15.8211 C   0  0  0  0  0  0  0  0  0  0  0  0
    6.6011   -7.7228   15.7429 C   0  0  0  0  0  0  0  0  0  0  0  0
    4.8573   -9.7456   17.6489 C   0  0  0  0  0  0  0  0  0  0  0  0
    9.0754   -7.0700   18.5296 C   0  0  0  0  0  0  0  0  0  0  0  0
   10.2741   -5.0224   19.2307 C   0  0  0  0  0  0  0  0  0  0  0  0
    7.0794   -5.7133   14.7939 O   0  0  0  0  0  0  0  0  0  0  0  0
    9.1306   -5.3795   17.1052 C   0  0  0  0  0  0  0  0  0  0  0  0
    0.2137  -10.2495   16.5005 C   0  0  0  0  0  0  0  0  0  0  0  0
    8.1637   -7.3658   17.5057 C   0  0  0  0  0  0  0  0  0  0  0  0
    3.7624   -8.3292   16.1129 C   0  0  0  0  0  0  0  0  0  0  0  0
   10.2146   -3.2111   16.9625 C   0  0  0  0  0  0  0  0  0  0  0  0
    0.8801  -11.1299   18.5051 C   0  0  0  0  0  0  0  0  0  0  0  0
    7.0961   -8.2961   17.0027 C   0  0  0  0  0  0  0  0  0  0  0  0
    4.5433   -8.7144   15.1239 C   0  0  0  0  0  0  0  0  0  0  0  0
   10.8136   -3.7153   19.1281 C   0  0  0  0  0  0  0  0  0  0  0  0
   11.2801   -4.3367   21.2507 C   0  0  0  0  0  0  0  0  0  0  0  0
    3.6031   -9.4739   17.0162 N   0  0  0  0  0  0  0  0  0  0  0  0
    8.2355   -6.3668   16.5999 N   0  0  0  0  0  0  0  0  0  0  0  0
    2.0963  -10.6877   18.3357 C   0  0  0  0  0  0  0  0  0  0  0  0
   11.3334   -3.3105   20.3433 N   0  0  0  0  0  0  0  0  0  0  0  0
    1.3989   -9.6760   16.3295 N   0  0  0  0  0  0  0  0  0  0  0  0
    2.3763   -9.9333   17.2411 C   0  0  0  0  0  0  0  0  0  0  0  0
   10.7790   -2.9065   18.0681 N   0  0  0  0  0  0  0  0  0  0  0  0
    9.4856   -4.2347   16.4905 C   0  0  0  0  0  0  0  0  0  0  0  0
    7.3097   -6.4242   15.6632 C   0  0  0  0  0  0  0  0  0  0  0  0
   10.6207   -5.3742   20.5265 C   0  0  0  0  0  0  0  0  0  0  0  0
  1  7  1  0
  1  8  4  0
  1 10  4  0
  2 11  4  0
  2 15  4  0
  3  6  1  0
  3 16  1  0
  3 27  4  0
  4  5  1  0
  4 17  1  0
  5 16  1  0
  5 28  1  0
  5 29  1  0
  6 20  1  0
  6 24  4  0
  7 12  2  0
  8 18  4  0
  8 29  4  0
  9 28  2  0
 10 21  1  0
 10 27  4  0
 11 24  4  0
 12 16  1  0
 12 21  1  0
 13 14  2  0
 13 17  1  0
 13 20  1  0
 14 26  4  0
 14 27  4  0
 15 22  4  0
 18 23  4  0
 18 26  4  0
 19 23  4  0
 19 29  4  0
 21 28  1  0
 22 25  4  0
 24 25  4  0
M  END
$$$$

 Created by Python create_sdf_string function

 29 35  0  0  0  0  0  0  0  0999 V2000
    9.6085   -5.7755   18.3590 C   0  0  0  0  0  0  0  0  0  0  0  0
   -0.0347  -10.9412   17.5954 N   0  0  0  0  0  0  0  0  0  0  0  0
    6.0155   -9.0813   17.7011 C   0  0  0  0  0  0  0  0  0  0  0  0
    5.0613   -7.6358   15.8335 C   0  0  0  0  0  0  0  0  0  0  0  0
    6.5914   -7.7301   15.8057 C   0  0  0  0  0  0  0  0  0  0  0  0
    4.8213   -9.7511   17.6710 C   0  0  0  0  0  0  0  0  0  0  0  0
    9.0186   -7.0740   18.5116 C   0  0  0  0  0  0  0  0  0  0  0  0
   10.2530   -5.0242   19.2662 C   0  0  0  0  0  0  0  0  0  0  0  0
    7.1056   -5.6935   14.8084 O   0  0  0  0  0  0  0  0  0  0  0  0
    9.1210   -5.3443   17.1229 C   0  0  0  0  0  0  0  0  0  0  0  0
    0.2389  -10.2317   16.5190 C   0  0  0  0  0  0  0  0  0  0  0  0
    8.1638   -7.3271   17.5167 C   0  0  0  0  0  0  0  0  0  0  0  0
    3.6629   -8.3840   16.0958 C   0  0  0  0  0  0  0  0  0  0  0  0
   10.2138   -3.2043   16.9238 C   0  0  0  0  0  0  0  0  0  0  0  0
    0.9355  -11.2021   18.4910 C   0  0  0  0  0  0  0  0  0  0  0  0
    7.0920   -8.3278   17.0018 C   0  0  0  0  0  0  0  0  0  0  0  0
    4.5005   -8.6495   15.1411 C   0  0  0  0  0  0  0  0  0  0  0  0
   10.8590   -3.6935   19.1079 C   0  0  0  0  0  0  0  0  0  0  0  0
   11.2744   -4.3681   21.2497 C   0  0  0  0  0  0  0  0  0  0  0  0
    3.5864   -9.4770   17.0334 N   0  0  0  0  0  0  0  0  0  0  0  0
    8.2468   -6.3523   16.5888 N   0  0  0  0  0  0  0  0  0  0  0  0
    2.0616  -10.6986   18.3325 C   0  0  0  0  0  0  0  0  0  0  0  0
   11.3398   -3.3263   20.3322 N   0  0  0  0  0  0  0  0  0  0  0  0
    1.3914   -9.7148   16.3432 N   0  0  0  0  0  0  0  0  0  0  0  0
    2.3360   -9.9429   17.2332 C   0  0  0  0  0  0  0  0  0  0  0  0
   10.8056   -2.9167   18.0940 N   0  0  0  0  0  0  0  0  0  0  0  0
    9.4896   -4.2186   16.4831 C   0  0  0  0  0  0  0  0  0  0  0  0
    7.3636   -6.4305   15.6753 C   0  0  0  0  0  0  0  0  0  0  0  0
   10.6220   -5.4247   20.5256 C   0  0  0  0  0  0  0  0  0  0  0  0
  1  7  1  0
  1  8  4  0
  1 10  4  0
  2 11  4  0
  2 15  4  0
  3  6  1  0
  3 16  1  0
  4  5  1  0
  4 13  1  0
  4 17  1  0
  5 16  1  0
  5 28  1  0
  6 20  1  0
  7 12  2  0
  7 25  2  0
  8 18  4  0
  8 29  4  0
  9 28  2  0
 10 21  1  0
 10 27  4  0
 11 24  4  0
 12 16  1  0
 12 21  1  0
 13 17  1  0
 13 20  1  0
 14 27  4  0
 15 22  4  0
 18 23  4  0
 18 26  4  0
 19 23  4  0
 19 29  4  0
 20 25  1  0
 21 28  1  0
 22 25  4  0
 24 25  4  0
M  END
$$$$

 Created by Python create_sdf_string function

 29 37  0  0  0  0  0  0  0  0999 V2000
    9.6062   -5.7519   18.3952 C   0  0  0  0  0  0  0  0  0  0  0  0
   -0.0620  -10.9477   17.6147 N   0  0  0  0  0  0  0  0  0  0  0  0
    6.0422   -9.0855   17.6791 C   0  0  0  0  0  0  0  0  0  0  0  0
    5.0626   -7.5918   15.8717 C   0  0  0  0  0  0  0  0  0  0  0  0
    6.6310   -7.6952   15.7582 C   0  0  0  0  0  0  0  0  0  0  0  0
    4.8029   -9.7854   17.6308 C   0  0  0  0  0  0  0  0  0  0  0  0
    9.0389   -7.0495   18.5317 C   0  0  0  0  0  0  0  0  0  0  0  0
   10.2988   -5.0075   19.2366 C   0  0  0  0  0  0  0  0  0  0  0  0
    7.1636   -5.6756   14.8110 O   0  0  0  0  0  0  0  0  0  0  0  0
    9.1238   -5.3461   17.1104 C   0  0  0  0  0  0  0  0  0  0  0  0
    0.2296  -10.2617   16.6039 C   0  0  0  0  0  0  0  0  0  0  0  0
    8.1968   -7.3319   17.5202 C   0  0  0  0  0  0  0  0  0  0  0  0
    3.6416   -8.3475   16.0954 C   0  0  0  0  0  0  0  0  0  0  0  0
   10.2761   -3.1599   16.9181 C   0  0  0  0  0  0  0  0  0  0  0  0
    0.8905  -11.1979   18.5098 C   0  0  0  0  0  0  0  0  0  0  0  0
    7.1126   -8.3168   17.0633 C   0  0  0  0  0  0  0  0  0  0  0  0
    4.5016   -8.5929   15.1706 C   0  0  0  0  0  0  0  0  0  0  0  0
   10.8249   -3.7246   19.1220 C   0  0  0  0  0  0  0  0  0  0  0  0
   11.2948   -4.3967   21.2245 C   0  0  0  0  0  0  0  0  0  0  0  0
    3.5565   -9.4423   17.0210 N   0  0  0  0  0  0  0  0  0  0  0  0
    8.2138   -6.3396   16.6071 N   0  0  0  0  0  0  0  0  0  0  0  0
    2.0326  -10.6857   18.3078 C   0  0  0  0  0  0  0  0  0  0  0  0
   11.3777   -3.3565   20.3562 N   0  0  0  0  0  0  0  0  0  0  0  0
    1.4065   -9.7030   16.3663 N   0  0  0  0  0  0  0  0  0  0  0  0
    2.3602   -9.9438   17.2587 C   0  0  0  0  0  0  0  0  0  0  0  0
   10.8655   -2.9218   18.0786 N   0  0  0  0  0  0  0  0  0  0  0  0
    9.4880   -4.2362   16.4884 C   0  0  0  0  0  0  0  0  0  0  0  0
    7.3644   -6.4387   15.6650 C   0  0  0  0  0  0  0  0  0  0  0  0
   10.6303   -5.4467   20.5306 C   0  0  0  0  0  0  0  0  0  0  0  0
  1  7  1  0
  1  8  4  0
  1 10  4  0
  2 11  4  0
  2 15  4  0
  3  6  1  0
  3 16  1  0
  4  5  1  0
  4 13  1  0
  4 17  1  0
  5 16  1  0
  5 28  1  0
  6 20  1  0
  7 12  2  0
  7 13  3  0
  8 18  4  0
  8 29  4  0
  9 28  2  0
 10 21  1  0
 10 27  4  0
 11 24  4  0
 12 16  1  0
 12 21  1  0
 13 17  1  0
 13 20  1  0
 14 26  4  0
 14 27  4  0
 15 22  4  0
 15 28  3  0
 18 23  4  0
 18 26  4  0
 19 23  4  0
 19 29  4  0
 20 25  1  0
 21 28  1  0
 22 25  4  0
 24 25  4  0
M  END
$$$$

 Created by Python create_sdf_string function

 29 36  0  0  0  0  0  0  0  0999 V2000
    9.5582   -5.7358   18.3406 C   0  0  0  0  0  0  0  0  0  0  0  0
   -0.0407  -10.9777   17.6224 N   0  0  0  0  0  0  0  0  0  0  0  0
    5.9866   -9.1300   17.6678 C   0  0  0  0  0  0  0  0  0  0  0  0
    5.0775   -7.6000   15.8627 C   0  0  0  0  0  0  0  0  0  0  0  0
    6.6278   -7.6770   15.7665 C   0  0  0  0  0  0  0  0  0  0  0  0
    4.7776   -9.7936   17.6140 C   0  0  0  0  0  0  0  0  0  0  0  0
    9.0336   -7.0434   18.5132 C   0  0  0  0  0  0  0  0  0  0  0  0
   10.2954   -5.0187   19.2148 C   0  0  0  0  0  0  0  0  0  0  0  0
    7.1558   -5.6761   14.7967 O   0  0  0  0  0  0  0  0  0  0  0  0
    9.1464   -5.3340   17.1259 C   0  0  0  0  0  0  0  0  0  0  0  0
    0.2330  -10.2420   16.5762 C   0  0  0  0  0  0  0  0  0  0  0  0
    8.2111   -7.3335   17.5114 C   0  0  0  0  0  0  0  0  0  0  0  0
    3.6252   -8.3054   16.0966 C   0  0  0  0  0  0  0  0  0  0  0  0
   10.2577   -3.1667   16.9272 C   0  0  0  0  0  0  0  0  0  0  0  0
    0.8693  -11.1908   18.5088 C   0  0  0  0  0  0  0  0  0  0  0  0
    7.1165   -8.3257   17.0528 C   0  0  0  0  0  0  0  0  0  0  0  0
    4.4845   -8.5527   15.1857 C   0  0  0  0  0  0  0  0  0  0  0  0
   10.8544   -3.7211   19.1439 C   0  0  0  0  0  0  0  0  0  0  0  0
   11.3056   -4.3943   21.2290 C   0  0  0  0  0  0  0  0  0  0  0  0
    3.5666   -9.4435   17.0391 N   0  0  0  0  0  0  0  0  0  0  0  0
    8.2143   -6.3010   16.6259 N   0  0  0  0  0  0  0  0  0  0  0  0
    2.0481  -10.7240   18.3204 C   0  0  0  0  0  0  0  0  0  0  0  0
   11.3874   -3.3625   20.3421 N   0  0  0  0  0  0  0  0  0  0  0  0
    1.3749   -9.7005   16.3968 N   0  0  0  0  0  0  0  0  0  0  0  0
    2.3316   -9.9574   17.2691 C   0  0  0  0  0  0  0  0  0  0  0  0
   10.8831   -2.9246   18.0760 N   0  0  0  0  0  0  0  0  0  0  0  0
    9.5341   -4.2127   16.5015 C   0  0  0  0  0  0  0  0  0  0  0  0
    7.3455   -6.4294   15.6378 C   0  0  0  0  0  0  0  0  0  0  0  0
   10.6368   -5.4371   20.5203 C   0  0  0  0  0  0  0  0  0  0  0  0
  1  7  1  0
  1  8  4  0
  1 10  4  0
  2 11  4  0
  2 15  4  0
  3  6  1  0
  3 16  1  0
  4  5  1  0
  4 13  1  0
  4 17  1  0
  4 20  4  0
  5 16  1  0
  5 28  1  0
  6 20  1  0
  7 12  2  0
  8 18  4  0
  8 29  4  0
  9 28  2  0
 10 21  1  0
 10 27  4  0
 11 24  4  0
 12 16  1  0
 12 21  1  0
 13 17  1  0
 13 20  1  0
 14 26  4  0
 14 27  4  0
 15 22  4  0
 18 23  4  0
 18 26  4  0
 19 23  4  0
 19 29  4  0
 20 25  1  0
 21 28  1  0
 22 25  4  0
 24 25  4  0
M  END
$$$$

 Created by Python create_sdf_string function

 29 37  0  0  0  0  0  0  0  0999 V2000
    9.5835   -5.7272   18.3364 C   0  0  0  0  0  0  0  0  0  0  0  0
   -0.0400  -11.0016   17.6230 N   0  0  0  0  0  0  0  0  0  0  0  0
    5.9971   -9.1294   17.6561 C   0  0  0  0  0  0  0  0  0  0  0  0
    5.0887   -7.5504   15.8608 C   0  0  0  0  0  0  0  0  0  0  0  0
    6.6189   -7.6771   15.7606 C   0  0  0  0  0  0  0  0  0  0  0  0
    4.7549   -9.8032   17.5894 C   0  0  0  0  0  0  0  0  0  0  0  0
    9.0373   -7.0197   18.5282 C   0  0  0  0  0  0  0  0  0  0  0  0
   10.2953   -5.0009   19.2443 C   0  0  0  0  0  0  0  0  0  0  0  0
    7.1770   -5.6624   14.8113 O   0  0  0  0  0  0  0  0  0  0  0  0
    9.1491   -5.3207   17.1003 C   0  0  0  0  0  0  0  0  0  0  0  0
    0.1985  -10.2609   16.6020 C   0  0  0  0  0  0  0  0  0  0  0  0
    8.2150   -7.3212   17.5067 C   0  0  0  0  0  0  0  0  0  0  0  0
    3.5887   -8.3014   16.1140 C   0  0  0  0  0  0  0  0  0  0  0  0
   10.2933   -3.1567   16.9214 C   0  0  0  0  0  0  0  0  0  0  0  0
    0.8681  -11.2239   18.5350 C   0  0  0  0  0  0  0  0  0  0  0  0
    7.1160   -8.3302   17.0516 C   0  0  0  0  0  0  0  0  0  0  0  0
    4.5030   -8.5338   15.2016 C   0  0  0  0  0  0  0  0  0  0  0  0
   10.8474   -3.7104   19.1320 C   0  0  0  0  0  0  0  0  0  0  0  0
   11.3032   -4.4204   21.2389 C   0  0  0  0  0  0  0  0  0  0  0  0
    3.5593   -9.4309   17.0525 N   0  0  0  0  0  0  0  0  0  0  0  0
    8.2441   -6.3035   16.6145 N   0  0  0  0  0  0  0  0  0  0  0  0
    2.0663  -10.7250   18.3309 C   0  0  0  0  0  0  0  0  0  0  0  0
   11.4124   -3.3533   20.3332 N   0  0  0  0  0  0  0  0  0  0  0  0
    1.3679   -9.6930   16.4521 N   0  0  0  0  0  0  0  0  0  0  0  0
    2.3122   -9.9592   17.3064 C   0  0  0  0  0  0  0  0  0  0  0  0
   10.8786   -2.9125   18.0969 N   0  0  0  0  0  0  0  0  0  0  0  0
    9.5228   -4.1968   16.4951 C   0  0  0  0  0  0  0  0  0  0  0  0
    7.3434   -6.4211   15.6454 C   0  0  0  0  0  0  0  0  0  0  0  0
   10.6364   -5.4464   20.5399 C   0  0  0  0  0  0  0  0  0  0  0  0
  1  7  1  0
  1  8  4  0
  1 10  4  0
  1 13  2  0
  2 11  4  0
  2 15  4  0
  3  6  1  0
  3 16  1  0
  4  5  1  0
  4 13  1  0
  4 17  1  0
  5 16  1  0
  5 28  1  0
  6 20  1  0
  7 12  2  0
  8 18  4  0
  8 29  4  0
  9 28  2  0
 10 21  1  0
 10 27  4  0
 11 24  4  0
 12 16  1  0
 12 21  1  0
 13 17  1  0
 13 20  1  0
 14 26  4  0
 14 27  4  0
 15 22  4  0
 18 23  4  0
 18 26  4  0
 19 23  4  0
 19 29  4  0
 20 25  1  0
 21 28  1  0
 22 25  4  0
 23 24  3  0
 24 25  4  0
M  END
$$$$

 Created by Python create_sdf_string function

 29 36  0  0  0  0  0  0  0  0999 V2000
    9.5873   -5.7162   18.3254 C   0  0  0  0  0  0  0  0  0  0  0  0
   -0.0428  -11.0093   17.6398 N   0  0  0  0  0  0  0  0  0  0  0  0
    5.9687   -9.1498   17.6144 C   0  0  0  0  0  0  0  0  0  0  0  0
    5.1013   -7.5553   15.8620 C   0  0  0  0  0  0  0  0  0  0  0  0
    6.6246   -7.6654   15.7597 C   0  0  0  0  0  0  0  0  0  0  0  0
    4.7596   -9.7977   17.5860 C   0  0  0  0  0  0  0  0  0  0  0  0
    9.0489   -7.0176   18.5300 C   0  0  0  0  0  0  0  0  0  0  0  0
   10.2867   -5.0009   19.2261 C   0  0  0  0  0  0  0  0  0  0  0  0
    7.1973   -5.6662   14.8229 O   0  0  0  0  0  0  0  0  0  0  0  0
    9.1580   -5.3196   17.0875 C   0  0  0  0  0  0  0  0  0  0  0  0
    0.1905  -10.2637   16.6408 C   0  0  0  0  0  0  0  0  0  0  0  0
    8.2308   -7.3168   17.4967 C   0  0  0  0  0  0  0  0  0  0  0  0
    3.5554   -8.3095   16.1133 C   0  0  0  0  0  0  0  0  0  0  0  0
   10.2948   -3.1598   16.9244 C   0  0  0  0  0  0  0  0  0  0  0  0
    0.8810  -11.2511   18.5511 C   0  0  0  0  0  0  0  0  0  0  0  0
    7.1199   -8.3336   17.0500 C   0  0  0  0  0  0  0  0  0  0  0  0
    4.4902   -8.5036   15.2228 C   0  0  0  0  0  0  0  0  0  0  0  0
   10.8441   -3.7054   19.1261 C   0  0  0  0  0  0  0  0  0  0  0  0
   11.3084   -4.4124   21.2331 C   0  0  0  0  0  0  0  0  0  0  0  0
    3.5345   -9.4307   17.0730 N   0  0  0  0  0  0  0  0  0  0  0  0
    8.2511   -6.3006   16.6234 N   0  0  0  0  0  0  0  0  0  0  0  0
    2.0655  -10.7391   18.3430 C   0  0  0  0  0  0  0  0  0  0  0  0
   11.4270   -3.3887   20.3436 N   0  0  0  0  0  0  0  0  0  0  0  0
    1.3531   -9.6958   16.4632 N   0  0  0  0  0  0  0  0  0  0  0  0
    2.3148   -9.9713   17.3164 C   0  0  0  0  0  0  0  0  0  0  0  0
   10.8820   -2.9102   18.1132 N   0  0  0  0  0  0  0  0  0  0  0  0
    9.5268   -4.1776   16.4843 C   0  0  0  0  0  0  0  0  0  0  0  0
    7.3441   -6.4199   15.6510 C   0  0  0  0  0  0  0  0  0  0  0  0
   10.6279   -5.4562   20.5423 C   0  0  0  0  0  0  0  0  0  0  0  0
  1  7  1  0
  1  8  4  0
  1 10  4  0
  2 11  4  0
  2 14  4  0
  2 15  4  0
  3  6  1  0
  3 16  1  0
  4  5  1  0
  4 13  1  0
  4 17  1  0
  5 16  1  0
  5 28  1  0
  6 20  1  0
  7 12  2  0
  8 18  4  0
  8 29  4  0
  9 28  2  0
 10 21  1  0
 10 27  4  0
 11 24  4  0
 12 16  1  0
 12 21  1  0
 13 17  1  0
 13 20  1  0
 14 26  4  0
 14 27  4  0
 15 22  4  0
 18 23  4  0
 18 26  4  0
 19 23  4  0
 19 29  4  0
 20 25  1  0
 21 28  1  0
 22 25  4  0
 24 25  4  0
M  END
$$$$

 Created by Python create_sdf_string function

 29 36  0  0  0  0  0  0  0  0999 V2000
    9.5857   -5.7010   18.3372 C   0  0  0  0  0  0  0  0  0  0  0  0
   -0.0470  -11.0333   17.6759 N   0  0  0  0  0  0  0  0  0  0  0  0
    5.9635   -9.1688   17.5861 C   0  0  0  0  0  0  0  0  0  0  0  0
    5.1081   -7.5364   15.8441 C   0  0  0  0  0  0  0  0  0  0  0  0
    6.6284   -7.6573   15.7674 C   0  0  0  0  0  0  0  0  0  0  0  0
    4.7434   -9.8060   17.5824 C   0  0  0  0  0  0  0  0  0  0  0  0
    9.0680   -7.0144   18.5207 C   0  0  0  0  0  0  0  0  0  0  0  0
   10.3009   -4.9986   19.2201 C   0  0  0  0  0  0  0  0  0  0  0  0
    7.2119   -5.6514   14.8242 O   0  0  0  0  0  0  0  0  0  0  0  0
    9.1556   -5.3271   17.0845 C   0  0  0  0  0  0  0  0  0  0  0  0
    0.1829  -10.2777   16.6596 C   0  0  0  0  0  0  0  0  0  0  0  0
    8.2387   -7.3299   17.5035 C   0  0  0  0  0  0  0  0  0  0  0  0
    3.5252   -8.3347   16.1235 C   0  0  0  0  0  0  0  0  0  0  0  0
   10.3024   -3.1430   16.9299 C   0  0  0  0  0  0  0  0  0  0  0  0
    0.8926  -11.2663   18.5549 C   0  0  0  0  0  0  0  0  0  0  0  0
    7.1142   -8.3455   17.0482 C   0  0  0  0  0  0  0  0  0  0  0  0
    4.4745   -8.5027   15.2401 C   0  0  0  0  0  0  0  0  0  0  0  0
   10.8527   -3.7025   19.1303 C   0  0  0  0  0  0  0  0  0  0  0  0
   11.3093   -4.4271   21.2299 C   0  0  0  0  0  0  0  0  0  0  0  0
    3.5074   -9.4402   17.0754 N   0  0  0  0  0  0  0  0  0  0  0  0
    8.2583   -6.2911   16.6139 N   0  0  0  0  0  0  0  0  0  0  0  0
    2.0647  -10.7603   18.3619 C   0  0  0  0  0  0  0  0  0  0  0  0
   11.4356   -3.3903   20.3491 N   0  0  0  0  0  0  0  0  0  0  0  0
    1.3311   -9.7047   16.4814 N   0  0  0  0  0  0  0  0  0  0  0  0
    2.3054   -9.9749   17.3243 C   0  0  0  0  0  0  0  0  0  0  0  0
   10.8750   -2.9149   18.1152 N   0  0  0  0  0  0  0  0  0  0  0  0
    9.5349   -4.1746   16.4956 C   0  0  0  0  0  0  0  0  0  0  0  0
    7.3648   -6.4093   15.6450 C   0  0  0  0  0  0  0  0  0  0  0  0
   10.6170   -5.4639   20.5435 C   0  0  0  0  0  0  0  0  0  0  0  0
  1  7  1  0
  1  8  4  0
  1 10  4  0
  1 26  1  0
  2 11  4  0
  2 15  4  0
  3  6  1  0
  3 16  1  0
  4  5  1  0
  4 13  1  0
  4 17  1  0
  5 16  1  0
  5 28  1  0
  6 20  1  0
  7 12  2  0
  8 18  4  0
  8 29  4  0
  9 28  2  0
 10 21  1  0
 10 27  4  0
 11 24  4  0
 12 16  1  0
 12 21  1  0
 13 17  1  0
 13 20  1  0
 14 26  4  0
 14 27  4  0
 15 22  4  0
 18 23  4  0
 18 26  4  0
 19 23  4  0
 19 29  4  0
 20 25  1  0
 21 28  1  0
 22 25  4  0
 24 25  4  0
M  END
$$$$

 Created by Python create_sdf_string function

 29 43  0  0  0  0  0  0  0  0999 V2000
    8.5475   -7.7259   16.7797 N   0  0  0  0  0  0  0  0  0  0  0  0
    9.6528   -7.2063   17.9919 Cl  0  0  0  0  0  0  0  0  0  0  0  0
    7.0578   -5.8563   18.8550 P   0  0  0  0  0  0  0  0  0  0  0  0
    8.4392   -7.8873   18.1819 N   0  0  0  0  0  0  0  0  0  0  0  0
    7.1366   -7.7689   17.9861 B   0  0  0  0  0  0  0  0  0  0  0  0
    6.1522   -8.5138   16.8379 I   0  0  0  0  0  0  0  0  0  0  0  0
    8.6517   -9.3475   17.1039 P   0  0  0  0  0  0  0  0  0  0  0  0
    9.9724   -3.1784   17.3354 C   0  0  0  0  0  0  0  0  0  0  0  0
   10.6432   -4.5079   19.0682 C   0  0  0  0  0  0  0  0  0  0  0  0
    8.2287   -7.9743   17.5224 O   0  0  0  0  0  0  0  0  0  0  0  0
   11.3983   -3.2331   20.2321 N   0  0  0  0  0  0  0  0  0  0  0  0
    7.7611   -6.3706   16.3831 N   0  0  0  0  0  0  0  0  0  0  0  0
    7.6642   -7.1404   17.9257 C   0  0  0  0  0  0  0  0  0  0  0  0
   11.0821   -3.1124   18.1967 C   0  0  0  0  0  0  0  0  0  0  0  0
    9.3720   -4.5088   16.4523 C   0  0  0  0  0  0  0  0  0  0  0  0
    8.4008   -8.4455   18.0860 Cl  0  0  0  0  0  0  0  0  0  0  0  0
    7.9359   -8.5770   19.1993 He  0  0  0  0  0  0  0  0  0  0  0  0
    7.8826   -6.9609   17.7123 He  0  0  0  0  0  0  0  0  0  0  0  0
    7.4356   -7.6151   15.6127 He  0  0  0  0  0  0  0  0  0  0  0  0
    6.2557   -9.1135   16.1350 He  0  0  0  0  0  0  0  0  0  0  0  0
    7.2015   -7.5565   16.5218 He  0  0  0  0  0  0  0  0  0  0  0  0
    6.2592   -8.4298   16.9692 He  0  0  0  0  0  0  0  0  0  0  0  0
    8.1784   -7.7237   16.9905 He  0  0  0  0  0  0  0  0  0  0  0  0
    8.1842   -9.1436   19.1709 He  0  0  0  0  0  0  0  0  0  0  0  0
    8.2698   -8.3971   15.7068 He  0  0  0  0  0  0  0  0  0  0  0  0
   11.4477   -4.5267   21.8532 He  0  0  0  0  0  0  0  0  0  0  0  0
    7.6132   -8.5174   17.7567 He  0  0  0  0  0  0  0  0  0  0  0  0
    8.0714   -8.3450   18.0524 He  0  0  0  0  0  0  0  0  0  0  0  0
    8.7542   -8.1911   16.8832 He  0  0  0  0  0  0  0  0  0  0  0  0
  1  6  3  0
  1 11  1  0
  1 13  2  0
  1 14  3  0
  2  8  3  0
  2  9  4  0
  2 14  1  0
  2 16  1  0
  3  5  1  0
  3  6  3  0
  3 12  2  0
  3 14  1  0
  4  7  3  0
  4 10  4  0
  4 12  4  0
  4 14  3  0
  4 15  4  0
  5  7  1  0
  5 11  2  0
  5 16  4  0
  6  9  1  0
  6 10  3  0
  6 11  1  0
  6 12  3  0
  6 14  1  0
  7  8  4  0
  7 12  1  0
  8 13  1  0
  8 14  4  0
  8 15  4  0
  8 16  1  0
  9 11  4  0
  9 16  2  0
 10 11  1  0
 10 13  3  0
 10 14  1  0
 10 15  4  0
 10 16  4  0
 11 16  4  0
 12 14  2  0
 13 16  4  0
 14 15  1  0
 14 16  2  0
M  END
$$$$

 Created by Python create_sdf_string function

 29 66  0  0  0  0  0  0  0  0999 V2000
    8.1776   -7.3354   19.8450 F   0  0  0  0  0  0  0  0  0  0  0  0
    7.7204   -6.6754   17.6878 F   0  0  0  0  0  0  0  0  0  0  0  0
    8.2251   -7.8344   17.5129 N   0  0  0  0  0  0  0  0  0  0  0  0
   10.6030   -8.7114   19.7520 C   0  0  0  0  0  0  0  0  0  0  0  0
    7.3043   -9.1682   14.7683 N   0  0  0  0  0  0  0  0  0  0  0  0
    5.5405   -9.2076   15.0571 O   0  0  0  0  0  0  0  0  0  0  0  0
    5.0524   -5.7314   14.9020 Cl  0  0  0  0  0  0  0  0  0  0  0  0
    5.4742   -7.1064   17.2006 O   0  0  0  0  0  0  0  0  0  0  0  0
    7.6754   -8.7200   18.0687 C   0  0  0  0  0  0  0  0  0  0  0  0
    5.8800   -8.0481   16.7079 F   0  0  0  0  0  0  0  0  0  0  0  0
   10.3294   -4.3459   17.5472 C   0  0  0  0  0  0  0  0  0  0  0  0
   11.0647   -4.0807   19.6006 C   0  0  0  0  0  0  0  0  0  0  0  0
   10.5096   -4.7690   20.2867 C   0  0  0  0  0  0  0  0  0  0  0  0
    6.6500   -7.2105   18.1773 C   0  0  0  0  0  0  0  0  0  0  0  0
   11.5583   -3.8089   21.0569 C   0  0  0  0  0  0  0  0  0  0  0  0
    7.1576   -7.1058   14.3729 C   0  0  0  0  0  0  0  0  0  0  0  0
    7.4713   -5.0554   16.7481 O   0  0  0  0  0  0  0  0  0  0  0  0
   10.0422   -3.6813   18.6162 C   0  0  0  0  0  0  0  0  0  0  0  0
    9.3042   -3.7868   16.1189 F   0  0  0  0  0  0  0  0  0  0  0  0
    9.2212   -6.6419   18.5298 He  0  0  0  0  0  0  0  0  0  0  0  0
    8.8523   -7.0083   18.7147 He  0  0  0  0  0  0  0  0  0  0  0  0
    7.3394   -7.2235   16.9231 He  0  0  0  0  0  0  0  0  0  0  0  0
    9.2979   -7.4722   16.7304 He  0  0  0  0  0  0  0  0  0  0  0  0
    8.3371   -9.5705   20.1681 He  0  0  0  0  0  0  0  0  0  0  0  0
    9.3168   -8.5398   16.2035 He  0  0  0  0  0  0  0  0  0  0  0  0
    8.1254   -8.7403   15.8628 He  0  0  0  0  0  0  0  0  0  0  0  0
    8.3022   -8.0438   18.2684 He  0  0  0  0  0  0  0  0  0  0  0  0
    8.3533   -7.1522   18.3006 He  0  0  0  0  0  0  0  0  0  0  0  0
    7.9929   -9.3140   17.4284 He  0  0  0  0  0  0  0  0  0  0  0  0
  1  3  4  0
  1  6  2  0
  1  7  2  0
  1  9  1  0
  1 10  1  0
  1 12  4  0
  1 13  3  0
  1 15  4  0
  1 19  3  0
  2  3  4  0
  2  5  1  0
  2  7  4  0
  2  9  1  0
  2 18  2  0
  2 19  1  0
  3  5  4  0
  3  6  1  0
  3  9  2  0
  3 11  4  0
  3 12  4  0
  3 14  2  0
  4  5  4  0
  4  6  2  0
  4  8  2  0
  4  9  3  0
  4 10  1  0
  4 11  3  0
  4 12  4  0
  4 13  4  0
  4 15  2  0
  4 17  1  0
  4 18  2  0
  5  6  1  0
  5  8  3  0
  5  9  2  0
  5 11  1  0
  5 15  3  0
  5 16  2  0
  6  8  4  0
  6 12  1  0
  6 14  3  0
  6 18  3  0
  7  8  3  0
  7 10  2  0
  7 11  1  0
  8 11  4  0
  8 12  2  0
  8 14  3  0
  8 15  4  0
  8 17  1  0
  8 18  4  0
  8 19  2  0
  9 13  1  0
  9 18  3  0
 10 11  3  0
 10 14  3  0
 10 16  2  0
 11 17  4  0
 11 19  4  0
 12 15  4  0
 13 15  4  0
 14 19  2  0
 15 17  1  0
 15 18  4  0
 16 18  1  0
 16 19  3  0
M  END
$$$$

 Created by Python create_sdf_string function

 29 79  0  0  0  0  0  0  0  0999 V2000
    8.5086   -4.9799   16.7018 S   0  0  0  0  0  0  0  0  0  0  0  0
    8.7011   -8.6241   18.9101 O   0  0  0  0  0  0  0  0  0  0  0  0
    7.5489   -7.6356   16.2910 F   0  0  0  0  0  0  0  0  0  0  0  0
   11.5704   -4.9175   17.1550 N   0  0  0  0  0  0  0  0  0  0  0  0
    5.6324   -8.0995   16.4373 N   0  0  0  0  0  0  0  0  0  0  0  0
    8.5615   -8.2860   18.4559 Cl  0  0  0  0  0  0  0  0  0  0  0  0
   10.5534   -3.3077   17.3552 C   0  0  0  0  0  0  0  0  0  0  0  0
    7.9650   -6.4847   15.9005 N   0  0  0  0  0  0  0  0  0  0  0  0
    7.2200   -7.1866   18.0752 C   0  0  0  0  0  0  0  0  0  0  0  0
    8.4639   -8.4736   16.3441 Br  0  0  0  0  0  0  0  0  0  0  0  0
   10.5744   -3.7593   20.1286 C   0  0  0  0  0  0  0  0  0  0  0  0
   10.4559   -4.7778   20.6435 C   0  0  0  0  0  0  0  0  0  0  0  0
    6.6421   -8.3659   18.9043 O   0  0  0  0  0  0  0  0  0  0  0  0
    6.2154   -6.7338   16.7930 S   0  0  0  0  0  0  0  0  0  0  0  0
   11.1140   -4.6054   21.0818 C   0  0  0  0  0  0  0  0  0  0  0  0
    8.1075   -6.1378   15.2456 F   0  0  0  0  0  0  0  0  0  0  0  0
    8.9497   -7.1730   17.3935 S   0  0  0  0  0  0  0  0  0  0  0  0
   10.7136   -4.0200   18.3698 N   0  0  0  0  0  0  0  0  0  0  0  0
    9.4596   -3.9201   16.9643 C   0  0  0  0  0  0  0  0  0  0  0  0
   10.2144   -5.4866   17.0601 Cl  0  0  0  0  0  0  0  0  0  0  0  0
    9.3498   -7.0720   19.1710 He  0  0  0  0  0  0  0  0  0  0  0  0
    8.3459   -7.1525   17.7384 He  0  0  0  0  0  0  0  0  0  0  0  0
    4.4950   -7.6471   15.5876 He  0  0  0  0  0  0  0  0  0  0  0  0
   10.6409   -6.3952   20.1939 He  0  0  0  0  0  0  0  0  0  0  0  0
    5.3870   -7.0682   15.4236 He  0  0  0  0  0  0  0  0  0  0  0  0
    7.5571   -7.3499   18.0829 He  0  0  0  0  0  0  0  0  0  0  0  0
    7.2253   -8.8573   16.2339 He  0  0  0  0  0  0  0  0  0  0  0  0
    7.0657   -8.9675   17.2208 He  0  0  0  0  0  0  0  0  0  0  0  0
    6.4493   -8.8330   16.4162 He  0  0  0  0  0  0  0  0  0  0  0  0
  1  3  1  0
  1  6  2  0
  1  8  3  0
  1  9  4  0
  1 10  2  0
  1 11  1  0
  1 12  3  0
  1 13  1  0
  1 15  2  0
  1 19  1  0
  1 20  1  0
  2  5  3  0
  2  7  2  0
  2 10  1  0
  2 12  1  0
  2 13  4  0
  2 17  1  0
  2 19  2  0
  3  5  1  0
  3  6  4  0
  3  7  4  0
  3  8  1  0
  3  9  4  0
  3 10  1  0
  3 14  1  0
  3 16  1  0
  3 19  1  0
  4  7  2  0
  4  8  1  0
  4 11  4  0
  4 12  3  0
  4 13  3  0
  4 14  1  0
  4 15  1  0
  4 18  4  0
  4 19  1  0
  5  7  4  0
  5 12  4  0
  5 13  1  0
  5 14  1  0
  5 15  1  0
  5 18  3  0
  5 19  4  0
  6  7  3  0
  6  8  3  0
  6 10  2  0
  6 14  4  0
  6 20  1  0
  7  9  1  0
  7 11  4  0
  7 13  4  0
  7 16  1  0
  8  9  3  0
  8 12  1  0
  8 15  4  0
  8 16  1  0
  8 18  1  0
  9 16  1  0
  9 17  4  0
  9 19  2  0
 10 12  3  0
 10 17  4  0
 10 18  2  0
 10 19  2  0
 10 20  2  0
 11 13  3  0
 11 14  1  0
 12 17  2  0
 13 15  3  0
 13 16  4  0
 13 18  3  0
 14 16  2  0
 14 19  1  0
 15 16  4  0
 15 18  1  0
 16 20  3  0
 17 18  4  0
 17 19  3  0
 17 20  1  0
M  END
$$$$

 Created by Python create_sdf_string function

 29 55  0  0  0  0  0  0  0  0999 V2000
    9.4332   -6.3037   19.2847 C   0  0  0  0  0  0  0  0  0  0  0  0
    8.7755   -6.4680   16.2866 Cl  0  0  0  0  0  0  0  0  0  0  0  0
   10.0265   -9.3185   16.8903 O   0  0  0  0  0  0  0  0  0  0  0  0
    4.6219   -8.7008   16.4784 C   0  0  0  0  0  0  0  0  0  0  0  0
   10.6302   -5.7777   19.5445 C   0  0  0  0  0  0  0  0  0  0  0  0
    4.5621   -9.2582   15.5069 Br  0  0  0  0  0  0  0  0  0  0  0  0
   11.4436   -3.5235   18.5612 Se  0  0  0  0  0  0  0  0  0  0  0  0
    8.0304   -6.3378   18.1522 C   0  0  0  0  0  0  0  0  0  0  0  0
    4.4730   -8.0485   17.5912 O   0  0  0  0  0  0  0  0  0  0  0  0
   10.6300   -3.9529   17.8507 C   0  0  0  0  0  0  0  0  0  0  0  0
    6.5923   -5.8007   16.1957 C   0  0  0  0  0  0  0  0  0  0  0  0
   11.0757   -3.5224   19.9213 C   0  0  0  0  0  0  0  0  0  0  0  0
   11.2285   -4.7951   19.8173 C   0  0  0  0  0  0  0  0  0  0  0  0
   10.3625   -4.4123   20.9109 C   0  0  0  0  0  0  0  0  0  0  0  0
    9.1130   -8.9918   16.4782 P   0  0  0  0  0  0  0  0  0  0  0  0
   10.6146   -4.0908   18.4167 C   0  0  0  0  0  0  0  0  0  0  0  0
    9.7652   -3.9628   16.9469 N   0  0  0  0  0  0  0  0  0  0  0  0
   10.8735   -5.6636   16.7260 C   0  0  0  0  0  0  0  0  0  0  0  0
    6.9072  -10.4389   16.0782 Cl  0  0  0  0  0  0  0  0  0  0  0  0
    8.0438   -4.7181   18.4901 He  0  0  0  0  0  0  0  0  0  0  0  0
    7.2616   -6.8941   15.9776 He  0  0  0  0  0  0  0  0  0  0  0  0
    8.2553   -7.6555   18.6881 He  0  0  0  0  0  0  0  0  0  0  0  0
    6.4189   -9.8020   16.9714 He  0  0  0  0  0  0  0  0  0  0  0  0
    6.9073   -7.4291   16.6376 He  0  0  0  0  0  0  0  0  0  0  0  0
    8.3955   -9.8131   16.0129 He  0  0  0  0  0  0  0  0  0  0  0  0
    6.0444   -8.8025   17.4930 He  0  0  0  0  0  0  0  0  0  0  0  0
    5.4882   -8.3983   16.3216 He  0  0  0  0  0  0  0  0  0  0  0  0
    8.1870   -8.2531   16.2328 He  0  0  0  0  0  0  0  0  0  0  0  0
    6.8758   -6.8286   15.9477 He  0  0  0  0  0  0  0  0  0  0  0  0
  1  2  1  0
  1  3  4  0
  1  7  1  0
  1 12  4  0
  1 15  4  0
  1 17  3  0
  2  9  3  0
  2 12  3  0
  3  4  3  0
  3  7  4  0
  3  8  4  0
  3  9  2  0
  3 11  3  0
  3 12  1  0
  3 15  1  0
  3 17  2  0
  4  5  2  0
  4  7  3  0
  4 18  2  0
  5  6  3  0
  5  8  4  0
  5  9  1  0
  5 11  3  0
  5 16  4  0
  5 17  3  0
  5 19  4  0
  6  9  4  0
  6 12  1  0
  6 17  3  0
  6 18  4  0
  7  9  2  0
  7 10  1  0
  7 11  1  0
  7 13  3  0
  7 16  3  0
  7 17  3  0
  8 15  3  0
  8 17  1  0
  8 19  1  0
  9 12  1  0
  9 13  2  0
  9 15  4  0
  9 16  3  0
  9 17  3  0
 10 11  1  0
 10 12  3  0
 11 12  1  0
 11 15  1  0
 11 16  3  0
 11 19  2  0
 12 13  1  0
 13 14  4  0
 14 16  1  0
 15 19  4  0
 16 18  3  0
M  END
$$$$

 Created by Python create_sdf_string function

 29 56  0  0  0  0  0  0  0  0999 V2000
    8.5161   -5.4715   17.8972 F   0  0  0  0  0  0  0  0  0  0  0  0
    9.3376   -6.5884   17.5504 S   0  0  0  0  0  0  0  0  0  0  0  0
    3.2016   -9.3529   19.0504 C   0  0  0  0  0  0  0  0  0  0  0  0
    9.8372   -4.2782   18.1569 Br  0  0  0  0  0  0  0  0  0  0  0  0
    7.1386   -4.0473   19.6506 C   0  0  0  0  0  0  0  0  0  0  0  0
    4.3503   -9.6940   18.5308 I   0  0  0  0  0  0  0  0  0  0  0  0
    6.8477   -9.8160   17.4198 S   0  0  0  0  0  0  0  0  0  0  0  0
   10.6441   -3.9803   17.6870 C   0  0  0  0  0  0  0  0  0  0  0  0
    6.3430   -6.7942   16.0819 O   0  0  0  0  0  0  0  0  0  0  0  0
    8.0336  -11.6241   15.0168 C   0  0  0  0  0  0  0  0  0  0  0  0
   11.2415   -3.6909   20.3736 C   0  0  0  0  0  0  0  0  0  0  0  0
   11.2797   -4.5490   19.8431 C   0  0  0  0  0  0  0  0  0  0  0  0
    5.3719   -8.8500   16.5050 C   0  0  0  0  0  0  0  0  0  0  0  0
   10.5662   -4.9765   20.7806 C   0  0  0  0  0  0  0  0  0  0  0  0
   10.7587   -3.9772   18.3238 C   0  0  0  0  0  0  0  0  0  0  0  0
   10.1993   -4.5647   16.6786 C   0  0  0  0  0  0  0  0  0  0  0  0
   12.4998   -4.7537   18.0980 N   0  0  0  0  0  0  0  0  0  0  0  0
    7.7026   -9.3126   15.9151 N   0  0  0  0  0  0  0  0  0  0  0  0
   10.3796   -7.3180   18.5425 He  0  0  0  0  0  0  0  0  0  0  0  0
    8.3366   -9.2063   16.4382 He  0  0  0  0  0  0  0  0  0  0  0  0
    5.8473   -6.4388   15.0936 He  0  0  0  0  0  0  0  0  0  0  0  0
    2.5290   -7.6195   16.0631 He  0  0  0  0  0  0  0  0  0  0  0  0
   12.2758   -3.1089   18.4272 He  0  0  0  0  0  0  0  0  0  0  0  0
   10.1197   -9.5369   19.5448 He  0  0  0  0  0  0  0  0  0  0  0  0
    6.9309   -6.3621   16.3156 He  0  0  0  0  0  0  0  0  0  0  0  0
    5.1797   -9.3348   16.7171 He  0  0  0  0  0  0  0  0  0  0  0  0
    8.4276   -9.7533   15.0973 He  0  0  0  0  0  0  0  0  0  0  0  0
    5.5668   -8.3805   16.7075 He  0  0  0  0  0  0  0  0  0  0  0  0
    7.2254   -8.3600   16.5989 He  0  0  0  0  0  0  0  0  0  0  0  0
  1  3  2  0
  1  4  2  0
  1  9  3  0
  1 11  3  0
  1 12  2  0
  1 14  1  0
  1 15  2  0
  2  5  4  0
  2  8  2  0
  2 11  4  0
  2 12  1  0
  2 14  3  0
  2 15  1  0
  2 16  4  0
  2 17  2  0
  3  6  3  0
  3  8  1  0
  3  9  2  0
  3 11  4  0
  3 12  3  0
  3 13  3  0
  3 17  3  0
  4  5  4  0
  4  6  2  0
  4 10  2  0
  4 15  1  0
  4 17  1  0
  5  7  4  0
  5  9  4  0
  5 10  2  0
  6 13  2  0
  6 14  1  0
  6 18  2  0
  7  9  1  0
  7 10  3  0
  7 13  1  0
  7 14  3  0
  7 15  4  0
  7 18  3  0
  8 10  3  0
  8 11  4  0
  8 13  1  0
  8 17  1  0
  9 10  2  0
  9 12  4  0
  9 13  2  0
  9 15  4  0
  9 18  4  0
 10 14  4  0
 10 15  1  0
 10 16  1  0
 11 13  2  0
 11 14  3  0
 12 13  2  0
 14 18  2  0
 16 18  3  0
M  END
$$$$

 Created by Python create_sdf_string function

 29 27  0  0  0  0  0  0  0  0999 V2000
    3.8023   -8.1953   16.4340 P   0  0  0  0  0  0  0  0  0  0  0  0
    8.9951   -5.4031   19.4368 C   0  0  0  0  0  0  0  0  0  0  0  0
    9.4749   -8.0499   18.3632 C   0  0  0  0  0  0  0  0  0  0  0  0
   10.6151   -3.3803   17.0938 C   0  0  0  0  0  0  0  0  0  0  0  0
    4.8156   -7.4960   16.8161 N   0  0  0  0  0  0  0  0  0  0  0  0
   11.8803   -3.6570   19.8325 C   0  0  0  0  0  0  0  0  0  0  0  0
   10.5428   -3.9804   19.4036 C   0  0  0  0  0  0  0  0  0  0  0  0
    4.8385   -8.2850   15.5636 C   0  0  0  0  0  0  0  0  0  0  0  0
    7.4914   -8.3268   15.9279 F   0  0  0  0  0  0  0  0  0  0  0  0
   10.6506   -4.2572   20.7599 C   0  0  0  0  0  0  0  0  0  0  0  0
    5.5546   -8.3532   15.7849 N   0  0  0  0  0  0  0  0  0  0  0  0
   11.0538   -4.5892   18.3291 C   0  0  0  0  0  0  0  0  0  0  0  0
    9.7954   -3.7940   17.0910 C   0  0  0  0  0  0  0  0  0  0  0  0
   12.5341   -4.5776   17.9789 O   0  0  0  0  0  0  0  0  0  0  0  0
   10.3830   -7.8227   16.7270 He  0  0  0  0  0  0  0  0  0  0  0  0
    9.1295   -4.3712   17.0142 He  0  0  0  0  0  0  0  0  0  0  0  0
    9.3713   -8.6025   16.7838 He  0  0  0  0  0  0  0  0  0  0  0  0
    9.0847   -9.5639   17.4488 He  0  0  0  0  0  0  0  0  0  0  0  0
    5.2079   -5.3435   15.5220 He  0  0  0  0  0  0  0  0  0  0  0  0
    4.5779  -11.0014   18.4836 He  0  0  0  0  0  0  0  0  0  0  0  0
   10.1695   -5.6938   19.3743 He  0  0  0  0  0  0  0  0  0  0  0  0
   10.8778   -3.0518   17.7675 He  0  0  0  0  0  0  0  0  0  0  0  0
    2.6953  -10.1092   20.5939 He  0  0  0  0  0  0  0  0  0  0  0  0
    7.6247   -9.2766   18.5954 He  0  0  0  0  0  0  0  0  0  0  0  0
    7.1958   -6.4823   17.0742 He  0  0  0  0  0  0  0  0  0  0  0  0
    8.5252   -9.2620   14.2296 He  0  0  0  0  0  0  0  0  0  0  0  0
    4.4496   -9.1433   17.7054 He  0  0  0  0  0  0  0  0  0  0  0  0
    7.3148   -9.1463   15.5731 He  0  0  0  0  0  0  0  0  0  0  0  0
    7.9600   -9.4659   15.5010 He  0  0  0  0  0  0  0  0  0  0  0  0
  1  2  1  0
  1  9  2  0
  1 10  4  0
  2  8  1  0
  2  9  2  0
  2 11  3  0
  2 14  3  0
  3  6  2  0
  3  9  1  0
  3 14  3  0
  4  7  4  0
  4 11  2  0
  4 14  3  0
  5  7  1  0
  5 10  4  0
  5 11  3  0
  5 12  3  0
  6 11  1  0
  7  8  4  0
  7 11  2  0
  7 14  1  0
  9 11  4  0
  9 13  2  0
 11 12  3  0
 11 13  2  0
 12 14  3  0
 13 14  3  0
M  END
$$$$

 Created by Python create_sdf_string function

 29 53  0  0  0  0  0  0  0  0999 V2000
    8.5681   -6.7172   19.7848 N   0  0  0  0  0  0  0  0  0  0  0  0
    9.9551   -5.6765   17.5956 N   0  0  0  0  0  0  0  0  0  0  0  0
    5.0253   -6.4919   16.6254 N   0  0  0  0  0  0  0  0  0  0  0  0
    4.9630   -9.4172   16.2041 C   0  0  0  0  0  0  0  0  0  0  0  0
   11.3613   -3.1330   17.1673 S   0  0  0  0  0  0  0  0  0  0  0  0
    3.7372   -9.7023   18.3573 S   0  0  0  0  0  0  0  0  0  0  0  0
    6.9407   -7.9105   17.4110 N   0  0  0  0  0  0  0  0  0  0  0  0
   10.5637   -3.7668   17.5080 O   0  0  0  0  0  0  0  0  0  0  0  0
    7.6790   -5.5025   18.7061 O   0  0  0  0  0  0  0  0  0  0  0  0
    9.0381   -8.3660   14.5051 N   0  0  0  0  0  0  0  0  0  0  0  0
   10.6762   -3.6612   19.1853 C   0  0  0  0  0  0  0  0  0  0  0  0
    4.6070   -9.6296   20.0730 F   0  0  0  0  0  0  0  0  0  0  0  0
    7.0419   -8.6751   16.2299 N   0  0  0  0  0  0  0  0  0  0  0  0
    7.1198   -8.7474   14.8998 C   0  0  0  0  0  0  0  0  0  0  0  0
   11.0693   -3.7746   19.0213 C   0  0  0  0  0  0  0  0  0  0  0  0
    6.6876   -7.5179   15.2428 P   0  0  0  0  0  0  0  0  0  0  0  0
   10.5887   -7.8452   17.0600 He  0  0  0  0  0  0  0  0  0  0  0  0
    8.5618   -9.4091   17.7814 He  0  0  0  0  0  0  0  0  0  0  0  0
    4.7100   -9.6910   17.9638 He  0  0  0  0  0  0  0  0  0  0  0  0
   11.2727   -7.0957   19.2420 He  0  0  0  0  0  0  0  0  0  0  0  0
    8.6097   -6.2547   18.4930 He  0  0  0  0  0  0  0  0  0  0  0  0
   10.5083   -6.3433   17.5534 He  0  0  0  0  0  0  0  0  0  0  0  0
    4.7131   -9.5758   15.2250 He  0  0  0  0  0  0  0  0  0  0  0  0
   11.8427   -3.7825   19.6193 He  0  0  0  0  0  0  0  0  0  0  0  0
    3.6213   -7.8038   16.9066 He  0  0  0  0  0  0  0  0  0  0  0  0
    7.6013   -7.6244   15.7569 He  0  0  0  0  0  0  0  0  0  0  0  0
   11.0208   -3.7124   20.2968 He  0  0  0  0  0  0  0  0  0  0  0  0
   10.3047   -3.7279   16.2796 He  0  0  0  0  0  0  0  0  0  0  0  0
   12.0931   -4.6046   17.6717 He  0  0  0  0  0  0  0  0  0  0  0  0
  1  3  1  0
  1  4  2  0
  1  5  2  0
  1  6  1  0
  1  7  2  0
  1 10  1  0
  1 12  4  0
  1 13  2  0
  1 14  4  0
  1 15  3  0
  1 16  3  0
  2  3  1  0
  2  5  1  0
  2  8  4  0
  2  9  3  0
  2 13  1  0
  2 16  2  0
  3  5  2  0
  3  6  2  0
  3 11  2  0
  3 16  3  0
  4  5  2  0
  4  6  2  0
  4  9  4  0
  4 11  4  0
  4 13  3  0
  4 14  1  0
  4 15  2  0
  4 16  1  0
  5  6  4  0
  5 12  1  0
  5 13  2  0
  5 14  4  0
  5 15  2  0
  5 16  1  0
  6  8  3  0
  6 11  2  0
  6 14  1  0
  6 15  1  0
  7  9  3  0
  7 10  4  0
  7 11  3  0
  8 10  1  0
  9 13  4  0
 10 15  4  0
 10 16  3  0
 11 12  4  0
 11 13  3  0
 11 16  3  0
 13 14  2  0
 13 15  2  0
 14 15  3  0
 14 16  2  0
M  END
$$$$

 Created by Python create_sdf_string function

 29 38  0  0  0  0  0  0  0  0999 V2000
   10.3043   -4.3781   17.6842 S   0  0  0  0  0  0  0  0  0  0  0  0
   10.1124   -7.1476   17.5576 N   0  0  0  0  0  0  0  0  0  0  0  0
    6.3778   -7.7276   17.3120 Cl  0  0  0  0  0  0  0  0  0  0  0  0
   10.5112   -3.4161   17.7674 N   0  0  0  0  0  0  0  0  0  0  0  0
    9.7493   -7.0618   20.4734 C   0  0  0  0  0  0  0  0  0  0  0  0
   10.8525   -7.9122   19.7475 N   0  0  0  0  0  0  0  0  0  0  0  0
    7.8642   -6.9028   18.0471 F   0  0  0  0  0  0  0  0  0  0  0  0
   10.4280   -3.4895   17.5971 C   0  0  0  0  0  0  0  0  0  0  0  0
    9.3744   -6.2884   20.2903 P   0  0  0  0  0  0  0  0  0  0  0  0
   11.8107   -4.0623   20.1073 C   0  0  0  0  0  0  0  0  0  0  0  0
   10.5235   -4.3501   19.9274 O   0  0  0  0  0  0  0  0  0  0  0  0
    7.6412   -8.4000   14.2008 O   0  0  0  0  0  0  0  0  0  0  0  0
    6.7936   -8.1806   16.5387 F   0  0  0  0  0  0  0  0  0  0  0  0
   11.1167   -4.0053   18.9366 C   0  0  0  0  0  0  0  0  0  0  0  0
    9.8778   -3.8541   16.2870 C   0  0  0  0  0  0  0  0  0  0  0  0
    9.5001   -4.5508   19.4058 He  0  0  0  0  0  0  0  0  0  0  0  0
    6.2765   -8.8763   18.3953 He  0  0  0  0  0  0  0  0  0  0  0  0
    5.3326   -8.1895   18.2055 He  0  0  0  0  0  0  0  0  0  0  0  0
   10.3500   -4.2258   19.1025 He  0  0  0  0  0  0  0  0  0  0  0  0
    5.6357   -8.8632   15.2785 He  0  0  0  0  0  0  0  0  0  0  0  0
    4.3190   -9.7601   19.2879 He  0  0  0  0  0  0  0  0  0  0  0  0
    5.7640  -10.0189   15.8364 He  0  0  0  0  0  0  0  0  0  0  0  0
    7.2715   -9.2800   15.0033 He  0  0  0  0  0  0  0  0  0  0  0  0
    5.6050   -8.9525   17.8625 He  0  0  0  0  0  0  0  0  0  0  0  0
    3.4611   -8.3110   15.7260 He  0  0  0  0  0  0  0  0  0  0  0  0
   10.6155   -3.8948   20.5008 He  0  0  0  0  0  0  0  0  0  0  0  0
    7.4745   -9.2419   17.1308 He  0  0  0  0  0  0  0  0  0  0  0  0
   11.1761   -5.4766   18.0551 He  0  0  0  0  0  0  0  0  0  0  0  0
    7.0322   -6.6961   14.2457 He  0  0  0  0  0  0  0  0  0  0  0  0
  1  2  4  0
  1  3  3  0
  1  5  2  0
  1 10  1  0
  1 11  3  0
  1 12  1  0
  2  3  3  0
  2  4  1  0
  2 10  4  0
  2 11  1  0
  2 12  2  0
  2 13  4  0
  3  4  3  0
  3  5  4  0
  3  6  4  0
  3  8  2  0
  3 12  1  0
  3 13  2  0
  3 14  1  0
  4 11  3  0
  4 13  2  0
  4 15  3  0
  5  8  4  0
  5  9  1  0
  5 12  2  0
  5 14  2  0
  6  7  2  0
  6  8  2  0
  6 10  2  0
  7  8  4  0
  7 10  1  0
  7 15  2  0
  9 11  1  0
  9 13  2  0
  9 14  1  0
 11 12  4  0
 12 14  1  0
 13 15  2  0
M  END
$$$$

 Created by Python create_sdf_string function

 29 32  0  0  0  0  0  0  0  0999 V2000
   10.5993   -4.8296   18.5757 C   0  0  0  0  0  0  0  0  0  0  0  0
    9.6649   -5.2292   16.6217 F   0  0  0  0  0  0  0  0  0  0  0  0
    5.8242   -9.3500   17.8937 O   0  0  0  0  0  0  0  0  0  0  0  0
    5.1593   -8.0626   17.6163 Se  0  0  0  0  0  0  0  0  0  0  0  0
   11.6766   -7.8087   18.2894 F   0  0  0  0  0  0  0  0  0  0  0  0
   10.1753   -3.2857   16.6046 C   0  0  0  0  0  0  0  0  0  0  0  0
    7.7572   -6.8992   21.1742 N   0  0  0  0  0  0  0  0  0  0  0  0
   11.2374   -4.5328   20.0203 C   0  0  0  0  0  0  0  0  0  0  0  0
    3.5190   -8.5898   16.9298 C   0  0  0  0  0  0  0  0  0  0  0  0
   11.0426   -4.4252   20.6267 I   0  0  0  0  0  0  0  0  0  0  0  0
    7.5616   -9.5682   17.5446 F   0  0  0  0  0  0  0  0  0  0  0  0
   11.1593   -4.0431   18.9202 O   0  0  0  0  0  0  0  0  0  0  0  0
    9.8609   -3.7587   16.1407 Cl  0  0  0  0  0  0  0  0  0  0  0  0
    9.9738   -3.5165   18.9483 O   0  0  0  0  0  0  0  0  0  0  0  0
    9.5791   -8.4264   17.6809 He  0  0  0  0  0  0  0  0  0  0  0  0
    6.1038   -8.6822   17.6656 He  0  0  0  0  0  0  0  0  0  0  0  0
    5.4023   -7.4428   17.1608 He  0  0  0  0  0  0  0  0  0  0  0  0
   10.0508   -4.9052   18.4268 He  0  0  0  0  0  0  0  0  0  0  0  0
    4.1564   -8.8491   14.4383 He  0  0  0  0  0  0  0  0  0  0  0  0
   10.0590   -3.9166   19.5265 He  0  0  0  0  0  0  0  0  0  0  0  0
    9.0638   -6.7751   20.3670 He  0  0  0  0  0  0  0  0  0  0  0  0
    8.4661   -7.5093   18.3946 He  0  0  0  0  0  0  0  0  0  0  0  0
    7.1515  -10.3857   16.0724 He  0  0  0  0  0  0  0  0  0  0  0  0
    7.7628   -7.4219   14.6174 He  0  0  0  0  0  0  0  0  0  0  0  0
   11.0403   -4.3401   19.9615 He  0  0  0  0  0  0  0  0  0  0  0  0
    3.9703   -9.2553   16.3855 He  0  0  0  0  0  0  0  0  0  0  0  0
    7.2579   -6.5067   13.3993 He  0  0  0  0  0  0  0  0  0  0  0  0
    6.2083   -9.1460   15.8368 He  0  0  0  0  0  0  0  0  0  0  0  0
    5.9882   -5.3682   15.7789 He  0  0  0  0  0  0  0  0  0  0  0  0
  1  3  4  0
  1  4  4  0
  1  8  2  0
  1 14  1  0
  2  7  1  0
  3  4  4  0
  3  5  1  0
  3  6  1  0
  3  9  1  0
  4  5  1  0
  4  6  4  0
  4  8  2  0
  4 10  3  0
  4 12  2  0
  4 13  3  0
  5  6  2  0
  5  7  4  0
  5 12  3  0
  6  9  4  0
  6 12  4  0
  7  8  4  0
  7 10  4  0
  7 13  3  0
  8 12  3  0
  8 14  1  0
  9 10  4  0
  9 11  1  0
  9 12  3  0
 10 11  2  0
 11 12  2  0
 11 14  1  0
 13 14  3  0
M  END
$$$$

 Created by Python create_sdf_string function

 29 49  0  0  0  0  0  0  0  0999 V2000
    9.1573   -6.5218   16.3735 N   0  0  0  0  0  0  0  0  0  0  0  0
    7.5062   -9.4906   19.2459 C   0  0  0  0  0  0  0  0  0  0  0  0
    9.8166   -5.1274   16.8569 O   0  0  0  0  0  0  0  0  0  0  0  0
   10.8235   -4.6679   20.0289 C   0  0  0  0  0  0  0  0  0  0  0  0
    4.7760   -9.7762   15.6835 C   0  0  0  0  0  0  0  0  0  0  0  0
   11.9266   -7.1331   18.9793 S   0  0  0  0  0  0  0  0  0  0  0  0
   10.4414   -3.4627   16.9590 C   0  0  0  0  0  0  0  0  0  0  0  0
    7.5021   -9.5826   16.4828 F   0  0  0  0  0  0  0  0  0  0  0  0
    7.1904   -7.5909   14.5462 O   0  0  0  0  0  0  0  0  0  0  0  0
   11.6676   -4.3406   20.2801 C   0  0  0  0  0  0  0  0  0  0  0  0
   11.0579   -4.5547   19.9161 C   0  0  0  0  0  0  0  0  0  0  0  0
    5.1396   -9.3343   14.5904 C   0  0  0  0  0  0  0  0  0  0  0  0
    6.9635   -7.2108   14.1095 S   0  0  0  0  0  0  0  0  0  0  0  0
   11.3488   -4.5218   21.6233 Cl  0  0  0  0  0  0  0  0  0  0  0  0
    9.5652   -4.0715   15.4679 Cl  0  0  0  0  0  0  0  0  0  0  0  0
    9.7097   -4.1229   18.1180 P   0  0  0  0  0  0  0  0  0  0  0  0
    6.5109   -5.5082   14.5619 O   0  0  0  0  0  0  0  0  0  0  0  0
   11.1950   -4.0431   18.9859 He  0  0  0  0  0  0  0  0  0  0  0  0
    7.6089   -7.7307   17.7558 He  0  0  0  0  0  0  0  0  0  0  0  0
    6.2851   -8.6578   16.8550 He  0  0  0  0  0  0  0  0  0  0  0  0
    5.9946   -7.4594   17.1182 He  0  0  0  0  0  0  0  0  0  0  0  0
    4.3355   -9.3829   15.8580 He  0  0  0  0  0  0  0  0  0  0  0  0
    9.9519   -6.4466   21.0197 He  0  0  0  0  0  0  0  0  0  0  0  0
    8.7183   -6.7237   18.0521 He  0  0  0  0  0  0  0  0  0  0  0  0
    8.5922   -6.0702   19.7147 He  0  0  0  0  0  0  0  0  0  0  0  0
    3.4964   -9.0035   16.5838 He  0  0  0  0  0  0  0  0  0  0  0  0
    6.6659  -10.8032   18.0505 He  0  0  0  0  0  0  0  0  0  0  0  0
    6.9234   -9.6664   16.1200 He  0  0  0  0  0  0  0  0  0  0  0  0
   11.6182   -3.2778   18.4387 He  0  0  0  0  0  0  0  0  0  0  0  0
  1  6  2  0
  1 11  2  0
  1 13  1  0
  1 14  1  0
  2  5  3  0
  2  8  1  0
  2 10  2  0
  2 14  4  0
  3  5  2  0
  3  7  4  0
  3  8  3  0
  3 11  4  0
  3 12  1  0
  3 14  2  0
  3 16  3  0
  4  8  3  0
  4 10  4  0
  4 11  4  0
  4 12  3  0
  4 15  3  0
  4 16  1  0
  5  6  1  0
  5  9  3  0
  5 10  1  0
  5 13  3  0
  5 15  3  0
  6  9  3  0
  6 12  4  0
  6 13  2  0
  6 16  3  0
  6 17  2  0
  7 11  4  0
  7 13  3  0
  7 15  4  0
  8 12  1  0
  8 14  3  0
  9 12  4  0
  9 13  1  0
  9 14  3  0
 10 13  4  0
 11 12  1  0
 11 16  4  0
 11 17  2  0
 12 13  1  0
 12 16  1  0
 13 14  1  0
 14 16  4  0
 15 17  1  0
 16 17  3  0
M  END
$$$$

 Created by Python create_sdf_string function

 29 63  0  0  0  0  0  0  0  0999 V2000
   10.8027   -4.0583   17.6906 F   0  0  0  0  0  0  0  0  0  0  0  0
    8.1417   -5.8245   17.0789 S   0  0  0  0  0  0  0  0  0  0  0  0
    7.1140   -7.1885   18.4834 N   0  0  0  0  0  0  0  0  0  0  0  0
    7.2474   -9.5545   16.9102 O   0  0  0  0  0  0  0  0  0  0  0  0
    6.2872   -8.8755   18.3142 Cl  0  0  0  0  0  0  0  0  0  0  0  0
    8.5078   -4.2242   16.3488 C   0  0  0  0  0  0  0  0  0  0  0  0
   11.0782   -6.5515   18.9307 P   0  0  0  0  0  0  0  0  0  0  0  0
    4.3797   -7.2486   16.3651 C   0  0  0  0  0  0  0  0  0  0  0  0
   10.5105   -3.1784   15.9812 O   0  0  0  0  0  0  0  0  0  0  0  0
    8.3686   -5.2603   19.2212 C   0  0  0  0  0  0  0  0  0  0  0  0
    7.6039   -8.3643   16.6066 F   0  0  0  0  0  0  0  0  0  0  0  0
    6.9030   -6.8319   15.5062 N   0  0  0  0  0  0  0  0  0  0  0  0
   11.9392   -4.4279   20.0288 C   0  0  0  0  0  0  0  0  0  0  0  0
   10.9933   -4.5120   19.6344 C   0  0  0  0  0  0  0  0  0  0  0  0
    3.3741   -8.2389   16.0306 N   0  0  0  0  0  0  0  0  0  0  0  0
   11.4210   -3.9498   21.7609 O   0  0  0  0  0  0  0  0  0  0  0  0
   10.9633   -2.8984   17.8750 C   0  0  0  0  0  0  0  0  0  0  0  0
    9.8215   -4.1305   15.6710 C   0  0  0  0  0  0  0  0  0  0  0  0
    6.5220   -8.8501   18.5082 He  0  0  0  0  0  0  0  0  0  0  0  0
    2.1370   -8.4606   16.6356 He  0  0  0  0  0  0  0  0  0  0  0  0
   11.0954   -1.4920   20.2687 He  0  0  0  0  0  0  0  0  0  0  0  0
   10.7239   -6.2346   19.6434 He  0  0  0  0  0  0  0  0  0  0  0  0
   10.2799   -6.8177   17.6679 He  0  0  0  0  0  0  0  0  0  0  0  0
    5.0511   -9.0097   16.4327 He  0  0  0  0  0  0  0  0  0  0  0  0
    7.4149   -4.9928   14.0821 He  0  0  0  0  0  0  0  0  0  0  0  0
    5.0625  -10.5974   15.8556 He  0  0  0  0  0  0  0  0  0  0  0  0
    6.4872   -9.5838   15.2688 He  0  0  0  0  0  0  0  0  0  0  0  0
    9.7155   -2.9531   16.2873 He  0  0  0  0  0  0  0  0  0  0  0  0
    5.6866   -5.0905   16.5962 He  0  0  0  0  0  0  0  0  0  0  0  0
  1  2  4  0
  1  4  3  0
  1  7  1  0
  1  8  3  0
  1 10  3  0
  1 15  1  0
  1 16  4  0
  2  3  1  0
  2  4  4  0
  2  5  1  0
  2  6  3  0
  2  9  3  0
  2 12  4  0
  2 13  2  0
  2 15  1  0
  2 17  4  0
  2 18  4  0
  3  8  4  0
  3  9  3  0
  3 11  2  0
  3 12  2  0
  3 14  2  0
  3 15  3  0
  3 16  1  0
  3 17  3  0
  4  8  3  0
  4  9  1  0
  4 11  4  0
  4 13  3  0
  4 16  2  0
  5  8  2  0
  5 10  2  0
  5 14  2  0
  5 18  2  0
  6 10  4  0
  6 11  3  0
  6 15  1  0
  6 18  4  0
  7  8  1  0
  7 11  2  0
  7 13  3  0
  7 17  3  0
  7 18  2  0
  8  9  4  0
  8 16  3  0
  9 10  2  0
  9 11  4  0
  9 12  1  0
  9 15  3  0
  9 16  3  0
  9 18  4  0
 10 17  1  0
 11 13  2  0
 11 14  1  0
 11 18  3  0
 12 14  4  0
 12 15  1  0
 12 17  3  0
 12 18  4  0
 13 15  1  0
 13 18  4  0
 15 16  3  0
 15 18  1  0
M  END
$$$$

 Created by Python create_sdf_string function

 29 42  0  0  0  0  0  0  0  0999 V2000
    5.9876   -9.2662   18.9030 O   0  0  0  0  0  0  0  0  0  0  0  0
    5.5088   -7.3862   16.9724 C   0  0  0  0  0  0  0  0  0  0  0  0
   10.9477   -4.5156   20.5686 Se  0  0  0  0  0  0  0  0  0  0  0  0
    5.4553   -7.5768   16.4792 O   0  0  0  0  0  0  0  0  0  0  0  0
   10.0227   -3.6643   19.9242 O   0  0  0  0  0  0  0  0  0  0  0  0
   10.4750   -3.0756   16.7358 C   0  0  0  0  0  0  0  0  0  0  0  0
    9.5204   -3.9821   17.9198 C   0  0  0  0  0  0  0  0  0  0  0  0
    7.0255   -5.7393   16.6895 Cl  0  0  0  0  0  0  0  0  0  0  0  0
   10.7292   -4.2745   20.1214 C   0  0  0  0  0  0  0  0  0  0  0  0
   10.9929   -4.3660   20.6242 N   0  0  0  0  0  0  0  0  0  0  0  0
    3.2298  -10.0540   15.8617 S   0  0  0  0  0  0  0  0  0  0  0  0
    4.4864   -8.4596   16.1141 O   0  0  0  0  0  0  0  0  0  0  0  0
   10.8137   -4.3568   21.1883 O   0  0  0  0  0  0  0  0  0  0  0  0
    6.5733   -9.5945   15.2230 I   0  0  0  0  0  0  0  0  0  0  0  0
   10.7149   -3.6655   18.1575 Cl  0  0  0  0  0  0  0  0  0  0  0  0
    9.8613   -4.8675   15.9833 C   0  0  0  0  0  0  0  0  0  0  0  0
    6.3860   -6.1125   16.7445 Se  0  0  0  0  0  0  0  0  0  0  0  0
    8.8491   -3.3344   17.5307 He  0  0  0  0  0  0  0  0  0  0  0  0
    8.4685   -5.1337   16.4972 He  0  0  0  0  0  0  0  0  0  0  0  0
    9.3397   -9.2172   17.3165 He  0  0  0  0  0  0  0  0  0  0  0  0
    7.4916   -7.7432   17.6298 He  0  0  0  0  0  0  0  0  0  0  0  0
    9.3920   -5.1616   15.4877 He  0  0  0  0  0  0  0  0  0  0  0  0
    3.0086   -8.5121   16.6215 He  0  0  0  0  0  0  0  0  0  0  0  0
    9.9749   -4.9463   18.9855 He  0  0  0  0  0  0  0  0  0  0  0  0
   10.3672   -7.9552   17.5043 He  0  0  0  0  0  0  0  0  0  0  0  0
    6.1316   -8.3359   16.3080 He  0  0  0  0  0  0  0  0  0  0  0  0
    6.3652   -6.4285   14.4500 He  0  0  0  0  0  0  0  0  0  0  0  0
    4.4921   -8.8284   17.2776 He  0  0  0  0  0  0  0  0  0  0  0  0
   10.6528   -3.7280   15.8371 He  0  0  0  0  0  0  0  0  0  0  0  0
  1  2  2  0
  1  7  4  0
  2  6  3  0
  2  7  3  0
  2 12  1  0
  2 16  4  0
  2 17  3  0
  3  4  4  0
  3  6  1  0
  3  8  3  0
  3  9  3  0
  3 11  2  0
  3 12  2  0
  3 15  2  0
  3 16  2  0
  3 17  4  0
  4  8  2  0
  4 14  3  0
  5  6  3  0
  5  9  3  0
  5 12  3  0
  5 14  4  0
  5 15  4  0
  5 17  4  0
  6  9  3  0
  6 11  3  0
  7  9  3  0
  7 10  4  0
  8 12  1  0
  8 13  2  0
  9 14  4  0
  9 17  4  0
 10 17  3  0
 11 15  4  0
 12 14  3  0
 12 16  3  0
 12 17  2  0
 13 14  1  0
 13 17  1  0
 14 16  3  0
 14 17  2  0
 15 16  4  0
M  END
$$$$

 Created by Python create_sdf_string function

 29 57  0  0  0  0  0  0  0  0999 V2000
    9.3272   -9.0966   16.9495 N   0  0  0  0  0  0  0  0  0  0  0  0
    8.6293   -7.3846   16.5085 O   0  0  0  0  0  0  0  0  0  0  0  0
    5.5769   -9.2923   16.3397 C   0  0  0  0  0  0  0  0  0  0  0  0
    2.2036   -9.9187   16.2513 C   0  0  0  0  0  0  0  0  0  0  0  0
   11.0388   -4.9110   22.6521 B   0  0  0  0  0  0  0  0  0  0  0  0
   10.0621   -5.9544   20.1209 F   0  0  0  0  0  0  0  0  0  0  0  0
    8.1995   -7.6702   17.9198 F   0  0  0  0  0  0  0  0  0  0  0  0
    6.9346   -7.2510   15.1344 N   0  0  0  0  0  0  0  0  0  0  0  0
    9.9750   -5.4059   17.1947 I   0  0  0  0  0  0  0  0  0  0  0  0
   10.8499   -4.2054   20.0130 C   0  0  0  0  0  0  0  0  0  0  0  0
   10.5980   -4.4414   20.6253 C   0  0  0  0  0  0  0  0  0  0  0  0
    4.9335   -7.2729   18.4801 N   0  0  0  0  0  0  0  0  0  0  0  0
    7.8318   -5.9856   15.3731 O   0  0  0  0  0  0  0  0  0  0  0  0
    3.7224   -8.3432   17.9123 C   0  0  0  0  0  0  0  0  0  0  0  0
   11.1641   -3.3631   18.4001 C   0  0  0  0  0  0  0  0  0  0  0  0
   11.1989   -4.8257   14.7756 P   0  0  0  0  0  0  0  0  0  0  0  0
    7.6683   -6.6887   16.8958 O   0  0  0  0  0  0  0  0  0  0  0  0
    8.8948   -4.2915   17.8013 He  0  0  0  0  0  0  0  0  0  0  0  0
    8.9056   -3.3797   17.0316 He  0  0  0  0  0  0  0  0  0  0  0  0
    4.3856   -8.9540   17.7860 He  0  0  0  0  0  0  0  0  0  0  0  0
   10.9622   -3.9402   16.1969 He  0  0  0  0  0  0  0  0  0  0  0  0
    5.9891   -6.9079   17.0982 He  0  0  0  0  0  0  0  0  0  0  0  0
    9.5381   -2.7190   19.8177 He  0  0  0  0  0  0  0  0  0  0  0  0
   10.9461   -3.5010   16.4631 He  0  0  0  0  0  0  0  0  0  0  0  0
    9.2797   -3.9866   18.6594 He  0  0  0  0  0  0  0  0  0  0  0  0
    4.0838   -7.6886   16.4495 He  0  0  0  0  0  0  0  0  0  0  0  0
   10.5839   -4.9476   22.3387 He  0  0  0  0  0  0  0  0  0  0  0  0
    5.8276   -9.4406   16.2413 He  0  0  0  0  0  0  0  0  0  0  0  0
    9.9846   -4.3954   16.7517 He  0  0  0  0  0  0  0  0  0  0  0  0
  1  2  1  0
  1  9  4  0
  1 10  4  0
  1 12  3  0
  1 13  2  0
  1 16  2  0
  1 17  2  0
  2  6  2  0
  2  7  1  0
  2  9  3  0
  2 10  4  0
  2 11  2  0
  2 12  1  0
  2 14  1  0
  2 15  2  0
  2 16  2  0
  2 17  3  0
  3  7  3  0
  3  8  2  0
  3 11  3  0
  3 12  1  0
  3 17  2  0
  4  5  4  0
  4 10  4  0
  4 11  4  0
  4 13  2  0
  4 14  3  0
  5  8  3  0
  5 14  3  0
  5 15  4  0
  5 16  3  0
  5 17  2  0
  6  7  4  0
  6  9  1  0
  6 10  4  0
  6 11  4  0
  6 13  2  0
  6 16  2  0
  6 17  3  0
  7  8  1  0
  7 10  3  0
  7 12  1  0
  7 17  4  0
  8 13  4  0
  8 15  2  0
  9 10  1  0
  9 13  4  0
  9 16  3  0
 10 12  3  0
 10 13  2  0
 10 16  2  0
 10 17  2  0
 11 16  2  0
 12 13  4  0
 12 16  1  0
 13 15  4  0
 16 17  4  0
M  END
$$$$

 Created by Python create_sdf_string function

 29 43  0  0  0  0  0  0  0  0999 V2000
    4.9634   -8.6492   19.0428 O   0  0  0  0  0  0  0  0  0  0  0  0
    6.9425   -9.2893   15.5802 B   0  0  0  0  0  0  0  0  0  0  0  0
    3.4707   -9.5945   16.3152 Cl  0  0  0  0  0  0  0  0  0  0  0  0
   10.8739   -4.7707   22.0938 Br  0  0  0  0  0  0  0  0  0  0  0  0
   10.9187   -5.1702   19.1268 N   0  0  0  0  0  0  0  0  0  0  0  0
   10.8962   -3.1241   16.2231 C   0  0  0  0  0  0  0  0  0  0  0  0
    9.7958   -4.6586   18.6294 C   0  0  0  0  0  0  0  0  0  0  0  0
    8.1627   -8.4082   15.5737 C   0  0  0  0  0  0  0  0  0  0  0  0
    8.0916   -5.0231   16.7535 O   0  0  0  0  0  0  0  0  0  0  0  0
   10.6879   -4.7769   20.1079 C   0  0  0  0  0  0  0  0  0  0  0  0
   10.8993   -4.3930   20.3124 C   0  0  0  0  0  0  0  0  0  0  0  0
    5.5441   -7.5375   15.1850 O   0  0  0  0  0  0  0  0  0  0  0  0
    3.8404   -8.2483   17.2692 Cl  0  0  0  0  0  0  0  0  0  0  0  0
   11.0263   -3.0847   18.6410 C   0  0  0  0  0  0  0  0  0  0  0  0
    9.7327   -5.3592   16.3815 C   0  0  0  0  0  0  0  0  0  0  0  0
    7.2588   -5.5991   17.3166 S   0  0  0  0  0  0  0  0  0  0  0  0
    9.4561   -4.1607   17.0481 He  0  0  0  0  0  0  0  0  0  0  0  0
    8.6762   -4.8335   14.7171 He  0  0  0  0  0  0  0  0  0  0  0  0
    8.7279   -9.0116   16.5776 He  0  0  0  0  0  0  0  0  0  0  0  0
    8.6637   -7.4930   15.6738 He  0  0  0  0  0  0  0  0  0  0  0  0
   11.2286   -2.3228   15.6334 He  0  0  0  0  0  0  0  0  0  0  0  0
    5.9252   -7.0713   18.1586 He  0  0  0  0  0  0  0  0  0  0  0  0
    9.8653   -2.7518   20.0803 He  0  0  0  0  0  0  0  0  0  0  0  0
    7.4575   -8.8448   18.6069 He  0  0  0  0  0  0  0  0  0  0  0  0
    3.6149   -7.8713   17.8092 He  0  0  0  0  0  0  0  0  0  0  0  0
    8.0227   -5.3583   16.0448 He  0  0  0  0  0  0  0  0  0  0  0  0
   10.3859   -4.8312   22.2610 He  0  0  0  0  0  0  0  0  0  0  0  0
    4.7238   -7.8070   17.7097 He  0  0  0  0  0  0  0  0  0  0  0  0
   10.8247   -2.5678   14.8697 He  0  0  0  0  0  0  0  0  0  0  0  0
  1  4  2  0
  1  5  2  0
  1  7  1  0
  1  8  1  0
  1  9  3  0
  1 10  2  0
  2  5  3  0
  2  6  2  0
  2 10  3  0
  2 16  2  0
  3  4  2  0
  3  5  2  0
  3  7  3  0
  4 10  4  0
  4 16  4  0
  5  8  1  0
  5  9  3  0
  5 12  1  0
  5 14  1  0
  5 15  2  0
  7  8  4  0
  7 10  3  0
  7 12  4  0
  7 16  2  0
  8 12  3  0
  8 13  3  0
  8 14  2  0
  9 11  3  0
  9 12  2  0
  9 13  2  0
  9 14  2  0
  9 16  1  0
 10 15  1  0
 10 16  1  0
 11 12  3  0
 11 13  4  0
 11 16  1  0
 12 14  4  0
 12 15  1  0
 12 16  2  0
 13 14  1  0
 14 15  3  0
 15 16  3  0
M  END
$$$$

 Created by Python create_sdf_string function

 29 39  0  0  0  0  0  0  0  0999 V2000
   10.6119   -5.0791   16.4112 C   0  0  0  0  0  0  0  0  0  0  0  0
    7.1614   -4.9971   16.2955 N   0  0  0  0  0  0  0  0  0  0  0  0
    9.2071   -9.1876   15.9485 N   0  0  0  0  0  0  0  0  0  0  0  0
    4.9522   -8.8805   17.4088 C   0  0  0  0  0  0  0  0  0  0  0  0
    7.4663   -9.5013   16.4110 C   0  0  0  0  0  0  0  0  0  0  0  0
    3.2552   -9.5115   16.9624 F   0  0  0  0  0  0  0  0  0  0  0  0
    9.2750   -4.3892   21.1374 P   0  0  0  0  0  0  0  0  0  0  0  0
    9.8618   -3.9929   20.3971 N   0  0  0  0  0  0  0  0  0  0  0  0
    9.1801   -7.5423   18.7511 B   0  0  0  0  0  0  0  0  0  0  0  0
   11.2702   -3.3354   16.2327 C   0  0  0  0  0  0  0  0  0  0  0  0
    9.8156   -5.0475   19.1416 S   0  0  0  0  0  0  0  0  0  0  0  0
    7.3080   -8.5702   15.6999 Cl  0  0  0  0  0  0  0  0  0  0  0  0
   10.7502   -4.7047   20.0527 C   0  0  0  0  0  0  0  0  0  0  0  0
   11.2735   -4.5524   20.9282 C   0  0  0  0  0  0  0  0  0  0  0  0
    6.3319   -6.3526   14.8419 Cl  0  0  0  0  0  0  0  0  0  0  0  0
    7.6182   -5.6423   17.1130 Br  0  0  0  0  0  0  0  0  0  0  0  0
   11.2740   -4.2558   22.4348 C   0  0  0  0  0  0  0  0  0  0  0  0
    9.4052   -5.0988   16.0705 C   0  0  0  0  0  0  0  0  0  0  0  0
    8.9864   -7.6516   17.6027 He  0  0  0  0  0  0  0  0  0  0  0  0
   11.9160   -3.1570   15.5913 He  0  0  0  0  0  0  0  0  0  0  0  0
    5.7292   -7.3540   18.4611 He  0  0  0  0  0  0  0  0  0  0  0  0
   12.0246   -3.4181   21.2887 He  0  0  0  0  0  0  0  0  0  0  0  0
    7.6725   -5.4674   17.5421 He  0  0  0  0  0  0  0  0  0  0  0  0
    4.2366   -7.7185   16.9978 He  0  0  0  0  0  0  0  0  0  0  0  0
    4.7680   -7.6360   16.4767 He  0  0  0  0  0  0  0  0  0  0  0  0
    5.2956   -8.1036   15.0249 He  0  0  0  0  0  0  0  0  0  0  0  0
   11.2783   -3.7568   18.4001 He  0  0  0  0  0  0  0  0  0  0  0  0
   12.5962   -3.9458   14.4725 He  0  0  0  0  0  0  0  0  0  0  0  0
    8.6576   -8.2759   17.9578 He  0  0  0  0  0  0  0  0  0  0  0  0
  1  2  2  0
  1  9  1  0
  1 10  4  0
  1 18  3  0
  2  7  3  0
  2 12  3  0
  2 13  2  0
  2 15  4  0
  2 16  3  0
  2 17  1  0
  3  5  2  0
  3  9  1  0
  3 14  1  0
  3 17  2  0
  3 18  3  0
  4 11  1  0
  5  9  3  0
  5 10  1  0
  5 11  1  0
  5 17  4  0
  5 18  3  0
  6  7  2  0
  6  8  4  0
  7  9  3  0
  7 11  1  0
  7 18  4  0
  8 10  2  0
  8 15  4  0
  9 10  3  0
  9 13  1  0
  9 14  3  0
  9 16  2  0
  9 18  2  0
 10 11  3  0
 11 15  4  0
 12 16  2  0
 13 15  2  0
 13 16  1  0
 16 17  4  0
M  END
$$$$

 Created by Python create_sdf_string function

 29 36  0  0  0  0  0  0  0  0999 V2000
    7.0304   -5.1064   15.7701 S   0  0  0  0  0  0  0  0  0  0  0  0
    8.5129   -9.4483   17.2693 N   0  0  0  0  0  0  0  0  0  0  0  0
    4.8099   -8.6756   17.9740 C   0  0  0  0  0  0  0  0  0  0  0  0
    8.1967   -9.4355   15.9216 C   0  0  0  0  0  0  0  0  0  0  0  0
    4.9298   -7.4443   17.4307 S   0  0  0  0  0  0  0  0  0  0  0  0
    7.6749   -7.6944   18.8332 Cl  0  0  0  0  0  0  0  0  0  0  0  0
   11.3219   -3.7124   16.5381 C   0  0  0  0  0  0  0  0  0  0  0  0
    7.5666   -8.3311   16.4049 O   0  0  0  0  0  0  0  0  0  0  0  0
   10.7222   -3.9100   19.8306 C   0  0  0  0  0  0  0  0  0  0  0  0
   11.6338   -4.0485   20.8571 C   0  0  0  0  0  0  0  0  0  0  0  0
    5.6676   -5.0009   15.3723 P   0  0  0  0  0  0  0  0  0  0  0  0
   11.0496   -4.0055   22.2290 C   0  0  0  0  0  0  0  0  0  0  0  0
    6.0629   -7.5204   16.3717 S   0  0  0  0  0  0  0  0  0  0  0  0
    9.3824   -4.2312   15.6208 C   0  0  0  0  0  0  0  0  0  0  0  0
   11.4992   -1.8251   15.5769 N   0  0  0  0  0  0  0  0  0  0  0  0
    9.0416   -4.2683   17.7578 He  0  0  0  0  0  0  0  0  0  0  0  0
    9.2398   -9.0907   15.2813 He  0  0  0  0  0  0  0  0  0  0  0  0
   11.6033   -3.9423   16.0854 He  0  0  0  0  0  0  0  0  0  0  0  0
   11.6337   -4.6217   20.4713 He  0  0  0  0  0  0  0  0  0  0  0  0
    9.9218   -5.5285   19.8947 He  0  0  0  0  0  0  0  0  0  0  0  0
    5.6064   -8.7495   18.0242 He  0  0  0  0  0  0  0  0  0  0  0  0
   11.6333   -4.2858   22.0290 He  0  0  0  0  0  0  0  0  0  0  0  0
   10.8658   -4.2448   18.0319 He  0  0  0  0  0  0  0  0  0  0  0  0
    7.5128   -6.1480   16.3960 He  0  0  0  0  0  0  0  0  0  0  0  0
    4.5147   -6.9967   16.6511 He  0  0  0  0  0  0  0  0  0  0  0  0
    9.1224   -6.4199   17.1209 He  0  0  0  0  0  0  0  0  0  0  0  0
    3.7698   -8.6900   17.4481 He  0  0  0  0  0  0  0  0  0  0  0  0
   11.2587   -4.0536   18.3465 He  0  0  0  0  0  0  0  0  0  0  0  0
    8.3030   -9.0451   16.8331 He  0  0  0  0  0  0  0  0  0  0  0  0
  1  7  3  0
  1  9  4  0
  1 12  2  0
  1 13  4  0
  2  3  3  0
  2  4  2  0
  2  5  4  0
  2  6  4  0
  2 10  2  0
  2 12  2  0
  2 13  1  0
  2 15  3  0
  3  6  1  0
  3  8  3  0
  3 14  2  0
  4 10  4  0
  4 12  3  0
  4 13  3  0
  4 15  2  0
  5 12  4  0
  6  7  3  0
  6  8  2  0
  6 10  3  0
  6 13  2  0
  6 14  4  0
  6 15  1  0
  7 11  3  0
  7 15  3  0
  8 11  1  0
  8 12  1  0
  8 15  1  0
  9 10  4  0
 10 11  3  0
 10 12  1  0
 13 14  1  0
 14 15  3  0
M  END
$$$$

 Created by Python create_sdf_string function

 29 86  0  0  0  0  0  0  0  0999 V2000
    9.7992   -4.1516   17.6265 C   0  0  0  0  0  0  0  0  0  0  0  0
    6.7358   -4.9358   15.9415 N   0  0  0  0  0  0  0  0  0  0  0  0
    8.9991   -7.8243   16.3604 N   0  0  0  0  0  0  0  0  0  0  0  0
    6.8584   -8.6143   15.6690 C   0  0  0  0  0  0  0  0  0  0  0  0
   12.1171   -3.2769   15.6522 B   0  0  0  0  0  0  0  0  0  0  0  0
    4.6902   -8.2252   18.0036 C   0  0  0  0  0  0  0  0  0  0  0  0
   10.2643   -3.7297   20.8494 O   0  0  0  0  0  0  0  0  0  0  0  0
    9.1935   -3.6428   20.0623 C   0  0  0  0  0  0  0  0  0  0  0  0
    8.4836   -9.4226   17.9009 C   0  0  0  0  0  0  0  0  0  0  0  0
   11.5313   -3.7447   16.2392 C   0  0  0  0  0  0  0  0  0  0  0  0
   11.4794   -4.6114   19.4637 C   0  0  0  0  0  0  0  0  0  0  0  0
    7.8351   -7.0785   15.4723 Cl  0  0  0  0  0  0  0  0  0  0  0  0
    6.3467   -6.2298   15.6685 P   0  0  0  0  0  0  0  0  0  0  0  0
   10.9651   -4.7275   19.9884 C   0  0  0  0  0  0  0  0  0  0  0  0
   11.0190   -4.3048   20.7938 Cl  0  0  0  0  0  0  0  0  0  0  0  0
    4.3701   -8.2206   17.0127 F   0  0  0  0  0  0  0  0  0  0  0  0
    9.1277   -6.5378   18.4594 O   0  0  0  0  0  0  0  0  0  0  0  0
   10.6234   -3.9160   22.3764 C   0  0  0  0  0  0  0  0  0  0  0  0
    3.5633   -7.7755   15.0438 C   0  0  0  0  0  0  0  0  0  0  0  0
   11.6665   -4.1061   18.5271 C   0  0  0  0  0  0  0  0  0  0  0  0
   11.8512   -3.3379   14.3298 F   0  0  0  0  0  0  0  0  0  0  0  0
    7.8248   -7.5713   17.7402 O   0  0  0  0  0  0  0  0  0  0  0  0
    7.8685   -6.7671   17.3844 He  0  0  0  0  0  0  0  0  0  0  0  0
    4.9758   -7.5240   17.5461 He  0  0  0  0  0  0  0  0  0  0  0  0
    4.3200   -9.6044   17.4791 He  0  0  0  0  0  0  0  0  0  0  0  0
   12.4017   -3.8054   23.3064 He  0  0  0  0  0  0  0  0  0  0  0  0
    6.0502   -6.0544   14.1459 He  0  0  0  0  0  0  0  0  0  0  0  0
    6.0730   -7.2468   15.9057 He  0  0  0  0  0  0  0  0  0  0  0  0
    9.3576   -4.4065   16.2237 He  0  0  0  0  0  0  0  0  0  0  0  0
  1  7  3  0
  1 11  4  0
  1 12  4  0
  1 13  1  0
  1 15  2  0
  1 16  4  0
  1 18  1  0
  1 20  4  0
  2  9  3  0
  2 10  2  0
  2 20  3  0
  2 21  1  0
  2 22  3  0
  3  5  4  0
  3  9  4  0
  3 10  4  0
  3 12  3  0
  3 14  4  0
  3 17  1  0
  3 18  4  0
  3 20  1  0
  3 22  3  0
  4  9  4  0
  4 11  4  0
  4 12  1  0
  4 18  3  0
  5  6  2  0
  5  7  4  0
  5  8  1  0
  5  9  2  0
  5 13  1  0
  5 15  2  0
  5 21  1  0
  6  7  2  0
  6 10  3  0
  6 11  4  0
  6 13  1  0
  6 14  1  0
  6 19  3  0
  6 21  3  0
  6 22  1  0
  7  8  2  0
  7  9  1  0
  7 10  2  0
  7 11  2  0
  7 12  4  0
  7 18  3  0
  7 22  1  0
  8  9  1  0
  8 12  2  0
  8 13  3  0
  8 14  1  0
  8 15  2  0
  9 10  2  0
  9 11  2  0
  9 13  3  0
  9 14  4  0
  9 15  4  0
  9 16  4  0
  9 21  2  0
  9 22  1  0
 10 12  4  0
 10 17  3  0
 10 22  1  0
 11 15  4  0
 11 17  3  0
 11 20  1  0
 11 21  1  0
 11 22  4  0
 12 14  2  0
 12 15  2  0
 12 20  2  0
 13 14  2  0
 13 15  1  0
 13 16  1  0
 13 21  1  0
 14 18  2  0
 14 22  3  0
 15 18  4  0
 15 19  2  0
 15 22  1  0
 16 19  3  0
 17 21  4  0
 19 20  3  0
 19 22  2  0
 20 22  2  0
M  END
$$$$

 Created by Python create_sdf_string function

 29 32  0  0  0  0  0  0  0  0999 V2000
    7.5622   -9.0298   18.3962 Cl  0  0  0  0  0  0  0  0  0  0  0  0
    7.5812   -9.2990   14.4756 F   0  0  0  0  0  0  0  0  0  0  0  0
   10.3464   -2.0987   21.1129 S   0  0  0  0  0  0  0  0  0  0  0  0
   10.3541   -4.8828   24.1819 O   0  0  0  0  0  0  0  0  0  0  0  0
   12.7088   -5.5365   19.0906 N   0  0  0  0  0  0  0  0  0  0  0  0
    7.0162   -7.5679   16.0637 O   0  0  0  0  0  0  0  0  0  0  0  0
   10.5991   -4.4218   19.9198 C   0  0  0  0  0  0  0  0  0  0  0  0
   11.6090   -4.4462   21.5359 Cl  0  0  0  0  0  0  0  0  0  0  0  0
    5.6657   -8.1546   13.4578 P   0  0  0  0  0  0  0  0  0  0  0  0
    4.1656   -7.4302   17.2643 P   0  0  0  0  0  0  0  0  0  0  0  0
    9.8724   -7.0909   20.1738 Br  0  0  0  0  0  0  0  0  0  0  0  0
   11.4355   -3.7145   22.6703 C   0  0  0  0  0  0  0  0  0  0  0  0
    3.8886   -9.5864   15.1325 C   0  0  0  0  0  0  0  0  0  0  0  0
    5.4388   -7.6574   17.1949 C   0  0  0  0  0  0  0  0  0  0  0  0
   11.1425   -4.0926   17.9756 O   0  0  0  0  0  0  0  0  0  0  0  0
   10.7271   -5.1344   17.5132 He  0  0  0  0  0  0  0  0  0  0  0  0
    9.1966   -5.2280   15.6817 He  0  0  0  0  0  0  0  0  0  0  0  0
    8.4586   -6.0888   16.5183 He  0  0  0  0  0  0  0  0  0  0  0  0
    6.2839   -6.4453   17.3474 He  0  0  0  0  0  0  0  0  0  0  0  0
   10.7820   -4.1417   16.5621 He  0  0  0  0  0  0  0  0  0  0  0  0
    7.7945   -8.1463   17.6434 He  0  0  0  0  0  0  0  0  0  0  0  0
   12.1931   -6.1509   18.8677 He  0  0  0  0  0  0  0  0  0  0  0  0
    4.8559  -10.4781   19.6811 He  0  0  0  0  0  0  0  0  0  0  0  0
    9.1971   -8.2186   17.6765 He  0  0  0  0  0  0  0  0  0  0  0  0
   11.7525   -3.8990   16.5910 He  0  0  0  0  0  0  0  0  0  0  0  0
    8.5742   -6.3687   16.6658 He  0  0  0  0  0  0  0  0  0  0  0  0
    9.7511   -4.1682   16.4736 He  0  0  0  0  0  0  0  0  0  0  0  0
   12.3550   -4.7798   13.9928 He  0  0  0  0  0  0  0  0  0  0  0  0
    9.3797   -8.5599   16.4067 He  0  0  0  0  0  0  0  0  0  0  0  0
  1  2  2  0
  1  7  1  0
  1 11  1  0
  2  8  3  0
  2  9  2  0
  2 11  3  0
  2 15  2  0
  3  6  2  0
  3  7  3  0
  3 10  2  0
  3 11  1  0
  3 14  2  0
  4  7  3  0
  4  8  4  0
  4 11  1  0
  4 13  2  0
  4 14  4  0
  5  7  4  0
  5 11  2  0
  6  8  1  0
  6  9  4  0
  6 12  4  0
  6 14  1  0
  7 10  4  0
  8 12  4  0
  9 10  4  0
  9 11  1  0
 10 13  1  0
 11 12  4  0
 11 13  4  0
 11 15  1  0
 12 14  3  0
M  END
$$$$

 Created by Python create_sdf_string function

 29 94  0  0  0  0  0  0  0  0999 V2000
   10.6705   -6.5429   17.6330 O   0  0  0  0  0  0  0  0  0  0  0  0
    9.3227   -6.3413   16.5602 I   0  0  0  0  0  0  0  0  0  0  0  0
    6.8799   -9.0929   19.0461 C   0  0  0  0  0  0  0  0  0  0  0  0
    7.4654   -9.0316   17.0920 P   0  0  0  0  0  0  0  0  0  0  0  0
   11.6524   -3.6801   15.8150 S   0  0  0  0  0  0  0  0  0  0  0  0
    9.8478   -8.0385   17.5402 O   0  0  0  0  0  0  0  0  0  0  0  0
   10.6679   -4.3341   20.9689 N   0  0  0  0  0  0  0  0  0  0  0  0
   11.2175   -6.3251   19.6493 C   0  0  0  0  0  0  0  0  0  0  0  0
    4.6300   -8.7138   19.3964 Cl  0  0  0  0  0  0  0  0  0  0  0  0
   11.9125   -3.9154   23.8801 C   0  0  0  0  0  0  0  0  0  0  0  0
    6.6343   -6.9601   18.0646 O   0  0  0  0  0  0  0  0  0  0  0  0
   12.0367   -4.3687   16.6913 C   0  0  0  0  0  0  0  0  0  0  0  0
   12.0383   -5.7226   19.5582 C   0  0  0  0  0  0  0  0  0  0  0  0
    8.8779   -7.8841   16.3056 C   0  0  0  0  0  0  0  0  0  0  0  0
   11.4042   -3.7369   19.9168 C   0  0  0  0  0  0  0  0  0  0  0  0
   12.0524   -5.1632   21.1718 C   0  0  0  0  0  0  0  0  0  0  0  0
    7.8338   -9.0471   14.6929 O   0  0  0  0  0  0  0  0  0  0  0  0
    5.2253   -7.4916   14.0231 S   0  0  0  0  0  0  0  0  0  0  0  0
   10.5973   -4.4069   22.3938 C   0  0  0  0  0  0  0  0  0  0  0  0
   10.6540   -3.6992   18.5663 C   0  0  0  0  0  0  0  0  0  0  0  0
    9.3858   -4.0848   15.8045 C   0  0  0  0  0  0  0  0  0  0  0  0
   13.2542   -3.8754   14.7912 C   0  0  0  0  0  0  0  0  0  0  0  0
    7.9498   -8.5319   17.3289 C   0  0  0  0  0  0  0  0  0  0  0  0
    7.6931   -5.7913   16.0948 He  0  0  0  0  0  0  0  0  0  0  0  0
    7.0573   -6.3255   15.8897 He  0  0  0  0  0  0  0  0  0  0  0  0
    9.4558   -5.2672   18.0321 He  0  0  0  0  0  0  0  0  0  0  0  0
   11.3917   -5.9628   19.0314 He  0  0  0  0  0  0  0  0  0  0  0  0
    5.7622   -9.6013   17.7850 He  0  0  0  0  0  0  0  0  0  0  0  0
    7.7551   -8.4945   15.6992 He  0  0  0  0  0  0  0  0  0  0  0  0
  1  5  3  0
  1  7  1  0
  1 12  2  0
  1 14  4  0
  1 16  3  0
  1 19  1  0
  1 20  1  0
  1 21  3  0
  1 22  3  0
  1 23  4  0
  2  7  4  0
  2  8  1  0
  2 13  2  0
  2 17  2  0
  2 19  3  0
  3  4  1  0
  3  5  3  0
  3  6  4  0
  3  8  3  0
  3  9  4  0
  3 11  1  0
  3 16  2  0
  3 18  3  0
  3 21  4  0
  4  7  4  0
  4 10  3  0
  4 14  2  0
  4 21  1  0
  5  6  1  0
  5 10  3  0
  5 11  4  0
  5 14  3  0
  5 15  4  0
  5 17  4  0
  5 20  2  0
  5 21  2  0
  6 10  2  0
  6 11  4  0
  6 13  1  0
  6 14  2  0
  6 15  4  0
  6 17  3  0
  6 22  1  0
  7  8  4  0
  7 10  4  0
  7 13  4  0
  7 14  1  0
  7 20  1  0
  8  9  2  0
  8 10  2  0
  8 12  4  0
  8 18  2  0
  8 20  2  0
  8 21  1  0
  8 23  4  0
  9 10  4  0
  9 12  3  0
  9 13  2  0
  9 14  2  0
  9 15  3  0
  9 18  1  0
  9 20  3  0
 10 11  4  0
 10 13  3  0
 10 17  3  0
 10 18  2  0
 10 19  4  0
 10 20  4  0
 10 21  3  0
 10 23  3  0
 11 19  1  0
 11 20  1  0
 12 13  4  0
 12 14  1  0
 12 18  2  0
 12 21  4  0
 13 17  4  0
 13 23  4  0
 14 16  2  0
 14 18  3  0
 14 19  2  0
 14 20  4  0
 14 22  1  0
 14 23  3  0
 16 17  3  0
 16 18  4  0
 16 19  4  0
 17 18  4  0
 17 20  2  0
 17 23  1  0
 18 21  4  0
 19 23  4  0
 21 22  1  0
 21 23  4  0
M  END
$$$$

 Created by Python create_sdf_string function

 29 55  0  0  0  0  0  0  0  0999 V2000
    8.4846   -6.3461   16.4541 N   0  0  0  0  0  0  0  0  0  0  0  0
    7.4966   -5.5554   15.2994 N   0  0  0  0  0  0  0  0  0  0  0  0
    7.5776   -7.6533   15.9519 C   0  0  0  0  0  0  0  0  0  0  0  0
   11.4316   -6.1629   19.8243 F   0  0  0  0  0  0  0  0  0  0  0  0
   12.0589   -4.3470   16.5023 O   0  0  0  0  0  0  0  0  0  0  0  0
    8.8479   -5.9888   17.8800 Br  0  0  0  0  0  0  0  0  0  0  0  0
    8.0980   -5.7191   16.3969 C   0  0  0  0  0  0  0  0  0  0  0  0
   11.0934   -4.3711   20.4001 C   0  0  0  0  0  0  0  0  0  0  0  0
   12.1634   -5.4708   21.3617 C   0  0  0  0  0  0  0  0  0  0  0  0
    7.5075   -8.7917   13.8935 O   0  0  0  0  0  0  0  0  0  0  0  0
    6.5730   -6.9357   14.0146 O   0  0  0  0  0  0  0  0  0  0  0  0
   11.6540   -3.7109   22.4248 C   0  0  0  0  0  0  0  0  0  0  0  0
    5.5189   -8.2848   18.3059 F   0  0  0  0  0  0  0  0  0  0  0  0
    9.7015   -7.2977   16.4363 C   0  0  0  0  0  0  0  0  0  0  0  0
   10.8366   -4.2722   18.2849 C   0  0  0  0  0  0  0  0  0  0  0  0
    9.6558   -4.3931   16.1877 C   0  0  0  0  0  0  0  0  0  0  0  0
   11.4138   -3.3413   15.3077 O   0  0  0  0  0  0  0  0  0  0  0  0
    7.0442   -8.8332   17.1440 P   0  0  0  0  0  0  0  0  0  0  0  0
   10.0414   -6.0207   18.2121 He  0  0  0  0  0  0  0  0  0  0  0  0
    8.1842   -8.7725   18.8541 He  0  0  0  0  0  0  0  0  0  0  0  0
    8.9356  -10.3388   17.6499 He  0  0  0  0  0  0  0  0  0  0  0  0
   12.5964   -3.5343   16.3249 He  0  0  0  0  0  0  0  0  0  0  0  0
   10.9783   -7.8883   17.9705 He  0  0  0  0  0  0  0  0  0  0  0  0
   10.6847   -4.1733   20.6587 He  0  0  0  0  0  0  0  0  0  0  0  0
    6.8275   -8.3350   18.5777 He  0  0  0  0  0  0  0  0  0  0  0  0
   10.7454   -3.3541   22.8539 He  0  0  0  0  0  0  0  0  0  0  0  0
    6.9780   -5.2545   17.7557 He  0  0  0  0  0  0  0  0  0  0  0  0
   12.2334   -5.1746   20.1645 He  0  0  0  0  0  0  0  0  0  0  0  0
    9.9902   -5.6209   18.3984 He  0  0  0  0  0  0  0  0  0  0  0  0
  1  5  3  0
  1  6  1  0
  1  8  4  0
  1 10  4  0
  1 11  1  0
  1 14  1  0
  1 16  2  0
  1 18  1  0
  2  3  3  0
  2  5  1  0
  2  7  2  0
  2 11  2  0
  2 13  1  0
  2 15  1  0
  2 16  4  0
  2 17  3  0
  2 18  2  0
  3  4  4  0
  3  6  4  0
  3  8  2  0
  3 10  2  0
  3 11  1  0
  3 16  3  0
  3 18  3  0
  4  5  3  0
  4  7  1  0
  4 10  3  0
  4 12  1  0
  5 10  3  0
  5 13  2  0
  6  9  4  0
  6 11  4  0
  6 13  3  0
  6 15  3  0
  7 12  3  0
  7 15  3  0
  7 18  3  0
  8 11  1  0
  9 11  1  0
  9 12  4  0
  9 18  2  0
 10 11  1  0
 10 12  1  0
 10 13  2  0
 10 16  2  0
 10 18  4  0
 11 18  3  0
 12 13  4  0
 12 14  4  0
 13 16  4  0
 13 18  1  0
 14 16  3  0
 14 17  1  0
 15 17  3  0
 16 17  4  0
M  END
$$$$

 Created by Python create_sdf_string function

 29 54  0  0  0  0  0  0  0  0999 V2000
    8.6680   -3.7584   19.8099 C   0  0  0  0  0  0  0  0  0  0  0  0
   10.1283   -6.7726   16.1602 B   0  0  0  0  0  0  0  0  0  0  0  0
    8.5045   -7.4955   17.8595 S   0  0  0  0  0  0  0  0  0  0  0  0
    9.0524   -8.9223   17.9942 F   0  0  0  0  0  0  0  0  0  0  0  0
   10.2988   -7.4739   20.2794 F   0  0  0  0  0  0  0  0  0  0  0  0
   11.0651   -5.6795   19.1943 O   0  0  0  0  0  0  0  0  0  0  0  0
    7.7429   -8.1945   17.3653 F   0  0  0  0  0  0  0  0  0  0  0  0
    6.2983   -5.7825   18.2598 C   0  0  0  0  0  0  0  0  0  0  0  0
   11.6284   -3.7522   16.8880 C   0  0  0  0  0  0  0  0  0  0  0  0
   10.9883   -6.2347   21.4988 C   0  0  0  0  0  0  0  0  0  0  0  0
   10.2948   -6.8855   18.0085 P   0  0  0  0  0  0  0  0  0  0  0  0
    9.3979   -6.4887   16.2944 S   0  0  0  0  0  0  0  0  0  0  0  0
   10.6504   -4.6634   20.7501 C   0  0  0  0  0  0  0  0  0  0  0  0
   12.8587   -5.1357   21.2415 C   0  0  0  0  0  0  0  0  0  0  0  0
    6.7812   -9.8602   13.1746 C   0  0  0  0  0  0  0  0  0  0  0  0
   11.7329   -4.6397   22.5971 C   0  0  0  0  0  0  0  0  0  0  0  0
    8.0313   -7.9475   16.9216 F   0  0  0  0  0  0  0  0  0  0  0  0
   10.7919   -3.8225   18.1873 C   0  0  0  0  0  0  0  0  0  0  0  0
   10.0953   -3.7952   16.1109 C   0  0  0  0  0  0  0  0  0  0  0  0
    4.8685   -4.7299   14.9907 He  0  0  0  0  0  0  0  0  0  0  0  0
    5.5283   -6.8093   16.7576 He  0  0  0  0  0  0  0  0  0  0  0  0
   12.1505   -2.6408   17.2080 He  0  0  0  0  0  0  0  0  0  0  0  0
   10.0591   -5.6042   20.5286 He  0  0  0  0  0  0  0  0  0  0  0  0
    9.7810   -2.7758   21.7759 He  0  0  0  0  0  0  0  0  0  0  0  0
    7.2084   -6.1253   15.0081 He  0  0  0  0  0  0  0  0  0  0  0  0
   11.1229   -4.7588   17.4819 He  0  0  0  0  0  0  0  0  0  0  0  0
    6.6844   -7.3881   15.2466 He  0  0  0  0  0  0  0  0  0  0  0  0
   11.6679   -5.1050   15.7925 He  0  0  0  0  0  0  0  0  0  0  0  0
    6.0998   -8.3416   16.4339 He  0  0  0  0  0  0  0  0  0  0  0  0
  1  5  2  0
  1  6  2  0
  1  7  1  0
  1  8  4  0
  1 16  1  0
  1 17  4  0
  2  6  4  0
  2  7  2  0
  2 12  4  0
  2 15  2  0
  2 18  2  0
  3  4  1  0
  3 11  2  0
  3 12  3  0
  3 17  2  0
  3 19  1  0
  4  7  3  0
  4  9  2  0
  4 13  2  0
  4 15  4  0
  4 19  3  0
  5  6  1  0
  5  7  3  0
  5  8  3  0
  5 16  3  0
  6  9  3  0
  6 15  3  0
  6 17  1  0
  7  8  4  0
  7  9  3  0
  7 10  2  0
  7 12  3  0
  7 16  1  0
  7 18  2  0
  8  9  2  0
  8 10  2  0
  8 12  2  0
  8 15  3  0
  8 18  1  0
  8 19  1  0
  9 11  1  0
  9 15  2  0
  9 17  1  0
 10 19  1  0
 11 12  4  0
 11 16  2  0
 11 17  3  0
 11 19  3  0
 12 16  3  0
 12 18  2  0
 12 19  3  0
 15 19  3  0
 16 17  3  0
 16 18  2  0
M  END
$$$$

 Created by Python create_sdf_string function

 29 51  0  0  0  0  0  0  0  0999 V2000
    5.6256   -5.8898   15.8915 O   0  0  0  0  0  0  0  0  0  0  0  0
    8.2757   -7.7151   17.0935 N   0  0  0  0  0  0  0  0  0  0  0  0
    7.0541   -6.5084   18.6020 Cl  0  0  0  0  0  0  0  0  0  0  0  0
   11.1750   -7.5751   17.6135 F   0  0  0  0  0  0  0  0  0  0  0  0
   12.0492   -3.2511   16.0859 C   0  0  0  0  0  0  0  0  0  0  0  0
   10.8211   -5.7076   19.3929 N   0  0  0  0  0  0  0  0  0  0  0  0
    8.4587   -8.7687   17.3017 P   0  0  0  0  0  0  0  0  0  0  0  0
   11.5336   -3.9669   16.9042 C   0  0  0  0  0  0  0  0  0  0  0  0
    9.7061   -5.4747   17.4105 Se  0  0  0  0  0  0  0  0  0  0  0  0
   10.9766   -4.8338   20.6160 C   0  0  0  0  0  0  0  0  0  0  0  0
   12.1291   -4.5445   21.6759 C   0  0  0  0  0  0  0  0  0  0  0  0
    7.1468  -10.8082   15.9410 C   0  0  0  0  0  0  0  0  0  0  0  0
    6.7449   -7.2952   16.0764 Br  0  0  0  0  0  0  0  0  0  0  0  0
   11.5388   -3.9169   22.7484 C   0  0  0  0  0  0  0  0  0  0  0  0
    8.5572   -7.3735   16.9024 C   0  0  0  0  0  0  0  0  0  0  0  0
    9.6243   -2.9454   16.1939 C   0  0  0  0  0  0  0  0  0  0  0  0
    5.9593   -8.6257   17.0437 F   0  0  0  0  0  0  0  0  0  0  0  0
    9.6106   -3.2907   20.3859 He  0  0  0  0  0  0  0  0  0  0  0  0
    8.8912   -4.9250   16.7118 He  0  0  0  0  0  0  0  0  0  0  0  0
   10.3303   -5.6678   19.4990 He  0  0  0  0  0  0  0  0  0  0  0  0
   12.0461   -4.3330   20.3006 He  0  0  0  0  0  0  0  0  0  0  0  0
   10.6515   -3.2678   21.7280 He  0  0  0  0  0  0  0  0  0  0  0  0
    7.0789   -7.6132   17.9466 He  0  0  0  0  0  0  0  0  0  0  0  0
    9.4304   -4.7657   20.8280 He  0  0  0  0  0  0  0  0  0  0  0  0
    8.0506   -6.9088   15.5976 He  0  0  0  0  0  0  0  0  0  0  0  0
    8.5446   -3.3164   18.8217 He  0  0  0  0  0  0  0  0  0  0  0  0
    7.9765   -8.2025   15.3337 He  0  0  0  0  0  0  0  0  0  0  0  0
   11.1369   -3.8592   18.0140 He  0  0  0  0  0  0  0  0  0  0  0  0
   10.1624   -3.8776   15.9770 He  0  0  0  0  0  0  0  0  0  0  0  0
  1  2  3  0
  1  3  1  0
  1  8  3  0
  1 11  4  0
  1 12  3  0
  1 15  2  0
  1 16  2  0
  2  4  3  0
  2  8  1  0
  2 14  1  0
  2 16  1  0
  3  7  4  0
  3  8  3  0
  3 12  1  0
  3 14  3  0
  3 16  2  0
  3 17  2  0
  4  6  1  0
  4  7  4  0
  4  9  4  0
  4 13  1  0
  4 14  1  0
  4 17  1  0
  5  8  4  0
  5 11  1  0
  5 12  4  0
  5 13  2  0
  5 16  2  0
  6  9  1  0
  6 16  2  0
  7 10  2  0
  7 16  2  0
  7 17  4  0
  8 10  3  0
  8 12  4  0
  8 13  4  0
  8 14  2  0
  8 16  2  0
  8 17  2  0
  9 13  2  0
 10 11  4  0
 10 12  1  0
 10 14  1  0
 10 17  3  0
 11 12  4  0
 11 13  4  0
 12 14  2  0
 12 17  4  0
 13 14  1  0
 13 15  3  0
 14 17  4  0
M  END
$$$$

 Created by Python create_sdf_string function

 29 41  0  0  0  0  0  0  0  0999 V2000
    6.7331   -5.8077   14.7031 O   0  0  0  0  0  0  0  0  0  0  0  0
    8.9013   -5.9811   19.7150 S   0  0  0  0  0  0  0  0  0  0  0  0
    9.3930   -5.5143   19.4663 P   0  0  0  0  0  0  0  0  0  0  0  0
   10.6369   -2.0658   22.5541 F   0  0  0  0  0  0  0  0  0  0  0  0
   11.7212   -3.5551   16.1293 P   0  0  0  0  0  0  0  0  0  0  0  0
    8.7340   -5.0032   19.9273 C   0  0  0  0  0  0  0  0  0  0  0  0
   10.4104   -5.1671   18.0978 P   0  0  0  0  0  0  0  0  0  0  0  0
   10.0109   -9.3781   14.7214 P   0  0  0  0  0  0  0  0  0  0  0  0
   11.3626   -4.2530   21.8112 C   0  0  0  0  0  0  0  0  0  0  0  0
   12.3527   -5.3415   21.3053 C   0  0  0  0  0  0  0  0  0  0  0  0
    7.8732   -9.5834   15.9041 C   0  0  0  0  0  0  0  0  0  0  0  0
   12.2012   -3.5316   23.0521 C   0  0  0  0  0  0  0  0  0  0  0  0
    8.2922   -7.7992   17.5144 C   0  0  0  0  0  0  0  0  0  0  0  0
   10.9668   -4.6969   18.2762 O   0  0  0  0  0  0  0  0  0  0  0  0
    9.3897   -3.9438   15.2294 Cl  0  0  0  0  0  0  0  0  0  0  0  0
    5.6102   -8.6672   17.2647 O   0  0  0  0  0  0  0  0  0  0  0  0
   10.4867   -4.7353   20.2558 He  0  0  0  0  0  0  0  0  0  0  0  0
    9.2743   -5.0158   17.0967 He  0  0  0  0  0  0  0  0  0  0  0  0
    7.4901   -8.2350   15.4133 He  0  0  0  0  0  0  0  0  0  0  0  0
   11.0526   -1.3774   16.7645 He  0  0  0  0  0  0  0  0  0  0  0  0
    9.6341   -4.6286   19.4555 He  0  0  0  0  0  0  0  0  0  0  0  0
   11.4131   -7.2524   21.1153 He  0  0  0  0  0  0  0  0  0  0  0  0
   10.4717   -5.0900   19.8624 He  0  0  0  0  0  0  0  0  0  0  0  0
    7.1926   -8.6754   18.8419 He  0  0  0  0  0  0  0  0  0  0  0  0
    7.3968   -7.4737   18.5044 He  0  0  0  0  0  0  0  0  0  0  0  0
    6.5232   -8.6188   16.4513 He  0  0  0  0  0  0  0  0  0  0  0  0
    9.9462   -4.1351   21.1531 He  0  0  0  0  0  0  0  0  0  0  0  0
    7.1022   -7.1522   15.2314 He  0  0  0  0  0  0  0  0  0  0  0  0
   10.2807   -3.0392   15.3666 He  0  0  0  0  0  0  0  0  0  0  0  0
  1  2  2  0
  1  6  4  0
  1  7  1  0
  1  8  2  0
  1 12  1  0
  1 14  4  0
  1 16  3  0
  2  7  2  0
  2  8  3  0
  2 14  3  0
  2 16  2  0
  3  4  1  0
  3  7  4  0
  3 10  2  0
  3 13  2  0
  3 14  4  0
  3 16  2  0
  4  9  3  0
  4 12  4  0
  5  7  3  0
  5  8  2  0
  5 11  4  0
  5 13  3  0
  6  7  1  0
  6 14  4  0
  6 15  1  0
  6 16  4  0
  7 11  2  0
  7 13  3  0
  8 10  3  0
  9 10  4  0
  9 15  1  0
  9 16  1  0
 10 11  4  0
 10 12  4  0
 10 15  3  0
 10 16  4  0
 11 13  1  0
 12 13  2  0
 13 14  2  0
 13 15  2  0
M  END
$$$$

 Created by Python create_sdf_string function

 29 42  0  0  0  0  0  0  0  0999 V2000
   10.0662   -5.7740   18.4623 B   0  0  0  0  0  0  0  0  0  0  0  0
   10.7621   -2.9409   17.0851 N   0  0  0  0  0  0  0  0  0  0  0  0
   12.4338   -6.1126   19.7566 P   0  0  0  0  0  0  0  0  0  0  0  0
    7.6450   -8.1818   18.1707 B   0  0  0  0  0  0  0  0  0  0  0  0
   11.1626   -4.6873   22.3262 Cl  0  0  0  0  0  0  0  0  0  0  0  0
    6.5257   -7.8607   17.2354 C   0  0  0  0  0  0  0  0  0  0  0  0
   11.3547   -3.4118   16.0661 C   0  0  0  0  0  0  0  0  0  0  0  0
   12.0094   -4.5073   21.5633 C   0  0  0  0  0  0  0  0  0  0  0  0
   11.4492   -4.7168   22.4175 C   0  0  0  0  0  0  0  0  0  0  0  0
    9.1524   -8.6201   14.4259 C   0  0  0  0  0  0  0  0  0  0  0  0
   11.3971   -3.3089   21.9478 C   0  0  0  0  0  0  0  0  0  0  0  0
   11.9713   -3.5776   23.0657 C   0  0  0  0  0  0  0  0  0  0  0  0
   10.6367   -5.0654   18.2857 C   0  0  0  0  0  0  0  0  0  0  0  0
   11.1939   -1.7182   18.5865 P   0  0  0  0  0  0  0  0  0  0  0  0
    4.4339   -7.3138   15.7115 Cl  0  0  0  0  0  0  0  0  0  0  0  0
   10.9166   -3.8432   20.2867 He  0  0  0  0  0  0  0  0  0  0  0  0
    9.2361   -4.5291   16.0390 He  0  0  0  0  0  0  0  0  0  0  0  0
    7.9077   -5.5794   14.0702 He  0  0  0  0  0  0  0  0  0  0  0  0
    7.5501   -8.1016   14.8602 He  0  0  0  0  0  0  0  0  0  0  0  0
   10.4074   -5.6603   19.4756 He  0  0  0  0  0  0  0  0  0  0  0  0
   10.3452   -4.6271   20.2759 He  0  0  0  0  0  0  0  0  0  0  0  0
   12.3310   -6.5722   20.5608 He  0  0  0  0  0  0  0  0  0  0  0  0
    9.9624   -6.6053   19.4638 He  0  0  0  0  0  0  0  0  0  0  0  0
    9.7082   -4.7047   18.8701 He  0  0  0  0  0  0  0  0  0  0  0  0
    8.3556   -7.6522   14.5121 He  0  0  0  0  0  0  0  0  0  0  0  0
    7.2341   -9.1441   15.4847 He  0  0  0  0  0  0  0  0  0  0  0  0
    8.9486   -8.1145   16.8019 He  0  0  0  0  0  0  0  0  0  0  0  0
    6.8320   -6.8851   14.3969 He  0  0  0  0  0  0  0  0  0  0  0  0
    9.1783   -3.9250   15.4925 He  0  0  0  0  0  0  0  0  0  0  0  0
  1  2  4  0
  1  8  3  0
  1 11  2  0
  1 13  4  0
  1 15  4  0
  2  4  2  0
  2  6  2  0
  2 12  4  0
  3  4  1  0
  3  6  4  0
  3  8  4  0
  3  9  2  0
  3 10  3  0
  3 11  3  0
  3 12  2  0
  3 13  1  0
  3 14  4  0
  4 11  3  0
  4 13  3  0
  4 14  4  0
  4 15  2  0
  5  7  4  0
  5 12  4  0
  5 13  2  0
  6  7  4  0
  6 10  1  0
  6 11  3  0
  6 13  2  0
  6 14  1  0
  7 14  4  0
  8  9  4  0
  8 10  2  0
  8 11  4  0
  8 14  1  0
  9 12  4  0
  9 15  4  0
 10 11  3  0
 10 13  4  0
 10 14  1  0
 10 15  1  0
 13 14  2  0
 13 15  3  0
M  END
$$$$

 Created by Python create_sdf_string function

 29 72  0  0  0  0  0  0  0  0999 V2000
   11.5739   -4.3400   19.9600 C   0  0  0  0  0  0  0  0  0  0  0  0
    8.0795   -5.5498   15.5338 N   0  0  0  0  0  0  0  0  0  0  0  0
    7.1106   -8.0215   15.6136 C   0  0  0  0  0  0  0  0  0  0  0  0
   10.1264   -5.6563   20.7172 S   0  0  0  0  0  0  0  0  0  0  0  0
   11.4429   -3.9841   17.8058 C   0  0  0  0  0  0  0  0  0  0  0  0
   12.8357   -6.7746   22.0739 F   0  0  0  0  0  0  0  0  0  0  0  0
    8.2504   -9.0394   17.0635 O   0  0  0  0  0  0  0  0  0  0  0  0
   10.4881   -3.8347   21.8423 C   0  0  0  0  0  0  0  0  0  0  0  0
    6.1585   -7.5222   17.6045 C   0  0  0  0  0  0  0  0  0  0  0  0
   11.5951   -2.9319   15.9018 C   0  0  0  0  0  0  0  0  0  0  0  0
    9.8558   -6.8264   20.8551 N   0  0  0  0  0  0  0  0  0  0  0  0
   12.0649   -4.5113   21.4400 C   0  0  0  0  0  0  0  0  0  0  0  0
   12.0588   -4.4839   22.5871 C   0  0  0  0  0  0  0  0  0  0  0  0
    6.1339   -8.7049   15.3893 C   0  0  0  0  0  0  0  0  0  0  0  0
    6.6721  -10.3299   16.7897 C   0  0  0  0  0  0  0  0  0  0  0  0
   11.9420   -3.9215   24.4334 C   0  0  0  0  0  0  0  0  0  0  0  0
    7.3468   -6.1396   17.5485 C   0  0  0  0  0  0  0  0  0  0  0  0
   10.2264   -4.6981   18.0171 C   0  0  0  0  0  0  0  0  0  0  0  0
    9.0456   -4.2604   15.9000 C   0  0  0  0  0  0  0  0  0  0  0  0
   10.9326   -3.5397   18.5263 O   0  0  0  0  0  0  0  0  0  0  0  0
    5.2814   -8.3867   16.3095 C   0  0  0  0  0  0  0  0  0  0  0  0
    8.6741   -6.2791   16.7540 He  0  0  0  0  0  0  0  0  0  0  0  0
    8.7385   -5.0307   17.8542 He  0  0  0  0  0  0  0  0  0  0  0  0
    9.9431   -2.1457   20.1243 He  0  0  0  0  0  0  0  0  0  0  0  0
   12.3419   -6.2273   18.8148 He  0  0  0  0  0  0  0  0  0  0  0  0
   10.2302   -6.0064   17.0522 He  0  0  0  0  0  0  0  0  0  0  0  0
    8.2277   -8.2959   15.6774 He  0  0  0  0  0  0  0  0  0  0  0  0
   12.3342   -3.6690   23.5655 He  0  0  0  0  0  0  0  0  0  0  0  0
    6.6921   -7.4444   14.1946 He  0  0  0  0  0  0  0  0  0  0  0  0
  1  5  2  0
  1  9  3  0
  1 11  4  0
  1 12  1  0
  1 14  1  0
  1 17  1  0
  1 18  2  0
  1 21  1  0
  2  3  4  0
  2  6  1  0
  2  7  4  0
  2  8  2  0
  2 14  2  0
  2 16  2  0
  3  5  1  0
  3 11  3  0
  3 15  3  0
  3 17  4  0
  3 18  1  0
  3 20  3  0
  4  5  1  0
  4  7  4  0
  4 15  2  0
  4 17  1  0
  4 21  4  0
  5  6  3  0
  5  7  3  0
  5  8  3  0
  5  9  1  0
  5 11  2  0
  5 12  4  0
  5 17  1  0
  5 18  4  0
  5 19  2  0
  6 11  4  0
  6 13  4  0
  6 14  1  0
  6 18  4  0
  6 20  4  0
  7  9  1  0
  7 11  2  0
  7 13  1  0
  8 10  4  0
  8 11  2  0
  8 15  2  0
  8 16  1  0
  8 20  4  0
  8 21  3  0
  9 11  4  0
  9 13  2  0
  9 16  3  0
  9 20  2  0
  9 21  3  0
 10 11  3  0
 10 15  3  0
 10 20  2  0
 11 16  3  0
 12 15  2  0
 12 21  3  0
 13 15  4  0
 13 16  4  0
 13 17  4  0
 13 18  4  0
 13 19  1  0
 14 15  2  0
 14 17  3  0
 14 18  4  0
 14 20  4  0
 15 16  2  0
 16 21  1  0
 17 21  3  0
 20 21  4  0
M  END
$$$$

 Created by Python create_sdf_string function

 29 33  0  0  0  0  0  0  0  0999 V2000
    7.5829   -6.4180   15.7683 F   0  0  0  0  0  0  0  0  0  0  0  0
    8.5061   -5.2535   17.3583 C   0  0  0  0  0  0  0  0  0  0  0  0
   13.1466   -4.2959   22.7575 C   0  0  0  0  0  0  0  0  0  0  0  0
   11.9658   -3.9594   22.5452 C   0  0  0  0  0  0  0  0  0  0  0  0
    7.7010   -6.0731   18.3987 B   0  0  0  0  0  0  0  0  0  0  0  0
    7.5193   -7.5713   15.3615 C   0  0  0  0  0  0  0  0  0  0  0  0
   11.5908   -4.7109   20.8605 C   0  0  0  0  0  0  0  0  0  0  0  0
   12.2798   -4.3872   22.7612 C   0  0  0  0  0  0  0  0  0  0  0  0
   10.9866   -5.0234   24.6878 C   0  0  0  0  0  0  0  0  0  0  0  0
   11.8325   -4.2211   24.4608 C   0  0  0  0  0  0  0  0  0  0  0  0
    6.6418   -7.7318   18.2582 C   0  0  0  0  0  0  0  0  0  0  0  0
   10.4949   -4.9756   18.2144 C   0  0  0  0  0  0  0  0  0  0  0  0
    8.9337   -4.1694   16.3323 C   0  0  0  0  0  0  0  0  0  0  0  0
    4.6689   -7.0308   16.0969 C   0  0  0  0  0  0  0  0  0  0  0  0
   11.5265   -4.9854   19.9744 He  0  0  0  0  0  0  0  0  0  0  0  0
    8.8844   -4.6775   15.4690 He  0  0  0  0  0  0  0  0  0  0  0  0
    6.0354   -7.8448   16.0491 He  0  0  0  0  0  0  0  0  0  0  0  0
   11.8541   -5.4487   20.0059 He  0  0  0  0  0  0  0  0  0  0  0  0
   11.9012   -4.8668   17.2509 He  0  0  0  0  0  0  0  0  0  0  0  0
   10.8625   -3.8699   21.5278 He  0  0  0  0  0  0  0  0  0  0  0  0
   11.3746   -5.9681   19.5688 He  0  0  0  0  0  0  0  0  0  0  0  0
    7.8665   -8.8935   17.4188 He  0  0  0  0  0  0  0  0  0  0  0  0
    7.1659   -8.1670   16.1041 He  0  0  0  0  0  0  0  0  0  0  0  0
   11.5525   -3.0187   16.6281 He  0  0  0  0  0  0  0  0  0  0  0  0
    9.6783   -6.3677   18.8988 He  0  0  0  0  0  0  0  0  0  0  0  0
    8.3229   -7.3675   15.9691 He  0  0  0  0  0  0  0  0  0  0  0  0
    8.3438  -10.0841   16.5470 He  0  0  0  0  0  0  0  0  0  0  0  0
    7.2937   -7.7278   15.9321 He  0  0  0  0  0  0  0  0  0  0  0  0
    9.5793   -4.0960   17.1292 He  0  0  0  0  0  0  0  0  0  0  0  0
  1  2  1  0
  1  8  3  0
  1 11  4  0
  1 12  3  0
  2  3  4  0
  2  7  2  0
  2  9  4  0
  2 10  2  0
  2 11  3  0
  2 13  4  0
  3  5  3  0
  3  8  2  0
  3 10  2  0
  3 11  2  0
  3 12  1  0
  3 13  3  0
  3 14  2  0
  4  5  3  0
  4  7  4  0
  5  6  2  0
  5 11  2  0
  6  7  4  0
  6  8  3  0
  6  9  2  0
  6 13  4  0
  7 11  3  0
  7 13  4  0
  7 14  3  0
  8  9  4  0
  8 10  4  0
  9 10  4  0
 10 11  2  0
 13 14  3  0
M  END
$$$$

 Created by Python create_sdf_string function

 29 61  0  0  0  0  0  0  0  0999 V2000
    6.3620   -9.1506   15.5083 C   0  0  0  0  0  0  0  0  0  0  0  0
   11.1186   -5.0998   18.5117 N   0  0  0  0  0  0  0  0  0  0  0  0
    8.1616   -5.3843   17.5700 B   0  0  0  0  0  0  0  0  0  0  0  0
    9.7316   -4.5362   16.8190 C   0  0  0  0  0  0  0  0  0  0  0  0
   11.3477   -4.7238   21.3973 F   0  0  0  0  0  0  0  0  0  0  0  0
   13.5451   -3.9830   23.1767 Cl  0  0  0  0  0  0  0  0  0  0  0  0
   10.6719   -6.4812   20.2715 C   0  0  0  0  0  0  0  0  0  0  0  0
    8.4157   -7.8175   18.4857 C   0  0  0  0  0  0  0  0  0  0  0  0
    5.5518   -7.2071   16.0275 I   0  0  0  0  0  0  0  0  0  0  0  0
   11.2093   -3.1517   17.0101 C   0  0  0  0  0  0  0  0  0  0  0  0
    7.5438   -6.7428   17.6720 C   0  0  0  0  0  0  0  0  0  0  0  0
   11.4527   -4.4127   21.8638 C   0  0  0  0  0  0  0  0  0  0  0  0
   12.0825   -4.7728   23.2124 C   0  0  0  0  0  0  0  0  0  0  0  0
    7.1306   -8.9030   17.6730 F   0  0  0  0  0  0  0  0  0  0  0  0
   11.0521   -4.0427   24.4316 C   0  0  0  0  0  0  0  0  0  0  0  0
    5.3499   -7.4572   19.1880 C   0  0  0  0  0  0  0  0  0  0  0  0
    7.3442   -8.3944   16.7413 C   0  0  0  0  0  0  0  0  0  0  0  0
   10.9561   -4.8257   18.3948 N   0  0  0  0  0  0  0  0  0  0  0  0
    9.6710   -4.5350   16.4601 C   0  0  0  0  0  0  0  0  0  0  0  0
   10.7903   -4.6738   20.5211 He  0  0  0  0  0  0  0  0  0  0  0  0
    7.1924   -4.9336   14.8339 He  0  0  0  0  0  0  0  0  0  0  0  0
    9.1919   -4.7100   15.7444 He  0  0  0  0  0  0  0  0  0  0  0  0
   12.4229   -4.1810   21.3150 He  0  0  0  0  0  0  0  0  0  0  0  0
    8.9099   -6.4941   18.0548 He  0  0  0  0  0  0  0  0  0  0  0  0
    7.8168   -8.1379   14.2975 He  0  0  0  0  0  0  0  0  0  0  0  0
    7.2857   -7.3621   15.4272 He  0  0  0  0  0  0  0  0  0  0  0  0
   12.1731   -4.4001   24.8022 He  0  0  0  0  0  0  0  0  0  0  0  0
   12.1028   -5.0911   17.0368 He  0  0  0  0  0  0  0  0  0  0  0  0
    3.3373   -5.9471   15.8577 He  0  0  0  0  0  0  0  0  0  0  0  0
  1  2  4  0
  1  3  1  0
  1  5  4  0
  1  6  1  0
  1  8  3  0
  1 10  4  0
  1 13  2  0
  1 14  1  0
  1 15  2  0
  1 18  2  0
  2  3  2  0
  2  5  3  0
  2  9  4  0
  2 10  1  0
  2 12  3  0
  2 14  1  0
  2 17  3  0
  3  4  3  0
  3  6  4  0
  3 10  2  0
  3 13  1  0
  4  5  3  0
  4  9  2  0
  4 10  1  0
  4 11  1  0
  4 12  2  0
  4 14  3  0
  4 15  2  0
  4 18  2  0
  5  6  3  0
  5  8  2  0
  5 11  1  0
  5 19  3  0
  6  8  1  0
  6 14  4  0
  6 15  1  0
  6 16  4  0
  7 10  3  0
  7 15  2  0
  7 19  1  0
  8 10  4  0
  8 16  1  0
  8 17  4  0
  9 10  3  0
  9 11  1  0
  9 12  4  0
  9 16  3  0
  9 17  4  0
  9 18  1  0
  9 19  3  0
 10 14  2  0
 10 17  4  0
 10 19  3  0
 11 14  1  0
 11 15  1  0
 12 16  4  0
 13 16  4  0
 13 17  4  0
 14 17  3  0
 14 18  2  0
 17 18  2  0
M  END
$$$$

 Created by Python create_sdf_string function

 29 42  0  0  0  0  0  0  0  0999 V2000
    5.6021   -8.3919   16.6654 O   0  0  0  0  0  0  0  0  0  0  0  0
   10.0033   -4.2705   17.6916 C   0  0  0  0  0  0  0  0  0  0  0  0
    8.4117   -6.4446   18.1876 C   0  0  0  0  0  0  0  0  0  0  0  0
   12.1435   -4.3514   23.5806 C   0  0  0  0  0  0  0  0  0  0  0  0
    7.1017   -7.5672   18.0562 C   0  0  0  0  0  0  0  0  0  0  0  0
   13.0303   -5.5281   21.4562 N   0  0  0  0  0  0  0  0  0  0  0  0
   11.8913   -3.3965   16.9303 C   0  0  0  0  0  0  0  0  0  0  0  0
    7.5671   -7.0247   18.6491 F   0  0  0  0  0  0  0  0  0  0  0  0
   11.5761   -4.2565   22.3985 C   0  0  0  0  0  0  0  0  0  0  0  0
    6.0423   -5.9667   16.7180 P   0  0  0  0  0  0  0  0  0  0  0  0
   13.0273   -4.9527   23.3276 S   0  0  0  0  0  0  0  0  0  0  0  0
   11.4979   -4.0339   24.9262 C   0  0  0  0  0  0  0  0  0  0  0  0
    5.1071   -8.2198   21.0316 C   0  0  0  0  0  0  0  0  0  0  0  0
    6.8969   -9.4551   17.4729 S   0  0  0  0  0  0  0  0  0  0  0  0
    9.5313   -4.3533   15.8821 C   0  0  0  0  0  0  0  0  0  0  0  0
   11.8490   -5.1082   18.3839 C   0  0  0  0  0  0  0  0  0  0  0  0
    4.7658   -8.3677   14.4107 O   0  0  0  0  0  0  0  0  0  0  0  0
   11.1439   -3.9064   20.8895 He  0  0  0  0  0  0  0  0  0  0  0  0
    7.3262   -5.2333   15.7536 He  0  0  0  0  0  0  0  0  0  0  0  0
   10.1065   -5.5058   16.0059 He  0  0  0  0  0  0  0  0  0  0  0  0
    9.5815   -3.7096   17.9945 He  0  0  0  0  0  0  0  0  0  0  0  0
   11.6431   -4.0084   21.3464 He  0  0  0  0  0  0  0  0  0  0  0  0
   12.4605   -6.9663   20.2824 He  0  0  0  0  0  0  0  0  0  0  0  0
    6.0683   -8.1069   16.9892 He  0  0  0  0  0  0  0  0  0  0  0  0
    6.6509   -8.4204   19.3250 He  0  0  0  0  0  0  0  0  0  0  0  0
    7.9821   -8.9789   14.5416 He  0  0  0  0  0  0  0  0  0  0  0  0
   12.2715   -4.5126   23.3041 He  0  0  0  0  0  0  0  0  0  0  0  0
    5.8805   -9.1029   17.2332 He  0  0  0  0  0  0  0  0  0  0  0  0
   10.9922   -4.8606   18.3143 He  0  0  0  0  0  0  0  0  0  0  0  0
  1  2  4  0
  1  4  4  0
  1  6  4  0
  1  8  4  0
  1  9  3  0
  1 11  4  0
  1 12  2  0
  1 14  4  0
  1 17  1  0
  2  4  2  0
  2  5  4  0
  2  6  2  0
  3  4  4  0
  3  6  3  0
  3  7  4  0
  3 11  2  0
  3 12  1  0
  3 13  4  0
  3 15  1  0
  4  9  1  0
  4 10  2  0
  4 14  3  0
  4 17  1  0
  5  7  3  0
  5 10  1  0
  5 11  1  0
  5 14  4  0
  6 14  3  0
  6 16  4  0
  7  8  3  0
  7  9  1  0
  7 14  1  0
  7 16  4  0
  8 11  3  0
  8 14  4  0
  8 17  2  0
 10 13  2  0
 11 12  2  0
 12 13  2  0
 13 14  3  0
 13 16  3  0
 16 17  1  0
M  END
$$$$

 Created by Python create_sdf_string function

 29 52  0  0  0  0  0  0  0  0999 V2000
   10.7831   -4.4905   20.7939 C   0  0  0  0  0  0  0  0  0  0  0  0
    6.0978   -9.4500   16.1851 C   0  0  0  0  0  0  0  0  0  0  0  0
    9.8303   -4.3767   18.0504 P   0  0  0  0  0  0  0  0  0  0  0  0
    8.5195   -6.9701   18.5378 P   0  0  0  0  0  0  0  0  0  0  0  0
   10.8799   -5.6011   18.3086 C   0  0  0  0  0  0  0  0  0  0  0  0
   13.0848   -5.2408   20.6106 C   0  0  0  0  0  0  0  0  0  0  0  0
   12.6796   -5.2138   21.6449 S   0  0  0  0  0  0  0  0  0  0  0  0
    7.6151   -6.6687   17.3652 C   0  0  0  0  0  0  0  0  0  0  0  0
   11.6988   -3.5337   16.6260 N   0  0  0  0  0  0  0  0  0  0  0  0
   11.3170   -4.7870   22.9820 C   0  0  0  0  0  0  0  0  0  0  0  0
   12.6383   -4.4703   23.0179 S   0  0  0  0  0  0  0  0  0  0  0  0
    4.0208   -9.5570   18.3826 C   0  0  0  0  0  0  0  0  0  0  0  0
   11.8975   -4.5603   24.1569 F   0  0  0  0  0  0  0  0  0  0  0  0
   11.9363   -4.4629   25.0214 C   0  0  0  0  0  0  0  0  0  0  0  0
    6.4141   -8.2685   19.1101 O   0  0  0  0  0  0  0  0  0  0  0  0
    6.6053   -9.1969   17.8792 O   0  0  0  0  0  0  0  0  0  0  0  0
    9.9695   -4.3618   16.4483 C   0  0  0  0  0  0  0  0  0  0  0  0
    4.8667   -9.9261   15.3376 O   0  0  0  0  0  0  0  0  0  0  0  0
    7.2810   -4.0073   15.0327 He  0  0  0  0  0  0  0  0  0  0  0  0
    9.0103   -5.0803   15.2276 He  0  0  0  0  0  0  0  0  0  0  0  0
   11.0146   -3.7382   24.1278 He  0  0  0  0  0  0  0  0  0  0  0  0
   13.2646   -6.0191   22.6093 He  0  0  0  0  0  0  0  0  0  0  0  0
    6.0658   -8.5255   16.7554 He  0  0  0  0  0  0  0  0  0  0  0  0
    8.7339   -7.3372   17.3483 He  0  0  0  0  0  0  0  0  0  0  0  0
    4.2427   -6.6375   18.4139 He  0  0  0  0  0  0  0  0  0  0  0  0
    9.0261   -7.9309   14.6872 He  0  0  0  0  0  0  0  0  0  0  0  0
    7.9995   -6.4421   16.9907 He  0  0  0  0  0  0  0  0  0  0  0  0
   10.8311   -4.6005   18.6381 He  0  0  0  0  0  0  0  0  0  0  0  0
   12.8096   -4.6048   19.4916 He  0  0  0  0  0  0  0  0  0  0  0  0
  1  2  2  0
  1  3  1  0
  1  6  3  0
  1  8  2  0
  1 10  1  0
  1 13  3  0
  1 15  2  0
  2  5  1  0
  2 11  1  0
  2 12  2  0
  2 18  3  0
  3  5  4  0
  3  8  2  0
  3 10  1  0
  3 12  4  0
  3 14  3  0
  3 16  2  0
  3 18  4  0
  4  7  2  0
  4 12  4  0
  4 16  1  0
  5 12  1  0
  5 15  3  0
  5 16  4  0
  6  7  4  0
  6  8  3  0
  6  9  4  0
  6 13  1  0
  6 15  2  0
  6 17  4  0
  6 18  1  0
  7 10  1  0
  7 15  3  0
  7 17  1  0
  8 10  2  0
  8 11  2  0
  8 13  2  0
  8 16  4  0
  9 10  4  0
  9 12  3  0
  9 14  4  0
 10 11  4  0
 10 12  4  0
 11 15  3  0
 12 13  4  0
 12 15  4  0
 12 18  4  0
 13 17  4  0
 14 15  2  0
 14 16  2  0
 16 17  2  0
 17 18  4  0
M  END
$$$$

 Created by Python create_sdf_string function

 29 54  0  0  0  0  0  0  0  0999 V2000
    8.2953   -4.9611   15.4396 N   0  0  0  0  0  0  0  0  0  0  0  0
   10.1596   -4.2821   16.5742 S   0  0  0  0  0  0  0  0  0  0  0  0
    8.9244   -4.4449   18.6229 F   0  0  0  0  0  0  0  0  0  0  0  0
    9.9880   -7.2928   18.6979 N   0  0  0  0  0  0  0  0  0  0  0  0
   10.1876   -5.5898   18.8608 N   0  0  0  0  0  0  0  0  0  0  0  0
   14.2554   -5.7249   21.1458 C   0  0  0  0  0  0  0  0  0  0  0  0
    8.1531   -8.5352   17.1876 Br  0  0  0  0  0  0  0  0  0  0  0  0
    6.2801   -9.9320   16.9387 Cl  0  0  0  0  0  0  0  0  0  0  0  0
   11.1672   -3.8719   16.9303 C   0  0  0  0  0  0  0  0  0  0  0  0
    8.4919   -6.9599   17.6202 C   0  0  0  0  0  0  0  0  0  0  0  0
    7.4902   -8.2689   14.8013 P   0  0  0  0  0  0  0  0  0  0  0  0
   11.3314   -4.4784   22.6555 C   0  0  0  0  0  0  0  0  0  0  0  0
   10.8035   -2.7300   23.6227 C   0  0  0  0  0  0  0  0  0  0  0  0
    6.6180   -7.5805   18.3279 Cl  0  0  0  0  0  0  0  0  0  0  0  0
    8.5354   -8.9456   17.1209 C   0  0  0  0  0  0  0  0  0  0  0  0
   10.3753   -4.4913   18.7320 C   0  0  0  0  0  0  0  0  0  0  0  0
   10.3107   -4.8084   16.5761 C   0  0  0  0  0  0  0  0  0  0  0  0
   11.0677   -3.3180   20.4206 He  0  0  0  0  0  0  0  0  0  0  0  0
    6.1332  -10.8224   15.9976 He  0  0  0  0  0  0  0  0  0  0  0  0
   11.9602   -4.3687   24.1234 He  0  0  0  0  0  0  0  0  0  0  0  0
   12.3418   -5.2726   19.8545 He  0  0  0  0  0  0  0  0  0  0  0  0
   13.3109   -4.0517   23.8565 He  0  0  0  0  0  0  0  0  0  0  0  0
    4.7107   -7.1470   16.8250 He  0  0  0  0  0  0  0  0  0  0  0  0
   12.3259   -4.4565   22.7034 He  0  0  0  0  0  0  0  0  0  0  0  0
    8.1414   -7.0398   16.5180 He  0  0  0  0  0  0  0  0  0  0  0  0
    4.0896   -9.8419   16.7516 He  0  0  0  0  0  0  0  0  0  0  0  0
   12.1203   -3.9814   24.8048 He  0  0  0  0  0  0  0  0  0  0  0  0
   12.1690   -4.4159   17.8879 He  0  0  0  0  0  0  0  0  0  0  0  0
    4.1542   -9.2089   16.8162 He  0  0  0  0  0  0  0  0  0  0  0  0
  1  2  3  0
  1  3  3  0
  1  5  4  0
  1 10  1  0
  1 11  1  0
  1 12  4  0
  1 14  3  0
  2  3  2  0
  2  6  1  0
  2  9  4  0
  2 15  1  0
  3  7  3  0
  3  8  1  0
  3 13  3  0
  3 14  4  0
  3 15  3  0
  4  6  1  0
  4  7  4  0
  4 11  2  0
  4 12  1  0
  4 14  4  0
  4 15  3  0
  4 16  2  0
  4 17  1  0
  5 11  2  0
  5 12  4  0
  6  7  2  0
  6 11  1  0
  6 13  3  0
  6 16  3  0
  7  8  3  0
  7 11  2  0
  7 13  4  0
  7 15  3  0
  7 16  2  0
  8 10  4  0
  8 11  1  0
  8 14  1  0
  8 15  2  0
  8 16  3  0
  9 11  3  0
  9 12  3  0
  9 14  1  0
  9 15  2  0
  9 16  1  0
  9 17  4  0
 10 13  1  0
 10 17  3  0
 11 12  3  0
 11 13  2  0
 12 14  2  0
 14 16  4  0
 15 16  1  0
 16 17  2  0
M  END
$$$$

 Created by Python create_sdf_string function

 29 47  0  0  0  0  0  0  0  0999 V2000
    6.2218  -10.1182   15.8986 Cl  0  0  0  0  0  0  0  0  0  0  0  0
   10.5216   -4.6584   18.8816 O   0  0  0  0  0  0  0  0  0  0  0  0
   10.2387   -7.7426   19.7851 C   0  0  0  0  0  0  0  0  0  0  0  0
   13.2648   -6.6230   20.8014 C   0  0  0  0  0  0  0  0  0  0  0  0
   13.1378   -2.9144   25.1411 C   0  0  0  0  0  0  0  0  0  0  0  0
    7.9338   -8.3078   15.5962 C   0  0  0  0  0  0  0  0  0  0  0  0
   12.5748   -4.4452   23.4209 P   0  0  0  0  0  0  0  0  0  0  0  0
    6.0661   -9.3748   16.0036 C   0  0  0  0  0  0  0  0  0  0  0  0
   10.9336   -3.7975   17.0200 C   0  0  0  0  0  0  0  0  0  0  0  0
    9.0633   -6.9926   15.8794 F   0  0  0  0  0  0  0  0  0  0  0  0
   11.1891   -3.9683   21.9013 C   0  0  0  0  0  0  0  0  0  0  0  0
   12.0360   -4.3962   22.3012 C   0  0  0  0  0  0  0  0  0  0  0  0
    9.1564   -6.1839   15.6104 C   0  0  0  0  0  0  0  0  0  0  0  0
   10.1712   -2.7561   23.3259 C   0  0  0  0  0  0  0  0  0  0  0  0
   12.3988   -3.9878   24.6486 C   0  0  0  0  0  0  0  0  0  0  0  0
   11.2004   -4.7478   18.5631 C   0  0  0  0  0  0  0  0  0  0  0  0
    9.8847   -4.6706   16.6359 C   0  0  0  0  0  0  0  0  0  0  0  0
   11.5502   -3.7632   18.1896 N   0  0  0  0  0  0  0  0  0  0  0  0
    5.7814  -10.8963   15.9850 F   0  0  0  0  0  0  0  0  0  0  0  0
   10.0195   -5.6582   21.4593 He  0  0  0  0  0  0  0  0  0  0  0  0
    8.2490   -4.3057   15.7579 He  0  0  0  0  0  0  0  0  0  0  0  0
    9.2765   -2.8275   16.0031 He  0  0  0  0  0  0  0  0  0  0  0  0
    9.5895   -4.3533   19.3109 He  0  0  0  0  0  0  0  0  0  0  0  0
   12.1278   -4.7388   21.1827 He  0  0  0  0  0  0  0  0  0  0  0  0
    4.8382   -8.9562   15.8048 He  0  0  0  0  0  0  0  0  0  0  0  0
    7.7188   -7.7568   16.4935 He  0  0  0  0  0  0  0  0  0  0  0  0
    4.6608   -8.5642   16.5684 He  0  0  0  0  0  0  0  0  0  0  0  0
    7.2484   -9.0203   18.9216 He  0  0  0  0  0  0  0  0  0  0  0  0
    8.8783   -8.0146   18.1596 He  0  0  0  0  0  0  0  0  0  0  0  0
  1  5  4  0
  1  9  2  0
  2  6  1  0
  2  7  2  0
  2 15  4  0
  3  4  3  0
  3  5  2  0
  3 11  1  0
  3 12  1  0
  3 17  2  0
  4  5  3  0
  4  7  1  0
  4 11  2  0
  4 12  4  0
  4 13  1  0
  4 18  2  0
  5  8  1  0
  5  9  3  0
  5 11  4  0
  5 13  2  0
  5 15  1  0
  5 18  2  0
  6 13  1  0
  6 14  3  0
  6 18  1  0
  7 11  3  0
  8 10  2  0
  8 12  1  0
  8 16  4  0
  8 18  2  0
  9 10  4  0
  9 11  2  0
  9 13  4  0
  9 18  2  0
  9 19  2  0
 10 11  4  0
 10 16  3  0
 10 17  4  0
 10 19  3  0
 11 12  1  0
 12 18  4  0
 12 19  3  0
 13 17  2  0
 13 19  3  0
 14 15  4  0
 14 18  1  0
 14 19  1  0
M  END
$$$$

 Created by Python create_sdf_string function

 29 80  0  0  0  0  0  0  0  0999 V2000
    8.5261   -5.3504   16.0146 F   0  0  0  0  0  0  0  0  0  0  0  0
    4.9731  -10.1181   15.0282 C   0  0  0  0  0  0  0  0  0  0  0  0
   11.3164   -5.0190   18.7104 Cl  0  0  0  0  0  0  0  0  0  0  0  0
    9.8211   -7.4324   17.9137 F   0  0  0  0  0  0  0  0  0  0  0  0
   10.9763   -4.2816   17.9538 C   0  0  0  0  0  0  0  0  0  0  0  0
   13.6111   -3.9476   22.1857 C   0  0  0  0  0  0  0  0  0  0  0  0
   12.6814   -3.0108   24.4258 F   0  0  0  0  0  0  0  0  0  0  0  0
    7.4365   -7.4842   15.9097 F   0  0  0  0  0  0  0  0  0  0  0  0
   12.4227   -3.8516   23.0573 C   0  0  0  0  0  0  0  0  0  0  0  0
    7.1537   -9.1181   16.2206 C   0  0  0  0  0  0  0  0  0  0  0  0
   10.7266   -3.1624   16.6234 C   0  0  0  0  0  0  0  0  0  0  0  0
   10.0218   -6.2424   17.2052 C   0  0  0  0  0  0  0  0  0  0  0  0
    5.1565   -9.5821   15.8561 C   0  0  0  0  0  0  0  0  0  0  0  0
   11.2634   -4.0097   21.8002 P   0  0  0  0  0  0  0  0  0  0  0  0
   12.3109   -4.8975   22.0819 C   0  0  0  0  0  0  0  0  0  0  0  0
    4.9016  -10.0864   16.6797 N   0  0  0  0  0  0  0  0  0  0  0  0
   11.0780   -3.6356   23.6644 N   0  0  0  0  0  0  0  0  0  0  0  0
   12.3938   -3.4317   23.9818 S   0  0  0  0  0  0  0  0  0  0  0  0
    7.0649   -9.2724   17.9758 Cl  0  0  0  0  0  0  0  0  0  0  0  0
   11.0058   -5.0819   18.7651 C   0  0  0  0  0  0  0  0  0  0  0  0
    8.9735   -5.5548   16.0921 C   0  0  0  0  0  0  0  0  0  0  0  0
   10.8571   -3.4112   17.4110 O   0  0  0  0  0  0  0  0  0  0  0  0
    9.8726   -6.2135   20.1592 He  0  0  0  0  0  0  0  0  0  0  0  0
    9.4290   -4.7374   16.5165 He  0  0  0  0  0  0  0  0  0  0  0  0
   11.4374   -4.3451   20.1839 He  0  0  0  0  0  0  0  0  0  0  0  0
    8.8325   -7.0696   16.8228 He  0  0  0  0  0  0  0  0  0  0  0  0
    7.5614   -7.8099   16.1119 He  0  0  0  0  0  0  0  0  0  0  0  0
    7.8441   -7.4593   18.1934 He  0  0  0  0  0  0  0  0  0  0  0  0
    6.9175  -10.3438   15.7732 He  0  0  0  0  0  0  0  0  0  0  0  0
  1 12  3  0
  1 16  2  0
  1 21  3  0
  2  3  4  0
  2  8  2  0
  2 10  2  0
  2 13  1  0
  2 15  3  0
  2 19  2  0
  3  4  1  0
  3  8  1  0
  3  9  2  0
  3 14  2  0
  3 15  3  0
  3 19  2  0
  4 14  2  0
  4 17  1  0
  4 18  3  0
  4 19  1  0
  5  7  3  0
  5  8  2  0
  5 11  4  0
  5 12  1  0
  5 13  4  0
  5 16  1  0
  5 18  4  0
  5 20  2  0
  5 22  3  0
  6  7  2  0
  6  8  3  0
  6  9  2  0
  6 10  4  0
  6 15  3  0
  6 19  1  0
  6 21  3  0
  6 22  4  0
  7  8  4  0
  7 11  3  0
  7 14  3  0
  7 15  3  0
  7 20  3  0
  8 10  3  0
  8 12  1  0
  8 13  2  0
  8 14  3  0
  8 17  2  0
  8 18  4  0
  8 20  3  0
  9 11  3  0
  9 15  4  0
  9 18  2  0
 10 15  1  0
 10 16  4  0
 10 19  4  0
 10 20  1  0
 10 21  2  0
 11 12  3  0
 11 13  3  0
 11 15  3  0
 11 16  4  0
 11 19  3  0
 11 22  1  0
 12 13  3  0
 12 14  1  0
 12 17  3  0
 12 19  1  0
 12 20  2  0
 12 21  1  0
 13 16  1  0
 13 18  3  0
 13 21  4  0
 14 17  3  0
 14 21  3  0
 15 17  1  0
 15 20  1  0
 16 17  1  0
 16 20  1  0
 16 22  4  0
 17 18  4  0
 17 22  3  0
M  END
$$$$

 Created by Python create_sdf_string function

 29 80  0  0  0  0  0  0  0  0999 V2000
   10.7735   -7.8075   20.8060 N   0  0  0  0  0  0  0  0  0  0  0  0
    8.1061   -5.0588   14.3615 P   0  0  0  0  0  0  0  0  0  0  0  0
    9.1638   -5.6225   16.4258 N   0  0  0  0  0  0  0  0  0  0  0  0
   11.7694   -5.7807   20.4434 C   0  0  0  0  0  0  0  0  0  0  0  0
    8.6231   -7.4706   18.7686 C   0  0  0  0  0  0  0  0  0  0  0  0
   10.2819   -3.2757   18.1795 F   0  0  0  0  0  0  0  0  0  0  0  0
   12.3344   -2.1700   24.7940 F   0  0  0  0  0  0  0  0  0  0  0  0
   12.6092   -5.1021   19.5044 S   0  0  0  0  0  0  0  0  0  0  0  0
    5.8828   -8.1131   15.1532 C   0  0  0  0  0  0  0  0  0  0  0  0
   12.9513   -4.2043   22.7171 F   0  0  0  0  0  0  0  0  0  0  0  0
    6.7290   -9.4349   16.4629 S   0  0  0  0  0  0  0  0  0  0  0  0
   10.6664   -2.9803   16.6800 C   0  0  0  0  0  0  0  0  0  0  0  0
    9.1714   -6.3738   16.6886 C   0  0  0  0  0  0  0  0  0  0  0  0
   11.1586   -3.8675   21.7181 C   0  0  0  0  0  0  0  0  0  0  0  0
   12.0256   -4.6494   22.6424 C   0  0  0  0  0  0  0  0  0  0  0  0
    5.1512   -9.4295   16.1884 F   0  0  0  0  0  0  0  0  0  0  0  0
   10.6613   -4.7475   23.8731 F   0  0  0  0  0  0  0  0  0  0  0  0
   12.0194   -3.1858   23.9907 C   0  0  0  0  0  0  0  0  0  0  0  0
    7.0739   -8.6483   17.7524 C   0  0  0  0  0  0  0  0  0  0  0  0
   10.6047   -5.9012   18.6001 S   0  0  0  0  0  0  0  0  0  0  0  0
    9.3227   -5.4527   16.2314 C   0  0  0  0  0  0  0  0  0  0  0  0
   10.6502   -3.3820   16.7545 N   0  0  0  0  0  0  0  0  0  0  0  0
    6.1558   -7.3779   15.1863 O   0  0  0  0  0  0  0  0  0  0  0  0
    6.2887  -10.0778   14.9585 He  0  0  0  0  0  0  0  0  0  0  0  0
   12.9142   -3.8375   21.4943 He  0  0  0  0  0  0  0  0  0  0  0  0
    4.0333   -9.4905   16.7163 He  0  0  0  0  0  0  0  0  0  0  0  0
    8.7147   -6.2798   17.1682 He  0  0  0  0  0  0  0  0  0  0  0  0
    8.2613   -8.2159   15.3647 He  0  0  0  0  0  0  0  0  0  0  0  0
    8.5644   -6.6944   18.3461 He  0  0  0  0  0  0  0  0  0  0  0  0
  1  7  4  0
  1 11  2  0
  1 13  2  0
  1 18  3  0
  1 20  1  0
  1 22  3  0
  1 23  2  0
  2  7  1  0
  2 13  3  0
  2 14  4  0
  2 17  3  0
  2 20  1  0
  2 22  1  0
  3 10  4  0
  3 11  4  0
  3 16  4  0
  3 17  3  0
  3 20  1  0
  4  9  2  0
  4 12  4  0
  4 14  2  0
  4 16  4  0
  4 20  2  0
  5  9  4  0
  5 10  1  0
  5 12  2  0
  5 14  4  0
  5 16  4  0
  5 21  2  0
  5 22  4  0
  5 23  2  0
  6  9  1  0
  6 13  4  0
  6 14  3  0
  6 17  2  0
  6 19  2  0
  6 21  2  0
  7 10  2  0
  7 13  2  0
  7 15  1  0
  7 16  4  0
  7 18  1  0
  7 19  1  0
  7 23  1  0
  8 10  2  0
  8 14  3  0
  8 18  4  0
  8 21  4  0
  8 22  3  0
  8 23  4  0
  9 10  4  0
  9 13  3  0
  9 14  2  0
  9 17  1  0
  9 21  4  0
 10 17  1  0
 10 20  3  0
 10 22  4  0
 11 13  2  0
 11 15  4  0
 11 16  4  0
 11 20  3  0
 12 22  4  0
 13 15  2  0
 13 19  3  0
 13 21  4  0
 15 16  2  0
 15 17  1  0
 15 18  3  0
 15 19  1  0
 15 22  4  0
 16 17  2  0
 16 18  3  0
 16 19  3  0
 16 20  3  0
 17 19  3  0
 17 20  3  0
 18 23  4  0
 19 22  4  0
 20 22  1  0
M  END
$$$$

 Created by Python create_sdf_string function

 29 31  0  0  0  0  0  0  0  0999 V2000
    9.9068   -6.5263   19.4741 C   0  0  0  0  0  0  0  0  0  0  0  0
    7.7635   -4.8127   15.3672 Br  0  0  0  0  0  0  0  0  0  0  0  0
   12.0425   -5.9412   20.1333 Cl  0  0  0  0  0  0  0  0  0  0  0  0
   11.8408   -5.0569   20.2410 N   0  0  0  0  0  0  0  0  0  0  0  0
    5.3280   -9.3114   15.6535 Br  0  0  0  0  0  0  0  0  0  0  0  0
   10.6403   -3.2976   16.8925 C   0  0  0  0  0  0  0  0  0  0  0  0
   11.0111   -3.9734   21.9839 C   0  0  0  0  0  0  0  0  0  0  0  0
   11.6305   -4.3401   22.5548 C   0  0  0  0  0  0  0  0  0  0  0  0
    6.6164   -6.2059   13.7752 C   0  0  0  0  0  0  0  0  0  0  0  0
    4.3454   -7.8052   14.9622 F   0  0  0  0  0  0  0  0  0  0  0  0
   11.4512   -2.9599   23.7707 N   0  0  0  0  0  0  0  0  0  0  0  0
   11.9947   -3.0606   23.9598 C   0  0  0  0  0  0  0  0  0  0  0  0
    7.5604   -8.1601   17.3888 O   0  0  0  0  0  0  0  0  0  0  0  0
    9.9184   -5.6973   18.7590 C   0  0  0  0  0  0  0  0  0  0  0  0
    8.7952   -4.5905   16.6682 C   0  0  0  0  0  0  0  0  0  0  0  0
   10.0461   -3.0796   17.5739 N   0  0  0  0  0  0  0  0  0  0  0  0
    8.7326   -5.2486   17.7374 He  0  0  0  0  0  0  0  0  0  0  0  0
    6.0915  -10.1157   14.8812 He  0  0  0  0  0  0  0  0  0  0  0  0
    9.8217   -7.8449   17.1726 He  0  0  0  0  0  0  0  0  0  0  0  0
   11.2353   -3.4021   17.1863 He  0  0  0  0  0  0  0  0  0  0  0  0
   12.6240   -3.2271   24.4526 He  0  0  0  0  0  0  0  0  0  0  0  0
   11.0225   -4.0802   20.0188 He  0  0  0  0  0  0  0  0  0  0  0  0
   13.4687   -3.9361   22.5230 He  0  0  0  0  0  0  0  0  0  0  0  0
    6.3224   -8.2883   18.1320 He  0  0  0  0  0  0  0  0  0  0  0  0
    8.9740   -5.5829   16.1928 He  0  0  0  0  0  0  0  0  0  0  0  0
    5.0366   -8.1021   16.3279 He  0  0  0  0  0  0  0  0  0  0  0  0
    8.3346   -6.3074   17.9443 He  0  0  0  0  0  0  0  0  0  0  0  0
    9.8370   -7.2152   18.1780 He  0  0  0  0  0  0  0  0  0  0  0  0
    7.1253   -7.8511   15.5347 He  0  0  0  0  0  0  0  0  0  0  0  0
  1  6  1  0
  1 11  1  0
  1 12  4  0
  1 14  1  0
  2  4  2  0
  2  7  1  0
  2 15  2  0
  3  7  1  0
  3 10  4  0
  3 11  4  0
  3 16  3  0
  4  9  4  0
  4 13  1  0
  4 16  3  0
  5  6  3  0
  5  7  2  0
  5  9  3  0
  5 12  4  0
  6  9  2  0
  6 13  4  0
  6 16  2  0
  7 10  4  0
  9 10  2  0
  9 11  2  0
  9 12  4  0
 10 11  2  0
 11 12  2  0
 11 13  3  0
 12 13  3  0
 12 16  4  0
 13 14  1  0
M  END
$$$$

 Created by Python create_sdf_string function

 29 48  0  0  0  0  0  0  0  0999 V2000
    9.8644   -6.6969   18.5315 P   0  0  0  0  0  0  0  0  0  0  0  0
    8.1558   -5.5889   14.6733 Cl  0  0  0  0  0  0  0  0  0  0  0  0
    9.6514   -6.2199   18.4217 C   0  0  0  0  0  0  0  0  0  0  0  0
    7.5392   -7.2413   18.7421 C   0  0  0  0  0  0  0  0  0  0  0  0
   14.5514   -2.0729   25.8988 N   0  0  0  0  0  0  0  0  0  0  0  0
   11.4709   -5.7366   20.7271 F   0  0  0  0  0  0  0  0  0  0  0  0
   14.8776   -3.9893   23.9399 O   0  0  0  0  0  0  0  0  0  0  0  0
   10.8435   -3.9731   17.0585 C   0  0  0  0  0  0  0  0  0  0  0  0
    8.7867   -4.7925   17.3220 N   0  0  0  0  0  0  0  0  0  0  0  0
    7.3885   -6.7181   16.8342 N   0  0  0  0  0  0  0  0  0  0  0  0
   10.8569   -4.1092   22.0893 F   0  0  0  0  0  0  0  0  0  0  0  0
   11.7957   -4.1629   23.0994 C   0  0  0  0  0  0  0  0  0  0  0  0
    6.4869   -6.9600   16.0157 C   0  0  0  0  0  0  0  0  0  0  0  0
   12.1355   -3.0027   24.0856 C   0  0  0  0  0  0  0  0  0  0  0  0
    7.6143   -8.5075   17.5684 C   0  0  0  0  0  0  0  0  0  0  0  0
   10.1620   -6.0607   19.0242 C   0  0  0  0  0  0  0  0  0  0  0  0
    8.7718   -5.2473   16.3029 C   0  0  0  0  0  0  0  0  0  0  0  0
   10.9827   -4.0645   17.7113 N   0  0  0  0  0  0  0  0  0  0  0  0
    6.6916   -9.0370   15.6133 C   0  0  0  0  0  0  0  0  0  0  0  0
    6.5827  -10.4283   13.8876 He  0  0  0  0  0  0  0  0  0  0  0  0
   10.8995   -4.6679   19.6715 He  0  0  0  0  0  0  0  0  0  0  0  0
   11.6469   -3.3116   16.9877 He  0  0  0  0  0  0  0  0  0  0  0  0
   11.4837   -6.7988   20.7663 He  0  0  0  0  0  0  0  0  0  0  0  0
    5.2585  -10.3191   15.8080 He  0  0  0  0  0  0  0  0  0  0  0  0
    5.9719   -7.2249   18.4236 He  0  0  0  0  0  0  0  0  0  0  0  0
    6.1279   -7.1615   16.3351 He  0  0  0  0  0  0  0  0  0  0  0  0
    5.7258   -8.6716   15.4882 He  0  0  0  0  0  0  0  0  0  0  0  0
   12.4432   -2.5663   23.6476 He  0  0  0  0  0  0  0  0  0  0  0  0
    8.5214   -7.7204   19.5155 He  0  0  0  0  0  0  0  0  0  0  0  0
  1  2  2  0
  1 10  3  0
  1 15  3  0
  1 16  4  0
  2  3  2  0
  2 13  2  0
  2 14  4  0
  2 16  4  0
  2 17  2  0
  2 19  3  0
  3  5  2  0
  3  7  1  0
  3  9  2  0
  3 12  3  0
  3 13  4  0
  3 18  4  0
  4  7  2  0
  4 10  3  0
  4 11  2  0
  5  7  2  0
  5  8  4  0
  5 13  3  0
  5 15  1  0
  6  7  4  0
  6 14  1  0
  6 16  2  0
  6 18  2  0
  7 11  4  0
  7 12  3  0
  7 13  1  0
  7 16  4  0
  8 15  3  0
  8 16  2  0
  8 18  2  0
  9 14  3  0
 10 11  2  0
 10 15  3  0
 10 17  4  0
 11 12  4  0
 11 15  3  0
 12 15  4  0
 13 17  1  0
 13 19  4  0
 14 18  1  0
 14 19  3  0
 15 17  2  0
 16 19  3  0
 18 19  1  0
M  END
$$$$

 Created by Python create_sdf_string function

 29 63  0  0  0  0  0  0  0  0999 V2000
    7.4217   -5.4358   14.8473 O   0  0  0  0  0  0  0  0  0  0  0  0
    9.6736   -5.8052   17.8349 N   0  0  0  0  0  0  0  0  0  0  0  0
    6.2791  -10.6147   14.3997 O   0  0  0  0  0  0  0  0  0  0  0  0
   11.7598   -4.3108   19.8134 I   0  0  0  0  0  0  0  0  0  0  0  0
   10.9232   -2.7040   17.3034 C   0  0  0  0  0  0  0  0  0  0  0  0
    5.9048   -9.7371   16.0151 C   0  0  0  0  0  0  0  0  0  0  0  0
   13.6273   -4.3325   23.9420 O   0  0  0  0  0  0  0  0  0  0  0  0
    6.6273   -7.4124   18.1295 C   0  0  0  0  0  0  0  0  0  0  0  0
   10.4555   -3.9284   16.6922 C   0  0  0  0  0  0  0  0  0  0  0  0
   10.2747   -4.5712   15.4868 O   0  0  0  0  0  0  0  0  0  0  0  0
    5.5744   -7.4711   15.8175 C   0  0  0  0  0  0  0  0  0  0  0  0
    9.0159   -6.7046   16.8864 N   0  0  0  0  0  0  0  0  0  0  0  0
   11.3850   -4.1797   21.9265 C   0  0  0  0  0  0  0  0  0  0  0  0
   12.2573   -4.2141   22.8127 C   0  0  0  0  0  0  0  0  0  0  0  0
   12.6178   -3.8742   23.5791 C   0  0  0  0  0  0  0  0  0  0  0  0
   12.7231   -2.5144   24.1782 C   0  0  0  0  0  0  0  0  0  0  0  0
    7.7911   -8.2515   16.4578 C   0  0  0  0  0  0  0  0  0  0  0  0
    8.4730   -8.2008   18.6880 C   0  0  0  0  0  0  0  0  0  0  0  0
   10.5007   -5.5421   19.4375 C   0  0  0  0  0  0  0  0  0  0  0  0
    8.7563   -5.1691   16.6396 C   0  0  0  0  0  0  0  0  0  0  0  0
    7.4602   -8.9332   14.9190 C   0  0  0  0  0  0  0  0  0  0  0  0
    9.4801   -6.0883   19.4233 He  0  0  0  0  0  0  0  0  0  0  0  0
    8.7868   -7.9692   18.0066 He  0  0  0  0  0  0  0  0  0  0  0  0
   11.7109   -4.7076   20.4494 He  0  0  0  0  0  0  0  0  0  0  0  0
   13.7275   -2.2674   25.6026 He  0  0  0  0  0  0  0  0  0  0  0  0
   11.8523   -4.4444   21.0862 He  0  0  0  0  0  0  0  0  0  0  0  0
    6.5096   -7.8966   16.4487 He  0  0  0  0  0  0  0  0  0  0  0  0
    4.8049   -7.2479   16.2800 He  0  0  0  0  0  0  0  0  0  0  0  0
   10.1594   -4.1131   16.3614 He  0  0  0  0  0  0  0  0  0  0  0  0
  1  3  1  0
  1  7  1  0
  1 10  1  0
  1 14  3  0
  1 19  4  0
  2  6  2  0
  2  7  4  0
  2  8  3  0
  2 10  3  0
  2 11  2  0
  2 15  1  0
  2 16  2  0
  2 19  4  0
  3  5  2  0
  3  8  2  0
  3 13  4  0
  3 15  2  0
  3 16  3  0
  3 17  3  0
  3 18  4  0
  4  8  4  0
  4  9  3  0
  4 12  4  0
  4 14  2  0
  4 15  2  0
  4 16  3  0
  4 17  1  0
  5 17  4  0
  5 18  1  0
  5 21  2  0
  6 17  2  0
  7  9  1  0
  7 10  1  0
  7 15  4  0
  7 16  1  0
  7 19  4  0
  8  9  3  0
  8 10  4  0
  8 13  2  0
  8 15  1  0
  8 16  2  0
  8 17  3  0
  8 19  1  0
  8 21  2  0
  9 10  4  0
  9 15  3  0
  9 21  2  0
 10 11  2  0
 10 15  1  0
 10 16  3  0
 11 12  2  0
 11 15  3  0
 11 16  1  0
 11 18  2  0
 13 14  4  0
 13 18  1  0
 13 20  4  0
 14 21  3  0
 15 17  1  0
 16 18  2  0
 17 21  3  0
 18 21  3  0
 20 21  1  0
M  END
$$$$

 Created by Python create_sdf_string function

 29 63  0  0  0  0  0  0  0  0999 V2000
   10.1391   -7.0001   18.7074 C   0  0  0  0  0  0  0  0  0  0  0  0
    8.2297   -3.1618   15.9638 O   0  0  0  0  0  0  0  0  0  0  0  0
   10.1810   -4.5385   18.0331 C   0  0  0  0  0  0  0  0  0  0  0  0
    5.2434  -10.1975   16.0609 O   0  0  0  0  0  0  0  0  0  0  0  0
   12.7779   -4.0893   18.0810 C   0  0  0  0  0  0  0  0  0  0  0  0
   11.0775   -4.9340   19.9363 F   0  0  0  0  0  0  0  0  0  0  0  0
    5.4731   -9.5571   16.6429 C   0  0  0  0  0  0  0  0  0  0  0  0
   13.0388   -5.4824   23.7550 O   0  0  0  0  0  0  0  0  0  0  0  0
    5.9565   -7.4349   18.1228 C   0  0  0  0  0  0  0  0  0  0  0  0
   10.7915   -4.0728   17.3322 C   0  0  0  0  0  0  0  0  0  0  0  0
    8.5798   -4.5609   15.4932 O   0  0  0  0  0  0  0  0  0  0  0  0
    5.9839   -5.8961   16.3499 C   0  0  0  0  0  0  0  0  0  0  0  0
    9.9403   -6.1540   17.6039 S   0  0  0  0  0  0  0  0  0  0  0  0
   11.4986   -4.0307   22.3804 C   0  0  0  0  0  0  0  0  0  0  0  0
    4.7099   -8.2494   17.2514 C   0  0  0  0  0  0  0  0  0  0  0  0
   12.5859   -2.7352   24.4524 C   0  0  0  0  0  0  0  0  0  0  0  0
    8.4130   -8.2971   15.3945 C   0  0  0  0  0  0  0  0  0  0  0  0
    8.8471   -7.5991   17.6783 C   0  0  0  0  0  0  0  0  0  0  0  0
   10.4709   -5.7438   19.2113 C   0  0  0  0  0  0  0  0  0  0  0  0
    8.7433   -5.3095   16.4015 C   0  0  0  0  0  0  0  0  0  0  0  0
    6.9412   -8.8871   14.7148 N   0  0  0  0  0  0  0  0  0  0  0  0
   12.1519   -3.4354   20.0752 He  0  0  0  0  0  0  0  0  0  0  0  0
    8.4560   -7.3824   17.4929 He  0  0  0  0  0  0  0  0  0  0  0  0
   12.3097   -2.4347   24.0887 He  0  0  0  0  0  0  0  0  0  0  0  0
   11.4422   -3.7942   22.0729 He  0  0  0  0  0  0  0  0  0  0  0  0
   12.2827   -4.6406   23.0284 He  0  0  0  0  0  0  0  0  0  0  0  0
    6.5762   -7.9312   15.9190 He  0  0  0  0  0  0  0  0  0  0  0  0
   11.6421   -3.8335   22.7029 He  0  0  0  0  0  0  0  0  0  0  0  0
   10.2399   -4.1985   15.8745 He  0  0  0  0  0  0  0  0  0  0  0  0
  1 14  1  0
  1 18  4  0
  1 19  4  0
  2  5  1  0
  2 11  2  0
  2 12  4  0
  3  5  4  0
  3  9  1  0
  3 13  4  0
  3 16  3  0
  3 19  4  0
  4  5  1  0
  4  7  1  0
  4 12  2  0
  4 13  1  0
  4 19  2  0
  4 20  1  0
  5 11  4  0
  5 13  2  0
  5 18  1  0
  5 19  1  0
  5 20  3  0
  5 21  2  0
  6  7  2  0
  6 11  3  0
  6 14  4  0
  6 15  4  0
  6 17  3  0
  6 18  2  0
  6 20  4  0
  7  8  2  0
  7 15  4  0
  7 16  1  0
  7 21  2  0
  8 10  3  0
  8 13  1  0
  8 14  1  0
  8 17  2  0
  8 18  4  0
  9 11  3  0
  9 16  3  0
  9 17  4  0
 10 11  4  0
 10 15  1  0
 10 17  3  0
 11 12  4  0
 11 13  4  0
 11 15  1  0
 12 15  4  0
 12 16  3  0
 12 19  3  0
 12 20  2  0
 13 18  2  0
 13 19  2  0
 14 15  1  0
 14 21  1  0
 15 16  4  0
 15 18  3  0
 15 21  4  0
 16 18  2  0
 16 21  1  0
 17 21  4  0
 19 21  1  0
M  END
$$$$

 Created by Python create_sdf_string function

 29 71  0  0  0  0  0  0  0  0999 V2000
    8.0525   -3.3109   14.4698 O   0  0  0  0  0  0  0  0  0  0  0  0
   10.7419   -4.7133   17.9833 B   0  0  0  0  0  0  0  0  0  0  0  0
   11.4081   -4.9857   20.4032 F   0  0  0  0  0  0  0  0  0  0  0  0
    8.3870   -8.4429   17.0710 S   0  0  0  0  0  0  0  0  0  0  0  0
   11.0587   -4.1330   19.5717 Se  0  0  0  0  0  0  0  0  0  0  0  0
   11.4913   -4.4109   19.6152 F   0  0  0  0  0  0  0  0  0  0  0  0
   11.4615   -2.6317   22.7010 C   0  0  0  0  0  0  0  0  0  0  0  0
    5.6470   -9.4181   17.8185 C   0  0  0  0  0  0  0  0  0  0  0  0
   13.9096   -5.8303   23.7133 O   0  0  0  0  0  0  0  0  0  0  0  0
    5.9921   -7.2804   17.8744 C   0  0  0  0  0  0  0  0  0  0  0  0
   11.3365   -3.5770   17.1523 C   0  0  0  0  0  0  0  0  0  0  0  0
    8.9097   -3.3586   15.7918 O   0  0  0  0  0  0  0  0  0  0  0  0
    6.9169   -5.9498   16.4600 C   0  0  0  0  0  0  0  0  0  0  0  0
   10.3280   -5.9554   18.2212 C   0  0  0  0  0  0  0  0  0  0  0  0
   12.2747   -4.5637   21.9648 C   0  0  0  0  0  0  0  0  0  0  0  0
   12.3401   -4.2113   22.9595 C   0  0  0  0  0  0  0  0  0  0  0  0
    6.4738   -8.2667   16.9438 P   0  0  0  0  0  0  0  0  0  0  0  0
   12.0783   -2.9817   23.9878 C   0  0  0  0  0  0  0  0  0  0  0  0
    7.8060   -7.4859   18.4587 P   0  0  0  0  0  0  0  0  0  0  0  0
   10.7400   -5.3638   20.0361 Se  0  0  0  0  0  0  0  0  0  0  0  0
    8.9927   -5.9162   16.9451 C   0  0  0  0  0  0  0  0  0  0  0  0
    7.0526   -9.0578   14.8281 N   0  0  0  0  0  0  0  0  0  0  0  0
   10.8360   -7.1029   19.1774 He  0  0  0  0  0  0  0  0  0  0  0  0
    4.3223   -9.8091   16.5742 He  0  0  0  0  0  0  0  0  0  0  0  0
   12.4441   -3.0064   23.2251 He  0  0  0  0  0  0  0  0  0  0  0  0
    4.5283   -9.3819   17.4423 He  0  0  0  0  0  0  0  0  0  0  0  0
   12.7576   -3.5914   23.1632 He  0  0  0  0  0  0  0  0  0  0  0  0
    8.0468   -8.9417   16.2750 He  0  0  0  0  0  0  0  0  0  0  0  0
   10.0358   -4.0329   16.0683 He  0  0  0  0  0  0  0  0  0  0  0  0
  1  6  1  0
  1  7  2  0
  1 10  3  0
  1 12  2  0
  1 13  1  0
  1 16  3  0
  1 17  1  0
  1 19  3  0
  1 21  2  0
  1 22  3  0
  2  4  2  0
  2  6  1  0
  2  7  4  0
  2  8  1  0
  2 11  3  0
  2 12  2  0
  2 14  4  0
  2 15  4  0
  2 16  3  0
  2 18  4  0
  2 20  4  0
  3  4  4  0
  3  5  3  0
  3  6  4  0
  3 15  3  0
  3 18  4  0
  3 21  2  0
  4  6  4  0
  4 10  4  0
  4 14  3  0
  4 18  2  0
  4 21  4  0
  5  9  1  0
  5 11  2  0
  5 13  4  0
  5 17  2  0
  6  8  2  0
  6 11  2  0
  6 15  4  0
  6 21  1  0
  6 22  1  0
  7  9  2  0
  7 14  4  0
  7 15  3  0
  7 17  2  0
  7 20  3  0
  7 21  1  0
  8 12  1  0
  8 13  2  0
  8 20  1  0
  9 15  4  0
  9 16  4  0
  9 19  1  0
 10 13  4  0
 10 18  2  0
 11 12  2  0
 11 21  2  0
 11 22  3  0
 12 18  2  0
 13 15  2  0
 13 16  1  0
 13 18  3  0
 13 21  1  0
 14 15  2  0
 14 17  3  0
 15 16  4  0
 15 17  2  0
 15 18  3  0
 16 19  4  0
 17 21  4  0
 19 22  2  0
M  END
$$$$

 Created by Python create_sdf_string function

 29 60  0  0  0  0  0  0  0  0999 V2000
   10.5682   -7.4647   18.3508 S   0  0  0  0  0  0  0  0  0  0  0  0
    8.3705   -3.4693   15.6510 O   0  0  0  0  0  0  0  0  0  0  0  0
   11.2027   -3.8918   19.6509 O   0  0  0  0  0  0  0  0  0  0  0  0
   11.0826   -4.3144   20.5882 N   0  0  0  0  0  0  0  0  0  0  0  0
   11.0630   -4.0330   20.0595 C   0  0  0  0  0  0  0  0  0  0  0  0
   11.7335   -2.2834   22.8418 O   0  0  0  0  0  0  0  0  0  0  0  0
    4.4076   -9.4566   16.7405 P   0  0  0  0  0  0  0  0  0  0  0  0
    6.9483   -7.4747   18.3914 C   0  0  0  0  0  0  0  0  0  0  0  0
   11.2598   -3.8212   16.9911 C   0  0  0  0  0  0  0  0  0  0  0  0
   11.2344   -5.2812   17.3576 N   0  0  0  0  0  0  0  0  0  0  0  0
   12.6815   -4.5538   22.0176 C   0  0  0  0  0  0  0  0  0  0  0  0
   12.7501   -4.8228   22.9381 C   0  0  0  0  0  0  0  0  0  0  0  0
    6.0758   -8.0886   17.1217 C   0  0  0  0  0  0  0  0  0  0  0  0
    4.8467   -8.5417   17.8877 Cl  0  0  0  0  0  0  0  0  0  0  0  0
   11.6152   -2.4239   23.9866 C   0  0  0  0  0  0  0  0  0  0  0  0
   11.9885   -3.0511   24.2486 C   0  0  0  0  0  0  0  0  0  0  0  0
    8.5998   -9.4508   16.4800 O   0  0  0  0  0  0  0  0  0  0  0  0
    9.0224   -7.5348   18.4275 C   0  0  0  0  0  0  0  0  0  0  0  0
   11.3279   -5.0746   19.6161 C   0  0  0  0  0  0  0  0  0  0  0  0
    8.6316   -5.6800   16.5007 C   0  0  0  0  0  0  0  0  0  0  0  0
    7.5953   -9.6716   15.8623 C   0  0  0  0  0  0  0  0  0  0  0  0
    9.4676   -4.7783   17.8802 He  0  0  0  0  0  0  0  0  0  0  0  0
    5.5442   -9.6888   17.0111 He  0  0  0  0  0  0  0  0  0  0  0  0
    8.0564   -5.8639   17.8069 He  0  0  0  0  0  0  0  0  0  0  0  0
   12.3268   -2.8514   23.5671 He  0  0  0  0  0  0  0  0  0  0  0  0
   12.5780   -4.4915   23.0507 He  0  0  0  0  0  0  0  0  0  0  0  0
    9.6611   -4.5269   14.7393 He  0  0  0  0  0  0  0  0  0  0  0  0
    7.8395   -5.6796   14.6840 He  0  0  0  0  0  0  0  0  0  0  0  0
    8.9110   -4.1874   16.1936 He  0  0  0  0  0  0  0  0  0  0  0  0
  1  5  3  0
  1  6  4  0
  1 10  4  0
  1 11  4  0
  1 15  2  0
  1 19  4  0
  1 20  4  0
  2  5  2  0
  2 10  4  0
  2 13  4  0
  2 16  1  0
  2 19  1  0
  3  5  4  0
  3  7  3  0
  3 10  1  0
  3 16  4  0
  3 17  1  0
  3 21  4  0
  4  5  4  0
  4  8  4  0
  4  9  4  0
  4 17  3  0
  4 19  1  0
  5  7  4  0
  5  9  3  0
  5 11  1  0
  5 15  4  0
  5 17  4  0
  5 21  3  0
  6 16  2  0
  6 20  3  0
  7 12  3  0
  7 13  4  0
  7 14  4  0
  7 15  2  0
  7 16  3  0
  8  9  1  0
  8 17  4  0
  9 10  4  0
  9 18  4  0
  9 20  2  0
 10 12  2  0
 10 13  2  0
 10 19  2  0
 10 20  4  0
 11 14  4  0
 11 15  3  0
 12 13  1  0
 12 14  3  0
 12 20  4  0
 13 18  3  0
 13 21  4  0
 15 16  2  0
 15 19  4  0
 15 21  2  0
 16 18  4  0
 17 19  2  0
 17 21  3  0
 19 21  4  0
 20 21  2  0
M  END
$$$$

 Created by Python create_sdf_string function

 29 52  0  0  0  0  0  0  0  0999 V2000
   10.8421   -7.8099   18.6489 C   0  0  0  0  0  0  0  0  0  0  0  0
    4.8989   -9.1225   15.2566 B   0  0  0  0  0  0  0  0  0  0  0  0
   11.3294   -3.5017   19.5049 O   0  0  0  0  0  0  0  0  0  0  0  0
    9.5324   -6.1339   17.9830 C   0  0  0  0  0  0  0  0  0  0  0  0
   11.6799   -1.6292   22.5655 O   0  0  0  0  0  0  0  0  0  0  0  0
    5.0195   -9.2088   17.0543 N   0  0  0  0  0  0  0  0  0  0  0  0
    6.7102   -7.6210   18.1070 F   0  0  0  0  0  0  0  0  0  0  0  0
   10.4257   -3.9052   17.1524 C   0  0  0  0  0  0  0  0  0  0  0  0
    7.0054   -5.5146   14.7224 F   0  0  0  0  0  0  0  0  0  0  0  0
   10.6823   -4.2390   17.2894 N   0  0  0  0  0  0  0  0  0  0  0  0
   12.4685   -5.0424   21.9770 O   0  0  0  0  0  0  0  0  0  0  0  0
   12.4602   -4.7446   23.5114 C   0  0  0  0  0  0  0  0  0  0  0  0
    7.4323   -8.3893   17.7271 C   0  0  0  0  0  0  0  0  0  0  0  0
    5.3457   -8.9369   17.3115 C   0  0  0  0  0  0  0  0  0  0  0  0
   10.2954   -3.0175   22.7556 C   0  0  0  0  0  0  0  0  0  0  0  0
   11.7102   -2.7997   24.6394 C   0  0  0  0  0  0  0  0  0  0  0  0
    9.1638   -7.5617   16.3842 C   0  0  0  0  0  0  0  0  0  0  0  0
    8.5309   -5.5240   16.4380 C   0  0  0  0  0  0  0  0  0  0  0  0
    7.3736   -9.6646   15.3908 Cl  0  0  0  0  0  0  0  0  0  0  0  0
    9.8737   -3.7274   14.4712 He  0  0  0  0  0  0  0  0  0  0  0  0
    8.4483   -5.0438   17.2957 He  0  0  0  0  0  0  0  0  0  0  0  0
   12.2444   -5.0301   21.4689 He  0  0  0  0  0  0  0  0  0  0  0  0
   12.5962   -3.8306   20.3627 He  0  0  0  0  0  0  0  0  0  0  0  0
   12.3511   -3.0083   23.7803 He  0  0  0  0  0  0  0  0  0  0  0  0
   11.5827   -3.7350   23.7361 He  0  0  0  0  0  0  0  0  0  0  0  0
    9.5635   -4.2396   15.7645 He  0  0  0  0  0  0  0  0  0  0  0  0
    9.5781   -6.0321   18.0611 He  0  0  0  0  0  0  0  0  0  0  0  0
   10.7123   -5.2700   20.0728 He  0  0  0  0  0  0  0  0  0  0  0  0
   10.0101   -4.0829   16.1148 He  0  0  0  0  0  0  0  0  0  0  0  0
  1  2  1  0
  1  4  4  0
  1  6  3  0
  1  9  4  0
  1 12  2  0
  1 16  1  0
  1 18  1  0
  2  5  2  0
  2  6  4  0
  2 11  3  0
  2 15  2  0
  2 18  4  0
  3  6  2  0
  3 10  4  0
  3 12  1  0
  3 15  1  0
  3 18  1  0
  4  8  3  0
  4 11  3  0
  4 17  4  0
  4 18  4  0
  4 19  4  0
  5  9  1  0
  5 11  2  0
  6  7  1  0
  6 13  1  0
  6 16  1  0
  7  8  4  0
  7 11  2  0
  7 14  4  0
  7 15  3  0
  7 16  2  0
  7 18  1  0
  8  9  2  0
  8 10  4  0
  8 19  4  0
  9 13  3  0
  9 14  1  0
  9 19  4  0
 10 14  3  0
 11 12  4  0
 11 17  1  0
 11 19  1  0
 12 13  1  0
 12 17  4  0
 13 17  1  0
 13 18  1  0
 14 15  3  0
 14 16  1  0
 14 18  3  0
 16 17  2  0
 17 19  2  0
M  END
$$$$

 Created by Python create_sdf_string function

 29 56  0  0  0  0  0  0  0  0999 V2000
   10.4970   -7.9813   19.4353 C   0  0  0  0  0  0  0  0  0  0  0  0
   11.0489   -4.0514   19.9624 N   0  0  0  0  0  0  0  0  0  0  0  0
    9.4911   -5.8960   18.1403 C   0  0  0  0  0  0  0  0  0  0  0  0
   10.2773   -5.9946   20.3702 C   0  0  0  0  0  0  0  0  0  0  0  0
   12.4072   -2.7786   22.3298 C   0  0  0  0  0  0  0  0  0  0  0  0
    4.6857   -8.9864   17.2444 C   0  0  0  0  0  0  0  0  0  0  0  0
    6.5049   -7.5388   17.5315 F   0  0  0  0  0  0  0  0  0  0  0  0
   10.4062   -3.9744   16.9045 C   0  0  0  0  0  0  0  0  0  0  0  0
    7.9912   -4.1749   14.7739 C   0  0  0  0  0  0  0  0  0  0  0  0
    8.0971   -5.6067   15.2143 N   0  0  0  0  0  0  0  0  0  0  0  0
   12.2226   -5.6430   21.8327 N   0  0  0  0  0  0  0  0  0  0  0  0
   11.8501   -4.5993   23.1531 C   0  0  0  0  0  0  0  0  0  0  0  0
    7.7090   -7.7227   17.7453 C   0  0  0  0  0  0  0  0  0  0  0  0
    4.3837   -7.9922   16.8370 N   0  0  0  0  0  0  0  0  0  0  0  0
   10.6575   -2.5424   23.0600 C   0  0  0  0  0  0  0  0  0  0  0  0
   11.6879   -3.1561   24.9349 C   0  0  0  0  0  0  0  0  0  0  0  0
    9.7801   -8.7754   16.5209 F   0  0  0  0  0  0  0  0  0  0  0  0
   11.1620   -6.0789   20.3836 C   0  0  0  0  0  0  0  0  0  0  0  0
   11.0420   -3.2502   15.6363 C   0  0  0  0  0  0  0  0  0  0  0  0
    6.6614   -7.8787   16.2960 O   0  0  0  0  0  0  0  0  0  0  0  0
   10.6422   -4.0035   15.8722 He  0  0  0  0  0  0  0  0  0  0  0  0
    9.1233   -7.0405   18.0325 He  0  0  0  0  0  0  0  0  0  0  0  0
    4.7120   -8.7846   16.0702 He  0  0  0  0  0  0  0  0  0  0  0  0
   13.1223   -3.2042   20.7639 He  0  0  0  0  0  0  0  0  0  0  0  0
   13.1849   -3.5261   23.9557 He  0  0  0  0  0  0  0  0  0  0  0  0
   11.1035   -3.9971   23.2250 He  0  0  0  0  0  0  0  0  0  0  0  0
   10.5688   -2.9216   18.1184 He  0  0  0  0  0  0  0  0  0  0  0  0
    9.7565   -6.5592   17.0892 He  0  0  0  0  0  0  0  0  0  0  0  0
    8.3482   -5.8545   16.2725 He  0  0  0  0  0  0  0  0  0  0  0  0
  1  2  2  0
  1  7  4  0
  1  8  2  0
  1 11  4  0
  1 12  1  0
  1 14  3  0
  1 17  2  0
  1 18  4  0
  1 20  1  0
  2  8  1  0
  2 17  3  0
  2 20  1  0
  3  6  3  0
  3 17  3  0
  4  8  3  0
  4  9  4  0
  4 12  2  0
  4 15  4  0
  4 19  1  0
  5  8  1  0
  5  9  1  0
  5 11  1  0
  5 15  3  0
  5 20  2  0
  6 12  3  0
  6 13  4  0
  6 14  4  0
  6 15  1  0
  6 17  2  0
  7 12  2  0
  7 13  4  0
  7 17  3  0
  7 18  1  0
  8 19  4  0
  8 20  1  0
  9 10  1  0
  9 14  3  0
 10 11  4  0
 10 19  4  0
 11 12  4  0
 11 15  4  0
 12 13  2  0
 13 14  3  0
 13 15  2  0
 13 16  2  0
 13 20  4  0
 14 17  4  0
 14 18  3  0
 15 17  4  0
 15 20  1  0
 16 19  4  0
 17 18  4  0
 17 19  3  0
 17 20  4  0
 18 20  2  0
 19 20  1  0
M  END
$$$$

 Created by Python create_sdf_string function

 29 61  0  0  0  0  0  0  0  0999 V2000
   10.3831   -3.8102   15.8728 C   0  0  0  0  0  0  0  0  0  0  0  0
    8.6090   -6.6436   18.3542 C   0  0  0  0  0  0  0  0  0  0  0  0
   11.2942   -4.3809   20.0939 C   0  0  0  0  0  0  0  0  0  0  0  0
    9.3731   -5.2039   17.9503 F   0  0  0  0  0  0  0  0  0  0  0  0
   11.3018   -5.0685   20.1299 N   0  0  0  0  0  0  0  0  0  0  0  0
   11.4402   -3.8612   20.7989 C   0  0  0  0  0  0  0  0  0  0  0  0
   11.2969   -3.5215   24.0776 C   0  0  0  0  0  0  0  0  0  0  0  0
    5.1232   -8.2725   18.0747 C   0  0  0  0  0  0  0  0  0  0  0  0
   10.6839   -3.6497   24.5167 O   0  0  0  0  0  0  0  0  0  0  0  0
    6.5477   -7.8657   18.1581 C   0  0  0  0  0  0  0  0  0  0  0  0
   10.6875   -3.2839   17.7320 C   0  0  0  0  0  0  0  0  0  0  0  0
   11.6427   -4.5598   22.6072 C   0  0  0  0  0  0  0  0  0  0  0  0
   11.4841   -4.5492   23.0431 C   0  0  0  0  0  0  0  0  0  0  0  0
    6.2305   -7.5732   17.4240 C   0  0  0  0  0  0  0  0  0  0  0  0
    4.2241   -8.5650   15.9071 N   0  0  0  0  0  0  0  0  0  0  0  0
   11.7085   -3.1331   22.0676 C   0  0  0  0  0  0  0  0  0  0  0  0
   11.7288   -2.9598   24.9770 C   0  0  0  0  0  0  0  0  0  0  0  0
    8.6407   -8.8819   16.6323 C   0  0  0  0  0  0  0  0  0  0  0  0
    9.4952   -4.0912   16.9791 C   0  0  0  0  0  0  0  0  0  0  0  0
   10.7061   -6.4803   20.0144 C   0  0  0  0  0  0  0  0  0  0  0  0
    8.4114   -7.0010   16.6737 C   0  0  0  0  0  0  0  0  0  0  0  0
   11.5955   -3.3562   16.1383 C   0  0  0  0  0  0  0  0  0  0  0  0
   10.3944   -7.5310   19.1073 He  0  0  0  0  0  0  0  0  0  0  0  0
    5.3628   -9.4290   15.6653 He  0  0  0  0  0  0  0  0  0  0  0  0
   11.8145   -3.5507   22.6148 He  0  0  0  0  0  0  0  0  0  0  0  0
    9.8149   -4.7136   15.7393 He  0  0  0  0  0  0  0  0  0  0  0  0
    7.8346   -5.7982   15.7265 He  0  0  0  0  0  0  0  0  0  0  0  0
    9.9202   -2.3539   18.6557 He  0  0  0  0  0  0  0  0  0  0  0  0
    6.4504   -8.1059   16.3858 He  0  0  0  0  0  0  0  0  0  0  0  0
  1  5  2  0
  1  9  3  0
  1 10  1  0
  1 11  2  0
  1 13  2  0
  1 18  3  0
  1 21  3  0
  2  3  3  0
  2  7  1  0
  2  8  2  0
  2  9  4  0
  2 10  1  0
  2 18  1  0
  2 19  2  0
  2 20  1  0
  3  4  1  0
  3  6  4  0
  3  8  3  0
  3 12  4  0
  3 13  1  0
  3 18  3  0
  3 19  3  0
  3 21  1  0
  4 13  4  0
  4 17  2  0
  4 22  3  0
  5  6  2  0
  5 12  1  0
  5 14  3  0
  5 16  1  0
  5 18  2  0
  5 20  4  0
  6 13  3  0
  6 20  4  0
  8 15  4  0
  8 16  1  0
  8 17  2  0
  8 19  1  0
  9 10  3  0
  9 13  3  0
  9 21  2  0
 10 11  3  0
 10 14  4  0
 10 18  1  0
 10 19  4  0
 10 21  1  0
 11 22  1  0
 12 13  4  0
 12 18  3  0
 12 19  1  0
 12 20  4  0
 13 16  2  0
 14 17  3  0
 14 18  3  0
 17 18  2  0
 17 19  4  0
 18 20  2  0
 18 21  2  0
 19 20  2  0
 19 22  4  0
 21 22  3  0
M  END
$$$$

 Created by Python create_sdf_string function

 29 56  0  0  0  0  0  0  0  0999 V2000
   10.8799   -3.9832   16.2986 P   0  0  0  0  0  0  0  0  0  0  0  0
    9.3107   -6.7010   16.9275 C   0  0  0  0  0  0  0  0  0  0  0  0
    5.2008   -8.6151   14.6532 O   0  0  0  0  0  0  0  0  0  0  0  0
   10.7079   -3.8569   19.5019 C   0  0  0  0  0  0  0  0  0  0  0  0
    8.9192   -3.9977   17.1145 C   0  0  0  0  0  0  0  0  0  0  0  0
    9.5993   -5.4083   20.2450 Cl  0  0  0  0  0  0  0  0  0  0  0  0
   11.8095   -4.1398   20.9266 F   0  0  0  0  0  0  0  0  0  0  0  0
   12.2968   -2.3636   22.7344 C   0  0  0  0  0  0  0  0  0  0  0  0
    5.3917   -7.4008   16.2846 F   0  0  0  0  0  0  0  0  0  0  0  0
   10.7191   -2.7496   24.8626 C   0  0  0  0  0  0  0  0  0  0  0  0
   10.7871   -3.7572   18.4850 C   0  0  0  0  0  0  0  0  0  0  0  0
    8.9880   -4.0388   16.4264 C   0  0  0  0  0  0  0  0  0  0  0  0
    7.8560   -6.2183   16.9681 C   0  0  0  0  0  0  0  0  0  0  0  0
    9.7206   -3.3585   20.3131 N   0  0  0  0  0  0  0  0  0  0  0  0
   10.9078   -5.0075   22.3301 C   0  0  0  0  0  0  0  0  0  0  0  0
   11.5589   -4.9462   22.9271 C   0  0  0  0  0  0  0  0  0  0  0  0
   12.2892   -3.0630   21.9635 N   0  0  0  0  0  0  0  0  0  0  0  0
    8.5841   -8.1168   16.9236 C   0  0  0  0  0  0  0  0  0  0  0  0
   10.5720   -4.7272   17.9378 C   0  0  0  0  0  0  0  0  0  0  0  0
    8.2246   -6.9849   16.4466 C   0  0  0  0  0  0  0  0  0  0  0  0
   10.9306   -3.9616   16.4314 C   0  0  0  0  0  0  0  0  0  0  0  0
    9.1495   -8.6673   19.1537 He  0  0  0  0  0  0  0  0  0  0  0  0
   10.9486   -4.1709   24.4298 He  0  0  0  0  0  0  0  0  0  0  0  0
    7.2398   -7.5360   17.1619 He  0  0  0  0  0  0  0  0  0  0  0  0
    6.3986   -6.8291   17.5955 He  0  0  0  0  0  0  0  0  0  0  0  0
    4.7531   -8.7767   16.6442 He  0  0  0  0  0  0  0  0  0  0  0  0
   11.2585   -2.7382   25.5450 He  0  0  0  0  0  0  0  0  0  0  0  0
   10.4732   -6.5937   19.0833 He  0  0  0  0  0  0  0  0  0  0  0  0
    6.7829   -8.7221   15.6419 He  0  0  0  0  0  0  0  0  0  0  0  0
  1  4  4  0
  1 10  2  0
  1 16  4  0
  2  4  4  0
  2  5  4  0
  2  6  2  0
  2  8  1  0
  2 10  2  0
  2 14  2  0
  2 16  4  0
  2 20  1  0
  3  6  1  0
  3  7  1  0
  3 10  1  0
  3 11  3  0
  3 12  2  0
  3 17  3  0
  4  7  4  0
  4 13  4  0
  4 16  3  0
  4 18  1  0
  4 21  1  0
  5 14  3  0
  6 10  3  0
  6 17  2  0
  6 20  2  0
  7 14  3  0
  7 21  2  0
  8  9  3  0
  8 12  3  0
  8 13  4  0
  8 15  3  0
  8 17  1  0
  8 18  1  0
  9 10  4  0
  9 12  3  0
  9 15  1  0
  9 16  1  0
  9 20  4  0
 10 11  2  0
 10 18  3  0
 11 14  4  0
 11 15  3  0
 13 20  4  0
 14 16  4  0
 14 19  1  0
 14 20  2  0
 15 16  4  0
 15 21  2  0
 16 20  1  0
 17 18  3  0
 17 19  1  0
 18 19  4  0
 18 20  1  0
 19 20  1  0
 19 21  4  0
M  END
$$$$

 Created by Python create_sdf_string function

 29 62  0  0  0  0  0  0  0  0999 V2000
    9.7030   -8.3518   19.6330 P   0  0  0  0  0  0  0  0  0  0  0  0
   10.5836   -4.3960   15.7534 C   0  0  0  0  0  0  0  0  0  0  0  0
    5.3330   -9.4517   15.3318 S   0  0  0  0  0  0  0  0  0  0  0  0
   10.0399   -4.4757   18.7136 C   0  0  0  0  0  0  0  0  0  0  0  0
    9.7789   -4.7636   15.7012 F   0  0  0  0  0  0  0  0  0  0  0  0
   11.1007   -3.2893   22.6379 C   0  0  0  0  0  0  0  0  0  0  0  0
   10.5538   -5.3065   24.8553 F   0  0  0  0  0  0  0  0  0  0  0  0
   12.2815   -2.0300   22.8915 C   0  0  0  0  0  0  0  0  0  0  0  0
   11.5384   -2.4545   25.3545 N   0  0  0  0  0  0  0  0  0  0  0  0
    6.3145   -7.7392   17.2266 F   0  0  0  0  0  0  0  0  0  0  0  0
   11.0320   -4.0830   18.9234 C   0  0  0  0  0  0  0  0  0  0  0  0
    8.9114   -4.1057   14.9454 C   0  0  0  0  0  0  0  0  0  0  0  0
    7.2906   -5.8531   17.3696 Se  0  0  0  0  0  0  0  0  0  0  0  0
   11.2096   -3.5370   20.7855 Cl  0  0  0  0  0  0  0  0  0  0  0  0
   11.4834   -4.5857   22.5177 P   0  0  0  0  0  0  0  0  0  0  0  0
   11.3966   -5.1978   23.5927 C   0  0  0  0  0  0  0  0  0  0  0  0
    4.8009   -7.5479   17.2184 F   0  0  0  0  0  0  0  0  0  0  0  0
    4.6889   -7.7989   16.3646 C   0  0  0  0  0  0  0  0  0  0  0  0
   11.7329   -2.8257   22.6378 F   0  0  0  0  0  0  0  0  0  0  0  0
   10.1684   -8.2743   16.1627 C   0  0  0  0  0  0  0  0  0  0  0  0
   10.6264   -6.6765   19.2321 C   0  0  0  0  0  0  0  0  0  0  0  0
    8.6366   -6.9051   16.8837 C   0  0  0  0  0  0  0  0  0  0  0  0
    6.7216   -8.4654   14.8686 C   0  0  0  0  0  0  0  0  0  0  0  0
    8.7837   -5.8907   16.8304 He  0  0  0  0  0  0  0  0  0  0  0  0
   10.4754   -5.2536   20.7225 He  0  0  0  0  0  0  0  0  0  0  0  0
    3.8590   -7.0119   17.1576 He  0  0  0  0  0  0  0  0  0  0  0  0
   11.2295   -2.4735   26.0252 He  0  0  0  0  0  0  0  0  0  0  0  0
   10.7575   -3.5497   17.8601 He  0  0  0  0  0  0  0  0  0  0  0  0
   12.4154   -3.4087   15.2804 He  0  0  0  0  0  0  0  0  0  0  0  0
  1  3  3  0
  1  5  3  0
  1 10  2  0
  1 18  1  0
  1 20  1  0
  1 23  1  0
  2  4  1  0
  2  5  3  0
  2  6  4  0
  2  9  1  0
  2 16  4  0
  2 19  4  0
  3  5  3  0
  3  8  2  0
  3  9  4  0
  3 10  3  0
  3 18  2  0
  3 19  2  0
  3 20  2  0
  3 21  4  0
  4 15  1  0
  4 22  4  0
  4 23  3  0
  5  6  4  0
  5 14  1  0
  5 15  1  0
  6 15  4  0
  6 20  3  0
  6 22  1  0
  7  9  1  0
  7 10  4  0
  7 18  2  0
  8 18  2  0
  8 19  3  0
  9 10  4  0
  9 13  1  0
  9 16  4  0
  9 20  1  0
  9 21  3  0
  9 23  2  0
 10 15  1  0
 10 20  4  0
 10 22  4  0
 10 23  4  0
 11 12  2  0
 11 14  4  0
 11 19  4  0
 11 21  4  0
 12 14  2  0
 13 14  4  0
 13 17  4  0
 13 20  1  0
 13 22  4  0
 14 15  4  0
 14 22  2  0
 15 21  1  0
 15 23  4  0
 17 19  2  0
 17 22  3  0
 19 20  3  0
 19 21  4  0
 22 23  3  0
M  END
$$$$

 Created by Python create_sdf_string function

 29 46  0  0  0  0  0  0  0  0999 V2000
    9.6137   -8.7815   20.0548 C   0  0  0  0  0  0  0  0  0  0  0  0
    9.6305   -6.0816   17.1507 S   0  0  0  0  0  0  0  0  0  0  0  0
    5.3594   -8.8218   15.1901 C   0  0  0  0  0  0  0  0  0  0  0  0
   10.4482   -4.5046   18.2296 C   0  0  0  0  0  0  0  0  0  0  0  0
   11.6810   -3.4900   23.5962 I   0  0  0  0  0  0  0  0  0  0  0  0
    3.8990   -7.3605   16.6844 C   0  0  0  0  0  0  0  0  0  0  0  0
   10.9968   -3.0300   24.0189 C   0  0  0  0  0  0  0  0  0  0  0  0
    6.2048   -8.4472   16.3491 C   0  0  0  0  0  0  0  0  0  0  0  0
   10.7532   -3.7865   19.0981 C   0  0  0  0  0  0  0  0  0  0  0  0
    9.6667   -4.7718   15.4393 O   0  0  0  0  0  0  0  0  0  0  0  0
    7.5515   -5.4064   16.3658 P   0  0  0  0  0  0  0  0  0  0  0  0
   11.5731   -4.6864   23.6027 C   0  0  0  0  0  0  0  0  0  0  0  0
    6.1054   -7.4524   17.7759 N   0  0  0  0  0  0  0  0  0  0  0  0
   11.3542   -2.4731   25.8062 F   0  0  0  0  0  0  0  0  0  0  0  0
    8.9632   -8.5029   17.9843 C   0  0  0  0  0  0  0  0  0  0  0  0
   11.2804   -3.0760   16.5869 C   0  0  0  0  0  0  0  0  0  0  0  0
   10.2172   -6.3186   19.1607 C   0  0  0  0  0  0  0  0  0  0  0  0
    8.4361   -6.6121   17.5224 C   0  0  0  0  0  0  0  0  0  0  0  0
   11.4044   -4.1228   15.5170 N   0  0  0  0  0  0  0  0  0  0  0  0
    9.5454   -4.0284   16.2085 He  0  0  0  0  0  0  0  0  0  0  0  0
   10.1758   -4.5744   15.6538 He  0  0  0  0  0  0  0  0  0  0  0  0
   11.9100   -6.1264   20.5050 He  0  0  0  0  0  0  0  0  0  0  0  0
   11.7927   -3.6775   22.5724 He  0  0  0  0  0  0  0  0  0  0  0  0
   11.3361   -4.8748   24.5543 He  0  0  0  0  0  0  0  0  0  0  0  0
   10.4750   -3.1948   20.6303 He  0  0  0  0  0  0  0  0  0  0  0  0
   10.8993   -4.4105   21.7863 He  0  0  0  0  0  0  0  0  0  0  0  0
    4.5438   -7.9791   15.8313 He  0  0  0  0  0  0  0  0  0  0  0  0
   11.7279   -1.8778   23.1666 He  0  0  0  0  0  0  0  0  0  0  0  0
    5.7845   -8.4925   14.8697 He  0  0  0  0  0  0  0  0  0  0  0  0
  1  2  3  0
  1  3  4  0
  1  9  3  0
  1 14  4  0
  1 15  4  0
  1 16  2  0
  1 18  2  0
  1 19  2  0
  2  7  4  0
  2 11  4  0
  2 16  4  0
  2 18  1  0
  3  8  1  0
  3 16  4  0
  4  5  3  0
  4  9  1  0
  4 18  1  0
  5 11  4  0
  5 14  3  0
  5 15  4  0
  6  7  4  0
  6  8  3  0
  6 10  2  0
  6 13  4  0
  6 18  3  0
  7  8  3  0
  7  9  3  0
  7 12  2  0
  7 14  4  0
  7 17  4  0
  8 10  4  0
  8 13  4  0
  8 18  2  0
  8 19  1  0
 10 14  3  0
 10 19  2  0
 11 13  4  0
 11 17  4  0
 11 18  4  0
 12 13  3  0
 12 15  3  0
 12 18  4  0
 13 16  4  0
 13 17  1  0
 15 17  4  0
 16 19  1  0
M  END
$$$$

 Created by Python create_sdf_string function

 29 83  0  0  0  0  0  0  0  0999 V2000
    9.7772   -7.8147   18.1002 C   0  0  0  0  0  0  0  0  0  0  0  0
    9.3330   -4.2789   16.3925 Cl  0  0  0  0  0  0  0  0  0  0  0  0
    8.8691   -6.8186   17.7974 N   0  0  0  0  0  0  0  0  0  0  0  0
    4.9424   -9.3104   14.9203 C   0  0  0  0  0  0  0  0  0  0  0  0
    9.3955   -3.1819   16.1062 S   0  0  0  0  0  0  0  0  0  0  0  0
   12.3915   -5.1384   20.1497 N   0  0  0  0  0  0  0  0  0  0  0  0
   10.9934   -4.2942   24.5954 C   0  0  0  0  0  0  0  0  0  0  0  0
   11.3896   -1.8918   23.6367 Br  0  0  0  0  0  0  0  0  0  0  0  0
    4.1790   -7.1110   16.7148 C   0  0  0  0  0  0  0  0  0  0  0  0
   11.5413   -3.3915   25.2250 C   0  0  0  0  0  0  0  0  0  0  0  0
   10.6746   -4.0203   18.8527 C   0  0  0  0  0  0  0  0  0  0  0  0
   10.1071   -4.0696   14.9599 O   0  0  0  0  0  0  0  0  0  0  0  0
    8.4941   -5.9208   17.3305 O   0  0  0  0  0  0  0  0  0  0  0  0
   10.8952   -2.4724   18.6853 C   0  0  0  0  0  0  0  0  0  0  0  0
   11.3436   -4.2530   21.1827 C   0  0  0  0  0  0  0  0  0  0  0  0
   11.4487   -4.8206   23.3382 C   0  0  0  0  0  0  0  0  0  0  0  0
    6.2404   -7.9549   18.1393 C   0  0  0  0  0  0  0  0  0  0  0  0
    4.2341   -8.3158   15.2258 N   0  0  0  0  0  0  0  0  0  0  0  0
   10.5226   -2.1219   23.1036 C   0  0  0  0  0  0  0  0  0  0  0  0
   10.8059   -2.4367   26.0090 F   0  0  0  0  0  0  0  0  0  0  0  0
    8.2933   -7.1596   18.1674 C   0  0  0  0  0  0  0  0  0  0  0  0
   11.9139   -3.3699   16.5814 C   0  0  0  0  0  0  0  0  0  0  0  0
   10.4412   -6.3719   19.4690 C   0  0  0  0  0  0  0  0  0  0  0  0
    8.5755   -6.7315   17.4250 C   0  0  0  0  0  0  0  0  0  0  0  0
   11.5205   -4.0930   16.9180 N   0  0  0  0  0  0  0  0  0  0  0  0
    6.1881   -9.0114   15.9647 O   0  0  0  0  0  0  0  0  0  0  0  0
   10.2000   -6.2410   18.7697 He  0  0  0  0  0  0  0  0  0  0  0  0
   12.5910   -4.0107   21.9998 He  0  0  0  0  0  0  0  0  0  0  0  0
    7.4036   -8.1149   16.8077 He  0  0  0  0  0  0  0  0  0  0  0  0
  1 17  4  0
  1 21  4  0
  2  5  2  0
  2  6  3  0
  2  9  3  0
  2 14  4  0
  2 15  1  0
  2 17  4  0
  2 21  2  0
  3  6  2  0
  3 10  1  0
  3 12  3  0
  3 15  2  0
  3 17  1  0
  3 19  2  0
  3 21  4  0
  3 23  2  0
  3 24  1  0
  4  6  1  0
  4  8  2  0
  4 24  1  0
  4 26  4  0
  5  7  2  0
  5 11  4  0
  5 12  2  0
  5 14  1  0
  5 22  1  0
  5 25  1  0
  6 15  4  0
  6 16  3  0
  6 22  2  0
  6 23  4  0
  7 10  4  0
  7 16  1  0
  7 18  1  0
  7 26  3  0
  8  9  2  0
  8 11  1  0
  8 15  2  0
  8 18  4  0
  8 19  4  0
  8 22  2  0
  8 23  4  0
  8 24  2  0
  8 26  4  0
  9 15  4  0
  9 16  1  0
  9 17  4  0
  9 20  4  0
  9 21  4  0
  9 22  4  0
 10 16  1  0
 10 18  4  0
 10 20  3  0
 10 24  2  0
 11 12  2  0
 11 14  4  0
 11 24  1  0
 11 25  1  0
 12 17  1  0
 12 23  3  0
 12 25  2  0
 12 26  1  0
 13 17  1  0
 13 21  4  0
 13 22  4  0
 13 24  4  0
 14 23  1  0
 15 19  3  0
 15 21  4  0
 16 18  4  0
 16 19  1  0
 16 25  1  0
 17 24  4  0
 17 26  2  0
 18 19  1  0
 18 20  1  0
 18 24  4  0
 19 24  1  0
 21 23  4  0
 21 24  2  0
 22 26  4  0
 23 25  3  0
M  END
$$$$

 Created by Python create_sdf_string function

 29 67  0  0  0  0  0  0  0  0999 V2000
    9.3507   -7.9221   19.0650 C   0  0  0  0  0  0  0  0  0  0  0  0
    8.6054   -3.9336   16.0832 O   0  0  0  0  0  0  0  0  0  0  0  0
    8.8256   -5.5237   17.9663 C   0  0  0  0  0  0  0  0  0  0  0  0
   10.0394   -5.4024   18.4364 P   0  0  0  0  0  0  0  0  0  0  0  0
   10.5486   -3.0246   15.7105 S   0  0  0  0  0  0  0  0  0  0  0  0
   11.9603   -5.3010   20.6700 F   0  0  0  0  0  0  0  0  0  0  0  0
   12.1302   -3.7766   21.5558 C   0  0  0  0  0  0  0  0  0  0  0  0
   11.5126   -4.1625   25.8410 N   0  0  0  0  0  0  0  0  0  0  0  0
    4.0177   -6.8205   16.2899 C   0  0  0  0  0  0  0  0  0  0  0  0
   11.1512   -2.1876   24.2952 C   0  0  0  0  0  0  0  0  0  0  0  0
    7.8212   -8.3151   15.5917 C   0  0  0  0  0  0  0  0  0  0  0  0
    8.3002   -6.3762   17.4097 C   0  0  0  0  0  0  0  0  0  0  0  0
   10.2727   -4.2297   18.7171 C   0  0  0  0  0  0  0  0  0  0  0  0
   11.5427   -4.2783   20.8273 C   0  0  0  0  0  0  0  0  0  0  0  0
   11.4176   -4.3676   23.3650 C   0  0  0  0  0  0  0  0  0  0  0  0
    6.2171   -8.0346   16.6616 F   0  0  0  0  0  0  0  0  0  0  0  0
    4.1819   -8.6706   16.0620 C   0  0  0  0  0  0  0  0  0  0  0  0
   10.7273   -2.3722   26.2771 F   0  0  0  0  0  0  0  0  0  0  0  0
    8.7301   -7.4071   17.7158 C   0  0  0  0  0  0  0  0  0  0  0  0
    8.2813   -6.7870   17.2138 C   0  0  0  0  0  0  0  0  0  0  0  0
   10.9765   -3.2894   17.8596 N   0  0  0  0  0  0  0  0  0  0  0  0
    6.9088   -8.1133   16.3868 C   0  0  0  0  0  0  0  0  0  0  0  0
    4.5039   -8.1689   15.5784 He  0  0  0  0  0  0  0  0  0  0  0  0
    9.8875   -2.2070   24.8519 He  0  0  0  0  0  0  0  0  0  0  0  0
   10.8482   -3.9437   18.5257 He  0  0  0  0  0  0  0  0  0  0  0  0
   10.4106   -3.4819   15.0933 He  0  0  0  0  0  0  0  0  0  0  0  0
   11.6209   -2.4539   22.5288 He  0  0  0  0  0  0  0  0  0  0  0  0
   11.5579   -4.4154   15.5558 He  0  0  0  0  0  0  0  0  0  0  0  0
   11.0324   -6.0021   19.6428 He  0  0  0  0  0  0  0  0  0  0  0  0
  1  2  2  0
  1  3  2  0
  1  5  4  0
  1  6  2  0
  1  7  3  0
  1 10  4  0
  1 12  4  0
  1 14  3  0
  1 15  2  0
  1 17  2  0
  1 19  2  0
  1 20  4  0
  1 22  1  0
  2  3  2  0
  2  5  2  0
  2  9  4  0
  2 11  3  0
  2 12  2  0
  2 14  3  0
  2 16  2  0
  2 17  1  0
  2 18  4  0
  3  4  2  0
  3  5  3  0
  3  6  1  0
  3 12  4  0
  3 20  1  0
  3 21  4  0
  3 22  4  0
  4  5  3  0
  4 11  1  0
  4 17  3  0
  5  9  4  0
  5 20  4  0
  6 10  1  0
  6 12  1  0
  6 14  4  0
  6 17  3  0
  7 15  2  0
  7 18  3  0
  7 20  2  0
  8 10  4  0
  8 12  1  0
  8 13  3  0
  8 14  3  0
  8 15  4  0
  8 18  1  0
  8 21  3  0
  9 12  3  0
  9 17  4  0
  9 19  2  0
  9 21  4  0
 10 11  4  0
 10 18  1  0
 10 20  2  0
 10 21  1  0
 11 16  4  0
 11 21  1  0
 11 22  4  0
 12 19  1  0
 12 20  4  0
 13 14  4  0
 13 18  1  0
 13 19  3  0
 14 17  4  0
 19 20  4  0
 19 21  4  0
M  END
$$$$

 Created by Python create_sdf_string function

 29 64  0  0  0  0  0  0  0  0999 V2000
    7.8792   -4.1555   14.9305 O   0  0  0  0  0  0  0  0  0  0  0  0
    9.9003   -5.4563   18.8771 C   0  0  0  0  0  0  0  0  0  0  0  0
   10.0303   -3.7158   15.9208 S   0  0  0  0  0  0  0  0  0  0  0  0
   11.4375   -5.3326   21.4542 C   0  0  0  0  0  0  0  0  0  0  0  0
   11.1590   -3.7823   22.4491 C   0  0  0  0  0  0  0  0  0  0  0  0
   12.3970   -4.5621   25.2864 C   0  0  0  0  0  0  0  0  0  0  0  0
   11.3477   -2.1409   24.3485 C   0  0  0  0  0  0  0  0  0  0  0  0
    7.4695   -8.6442   15.5903 S   0  0  0  0  0  0  0  0  0  0  0  0
   10.8699   -3.7466   18.7498 C   0  0  0  0  0  0  0  0  0  0  0  0
    8.4084   -5.8502   16.7634 C   0  0  0  0  0  0  0  0  0  0  0  0
   11.4820   -2.9119   20.2184 C   0  0  0  0  0  0  0  0  0  0  0  0
   11.0322   -4.2263   21.2158 C   0  0  0  0  0  0  0  0  0  0  0  0
    6.9686   -7.2720   17.2707 N   0  0  0  0  0  0  0  0  0  0  0  0
    3.4068   -8.3683   15.7777 N   0  0  0  0  0  0  0  0  0  0  0  0
   10.8582   -2.2074   26.4732 F   0  0  0  0  0  0  0  0  0  0  0  0
    8.6452   -7.6773   17.7639 I   0  0  0  0  0  0  0  0  0  0  0  0
   12.3560   -3.6840   15.1424 C   0  0  0  0  0  0  0  0  0  0  0  0
   11.0430   -5.6923   19.7444 C   0  0  0  0  0  0  0  0  0  0  0  0
    7.4709   -7.4238   17.5063 C   0  0  0  0  0  0  0  0  0  0  0  0
    9.6060   -3.6807   17.2721 N   0  0  0  0  0  0  0  0  0  0  0  0
    5.1898   -9.2249   15.9893 C   0  0  0  0  0  0  0  0  0  0  0  0
    9.9668   -7.3982   17.9388 He  0  0  0  0  0  0  0  0  0  0  0  0
    9.6249   -5.3990   18.8497 He  0  0  0  0  0  0  0  0  0  0  0  0
    5.2464   -8.9200   15.3416 He  0  0  0  0  0  0  0  0  0  0  0  0
    5.2855   -6.9172   17.9092 He  0  0  0  0  0  0  0  0  0  0  0  0
   10.0247   -2.3714   24.9724 He  0  0  0  0  0  0  0  0  0  0  0  0
   10.6458   -3.5876   15.0673 He  0  0  0  0  0  0  0  0  0  0  0  0
   11.3379   -3.9977   24.1487 He  0  0  0  0  0  0  0  0  0  0  0  0
   10.7901   -2.5398   22.6372 He  0  0  0  0  0  0  0  0  0  0  0  0
  1  3  2  0
  1  7  4  0
  1  8  2  0
  1  9  3  0
  1 13  1  0
  1 19  2  0
  2  3  3  0
  2  7  1  0
  2  9  1  0
  2 10  3  0
  2 13  2  0
  2 15  1  0
  2 18  2  0
  2 19  1  0
  3 12  1  0
  3 17  1  0
  3 20  1  0
  4  6  2  0
  4 18  1  0
  4 21  3  0
  5  6  3  0
  5  8  2  0
  5  9  2  0
  5 10  1  0
  5 11  2  0
  5 18  2  0
  5 20  2  0
  6  7  4  0
  6  8  2  0
  6 10  1  0
  6 11  4  0
  6 13  2  0
  6 15  1  0
  6 16  1  0
  6 17  2  0
  6 18  4  0
  7  9  3  0
  7 12  4  0
  7 17  4  0
  7 21  4  0
  8 10  3  0
  8 15  4  0
  8 17  3  0
  8 20  3  0
  9 11  4  0
  9 12  3  0
  9 20  1  0
 10 11  3  0
 10 12  3  0
 10 14  2  0
 10 18  4  0
 10 21  3  0
 11 12  4  0
 11 14  3  0
 11 21  1  0
 12 15  1  0
 13 15  3  0
 13 19  3  0
 14 21  3  0
 15 19  2  0
 16 17  1  0
 16 18  3  0
 16 19  2  0
 16 21  1  0
M  END
$$$$

 Created by Python create_sdf_string function

 29 67  0  0  0  0  0  0  0  0999 V2000
    9.5295   -7.5984   17.3755 C   0  0  0  0  0  0  0  0  0  0  0  0
    8.9412   -4.1559   15.0402 O   0  0  0  0  0  0  0  0  0  0  0  0
    8.7290   -5.4955   17.9137 C   0  0  0  0  0  0  0  0  0  0  0  0
    5.5033   -8.9364   16.0920 C   0  0  0  0  0  0  0  0  0  0  0  0
    9.7999   -5.2152   19.8299 F   0  0  0  0  0  0  0  0  0  0  0  0
   10.3137   -4.6294   15.7464 I   0  0  0  0  0  0  0  0  0  0  0  0
   11.7925   -3.5181   22.4117 C   0  0  0  0  0  0  0  0  0  0  0  0
   10.9298   -3.5379   25.1914 C   0  0  0  0  0  0  0  0  0  0  0  0
   10.4374   -2.2049   23.9579 P   0  0  0  0  0  0  0  0  0  0  0  0
    4.8750   -8.4268   16.5455 C   0  0  0  0  0  0  0  0  0  0  0  0
    7.1208   -9.3315   15.4710 C   0  0  0  0  0  0  0  0  0  0  0  0
   10.5280   -3.9463   18.8030 C   0  0  0  0  0  0  0  0  0  0  0  0
    9.6868   -4.2516   13.8893 Cl  0  0  0  0  0  0  0  0  0  0  0  0
    8.4679   -6.6850   17.5182 C   0  0  0  0  0  0  0  0  0  0  0  0
    9.9764   -1.8677   20.0237 C   0  0  0  0  0  0  0  0  0  0  0  0
   11.1152   -3.9135   21.1987 C   0  0  0  0  0  0  0  0  0  0  0  0
   11.5901   -4.4228   23.5727 C   0  0  0  0  0  0  0  0  0  0  0  0
   10.7338   -2.2896   26.4655 F   0  0  0  0  0  0  0  0  0  0  0  0
    9.1006   -7.4372   17.7983 C   0  0  0  0  0  0  0  0  0  0  0  0
   11.8493   -3.7036   16.0285 F   0  0  0  0  0  0  0  0  0  0  0  0
   10.8743   -5.7889   19.8881 C   0  0  0  0  0  0  0  0  0  0  0  0
    7.7845   -7.2746   16.9787 C   0  0  0  0  0  0  0  0  0  0  0  0
    5.3148   -8.6653   15.6300 C   0  0  0  0  0  0  0  0  0  0  0  0
   11.4920   -5.4533   20.0621 He  0  0  0  0  0  0  0  0  0  0  0  0
   11.4866   -2.4198   25.0532 He  0  0  0  0  0  0  0  0  0  0  0  0
    6.6279   -8.0749   16.5680 He  0  0  0  0  0  0  0  0  0  0  0  0
    3.6410   -8.3855   16.0643 He  0  0  0  0  0  0  0  0  0  0  0  0
    9.8146   -1.1848   22.8912 He  0  0  0  0  0  0  0  0  0  0  0  0
   10.2028   -4.2904   18.0618 He  0  0  0  0  0  0  0  0  0  0  0  0
  1  3  4  0
  1  7  4  0
  1 10  3  0
  1 18  2  0
  1 19  4  0
  2  3  3  0
  2  4  4  0
  2  6  3  0
  2 10  3  0
  2 12  2  0
  2 13  1  0
  2 15  1  0
  2 16  1  0
  3  5  4  0
  3 12  4  0
  3 17  3  0
  3 19  1  0
  3 21  4  0
  4 10  3  0
  4 23  4  0
  5 15  2  0
  5 16  3  0
  5 17  4  0
  5 21  4  0
  6  7  1  0
  6 10  1  0
  6 12  3  0
  6 13  2  0
  6 17  1  0
  6 20  1  0
  7  8  2  0
  7  9  2  0
  7 13  3  0
  7 16  1  0
  7 18  2  0
  7 22  4  0
  8 15  4  0
  8 16  3  0
  8 17  4  0
  8 19  3  0
  8 21  1  0
  9 12  1  0
  9 13  4  0
  9 15  3  0
  9 18  4  0
  9 20  2  0
  9 22  1  0
 10 12  3  0
 10 20  1  0
 11 15  3  0
 11 18  3  0
 11 19  4  0
 11 23  3  0
 12 15  4  0
 12 19  3  0
 12 20  2  0
 12 22  4  0
 13 16  4  0
 14 20  3  0
 14 22  4  0
 15 19  3  0
 16 23  2  0
 17 20  3  0
 18 22  1  0
 19 22  4  0
 20 22  1  0
 21 23  2  0
M  END
$$$$

 Created by Python create_sdf_string function

 29 55  0  0  0  0  0  0  0  0999 V2000
    9.0530   -7.7323   19.0052 C   0  0  0  0  0  0  0  0  0  0  0  0
    4.4323   -8.8532   15.2852 C   0  0  0  0  0  0  0  0  0  0  0  0
   10.0878   -5.5357   19.7759 N   0  0  0  0  0  0  0  0  0  0  0  0
    9.8344   -3.9081   16.5570 N   0  0  0  0  0  0  0  0  0  0  0  0
   10.9190   -5.7402   20.8936 C   0  0  0  0  0  0  0  0  0  0  0  0
   10.8723   -3.9787   22.9326 C   0  0  0  0  0  0  0  0  0  0  0  0
   11.6529   -4.0443   25.0098 C   0  0  0  0  0  0  0  0  0  0  0  0
   10.5589   -1.0854   24.9365 C   0  0  0  0  0  0  0  0  0  0  0  0
    5.0806   -7.8865   17.5426 C   0  0  0  0  0  0  0  0  0  0  0  0
   11.3447   -2.0957   26.2670 O   0  0  0  0  0  0  0  0  0  0  0  0
    6.5474   -9.7794   15.4722 C   0  0  0  0  0  0  0  0  0  0  0  0
   10.6070   -3.9023   18.6801 C   0  0  0  0  0  0  0  0  0  0  0  0
   11.0478   -3.0465   19.4416 C   0  0  0  0  0  0  0  0  0  0  0  0
   11.1725   -4.2143   21.0444 C   0  0  0  0  0  0  0  0  0  0  0  0
   11.2949   -4.2634   23.4904 C   0  0  0  0  0  0  0  0  0  0  0  0
    3.9171   -8.8304   16.5929 Br  0  0  0  0  0  0  0  0  0  0  0  0
   10.0037   -3.1352   23.9863 C   0  0  0  0  0  0  0  0  0  0  0  0
    9.1035   -7.8985   17.9089 C   0  0  0  0  0  0  0  0  0  0  0  0
   10.5502   -5.9884   19.5563 F   0  0  0  0  0  0  0  0  0  0  0  0
    8.0709   -7.3980   16.4417 C   0  0  0  0  0  0  0  0  0  0  0  0
    4.2360   -9.0102   16.2838 C   0  0  0  0  0  0  0  0  0  0  0  0
   10.1959   -4.3944   16.6065 He  0  0  0  0  0  0  0  0  0  0  0  0
    9.7111   -5.7194   18.1127 He  0  0  0  0  0  0  0  0  0  0  0  0
   10.7051   -3.8964   14.6617 He  0  0  0  0  0  0  0  0  0  0  0  0
    8.2552   -5.8161   17.3861 He  0  0  0  0  0  0  0  0  0  0  0  0
    5.6103   -7.9125   16.9671 He  0  0  0  0  0  0  0  0  0  0  0  0
   10.6790   -2.1761   26.8292 He  0  0  0  0  0  0  0  0  0  0  0  0
   11.2902   -3.7343   16.3061 He  0  0  0  0  0  0  0  0  0  0  0  0
   10.3426   -3.5113   18.0121 He  0  0  0  0  0  0  0  0  0  0  0  0
  1  3  2  0
  1 13  2  0
  1 15  1  0
  1 18  2  0
  1 20  2  0
  1 21  3  0
  2  7  4  0
  2  9  4  0
  2 15  3  0
  2 19  4  0
  2 21  4  0
  3  9  4  0
  3 11  4  0
  3 16  2  0
  3 18  3  0
  3 19  4  0
  3 21  1  0
  4  5  2  0
  4 10  1  0
  4 12  3  0
  4 14  1  0
  4 17  3  0
  5 12  2  0
  5 14  4  0
  5 19  4  0
  5 21  2  0
  6  8  4  0
  6 13  2  0
  6 14  4  0
  6 15  2  0
  6 17  2  0
  6 19  1  0
  6 21  4  0
  7 10  4  0
  7 13  3  0
  7 21  1  0
  8 17  1  0
  9 13  1  0
  9 17  1  0
 10 12  2  0
 10 17  2  0
 10 21  1  0
 11 15  4  0
 11 19  4  0
 11 21  2  0
 12 13  4  0
 13 14  3  0
 13 17  2  0
 15 17  2  0
 15 18  3  0
 16 18  2  0
 16 19  2  0
 18 19  2  0
 18 21  3  0
 20 21  1  0
M  END
$$$$

 Created by Python create_sdf_string function

 29 34  0  0  0  0  0  0  0  0999 V2000
    9.0667   -8.3862   18.2479 C   0  0  0  0  0  0  0  0  0  0  0  0
   10.1652   -4.1952   15.2329 C   0  0  0  0  0  0  0  0  0  0  0  0
    8.9493   -6.2911   18.0216 C   0  0  0  0  0  0  0  0  0  0  0  0
    4.3831   -9.2285   15.7421 C   0  0  0  0  0  0  0  0  0  0  0  0
   10.5174   -4.8883   18.8894 C   0  0  0  0  0  0  0  0  0  0  0  0
    9.6110   -4.2094   16.9278 O   0  0  0  0  0  0  0  0  0  0  0  0
   10.4169   -4.3238   21.1223 C   0  0  0  0  0  0  0  0  0  0  0  0
   10.7540   -3.9362   19.0631 C   0  0  0  0  0  0  0  0  0  0  0  0
   10.7838   -3.5912   15.6102 C   0  0  0  0  0  0  0  0  0  0  0  0
   10.9290   -3.8769   21.3232 C   0  0  0  0  0  0  0  0  0  0  0  0
   11.5390   -4.3402   23.5607 O   0  0  0  0  0  0  0  0  0  0  0  0
    3.6158   -8.9371   16.5470 C   0  0  0  0  0  0  0  0  0  0  0  0
   11.0242   -2.3359   26.9339 C   0  0  0  0  0  0  0  0  0  0  0  0
    8.8474   -8.2650   16.5809 C   0  0  0  0  0  0  0  0  0  0  0  0
   10.8305   -2.7100   17.6119 O   0  0  0  0  0  0  0  0  0  0  0  0
   10.3340   -5.9556   20.3132 C   0  0  0  0  0  0  0  0  0  0  0  0
    7.5359   -7.3993   17.1368 C   0  0  0  0  0  0  0  0  0  0  0  0
   10.7588   -3.9165   18.5303 F   0  0  0  0  0  0  0  0  0  0  0  0
   11.3326   -3.6358   22.9576 He  0  0  0  0  0  0  0  0  0  0  0  0
   11.8033   -3.5219   24.7670 He  0  0  0  0  0  0  0  0  0  0  0  0
   10.0138   -1.8930   25.3723 He  0  0  0  0  0  0  0  0  0  0  0  0
    5.4321   -8.2238   17.5689 He  0  0  0  0  0  0  0  0  0  0  0  0
   10.4470   -2.3976   25.6470 He  0  0  0  0  0  0  0  0  0  0  0  0
    6.4723   -9.5587   16.2439 He  0  0  0  0  0  0  0  0  0  0  0  0
    7.3041   -6.4145   16.6419 He  0  0  0  0  0  0  0  0  0  0  0  0
   11.9538   -3.2828   21.6691 He  0  0  0  0  0  0  0  0  0  0  0  0
    5.7512   -8.4012   16.7545 He  0  0  0  0  0  0  0  0  0  0  0  0
   10.7187   -3.6601   23.0345 He  0  0  0  0  0  0  0  0  0  0  0  0
    5.0545   -9.4830   15.8417 He  0  0  0  0  0  0  0  0  0  0  0  0
  1  7  3  0
  1 14  4  0
  2  6  4  0
  2  7  1  0
  2  9  1  0
  2 18  4  0
  3 11  1  0
  3 14  3  0
  4  5  4  0
  4 10  3  0
  4 16  3  0
  5  8  2  0
  5 13  3  0
  5 17  4  0
  5 18  1  0
  6 10  2  0
  6 11  3  0
  6 12  3  0
  6 15  2  0
  7  8  2  0
  7  9  2  0
  7 10  4  0
  7 14  2  0
  7 15  2  0
  7 16  4  0
  9 13  2  0
  9 14  4  0
 10 18  3  0
 11 14  2  0
 11 16  1  0
 13 15  2  0
 13 18  4  0
 14 16  2  0
 14 17  4  0
M  END
$$$$

 Created by Python create_sdf_string function

 29 59  0  0  0  0  0  0  0  0999 V2000
   10.6374   -4.0609   15.6968 O   0  0  0  0  0  0  0  0  0  0  0  0
    8.9288   -6.5192   17.9548 O   0  0  0  0  0  0  0  0  0  0  0  0
    4.0915   -9.8233   16.5126 C   0  0  0  0  0  0  0  0  0  0  0  0
   10.2976   -4.4883   15.7533 C   0  0  0  0  0  0  0  0  0  0  0  0
   11.3081   -5.8228   20.7533 S   0  0  0  0  0  0  0  0  0  0  0  0
   10.7537   -4.1694   23.1042 C   0  0  0  0  0  0  0  0  0  0  0  0
   11.2583   -2.8393   25.4820 C   0  0  0  0  0  0  0  0  0  0  0  0
    6.0805   -9.1539   15.7034 Se  0  0  0  0  0  0  0  0  0  0  0  0
   11.1255   -3.2899   19.5614 P   0  0  0  0  0  0  0  0  0  0  0  0
   10.8624   -3.7782   15.4626 C   0  0  0  0  0  0  0  0  0  0  0  0
    7.2570   -5.8699   16.5258 C   0  0  0  0  0  0  0  0  0  0  0  0
   11.3023   -2.6137   21.4953 C   0  0  0  0  0  0  0  0  0  0  0  0
   10.8981   -3.9323   21.3910 C   0  0  0  0  0  0  0  0  0  0  0  0
   11.7111   -4.9949   23.6009 O   0  0  0  0  0  0  0  0  0  0  0  0
    5.3580   -8.5573   17.5915 F   0  0  0  0  0  0  0  0  0  0  0  0
    3.6440   -8.2636   17.1372 C   0  0  0  0  0  0  0  0  0  0  0  0
   10.2893   -3.0491   23.0516 S   0  0  0  0  0  0  0  0  0  0  0  0
   10.8856   -2.5648   26.7885 N   0  0  0  0  0  0  0  0  0  0  0  0
    8.2913   -8.5645   16.7703 S   0  0  0  0  0  0  0  0  0  0  0  0
   11.8593   -3.0996   17.2941 O   0  0  0  0  0  0  0  0  0  0  0  0
   10.8962   -5.2747   19.8478 C   0  0  0  0  0  0  0  0  0  0  0  0
    7.2731   -7.8222   16.8558 C   0  0  0  0  0  0  0  0  0  0  0  0
   10.2527   -7.3192   17.6761 He  0  0  0  0  0  0  0  0  0  0  0  0
    9.5005   -5.3958   17.8226 He  0  0  0  0  0  0  0  0  0  0  0  0
    9.2849   -1.2881   24.9418 He  0  0  0  0  0  0  0  0  0  0  0  0
    5.8052   -8.4936   17.5376 He  0  0  0  0  0  0  0  0  0  0  0  0
   10.4914   -2.7754   25.4952 He  0  0  0  0  0  0  0  0  0  0  0  0
   10.7282   -3.3251   18.4624 He  0  0  0  0  0  0  0  0  0  0  0  0
    5.1285   -9.6322   15.1728 He  0  0  0  0  0  0  0  0  0  0  0  0
  1  8  3  0
  1 10  1  0
  1 12  4  0
  2 11  3  0
  2 16  3  0
  2 18  4  0
  3  4  3  0
  3  5  2  0
  3  6  2  0
  3  8  2  0
  3  9  1  0
  3 11  1  0
  4  6  3  0
  4  7  3  0
  4 10  2  0
  4 14  4  0
  4 22  3  0
  5  7  4  0
  5 13  2  0
  5 15  1  0
  5 17  3  0
  5 21  4  0
  6  7  3  0
  6 10  1  0
  6 12  4  0
  6 13  1  0
  6 14  1  0
  6 19  2  0
  7  8  1  0
  7 14  3  0
  7 15  4  0
  7 17  3  0
  7 18  4  0
  7 20  1  0
  8 10  1  0
  8 12  4  0
  8 15  1  0
  8 18  4  0
  8 20  2  0
 10 13  1  0
 10 14  1  0
 10 18  4  0
 10 22  3  0
 11 13  3  0
 11 20  2  0
 11 21  4  0
 11 22  2  0
 12 13  4  0
 12 14  4  0
 13 17  3  0
 13 18  2  0
 13 20  1  0
 14 16  1  0
 14 22  4  0
 15 17  4  0
 15 20  3  0
 16 21  3  0
 17 20  3  0
 19 22  4  0
M  END
$$$$

 Created by Python create_sdf_string function

 29 67  0  0  0  0  0  0  0  0999 V2000
   10.2765   -6.8491   17.5096 C   0  0  0  0  0  0  0  0  0  0  0  0
   10.1528   -4.1783   15.1099 O   0  0  0  0  0  0  0  0  0  0  0  0
    9.5057   -6.0799   17.1950 C   0  0  0  0  0  0  0  0  0  0  0  0
   10.2750   -5.2622   18.2186 C   0  0  0  0  0  0  0  0  0  0  0  0
    9.3071   -4.3303   15.0816 C   0  0  0  0  0  0  0  0  0  0  0  0
   10.6870   -3.5762   23.3773 C   0  0  0  0  0  0  0  0  0  0  0  0
   11.8466   -3.7683   26.0322 C   0  0  0  0  0  0  0  0  0  0  0  0
    5.9309   -7.6965   17.4630 C   0  0  0  0  0  0  0  0  0  0  0  0
   10.8653   -3.4001   26.1289 C   0  0  0  0  0  0  0  0  0  0  0  0
    4.8285   -9.6660   15.6239 C   0  0  0  0  0  0  0  0  0  0  0  0
   10.7967   -2.9728   19.6635 C   0  0  0  0  0  0  0  0  0  0  0  0
   10.4273   -4.6377   16.2485 C   0  0  0  0  0  0  0  0  0  0  0  0
    7.1636   -5.7229   17.2943 C   0  0  0  0  0  0  0  0  0  0  0  0
   10.5229   -3.3042   21.4549 C   0  0  0  0  0  0  0  0  0  0  0  0
   10.7135   -4.0830   21.7276 C   0  0  0  0  0  0  0  0  0  0  0  0
   11.5719   -4.5074   23.5570 O   0  0  0  0  0  0  0  0  0  0  0  0
    6.7096   -8.7246   17.4250 C   0  0  0  0  0  0  0  0  0  0  0  0
    3.7046   -8.0383   17.1580 C   0  0  0  0  0  0  0  0  0  0  0  0
    9.8788   -1.8430   23.0100 N   0  0  0  0  0  0  0  0  0  0  0  0
   10.5661   -2.6708   26.7260 N   0  0  0  0  0  0  0  0  0  0  0  0
   10.0706   -5.9460   20.0907 C   0  0  0  0  0  0  0  0  0  0  0  0
    7.4893   -7.5057   16.8498 N   0  0  0  0  0  0  0  0  0  0  0  0
   10.9387   -4.1144   19.4079 C   0  0  0  0  0  0  0  0  0  0  0  0
    4.8332   -8.6481   15.8435 C   0  0  0  0  0  0  0  0  0  0  0  0
    3.2257   -9.0654   16.6474 He  0  0  0  0  0  0  0  0  0  0  0  0
   10.7154   -5.2345   20.3947 He  0  0  0  0  0  0  0  0  0  0  0  0
    8.8590   -1.9374   24.7876 He  0  0  0  0  0  0  0  0  0  0  0  0
    8.4670   -8.5552   16.9519 He  0  0  0  0  0  0  0  0  0  0  0  0
   11.3325   -2.3132   18.0729 He  0  0  0  0  0  0  0  0  0  0  0  0
  1  3  4  0
  1  6  3  0
  1  7  4  0
  1 12  3  0
  1 15  4  0
  1 17  4  0
  1 22  1  0
  1 23  4  0
  2  4  3  0
  2  7  4  0
  2  8  2  0
  2 12  1  0
  2 15  2  0
  2 18  1  0
  2 19  2  0
  3  4  1  0
  3 14  1  0
  3 20  2  0
  3 21  4  0
  4 13  1  0
  4 15  4  0
  4 20  3  0
  4 21  4  0
  4 23  1  0
  5 10  3  0
  5 13  4  0
  5 24  1  0
  6 15  1  0
  6 16  1  0
  6 18  1  0
  6 19  1  0
  7  8  4  0
  7 12  2  0
  7 13  2  0
  7 15  1  0
  7 18  3  0
  7 20  2  0
  7 21  3  0
  7 22  2  0
  7 24  3  0
  8  9  1  0
  8 16  4  0
  8 17  3  0
  8 18  4  0
  8 19  2  0
  9 15  3  0
  9 17  3  0
  9 20  1  0
  9 23  4  0
 10 13  3  0
 10 15  1  0
 10 24  4  0
 11 16  4  0
 11 19  2  0
 11 23  4  0
 12 16  2  0
 13 17  3  0
 13 22  4  0
 14 15  4  0
 14 21  2  0
 15 17  4  0
 16 22  1  0
 16 24  2  0
 17 18  1  0
 17 22  1  0
 17 24  3  0
 18 22  1  0
M  END
$$$$

 Created by Python create_sdf_string function

 29 50  0  0  0  0  0  0  0  0999 V2000
    9.8475   -6.6355   18.0853 C   0  0  0  0  0  0  0  0  0  0  0  0
    9.1771   -5.8747   17.1619 C   0  0  0  0  0  0  0  0  0  0  0  0
    3.0813   -8.8374   16.6261 C   0  0  0  0  0  0  0  0  0  0  0  0
   11.4337   -4.9123   19.6657 C   0  0  0  0  0  0  0  0  0  0  0  0
    8.7658   -5.6182   16.2754 C   0  0  0  0  0  0  0  0  0  0  0  0
   11.1449   -5.9231   20.8526 C   0  0  0  0  0  0  0  0  0  0  0  0
   10.8024   -3.1320   23.1289 C   0  0  0  0  0  0  0  0  0  0  0  0
    9.1724   -1.4829   23.6012 C   0  0  0  0  0  0  0  0  0  0  0  0
    5.3747   -9.4338   16.6378 C   0  0  0  0  0  0  0  0  0  0  0  0
   10.7533   -3.0648   19.6804 C   0  0  0  0  0  0  0  0  0  0  0  0
   10.6274   -4.2438   16.3530 C   0  0  0  0  0  0  0  0  0  0  0  0
    7.5003   -6.3749   17.6746 C   0  0  0  0  0  0  0  0  0  0  0  0
   10.8892   -2.6628   20.8502 C   0  0  0  0  0  0  0  0  0  0  0  0
   10.8395   -3.9700   21.8911 C   0  0  0  0  0  0  0  0  0  0  0  0
   11.3915   -4.8947   23.9122 O   0  0  0  0  0  0  0  0  0  0  0  0
    5.9712   -8.8476   17.2634 C   0  0  0  0  0  0  0  0  0  0  0  0
    4.2960   -8.0786   17.6786 C   0  0  0  0  0  0  0  0  0  0  0  0
    9.9920   -2.7404   23.4427 N   0  0  0  0  0  0  0  0  0  0  0  0
   10.2686   -2.6570   26.9855 N   0  0  0  0  0  0  0  0  0  0  0  0
    9.0098   -8.6308   17.0898 C   0  0  0  0  0  0  0  0  0  0  0  0
   10.9382   -3.5311   17.0351 O   0  0  0  0  0  0  0  0  0  0  0  0
   10.4567   -5.2565   19.8018 C   0  0  0  0  0  0  0  0  0  0  0  0
    9.8598   -3.6557   14.7284 He  0  0  0  0  0  0  0  0  0  0  0  0
   10.7705   -4.3975   26.4378 He  0  0  0  0  0  0  0  0  0  0  0  0
    5.4399   -7.8967   17.1875 He  0  0  0  0  0  0  0  0  0  0  0  0
   10.6678   -2.1788   25.9258 He  0  0  0  0  0  0  0  0  0  0  0  0
    7.5082   -7.7827   17.0024 He  0  0  0  0  0  0  0  0  0  0  0  0
   11.5692   -3.1749   19.0895 He  0  0  0  0  0  0  0  0  0  0  0  0
    4.5120   -8.9066   15.6842 He  0  0  0  0  0  0  0  0  0  0  0  0
  1  2  4  0
  1  3  4  0
  1  4  4  0
  1  5  4  0
  1  6  2  0
  1 13  1  0
  1 15  2  0
  1 16  4  0
  1 18  1  0
  1 20  4  0
  2  4  1  0
  2 10  2  0
  2 14  1  0
  3  4  2  0
  3  5  2  0
  3 15  2  0
  3 17  1  0
  3 19  2  0
  3 20  4  0
  4  9  4  0
  4 12  1  0
  4 22  4  0
  5  8  4  0
  5 12  4  0
  5 19  1  0
  5 20  1  0
  6 10  2  0
  6 14  4  0
  6 21  1  0
  7  8  3  0
  7 12  4  0
  7 14  1  0
  7 17  1  0
  7 20  1  0
  8  9  3  0
  8 21  1  0
  9 12  1  0
  9 13  1  0
  9 16  4  0
 10 11  4  0
 10 16  4  0
 11 16  3  0
 11 17  3  0
 11 21  1  0
 13 20  3  0
 13 22  4  0
 15 18  4  0
 15 19  2  0
 18 19  3  0
 20 22  4  0
M  END
$$$$

 Created by Python create_sdf_string function

 29 55  0  0  0  0  0  0  0  0999 V2000
   10.2885   -7.0899   18.4034 N   0  0  0  0  0  0  0  0  0  0  0  0
   10.6019   -4.2806   15.6912 O   0  0  0  0  0  0  0  0  0  0  0  0
    9.6260   -6.1055   17.0844 C   0  0  0  0  0  0  0  0  0  0  0  0
    3.2166   -8.8849   16.3991 C   0  0  0  0  0  0  0  0  0  0  0  0
    9.6188   -4.9461   18.6554 C   0  0  0  0  0  0  0  0  0  0  0  0
   11.6981   -3.2646   23.2559 F   0  0  0  0  0  0  0  0  0  0  0  0
   10.1296   -1.0508   25.0779 C   0  0  0  0  0  0  0  0  0  0  0  0
    4.8675   -6.9371   17.4600 C   0  0  0  0  0  0  0  0  0  0  0  0
    9.6485   -2.8024   26.2542 C   0  0  0  0  0  0  0  0  0  0  0  0
    5.5008   -9.4264   15.3599 C   0  0  0  0  0  0  0  0  0  0  0  0
    7.7343   -7.5461   17.0588 C   0  0  0  0  0  0  0  0  0  0  0  0
   11.1987   -3.2606   20.7450 C   0  0  0  0  0  0  0  0  0  0  0  0
   10.6543   -3.9348   21.6276 C   0  0  0  0  0  0  0  0  0  0  0  0
   11.3496   -4.7416   24.1212 O   0  0  0  0  0  0  0  0  0  0  0  0
    6.6505   -8.6409   17.4053 C   0  0  0  0  0  0  0  0  0  0  0  0
    4.1405   -8.0002   18.0294 C   0  0  0  0  0  0  0  0  0  0  0  0
   10.0496   -2.2367   26.7830 N   0  0  0  0  0  0  0  0  0  0  0  0
    8.2468   -7.5145   17.0964 C   0  0  0  0  0  0  0  0  0  0  0  0
   10.4078   -3.9409   17.2173 N   0  0  0  0  0  0  0  0  0  0  0  0
   11.0512   -5.6160   19.8287 C   0  0  0  0  0  0  0  0  0  0  0  0
    7.9117   -7.6438   17.2203 C   0  0  0  0  0  0  0  0  0  0  0  0
   11.3980   -3.3177   19.6715 P   0  0  0  0  0  0  0  0  0  0  0  0
    5.0967   -9.9754   16.2943 C   0  0  0  0  0  0  0  0  0  0  0  0
    8.3837   -6.0337   16.5266 He  0  0  0  0  0  0  0  0  0  0  0  0
   10.7558   -5.1534   21.5996 He  0  0  0  0  0  0  0  0  0  0  0  0
   10.6147   -4.4610   25.2147 He  0  0  0  0  0  0  0  0  0  0  0  0
   11.2272   -2.9256   19.5618 He  0  0  0  0  0  0  0  0  0  0  0  0
   10.0936   -3.5342   17.7473 He  0  0  0  0  0  0  0  0  0  0  0  0
   10.5142   -2.6790   24.3923 He  0  0  0  0  0  0  0  0  0  0  0  0
  1  3  4  0
  1  6  4  0
  1  9  1  0
  1 18  4  0
  1 21  4  0
  2  3  1  0
  2  4  3  0
  2 22  1  0
  3  5  1  0
  3 16  3  0
  3 20  4  0
  3 22  2  0
  4  6  3  0
  4 13  4  0
  4 19  3  0
  4 22  4  0
  5  7  3  0
  5  9  1  0
  5 17  3  0
  5 22  2  0
  6  7  2  0
  6 13  1  0
  6 14  4  0
  6 15  4  0
  6 19  2  0
  7 19  4  0
  7 20  1  0
  8 16  4  0
  8 21  4  0
  9 14  1  0
  9 17  2  0
 10 14  2  0
 10 15  4  0
 10 17  1  0
 10 21  1  0
 11 13  3  0
 11 18  1  0
 11 23  4  0
 12 14  2  0
 12 18  4  0
 12 23  4  0
 13 19  3  0
 14 19  1  0
 14 22  3  0
 15 20  2  0
 15 21  1  0
 16 17  1  0
 16 18  1  0
 16 21  1  0
 16 22  4  0
 16 23  1  0
 17 18  1  0
 17 22  4  0
 18 20  4  0
 18 21  1  0
M  END
$$$$

 Created by Python create_sdf_string function

 29 47  0  0  0  0  0  0  0  0999 V2000
    3.6869   -8.3364   16.9921 C   0  0  0  0  0  0  0  0  0  0  0  0
    9.9406   -4.9936   18.1497 N   0  0  0  0  0  0  0  0  0  0  0  0
    7.8061   -5.1921   17.1537 C   0  0  0  0  0  0  0  0  0  0  0  0
   11.6525   -4.5532   21.9520 O   0  0  0  0  0  0  0  0  0  0  0  0
   10.9643   -3.8622   22.7743 C   0  0  0  0  0  0  0  0  0  0  0  0
   10.7044   -3.9299   25.6251 N   0  0  0  0  0  0  0  0  0  0  0  0
    5.2711   -8.2079   17.4451 C   0  0  0  0  0  0  0  0  0  0  0  0
   10.2030   -3.3606   26.3367 C   0  0  0  0  0  0  0  0  0  0  0  0
    6.2116   -9.1497   16.5236 C   0  0  0  0  0  0  0  0  0  0  0  0
   10.9907   -2.5078   19.6178 C   0  0  0  0  0  0  0  0  0  0  0  0
   10.7984   -3.6262   17.4069 N   0  0  0  0  0  0  0  0  0  0  0  0
   11.3706   -3.7000   22.0017 C   0  0  0  0  0  0  0  0  0  0  0  0
   11.2079   -4.5026   24.4726 O   0  0  0  0  0  0  0  0  0  0  0  0
    6.5854   -8.3111   16.8068 C   0  0  0  0  0  0  0  0  0  0  0  0
    4.1046   -8.1833   17.2459 C   0  0  0  0  0  0  0  0  0  0  0  0
    9.7856   -2.1422   24.3106 O   0  0  0  0  0  0  0  0  0  0  0  0
    9.8696   -2.6173   26.8794 O   0  0  0  0  0  0  0  0  0  0  0  0
    8.8392   -7.8086   18.1655 S   0  0  0  0  0  0  0  0  0  0  0  0
   10.3201   -3.3614   16.4100 N   0  0  0  0  0  0  0  0  0  0  0  0
   10.5345   -5.1388   19.8511 C   0  0  0  0  0  0  0  0  0  0  0  0
    8.0090   -7.8444   16.9732 C   0  0  0  0  0  0  0  0  0  0  0  0
   10.8382   -3.3831   19.3915 C   0  0  0  0  0  0  0  0  0  0  0  0
    5.1460   -9.5286   15.5782 C   0  0  0  0  0  0  0  0  0  0  0  0
   10.3459   -7.7741   18.3068 He  0  0  0  0  0  0  0  0  0  0  0  0
   10.0262   -3.7181   16.3665 He  0  0  0  0  0  0  0  0  0  0  0  0
   10.0173   -5.7924   17.1994 He  0  0  0  0  0  0  0  0  0  0  0  0
   10.2668   -1.9684   24.3415 He  0  0  0  0  0  0  0  0  0  0  0  0
    7.7615   -7.1815   16.8941 He  0  0  0  0  0  0  0  0  0  0  0  0
   11.0798   -3.2322   20.8878 He  0  0  0  0  0  0  0  0  0  0  0  0
  1  2  1  0
  1  4  2  0
  1  6  4  0
  1 11  3  0
  1 15  4  0
  1 17  1  0
  1 20  4  0
  1 23  4  0
  2  6  4  0
  2 10  3  0
  2 14  3  0
  2 17  1  0
  2 20  4  0
  3  6  1  0
  3  7  3  0
  3 12  4  0
  3 14  3  0
  3 20  3  0
  4  5  3  0
  4 12  4  0
  5 12  1  0
  5 13  4  0
  5 16  4  0
  6  9  4  0
  6 13  4  0
  6 21  3  0
  6 23  3  0
  7 15  4  0
  7 16  4  0
  7 22  2  0
  8 15  4  0
  8 17  2  0
  8 18  1  0
  9 14  4  0
  9 15  1  0
  9 16  3  0
 10 14  4  0
 10 22  4  0
 11 18  3  0
 11 23  3  0
 14 22  1  0
 15 18  1  0
 17 23  3  0
 18 19  2  0
 18 21  4  0
 19 23  3  0
 20 21  2  0
M  END
$$$$

 Created by Python create_sdf_string function

 29 80  0  0  0  0  0  0  0  0999 V2000
   10.1436   -6.8356   18.3461 N   0  0  0  0  0  0  0  0  0  0  0  0
    9.4487   -6.0833   17.5431 C   0  0  0  0  0  0  0  0  0  0  0  0
    4.0099   -9.3952   16.4626 C   0  0  0  0  0  0  0  0  0  0  0  0
    9.7479   -4.6204   18.4627 N   0  0  0  0  0  0  0  0  0  0  0  0
    8.6827   -6.3011   16.9404 C   0  0  0  0  0  0  0  0  0  0  0  0
   10.7280   -4.8136   21.4871 C   0  0  0  0  0  0  0  0  0  0  0  0
   10.0782   -3.3404   23.6932 C   0  0  0  0  0  0  0  0  0  0  0  0
   10.6778   -3.8116   25.5935 N   0  0  0  0  0  0  0  0  0  0  0  0
    9.3591   -2.0363   24.2609 C   0  0  0  0  0  0  0  0  0  0  0  0
    4.9200   -8.3190   16.8898 C   0  0  0  0  0  0  0  0  0  0  0  0
   10.3718   -3.2279   25.4872 C   0  0  0  0  0  0  0  0  0  0  0  0
   10.1039   -3.2581   16.7936 N   0  0  0  0  0  0  0  0  0  0  0  0
    8.3383   -6.6458   16.7308 C   0  0  0  0  0  0  0  0  0  0  0  0
   11.7798   -2.9849   21.5488 C   0  0  0  0  0  0  0  0  0  0  0  0
   10.6844   -3.4094   21.8911 C   0  0  0  0  0  0  0  0  0  0  0  0
   11.0841   -4.3480   24.2250 N   0  0  0  0  0  0  0  0  0  0  0  0
    6.4930   -8.5169   17.2901 C   0  0  0  0  0  0  0  0  0  0  0  0
    4.0838   -7.4551   16.6741 C   0  0  0  0  0  0  0  0  0  0  0  0
    9.8929   -2.6849   23.0566 C   0  0  0  0  0  0  0  0  0  0  0  0
    9.5268   -2.4783   27.2903 O   0  0  0  0  0  0  0  0  0  0  0  0
    9.0262   -8.3206   17.8706 C   0  0  0  0  0  0  0  0  0  0  0  0
   11.3708   -3.9617   16.2381 N   0  0  0  0  0  0  0  0  0  0  0  0
   10.8451   -5.2059   20.6583 C   0  0  0  0  0  0  0  0  0  0  0  0
    7.6467   -7.6934   17.1793 C   0  0  0  0  0  0  0  0  0  0  0  0
   11.3245   -3.5215   19.0806 C   0  0  0  0  0  0  0  0  0  0  0  0
    4.5616   -9.9584   14.9694 C   0  0  0  0  0  0  0  0  0  0  0  0
    8.9282   -3.9568   16.8911 He  0  0  0  0  0  0  0  0  0  0  0  0
    6.0780   -9.0247   15.8483 He  0  0  0  0  0  0  0  0  0  0  0  0
   11.2683   -2.9101   19.7211 He  0  0  0  0  0  0  0  0  0  0  0  0
  1  2  4  0
  1 12  4  0
  1 13  3  0
  1 16  2  0
  1 18  2  0
  2  4  3  0
  2  5  3  0
  2  6  2  0
  2  8  2  0
  2  9  4  0
  2 18  4  0
  2 21  1  0
  3  7  2  0
  3 12  3  0
  3 18  4  0
  3 24  2  0
  3 26  4  0
  4 12  2  0
  4 17  4  0
  4 23  1  0
  4 25  4  0
  5 13  4  0
  5 14  4  0
  5 17  3  0
  5 18  3  0
  5 25  4  0
  6 11  3  0
  6 15  4  0
  6 22  4  0
  7 12  1  0
  7 15  1  0
  7 16  4  0
  7 22  2  0
  8 11  4  0
  8 15  3  0
  8 16  4  0
  8 18  3  0
  9 10  4  0
  9 11  4  0
  9 19  4  0
  9 21  2  0
  9 22  3  0
 10 12  2  0
 10 16  1  0
 10 17  4  0
 10 18  4  0
 10 19  4  0
 10 23  3  0
 10 24  1  0
 11 13  3  0
 11 14  4  0
 11 17  2  0
 11 19  1  0
 11 20  2  0
 12 19  3  0
 12 22  1  0
 12 23  1  0
 12 25  4  0
 12 26  3  0
 13 16  3  0
 13 20  3  0
 13 22  2  0
 13 24  4  0
 13 26  4  0
 14 15  4  0
 14 18  1  0
 14 22  4  0
 14 23  2  0
 14 25  2  0
 15 20  2  0
 16 21  4  0
 17 23  1  0
 17 24  1  0
 19 20  2  0
 21 24  4  0
 22 23  4  0
 22 24  2  0
 22 25  2  0
 24 25  1  0
 24 26  4  0
M  END
$$$$

 Created by Python create_sdf_string function

 29 53  0  0  0  0  0  0  0  0999 V2000
    9.6653   -6.8452   18.0086 N   0  0  0  0  0  0  0  0  0  0  0  0
    9.8336   -2.8603   16.2976 O   0  0  0  0  0  0  0  0  0  0  0  0
   10.3190   -6.2356   17.7635 O   0  0  0  0  0  0  0  0  0  0  0  0
    3.9888   -8.7141   16.1964 C   0  0  0  0  0  0  0  0  0  0  0  0
    8.2673   -5.4716   16.5380 C   0  0  0  0  0  0  0  0  0  0  0  0
   10.9611   -5.1475   20.6522 F   0  0  0  0  0  0  0  0  0  0  0  0
    9.8046   -3.0678   22.6899 C   0  0  0  0  0  0  0  0  0  0  0  0
   10.5960   -4.2300   25.9321 N   0  0  0  0  0  0  0  0  0  0  0  0
    9.1894   -2.9098   25.1216 C   0  0  0  0  0  0  0  0  0  0  0  0
    5.8598   -7.8539   16.7771 C   0  0  0  0  0  0  0  0  0  0  0  0
    6.3530   -9.0463   16.0207 O   0  0  0  0  0  0  0  0  0  0  0  0
   11.3220   -3.0193   19.9796 C   0  0  0  0  0  0  0  0  0  0  0  0
    9.7665   -3.7934   17.3099 C   0  0  0  0  0  0  0  0  0  0  0  0
    7.6536   -6.4320   16.7798 C   0  0  0  0  0  0  0  0  0  0  0  0
   11.2752   -4.0143   24.6101 N   0  0  0  0  0  0  0  0  0  0  0  0
    6.1414   -8.6057   16.9952 S   0  0  0  0  0  0  0  0  0  0  0  0
    4.1245   -8.6270   16.9198 C   0  0  0  0  0  0  0  0  0  0  0  0
   10.2566   -2.0631   23.6724 C   0  0  0  0  0  0  0  0  0  0  0  0
    9.7433   -2.5517   27.0962 F   0  0  0  0  0  0  0  0  0  0  0  0
    8.3237   -7.8808   17.1185 C   0  0  0  0  0  0  0  0  0  0  0  0
   11.3056   -4.0392   17.2080 F   0  0  0  0  0  0  0  0  0  0  0  0
    7.7089   -7.5923   17.2855 C   0  0  0  0  0  0  0  0  0  0  0  0
   10.9957   -4.1758   18.3542 C   0  0  0  0  0  0  0  0  0  0  0  0
    4.7952   -9.2421   15.4331 C   0  0  0  0  0  0  0  0  0  0  0  0
   10.6814   -5.2180   17.9909 He  0  0  0  0  0  0  0  0  0  0  0  0
    9.8272   -1.9308   26.2810 He  0  0  0  0  0  0  0  0  0  0  0  0
   11.8191   -2.7403   21.1374 He  0  0  0  0  0  0  0  0  0  0  0  0
   10.7687   -3.5094   22.0438 He  0  0  0  0  0  0  0  0  0  0  0  0
   10.3740   -5.2906   19.7335 He  0  0  0  0  0  0  0  0  0  0  0  0
  1  3  4  0
  1 10  1  0
  1 12  3  0
  1 20  4  0
  2  3  1  0
  2 13  2  0
  2 14  4  0
  2 15  1  0
  2 23  2  0
  2 24  4  0
  3  5  4  0
  3  6  2  0
  3  9  4  0
  3 10  4  0
  4  7  2  0
  4 12  4  0
  4 14  3  0
  4 17  4  0
  4 20  2  0
  4 24  3  0
  5 14  4  0
  5 15  3  0
  6 10  1  0
  6 14  3  0
  6 20  2  0
  7 11  2  0
  7 15  4  0
  7 18  4  0
  8 10  1  0
  8 15  4  0
  8 21  3  0
  8 23  1  0
  9 18  3  0
 10 16  4  0
 10 17  4  0
 11 16  4  0
 11 23  1  0
 11 24  4  0
 12 23  4  0
 13 14  1  0
 13 19  4  0
 13 21  1  0
 14 15  1  0
 14 20  1  0
 14 22  4  0
 14 23  3  0
 14 24  4  0
 15 20  4  0
 15 23  3  0
 16 21  3  0
 16 23  2  0
 18 22  2  0
 20 22  4  0
M  END
$$$$

 Created by Python create_sdf_string function

 29 47  0  0  0  0  0  0  0  0999 V2000
    9.4640   -3.0174   15.8631 O   0  0  0  0  0  0  0  0  0  0  0  0
    9.9931   -5.9968   17.5574 C   0  0  0  0  0  0  0  0  0  0  0  0
    3.7169   -9.3194   15.5174 C   0  0  0  0  0  0  0  0  0  0  0  0
   10.5446   -4.7948   17.8373 N   0  0  0  0  0  0  0  0  0  0  0  0
    8.7737   -6.0136   17.0497 C   0  0  0  0  0  0  0  0  0  0  0  0
   10.6297   -4.9406   21.9374 C   0  0  0  0  0  0  0  0  0  0  0  0
   10.2939   -3.8876   23.8061 O   0  0  0  0  0  0  0  0  0  0  0  0
    9.4851   -2.3718   24.0877 I   0  0  0  0  0  0  0  0  0  0  0  0
    5.1408   -8.2699   17.4770 C   0  0  0  0  0  0  0  0  0  0  0  0
   10.3065   -3.1153   25.7147 C   0  0  0  0  0  0  0  0  0  0  0  0
    6.3078   -9.1259   16.3577 N   0  0  0  0  0  0  0  0  0  0  0  0
   11.1623   -2.8929   19.6512 C   0  0  0  0  0  0  0  0  0  0  0  0
   10.3261   -4.2148   17.3511 C   0  0  0  0  0  0  0  0  0  0  0  0
    7.3306   -5.8380   16.6116 C   0  0  0  0  0  0  0  0  0  0  0  0
   10.9227   -2.4459   21.4642 C   0  0  0  0  0  0  0  0  0  0  0  0
   11.1844   -3.5065   22.0093 C   0  0  0  0  0  0  0  0  0  0  0  0
   10.9505   -4.2663   24.4001 P   0  0  0  0  0  0  0  0  0  0  0  0
    6.1028   -8.3976   16.8940 S   0  0  0  0  0  0  0  0  0  0  0  0
   10.0926   -2.0752   23.5768 C   0  0  0  0  0  0  0  0  0  0  0  0
    9.5867   -2.3828   27.0085 F   0  0  0  0  0  0  0  0  0  0  0  0
    8.3825   -8.2033   16.8498 C   0  0  0  0  0  0  0  0  0  0  0  0
   10.6754   -5.3011   20.3425 C   0  0  0  0  0  0  0  0  0  0  0  0
    7.6551   -7.4143   17.0032 C   0  0  0  0  0  0  0  0  0  0  0  0
    9.9976   -6.4380   17.8085 He  0  0  0  0  0  0  0  0  0  0  0  0
   10.3433   -4.5241   25.2567 He  0  0  0  0  0  0  0  0  0  0  0  0
    4.3626   -8.1029   17.9679 He  0  0  0  0  0  0  0  0  0  0  0  0
   11.2334   -3.9045   16.4878 He  0  0  0  0  0  0  0  0  0  0  0  0
   11.0328   -4.0072   19.0638 He  0  0  0  0  0  0  0  0  0  0  0  0
    4.9779   -9.3426   14.9174 He  0  0  0  0  0  0  0  0  0  0  0  0
  1 12  3  0
  1 13  2  0
  1 18  1  0
  1 23  4  0
  2  4  1  0
  2 16  2  0
  2 18  3  0
  3  9  4  0
  3 21  4  0
  3 23  2  0
  4  7  4  0
  4 10  4  0
  4 12  1  0
  5  8  4  0
  5 10  2  0
  5 12  1  0
  5 14  4  0
  5 16  2  0
  5 21  1  0
  6 16  4  0
  6 22  4  0
  7  9  1  0
  8 10  4  0
  8 14  4  0
  8 19  2  0
  8 23  1  0
  9 14  3  0
  9 18  4  0
  9 23  1  0
 10 13  1  0
 10 15  2  0
 10 20  1  0
 11 18  4  0
 12 15  4  0
 12 19  3  0
 13 20  2  0
 14 20  3  0
 14 23  4  0
 15 16  4  0
 15 23  4  0
 18 20  3  0
 18 22  4  0
 18 23  2  0
 19 21  1  0
 20 21  2  0
 21 23  3  0
 22 23  4  0
M  END
$$$$

 Created by Python create_sdf_string function

 29 61  0  0  0  0  0  0  0  0999 V2000
    9.8437   -7.3330   16.9925 C   0  0  0  0  0  0  0  0  0  0  0  0
    9.8568   -3.3214   15.8410 O   0  0  0  0  0  0  0  0  0  0  0  0
    4.2093   -8.6227   15.8399 C   0  0  0  0  0  0  0  0  0  0  0  0
   10.6327   -4.7226   18.7780 N   0  0  0  0  0  0  0  0  0  0  0  0
   11.5918   -3.5683   23.3764 C   0  0  0  0  0  0  0  0  0  0  0  0
   10.8710   -3.9096   25.4367 C   0  0  0  0  0  0  0  0  0  0  0  0
    9.2099   -2.9069   25.0376 C   0  0  0  0  0  0  0  0  0  0  0  0
    4.6822   -8.3020   17.1525 C   0  0  0  0  0  0  0  0  0  0  0  0
    9.5987   -2.8523   26.7194 C   0  0  0  0  0  0  0  0  0  0  0  0
    6.1860   -9.2857   15.2968 N   0  0  0  0  0  0  0  0  0  0  0  0
   10.8233   -2.9730   19.3938 C   0  0  0  0  0  0  0  0  0  0  0  0
   10.5516   -3.9825   16.8585 C   0  0  0  0  0  0  0  0  0  0  0  0
    8.0199   -6.0847   17.0683 C   0  0  0  0  0  0  0  0  0  0  0  0
   11.3149   -2.6489   20.9082 C   0  0  0  0  0  0  0  0  0  0  0  0
   10.4877   -3.7056   22.0576 C   0  0  0  0  0  0  0  0  0  0  0  0
   10.9655   -4.3544   24.2265 C   0  0  0  0  0  0  0  0  0  0  0  0
    6.3348   -8.1125   16.5262 C   0  0  0  0  0  0  0  0  0  0  0  0
    3.9540   -8.6995   16.9478 C   0  0  0  0  0  0  0  0  0  0  0  0
   10.0722   -2.0792   24.2823 C   0  0  0  0  0  0  0  0  0  0  0  0
    8.6670   -7.5917   17.3020 C   0  0  0  0  0  0  0  0  0  0  0  0
   11.0468   -5.1902   20.4194 C   0  0  0  0  0  0  0  0  0  0  0  0
    7.7368   -7.5225   16.9702 C   0  0  0  0  0  0  0  0  0  0  0  0
   10.6500   -4.4273   18.8444 C   0  0  0  0  0  0  0  0  0  0  0  0
    5.1450   -9.9433   15.3687 C   0  0  0  0  0  0  0  0  0  0  0  0
   10.0827   -5.5230   17.5003 He  0  0  0  0  0  0  0  0  0  0  0  0
    8.3981   -5.3594   16.1190 He  0  0  0  0  0  0  0  0  0  0  0  0
   10.5660   -4.6619   21.4629 He  0  0  0  0  0  0  0  0  0  0  0  0
    9.4871   -2.6024   27.3788 He  0  0  0  0  0  0  0  0  0  0  0  0
   11.8449   -3.4042   16.1173 He  0  0  0  0  0  0  0  0  0  0  0  0
  1  4  3  0
  1  5  3  0
  1  8  2  0
  1 13  2  0
  1 17  4  0
  1 19  2  0
  1 20  4  0
  2  3  1  0
  2  8  1  0
  2 12  2  0
  2 15  4  0
  2 23  4  0
  3 17  3  0
  3 18  4  0
  3 20  2  0
  3 23  3  0
  3 24  4  0
  4  7  4  0
  4 10  2  0
  4 12  1  0
  5 15  1  0
  5 18  3  0
  5 19  2  0
  5 22  4  0
  6  7  3  0
  6 10  3  0
  6 11  3  0
  6 24  4  0
  7 20  3  0
  7 22  3  0
  7 24  3  0
  8  9  3  0
  8 17  4  0
  8 23  2  0
  9 24  1  0
 10 21  3  0
 10 24  4  0
 11 14  4  0
 11 20  3  0
 11 22  3  0
 11 23  2  0
 12 17  3  0
 12 18  4  0
 12 20  3  0
 12 23  4  0
 12 24  2  0
 13 14  2  0
 13 19  3  0
 13 22  4  0
 14 15  1  0
 14 19  2  0
 14 22  2  0
 15 17  4  0
 15 21  2  0
 16 19  4  0
 16 20  4  0
 17 22  1  0
 17 24  4  0
 19 24  2  0
 20 22  4  0
 21 23  3  0
M  END
$$$$

 Created by Python create_sdf_string function

 29 58  0  0  0  0  0  0  0  0999 V2000
    9.4997   -3.1828   15.7778 F   0  0  0  0  0  0  0  0  0  0  0  0
    9.5558   -5.8376   17.2604 C   0  0  0  0  0  0  0  0  0  0  0  0
    4.3643   -8.7988   15.7536 C   0  0  0  0  0  0  0  0  0  0  0  0
   10.2349   -4.5441   18.3013 N   0  0  0  0  0  0  0  0  0  0  0  0
    8.9262   -5.4574   16.7596 C   0  0  0  0  0  0  0  0  0  0  0  0
   11.8166   -4.9087   21.4120 C   0  0  0  0  0  0  0  0  0  0  0  0
   10.7728   -4.0728   25.1534 C   0  0  0  0  0  0  0  0  0  0  0  0
    9.5134   -1.8287   25.1688 C   0  0  0  0  0  0  0  0  0  0  0  0
    5.0854   -7.8860   17.6602 C   0  0  0  0  0  0  0  0  0  0  0  0
    9.9014   -2.6435   26.1509 C   0  0  0  0  0  0  0  0  0  0  0  0
    6.5302   -9.3735   15.3568 N   0  0  0  0  0  0  0  0  0  0  0  0
   11.1574   -3.2333   19.8145 C   0  0  0  0  0  0  0  0  0  0  0  0
   10.9842   -3.4854   17.0287 C   0  0  0  0  0  0  0  0  0  0  0  0
    7.2627   -6.2214   16.7498 N   0  0  0  0  0  0  0  0  0  0  0  0
   10.3088   -2.7823   20.8861 C   0  0  0  0  0  0  0  0  0  0  0  0
   10.7830   -3.5818   22.0128 C   0  0  0  0  0  0  0  0  0  0  0  0
   11.3084   -4.2184   24.1049 C   0  0  0  0  0  0  0  0  0  0  0  0
    6.5850   -8.2078   16.2203 C   0  0  0  0  0  0  0  0  0  0  0  0
    4.0372   -8.8813   16.6410 C   0  0  0  0  0  0  0  0  0  0  0  0
   10.6397   -2.4835   24.3938 C   0  0  0  0  0  0  0  0  0  0  0  0
    9.3585   -2.8339   27.6728 F   0  0  0  0  0  0  0  0  0  0  0  0
    8.3664   -8.3339   17.5091 C   0  0  0  0  0  0  0  0  0  0  0  0
   11.3492   -3.0305   16.5417 N   0  0  0  0  0  0  0  0  0  0  0  0
   10.6847   -5.4421   20.0420 C   0  0  0  0  0  0  0  0  0  0  0  0
    7.3148   -7.7573   16.8257 C   0  0  0  0  0  0  0  0  0  0  0  0
   10.7999   -3.6122   19.5998 C   0  0  0  0  0  0  0  0  0  0  0  0
    4.7599   -9.3867   15.1179 C   0  0  0  0  0  0  0  0  0  0  0  0
    9.5964   -7.0326   18.4098 He  0  0  0  0  0  0  0  0  0  0  0  0
   10.4227   -3.6356   23.0326 He  0  0  0  0  0  0  0  0  0  0  0  0
  1  4  4  0
  1  8  3  0
  1  9  4  0
  1 11  3  0
  1 12  3  0
  1 22  3  0
  1 25  1  0
  1 26  2  0
  2 12  3  0
  2 14  2  0
  3  6  1  0
  3 19  4  0
  3 20  3  0
  3 27  4  0
  4 13  1  0
  4 17  2  0
  4 20  2  0
  4 26  1  0
  5  6  4  0
  5 11  3  0
  5 14  4  0
  6  9  2  0
  6 11  1  0
  6 12  2  0
  6 13  2  0
  7 10  4  0
  7 17  4  0
  8 10  1  0
  8 13  2  0
  8 20  4  0
  8 26  2  0
  9 16  1  0
  9 18  4  0
 10 21  1  0
 10 23  4  0
 11 18  4  0
 11 27  4  0
 12 15  4  0
 12 26  4  0
 13 18  1  0
 13 19  2  0
 13 23  1  0
 13 25  4  0
 13 27  3  0
 14 16  1  0
 14 25  4  0
 14 27  1  0
 15 16  4  0
 15 20  3  0
 16 27  4  0
 18 19  3  0
 18 25  1  0
 19 24  1  0
 19 25  4  0
 21 22  4  0
 21 26  4  0
 22 25  4  0
 24 27  3  0
M  END
$$$$

 Created by Python create_sdf_string function

 29 49  0  0  0  0  0  0  0  0999 V2000
    9.9537   -6.7894   18.2485 C   0  0  0  0  0  0  0  0  0  0  0  0
    9.7703   -5.8684   16.7316 C   0  0  0  0  0  0  0  0  0  0  0  0
    4.1452   -9.4643   16.1605 C   0  0  0  0  0  0  0  0  0  0  0  0
   10.8921   -4.8097   18.2010 N   0  0  0  0  0  0  0  0  0  0  0  0
    8.4188   -5.5221   17.2113 C   0  0  0  0  0  0  0  0  0  0  0  0
   10.9250   -4.9365   21.7969 Br  0  0  0  0  0  0  0  0  0  0  0  0
   11.0267   -3.4608   23.5412 C   0  0  0  0  0  0  0  0  0  0  0  0
   11.2506   -4.2068   25.8895 N   0  0  0  0  0  0  0  0  0  0  0  0
    9.9648   -2.1318   25.5519 O   0  0  0  0  0  0  0  0  0  0  0  0
    4.7278   -8.4880   17.0836 C   0  0  0  0  0  0  0  0  0  0  0  0
    9.7775   -3.2130   26.0585 C   0  0  0  0  0  0  0  0  0  0  0  0
    5.6273   -8.7982   15.1471 N   0  0  0  0  0  0  0  0  0  0  0  0
   10.7891   -2.8961   19.5490 F   0  0  0  0  0  0  0  0  0  0  0  0
    7.1779   -6.5912   16.7292 N   0  0  0  0  0  0  0  0  0  0  0  0
   11.0623   -2.3460   20.9924 C   0  0  0  0  0  0  0  0  0  0  0  0
   11.1875   -3.6727   21.6983 C   0  0  0  0  0  0  0  0  0  0  0  0
    6.3192   -7.6176   16.3024 C   0  0  0  0  0  0  0  0  0  0  0  0
    3.9963   -8.8447   16.5227 C   0  0  0  0  0  0  0  0  0  0  0  0
    9.8207   -1.9071   24.1731 C   0  0  0  0  0  0  0  0  0  0  0  0
    9.7139   -2.5884   26.8615 F   0  0  0  0  0  0  0  0  0  0  0  0
    8.2024   -7.6698   17.5169 C   0  0  0  0  0  0  0  0  0  0  0  0
   11.8583   -2.8667   16.4371 N   0  0  0  0  0  0  0  0  0  0  0  0
   11.0643   -5.1118   20.2673 C   0  0  0  0  0  0  0  0  0  0  0  0
   10.7103   -4.4134   18.4612 C   0  0  0  0  0  0  0  0  0  0  0  0
    5.2099   -9.3802   15.0312 C   0  0  0  0  0  0  0  0  0  0  0  0
    9.9786   -2.9903   16.1914 He  0  0  0  0  0  0  0  0  0  0  0  0
   11.2432   -4.0130   17.0440 He  0  0  0  0  0  0  0  0  0  0  0  0
   10.9217   -4.4624   24.7477 He  0  0  0  0  0  0  0  0  0  0  0  0
    7.9403   -7.5795   16.8142 He  0  0  0  0  0  0  0  0  0  0  0  0
  1  3  3  0
  1 14  4  0
  1 21  4  0
  2  4  1  0
  2  5  4  0
  2 14  1  0
  2 15  1  0
  2 25  2  0
  3  9  1  0
  3 18  4  0
  3 19  4  0
  3 25  4  0
  4 12  1  0
  4 24  1  0
  5 14  4  0
  6 16  2  0
  6 23  4  0
  6 25  3  0
  7 12  3  0
  7 15  2  0
  7 16  1  0
  7 19  4  0
  8  9  4  0
  8 11  2  0
  8 12  2  0
  8 13  3  0
  8 18  1  0
  9 11  4  0
  9 13  4  0
  9 24  4  0
 10 13  1  0
 10 17  4  0
 10 18  4  0
 10 25  3  0
 12 13  2  0
 12 15  2  0
 12 17  4  0
 12 25  1  0
 13 15  4  0
 13 20  3  0
 13 24  4  0
 14 18  1  0
 14 24  4  0
 15 16  3  0
 17 21  3  0
 18 25  1  0
 19 21  3  0
 19 24  4  0
 23 24  4  0
M  END
$$$$

 Created by Python create_sdf_string function

 29 48  0  0  0  0  0  0  0  0999 V2000
    9.1538   -7.1474   18.3473 C   0  0  0  0  0  0  0  0  0  0  0  0
    9.7637   -3.6104   15.7969 S   0  0  0  0  0  0  0  0  0  0  0  0
    9.8902   -5.9823   17.2908 C   0  0  0  0  0  0  0  0  0  0  0  0
    4.5902   -9.6813   16.1796 C   0  0  0  0  0  0  0  0  0  0  0  0
   10.6108   -4.8412   18.0954 N   0  0  0  0  0  0  0  0  0  0  0  0
   11.1407   -5.0445   21.1712 F   0  0  0  0  0  0  0  0  0  0  0  0
   10.9866   -2.9905   23.7868 C   0  0  0  0  0  0  0  0  0  0  0  0
   10.1417   -1.9837   25.4978 C   0  0  0  0  0  0  0  0  0  0  0  0
    4.9728   -8.4162   17.3531 C   0  0  0  0  0  0  0  0  0  0  0  0
   10.1082   -3.0200   25.8938 C   0  0  0  0  0  0  0  0  0  0  0  0
    6.0922   -9.0410   15.0780 N   0  0  0  0  0  0  0  0  0  0  0  0
   11.0706   -2.8869   19.4230 C   0  0  0  0  0  0  0  0  0  0  0  0
    7.8115   -6.1013   16.5750 N   0  0  0  0  0  0  0  0  0  0  0  0
   10.6790   -2.6847   21.0056 C   0  0  0  0  0  0  0  0  0  0  0  0
   10.8341   -3.8068   21.8715 C   0  0  0  0  0  0  0  0  0  0  0  0
   11.2010   -4.3658   24.2499 C   0  0  0  0  0  0  0  0  0  0  0  0
    6.0901   -8.5689   16.6802 F   0  0  0  0  0  0  0  0  0  0  0  0
    4.0979   -8.7971   16.8786 C   0  0  0  0  0  0  0  0  0  0  0  0
    9.4427   -2.2209   24.3916 C   0  0  0  0  0  0  0  0  0  0  0  0
    9.5326   -2.6576   27.1687 F   0  0  0  0  0  0  0  0  0  0  0  0
    8.4674   -7.4853   17.4229 C   0  0  0  0  0  0  0  0  0  0  0  0
   11.4664   -3.1057   15.9386 N   0  0  0  0  0  0  0  0  0  0  0  0
   11.1047   -5.2455   20.4858 C   0  0  0  0  0  0  0  0  0  0  0  0
   10.4494   -3.5987   18.7863 C   0  0  0  0  0  0  0  0  0  0  0  0
    5.4120   -9.1992   14.7684 C   0  0  0  0  0  0  0  0  0  0  0  0
    8.7030   -5.8928   16.4301 He  0  0  0  0  0  0  0  0  0  0  0  0
   10.8134   -4.8495   26.0138 He  0  0  0  0  0  0  0  0  0  0  0  0
   11.1019   -4.4763   17.2191 He  0  0  0  0  0  0  0  0  0  0  0  0
    7.4378   -7.2965   16.7620 He  0  0  0  0  0  0  0  0  0  0  0  0
  1  3  4  0
  1 11  2  0
  1 16  2  0
  1 21  4  0
  1 24  1  0
  2  9  2  0
  4 17  1  0
  4 18  4  0
  4 21  2  0
  4 22  2  0
  4 25  4  0
  5 18  2  0
  5 24  1  0
  6 12  3  0
  6 14  1  0
  6 15  4  0
  6 18  3  0
  6 23  4  0
  7 16  4  0
  7 19  4  0
  7 25  1  0
  8 10  4  0
  8 19  2  0
  9 17  4  0
  9 18  4  0
  9 25  4  0
 10 20  1  0
 10 24  3  0
 11 17  3  0
 11 25  4  0
 12 14  4  0
 12 24  3  0
 13 15  4  0
 13 17  1  0
 14 15  4  0
 14 18  4  0
 14 19  2  0
 14 20  2  0
 14 25  4  0
 15 17  4  0
 15 19  4  0
 16 18  4  0
 19 20  3  0
 19 24  2  0
 20 25  4  0
 21 24  1  0
 23 24  4  0
 23 25  2  0
M  END
$$$$

 Created by Python create_sdf_string function

 29 60  0  0  0  0  0  0  0  0999 V2000
    9.6283   -7.1769   18.0049 C   0  0  0  0  0  0  0  0  0  0  0  0
    9.0779   -3.8097   15.9793 S   0  0  0  0  0  0  0  0  0  0  0  0
    9.5663   -6.0165   17.3150 C   0  0  0  0  0  0  0  0  0  0  0  0
    4.0453   -8.9367   15.8352 C   0  0  0  0  0  0  0  0  0  0  0  0
   10.6663   -4.8133   18.0060 N   0  0  0  0  0  0  0  0  0  0  0  0
    9.6083   -5.6977   16.2142 C   0  0  0  0  0  0  0  0  0  0  0  0
   10.6671   -5.0620   21.3676 C   0  0  0  0  0  0  0  0  0  0  0  0
   10.7026   -3.5554   22.9973 C   0  0  0  0  0  0  0  0  0  0  0  0
   10.2599   -3.8986   25.8096 C   0  0  0  0  0  0  0  0  0  0  0  0
    5.4197   -8.1469   17.2026 C   0  0  0  0  0  0  0  0  0  0  0  0
   10.1383   -2.8949   26.2002 N   0  0  0  0  0  0  0  0  0  0  0  0
    6.8219   -8.8496   15.5376 N   0  0  0  0  0  0  0  0  0  0  0  0
   11.0388   -2.7448   19.6415 Cl  0  0  0  0  0  0  0  0  0  0  0  0
   11.0660   -3.8322   17.2423 C   0  0  0  0  0  0  0  0  0  0  0  0
    7.6391   -6.2902   16.1488 C   0  0  0  0  0  0  0  0  0  0  0  0
   10.9336   -2.4648   20.6187 C   0  0  0  0  0  0  0  0  0  0  0  0
   10.5849   -3.4006   21.9937 C   0  0  0  0  0  0  0  0  0  0  0  0
   10.7235   -4.3504   24.5491 C   0  0  0  0  0  0  0  0  0  0  0  0
    6.8597   -8.6584   16.5657 C   0  0  0  0  0  0  0  0  0  0  0  0
    4.4318   -8.1625   16.9467 C   0  0  0  0  0  0  0  0  0  0  0  0
    9.9912   -1.8654   23.5760 O   0  0  0  0  0  0  0  0  0  0  0  0
    9.6479   -2.9719   27.3538 F   0  0  0  0  0  0  0  0  0  0  0  0
    8.8542   -7.7634   17.6850 C   0  0  0  0  0  0  0  0  0  0  0  0
   10.9948   -5.3277   20.2959 P   0  0  0  0  0  0  0  0  0  0  0  0
    7.6801   -7.5184   16.6617 C   0  0  0  0  0  0  0  0  0  0  0  0
   10.9490   -4.4965   19.6170 C   0  0  0  0  0  0  0  0  0  0  0  0
    5.1051   -9.9313   15.4529 C   0  0  0  0  0  0  0  0  0  0  0  0
    9.6784   -1.7943   25.2162 He  0  0  0  0  0  0  0  0  0  0  0  0
   11.6617   -3.4373   16.1549 He  0  0  0  0  0  0  0  0  0  0  0  0
  1 12  2  0
  1 16  4  0
  2  6  1  0
  2 14  2  0
  2 17  2  0
  2 20  1  0
  3  5  1  0
  3  6  4  0
  3  7  3  0
  3  9  3  0
  4 12  3  0
  4 13  3  0
  4 20  4  0
  4 27  1  0
  5  8  3  0
  5 12  4  0
  5 14  1  0
  5 20  2  0
  5 23  4  0
  5 26  1  0
  6 12  2  0
  6 15  4  0
  7  9  2  0
  7 12  1  0
  7 17  2  0
  7 23  2  0
  7 24  4  0
  8 15  4  0
  8 17  1  0
  8 18  2  0
  8 20  3  0
  8 21  4  0
  9 11  4  0
  9 12  1  0
  9 18  4  0
  9 19  3  0
  9 21  2  0
  9 25  4  0
  9 26  3  0
 10 18  2  0
 10 19  4  0
 10 20  4  0
 10 26  2  0
 11 22  1  0
 12 19  4  0
 12 22  1  0
 12 27  4  0
 13 18  2  0
 13 26  4  0
 14 17  1  0
 14 22  3  0
 15 16  1  0
 15 25  4  0
 16 17  4  0
 19 25  1  0
 19 27  3  0
 21 24  1  0
 23 25  4  0
 24 26  4  0
 24 27  3  0
M  END
$$$$

 Created by Python create_sdf_string function

 29 49  0  0  0  0  0  0  0  0999 V2000
    9.9539   -7.1620   18.2986 C   0  0  0  0  0  0  0  0  0  0  0  0
    9.3987   -4.3321   15.6239 O   0  0  0  0  0  0  0  0  0  0  0  0
    9.5347   -5.7679   17.4070 C   0  0  0  0  0  0  0  0  0  0  0  0
    3.9024   -9.0090   16.0353 C   0  0  0  0  0  0  0  0  0  0  0  0
   10.4623   -4.6338   18.0518 N   0  0  0  0  0  0  0  0  0  0  0  0
    9.1614   -5.4551   16.4499 C   0  0  0  0  0  0  0  0  0  0  0  0
   10.3037   -5.0911   21.2292 C   0  0  0  0  0  0  0  0  0  0  0  0
   10.8046   -3.2297   23.1183 C   0  0  0  0  0  0  0  0  0  0  0  0
   10.3995   -3.8081   25.6900 I   0  0  0  0  0  0  0  0  0  0  0  0
    9.8224   -2.2375   24.8176 C   0  0  0  0  0  0  0  0  0  0  0  0
    5.3966   -7.7921   17.1415 C   0  0  0  0  0  0  0  0  0  0  0  0
    6.5138   -9.0454   15.4386 N   0  0  0  0  0  0  0  0  0  0  0  0
   11.0448   -2.7717   19.7512 C   0  0  0  0  0  0  0  0  0  0  0  0
   10.2125   -4.0915   16.8824 O   0  0  0  0  0  0  0  0  0  0  0  0
   11.2833   -2.6076   20.1145 C   0  0  0  0  0  0  0  0  0  0  0  0
   10.9020   -3.4696   21.7183 C   0  0  0  0  0  0  0  0  0  0  0  0
   10.8636   -4.5052   24.4393 C   0  0  0  0  0  0  0  0  0  0  0  0
    6.7586   -8.0125   16.2867 C   0  0  0  0  0  0  0  0  0  0  0  0
    4.1066   -8.4945   17.5571 C   0  0  0  0  0  0  0  0  0  0  0  0
    9.6485   -2.1993   23.7984 C   0  0  0  0  0  0  0  0  0  0  0  0
    9.5380   -2.7243   27.5098 F   0  0  0  0  0  0  0  0  0  0  0  0
    9.2707   -8.3137   17.1756 C   0  0  0  0  0  0  0  0  0  0  0  0
   10.8401   -5.2972   20.0267 C   0  0  0  0  0  0  0  0  0  0  0  0
    7.7792   -7.4362   16.8188 C   0  0  0  0  0  0  0  0  0  0  0  0
   11.0461   -4.8341   19.2577 C   0  0  0  0  0  0  0  0  0  0  0  0
    4.5881   -9.7138   15.5379 C   0  0  0  0  0  0  0  0  0  0  0  0
    9.7918   -2.7305   26.3547 He  0  0  0  0  0  0  0  0  0  0  0  0
    7.8343   -6.3943   16.1260 He  0  0  0  0  0  0  0  0  0  0  0  0
   11.4446   -3.2607   16.0598 He  0  0  0  0  0  0  0  0  0  0  0  0
  1  3  4  0
  1  8  3  0
  1 15  4  0
  1 18  4  0
  1 22  4  0
  1 25  1  0
  2  6  4  0
  2 14  2  0
  2 15  4  0
  2 25  1  0
  2 26  2  0
  3  5  1  0
  3 15  4  0
  4 10  2  0
  4 18  1  0
  4 19  4  0
  4 26  4  0
  5 14  1  0
  5 25  1  0
  6  9  1  0
  6 12  1  0
  6 13  3  0
  6 25  3  0
  7 10  3  0
  7 11  3  0
  7 16  3  0
  7 18  4  0
  7 22  1  0
  7 23  4  0
  8 12  2  0
  8 16  1  0
  8 17  4  0
  8 18  2  0
  8 20  4  0
  9 17  4  0
 11 18  4  0
 11 19  4  0
 12 18  4  0
 12 21  3  0
 12 26  2  0
 13 15  4  0
 13 25  4  0
 15 26  2  0
 16 21  3  0
 18 20  4  0
 18 24  1  0
 20 25  1  0
 22 24  3  0
 23 25  4  0
M  END
$$$$

 Created by Python create_sdf_string function

 29 56  0  0  0  0  0  0  0  0999 V2000
    9.6639   -7.4974   18.1248 C   0  0  0  0  0  0  0  0  0  0  0  0
    9.2976   -3.9762   15.6706 N   0  0  0  0  0  0  0  0  0  0  0  0
    9.4399   -5.8970   17.9787 C   0  0  0  0  0  0  0  0  0  0  0  0
    4.2014   -9.0385   16.8656 C   0  0  0  0  0  0  0  0  0  0  0  0
   10.3218   -4.7120   17.1781 N   0  0  0  0  0  0  0  0  0  0  0  0
    8.6265   -5.7581   16.2881 C   0  0  0  0  0  0  0  0  0  0  0  0
   10.6246   -5.1188   21.0665 C   0  0  0  0  0  0  0  0  0  0  0  0
   10.8612   -3.2315   23.1239 C   0  0  0  0  0  0  0  0  0  0  0  0
   10.7387   -3.8353   24.6960 C   0  0  0  0  0  0  0  0  0  0  0  0
    9.9300   -1.7878   24.9332 C   0  0  0  0  0  0  0  0  0  0  0  0
    5.4175   -7.5668   17.5562 C   0  0  0  0  0  0  0  0  0  0  0  0
    9.6763   -2.9035   25.7898 C   0  0  0  0  0  0  0  0  0  0  0  0
    6.1442   -9.2032   15.2428 O   0  0  0  0  0  0  0  0  0  0  0  0
   10.7660   -2.9871   19.7052 C   0  0  0  0  0  0  0  0  0  0  0  0
   10.3197   -3.9135   16.8988 C   0  0  0  0  0  0  0  0  0  0  0  0
   10.7792   -3.8818   21.8924 C   0  0  0  0  0  0  0  0  0  0  0  0
   10.7247   -4.3792   24.5289 C   0  0  0  0  0  0  0  0  0  0  0  0
    6.9806   -8.2466   16.3627 C   0  0  0  0  0  0  0  0  0  0  0  0
    4.7124   -8.2656   17.2121 C   0  0  0  0  0  0  0  0  0  0  0  0
   10.2877   -2.3433   23.6974 C   0  0  0  0  0  0  0  0  0  0  0  0
    9.6476   -2.6882   27.3399 F   0  0  0  0  0  0  0  0  0  0  0  0
    8.9412   -7.9708   17.6861 C   0  0  0  0  0  0  0  0  0  0  0  0
   11.9717   -3.4392   16.3879 N   0  0  0  0  0  0  0  0  0  0  0  0
   10.8078   -5.1734   20.1449 C   0  0  0  0  0  0  0  0  0  0  0  0
    7.9643   -7.5401   16.6410 C   0  0  0  0  0  0  0  0  0  0  0  0
   10.4524   -4.1938   19.2060 C   0  0  0  0  0  0  0  0  0  0  0  0
    7.7790   -6.5358   15.6529 He  0  0  0  0  0  0  0  0  0  0  0  0
   10.4234   -2.8175   21.2011 He  0  0  0  0  0  0  0  0  0  0  0  0
    4.7861   -9.3596   15.6025 He  0  0  0  0  0  0  0  0  0  0  0  0
  1  3  4  0
  1 11  4  0
  1 22  4  0
  2  5  3  0
  2  6  1  0
  2 15  1  0
  2 16  1  0
  2 25  2  0
  3  5  1  0
  3  6  4  0
  3  7  3  0
  3 22  1  0
  3 26  4  0
  4 19  4  0
  4 22  3  0
  4 25  3  0
  5  9  2  0
  5 12  1  0
  5 15  1  0
  5 17  3  0
  5 26  1  0
  6 15  2  0
  6 17  4  0
  6 20  3  0
  6 26  4  0
  7 10  3  0
  7 11  3  0
  7 22  4  0
  7 24  4  0
  8 10  1  0
  8 16  1  0
  8 20  4  0
  9 12  4  0
  9 17  4  0
  9 18  4  0
  9 22  4  0
 10 12  4  0
 10 20  4  0
 10 24  3  0
 12 21  1  0
 12 24  1  0
 13 18  1  0
 13 25  4  0
 14 26  4  0
 15 23  1  0
 17 19  1  0
 17 22  3  0
 18 19  4  0
 18 23  2  0
 18 25  1  0
 19 21  3  0
 19 23  4  0
 20 24  1  0
 21 26  3  0
 22 25  4  0
 24 26  4  0
M  END
$$$$

 Created by Python create_sdf_string function

 29 47  0  0  0  0  0  0  0  0999 V2000
    9.2245   -7.3380   17.9321 C   0  0  0  0  0  0  0  0  0  0  0  0
    9.5846   -4.1605   15.9240 F   0  0  0  0  0  0  0  0  0  0  0  0
    9.4596   -6.1645   17.5171 C   0  0  0  0  0  0  0  0  0  0  0  0
    4.2902   -9.2690   16.2181 P   0  0  0  0  0  0  0  0  0  0  0  0
   10.2280   -5.3309   17.8533 N   0  0  0  0  0  0  0  0  0  0  0  0
    8.6996   -5.3380   16.3818 C   0  0  0  0  0  0  0  0  0  0  0  0
   11.2216   -5.0150   21.3306 C   0  0  0  0  0  0  0  0  0  0  0  0
   11.0283   -3.1925   23.3115 C   0  0  0  0  0  0  0  0  0  0  0  0
   10.2185   -3.8379   25.5443 C   0  0  0  0  0  0  0  0  0  0  0  0
    5.3017   -7.9200   17.3226 C   0  0  0  0  0  0  0  0  0  0  0  0
   10.0383   -3.1966   26.0174 C   0  0  0  0  0  0  0  0  0  0  0  0
    6.4068   -9.5274   15.5462 C   0  0  0  0  0  0  0  0  0  0  0  0
   10.9716   -3.2113   19.3652 C   0  0  0  0  0  0  0  0  0  0  0  0
   10.5301   -3.4619   16.7047 C   0  0  0  0  0  0  0  0  0  0  0  0
    8.2890   -6.3660   15.7989 C   0  0  0  0  0  0  0  0  0  0  0  0
   10.8426   -2.7498   20.8191 C   0  0  0  0  0  0  0  0  0  0  0  0
   10.6528   -3.7997   21.8319 C   0  0  0  0  0  0  0  0  0  0  0  0
   10.8432   -4.1124   24.2064 F   0  0  0  0  0  0  0  0  0  0  0  0
    6.6855   -7.8147   16.2926 Cl  0  0  0  0  0  0  0  0  0  0  0  0
    4.9370   -8.2182   17.4047 C   0  0  0  0  0  0  0  0  0  0  0  0
   10.1157   -2.2851   23.6709 C   0  0  0  0  0  0  0  0  0  0  0  0
    9.7579   -2.5597   27.2656 F   0  0  0  0  0  0  0  0  0  0  0  0
    8.8565   -8.2023   17.9051 C   0  0  0  0  0  0  0  0  0  0  0  0
   11.3531   -3.0617   16.0427 N   0  0  0  0  0  0  0  0  0  0  0  0
   10.6203   -5.4500   19.8731 C   0  0  0  0  0  0  0  0  0  0  0  0
    7.8659   -7.5627   16.4877 C   0  0  0  0  0  0  0  0  0  0  0  0
   10.6159   -4.3143   18.8161 C   0  0  0  0  0  0  0  0  0  0  0  0
    5.1380   -9.2014   15.6009 C   0  0  0  0  0  0  0  0  0  0  0  0
    9.8248   -1.2901   24.8028 He  0  0  0  0  0  0  0  0  0  0  0  0
  1  3  4  0
  1 14  2  0
  1 22  1  0
  1 23  4  0
  2  4  2  0
  2  6  1  0
  3  5  1  0
  3 22  1  0
  4 20  4  0
  4 28  4  0
  5  9  2  0
  5 27  1  0
  6  8  1  0
  6 15  4  0
  6 16  3  0
  7 17  4  0
  7 22  3  0
  7 25  4  0
  8 16  1  0
  8 17  1  0
  8 18  4  0
  8 21  4  0
  9 11  4  0
 10 19  4  0
 10 20  4  0
 10 23  2  0
 11 22  1  0
 11 26  1  0
 12 17  1  0
 12 28  4  0
 13 23  1  0
 14 16  4  0
 14 17  1  0
 14 18  3  0
 14 22  1  0
 14 24  1  0
 15 19  4  0
 15 26  4  0
 15 27  4  0
 16 27  3  0
 17 20  3  0
 17 24  4  0
 17 28  3  0
 19 20  3  0
 19 26  1  0
 21 27  3  0
 23 26  4  0
M  END
$$$$

 Created by Python create_sdf_string function

 29 53  0  0  0  0  0  0  0  0999 V2000
    9.3460   -7.1818   17.7130 C   0  0  0  0  0  0  0  0  0  0  0  0
    9.2688   -4.0837   15.6384 S   0  0  0  0  0  0  0  0  0  0  0  0
    9.1990   -6.0038   17.0266 C   0  0  0  0  0  0  0  0  0  0  0  0
    3.7276   -9.2778   16.2332 N   0  0  0  0  0  0  0  0  0  0  0  0
   10.3832   -4.4956   18.2368 N   0  0  0  0  0  0  0  0  0  0  0  0
    9.3470   -5.6750   16.1813 C   0  0  0  0  0  0  0  0  0  0  0  0
   10.6757   -4.8063   21.1812 C   0  0  0  0  0  0  0  0  0  0  0  0
   10.6403   -3.3017   23.0638 C   0  0  0  0  0  0  0  0  0  0  0  0
   10.6795   -4.0739   25.6330 C   0  0  0  0  0  0  0  0  0  0  0  0
    9.7207   -1.8628   24.6244 C   0  0  0  0  0  0  0  0  0  0  0  0
    5.2628   -7.7447   17.0613 C   0  0  0  0  0  0  0  0  0  0  0  0
   10.5042   -2.9035   26.2283 C   0  0  0  0  0  0  0  0  0  0  0  0
    6.2830   -9.0255   15.6056 C   0  0  0  0  0  0  0  0  0  0  0  0
   10.8437   -2.8560   19.6571 C   0  0  0  0  0  0  0  0  0  0  0  0
   10.4029   -3.7299   16.5204 C   0  0  0  0  0  0  0  0  0  0  0  0
    7.8155   -6.5681   15.7476 C   0  0  0  0  0  0  0  0  0  0  0  0
   11.1762   -2.6410   20.4155 C   0  0  0  0  0  0  0  0  0  0  0  0
   10.7821   -3.5736   21.9616 C   0  0  0  0  0  0  0  0  0  0  0  0
   10.7721   -4.3962   24.3135 C   0  0  0  0  0  0  0  0  0  0  0  0
    6.5296   -8.0307   16.7435 C   0  0  0  0  0  0  0  0  0  0  0  0
    4.3246   -8.6180   17.4415 C   0  0  0  0  0  0  0  0  0  0  0  0
   10.3151   -2.0524   23.7134 C   0  0  0  0  0  0  0  0  0  0  0  0
    9.8692   -2.3696   27.2099 F   0  0  0  0  0  0  0  0  0  0  0  0
    9.2885   -8.0315   17.6945 B   0  0  0  0  0  0  0  0  0  0  0  0
   11.8778   -3.3437   16.3882 N   0  0  0  0  0  0  0  0  0  0  0  0
   11.0322   -5.5085   20.3488 C   0  0  0  0  0  0  0  0  0  0  0  0
    7.6525   -7.5218   16.7022 C   0  0  0  0  0  0  0  0  0  0  0  0
   10.6384   -4.2903   19.3242 C   0  0  0  0  0  0  0  0  0  0  0  0
    5.4228   -9.6915   15.0217 P   0  0  0  0  0  0  0  0  0  0  0  0
  1  3  4  0
  1  6  2  0
  1 16  4  0
  1 24  4  0
  1 27  1  0
  2  6  1  0
  2 15  1  0
  2 18  3  0
  3  5  1  0
  3  6  2  0
  3  9  2  0
  3 13  2  0
  4 19  2  0
  4 21  4  0
  4 22  4  0
  4 29  3  0
  5 15  1  0
  6 18  1  0
  6 26  2  0
  7 18  4  0
  7 26  4  0
  8 10  3  0
  8 12  3  0
  8 14  3  0
  8 18  1  0
  8 19  4  0
  9 12  4  0
  9 16  1  0
  9 19  4  0
  9 23  2  0
 10 12  4  0
 10 22  4  0
 10 29  4  0
 12 16  1  0
 12 23  1  0
 13 20  4  0
 13 26  1  0
 13 29  3  0
 14 17  4  0
 14 28  4  0
 15 21  4  0
 15 25  1  0
 16 20  2  0
 17 18  4  0
 18 24  2  0
 18 29  3  0
 20 26  1  0
 20 27  1  0
 23 25  4  0
 24 27  4  0
 24 28  1  0
 26 27  4  0
 26 28  4  0
M  END
$$$$

 Created by Python create_sdf_string function

 29 44  0  0  0  0  0  0  0  0999 V2000
    9.6340   -7.0699   17.9612 C   0  0  0  0  0  0  0  0  0  0  0  0
    9.4447   -3.7569   15.5713 S   0  0  0  0  0  0  0  0  0  0  0  0
    9.4858   -5.9883   17.2969 O   0  0  0  0  0  0  0  0  0  0  0  0
    3.3680   -9.8312   16.4161 N   0  0  0  0  0  0  0  0  0  0  0  0
    9.2276   -5.4145   16.2836 C   0  0  0  0  0  0  0  0  0  0  0  0
   11.1033   -5.0250   21.3693 C   0  0  0  0  0  0  0  0  0  0  0  0
   10.4008   -3.5795   25.4301 C   0  0  0  0  0  0  0  0  0  0  0  0
   10.0105   -1.8377   25.0649 C   0  0  0  0  0  0  0  0  0  0  0  0
    5.2485   -7.9886   17.3897 C   0  0  0  0  0  0  0  0  0  0  0  0
   10.0866   -2.8005   25.9997 C   0  0  0  0  0  0  0  0  0  0  0  0
    6.0358   -9.4277   15.3829 C   0  0  0  0  0  0  0  0  0  0  0  0
   10.8401   -2.9168   19.5904 C   0  0  0  0  0  0  0  0  0  0  0  0
   10.0722   -3.9927   16.4298 F   0  0  0  0  0  0  0  0  0  0  0  0
    7.7079   -6.4330   15.8411 C   0  0  0  0  0  0  0  0  0  0  0  0
   10.9499   -3.5099   21.9070 C   0  0  0  0  0  0  0  0  0  0  0  0
   10.9842   -4.1234   24.3797 C   0  0  0  0  0  0  0  0  0  0  0  0
    6.2922   -8.2191   16.3984 C   0  0  0  0  0  0  0  0  0  0  0  0
    4.1517   -8.5249   17.0724 C   0  0  0  0  0  0  0  0  0  0  0  0
   10.2310   -2.0211   23.6057 C   0  0  0  0  0  0  0  0  0  0  0  0
    9.9660   -2.5334   27.0183 F   0  0  0  0  0  0  0  0  0  0  0  0
    8.6271   -8.5023   17.6142 C   0  0  0  0  0  0  0  0  0  0  0  0
   11.8380   -3.5479   16.2780 N   0  0  0  0  0  0  0  0  0  0  0  0
   10.7708   -5.0968   19.8811 C   0  0  0  0  0  0  0  0  0  0  0  0
    7.5528   -7.5275   16.6955 C   0  0  0  0  0  0  0  0  0  0  0  0
   10.3435   -4.1980   19.0611 C   0  0  0  0  0  0  0  0  0  0  0  0
    4.9031   -9.1692   15.3511 C   0  0  0  0  0  0  0  0  0  0  0  0
   10.4062   -4.9739   17.9097 He  0  0  0  0  0  0  0  0  0  0  0  0
   10.7503   -3.4421   23.4642 He  0  0  0  0  0  0  0  0  0  0  0  0
   11.2907   -2.5986   20.7932 He  0  0  0  0  0  0  0  0  0  0  0  0
  1 21  4  0
  2  5  1  0
  2 17  3  0
  2 24  3  0
  2 26  1  0
  3  8  3  0
  3 17  3  0
  4  6  4  0
  4 18  4  0
  4 21  2  0
  4 24  1  0
  4 26  4  0
  5 14  4  0
  5 15  4  0
  5 19  2  0
  6 10  3  0
  6 11  4  0
  6 15  4  0
  6 23  4  0
  6 25  2  0
  7 16  4  0
  7 23  1  0
  7 25  3  0
  8 10  4  0
  8 19  4  0
  8 22  4  0
  9 14  4  0
  9 18  4  0
 10 20  1  0
 10 21  3  0
 10 25  3  0
 11 17  4  0
 11 26  4  0
 12 22  1  0
 12 25  4  0
 13 22  1  0
 13 23  4  0
 14 23  3  0
 17 18  4  0
 17 24  1  0
 17 26  1  0
 20 22  4  0
 21 24  4  0
 23 25  4  0
M  END
$$$$

 Created by Python create_sdf_string function

 29 48  0  0  0  0  0  0  0  0999 V2000
    9.6142   -7.0461   18.0886 S   0  0  0  0  0  0  0  0  0  0  0  0
    9.4682   -4.1244   15.6327 S   0  0  0  0  0  0  0  0  0  0  0  0
    9.4475   -5.9779   17.3465 C   0  0  0  0  0  0  0  0  0  0  0  0
    3.6552   -9.3515   16.2301 N   0  0  0  0  0  0  0  0  0  0  0  0
   10.2965   -4.7908   18.0340 C   0  0  0  0  0  0  0  0  0  0  0  0
    8.8891   -5.9231   16.3994 C   0  0  0  0  0  0  0  0  0  0  0  0
   10.7052   -5.0848   21.3312 C   0  0  0  0  0  0  0  0  0  0  0  0
   10.9658   -3.2823   23.3211 C   0  0  0  0  0  0  0  0  0  0  0  0
   10.2467   -3.8024   25.5818 C   0  0  0  0  0  0  0  0  0  0  0  0
    5.3065   -8.4533   17.2384 C   0  0  0  0  0  0  0  0  0  0  0  0
    9.5980   -2.6019   25.8287 C   0  0  0  0  0  0  0  0  0  0  0  0
    5.6409   -8.4659   15.7915 C   0  0  0  0  0  0  0  0  0  0  0  0
   10.9571   -2.8800   19.2930 C   0  0  0  0  0  0  0  0  0  0  0  0
   10.3074   -3.5148   16.7615 N   0  0  0  0  0  0  0  0  0  0  0  0
    7.7799   -6.3426   16.0665 P   0  0  0  0  0  0  0  0  0  0  0  0
   11.2932   -2.6139   20.5707 C   0  0  0  0  0  0  0  0  0  0  0  0
   11.1967   -3.5628   21.8428 C   0  0  0  0  0  0  0  0  0  0  0  0
   10.9664   -4.2810   24.1978 C   0  0  0  0  0  0  0  0  0  0  0  0
    6.2850   -8.3889   16.5676 C   0  0  0  0  0  0  0  0  0  0  0  0
    3.8798   -8.5316   16.8207 C   0  0  0  0  0  0  0  0  0  0  0  0
   10.1271   -1.8321   23.8180 C   0  0  0  0  0  0  0  0  0  0  0  0
    9.7875   -2.3549   27.1108 F   0  0  0  0  0  0  0  0  0  0  0  0
   11.8434   -3.4740   16.2697 N   0  0  0  0  0  0  0  0  0  0  0  0
   10.8600   -5.3400   20.1164 C   0  0  0  0  0  0  0  0  0  0  0  0
    7.5238   -7.5579   16.7513 C   0  0  0  0  0  0  0  0  0  0  0  0
   10.5689   -4.5444   19.2045 C   0  0  0  0  0  0  0  0  0  0  0  0
    5.0535   -9.9089   15.3571 C   0  0  0  0  0  0  0  0  0  0  0  0
    9.8091   -1.8959   25.0772 He  0  0  0  0  0  0  0  0  0  0  0  0
    8.7147   -7.8151   17.6832 He  0  0  0  0  0  0  0  0  0  0  0  0
  1  8  1  0
  1 11  3  0
  1 21  2  0
  2 12  4  0
  2 14  2  0
  2 15  2  0
  3  5  1  0
  3  6  4  0
  3 14  1  0
  3 20  3  0
  4  8  2  0
  4 20  4  0
  4 27  4  0
  5  6  1  0
  5 13  4  0
  5 14  1  0
  5 27  3  0
  6  8  1  0
  6 15  4  0
  6 21  2  0
  7 14  3  0
  7 16  3  0
  7 17  4  0
  7 24  3  0
  8 17  1  0
  8 18  4  0
  8 21  4  0
  9 11  4  0
  9 18  4  0
  9 27  1  0
 10 20  4  0
 10 25  3  0
 12 15  2  0
 12 19  4  0
 12 24  1  0
 12 27  4  0
 13 16  4  0
 14 23  1  0
 15 18  4  0
 15 19  4  0
 15 25  4  0
 16 17  1  0
 16 21  3  0
 16 25  4  0
 18 21  2  0
 18 23  1  0
 19 25  1  0
 23 27  1  0
M  END
$$$$

 Created by Python create_sdf_string function

 29 53  0  0  0  0  0  0  0  0999 V2000
    9.4471   -7.3390   18.1751 C   0  0  0  0  0  0  0  0  0  0  0  0
    9.1919   -4.0291   16.2292 N   0  0  0  0  0  0  0  0  0  0  0  0
    9.5822   -5.6953   17.5992 C   0  0  0  0  0  0  0  0  0  0  0  0
    3.9448   -9.2344   16.2578 N   0  0  0  0  0  0  0  0  0  0  0  0
   10.5641   -4.8682   18.2818 C   0  0  0  0  0  0  0  0  0  0  0  0
    9.0752   -5.5203   16.0035 C   0  0  0  0  0  0  0  0  0  0  0  0
   10.8024   -4.6476   21.4807 C   0  0  0  0  0  0  0  0  0  0  0  0
   10.3047   -3.4738   23.1031 C   0  0  0  0  0  0  0  0  0  0  0  0
    9.8685   -1.5719   24.6058 C   0  0  0  0  0  0  0  0  0  0  0  0
    5.2188   -8.4870   17.3995 C   0  0  0  0  0  0  0  0  0  0  0  0
    9.8561   -2.7860   25.6949 C   0  0  0  0  0  0  0  0  0  0  0  0
    5.9502   -8.8172   15.7821 C   0  0  0  0  0  0  0  0  0  0  0  0
   11.0111   -3.1908   19.2041 C   0  0  0  0  0  0  0  0  0  0  0  0
   10.5700   -3.7009   16.8338 C   0  0  0  0  0  0  0  0  0  0  0  0
    7.6499   -6.3565   15.7263 C   0  0  0  0  0  0  0  0  0  0  0  0
   11.2380   -2.7182   21.0218 C   0  0  0  0  0  0  0  0  0  0  0  0
   10.9207   -3.5992   21.8904 C   0  0  0  0  0  0  0  0  0  0  0  0
   10.8241   -4.1125   24.2931 C   0  0  0  0  0  0  0  0  0  0  0  0
    6.2208   -8.3378   16.5050 C   0  0  0  0  0  0  0  0  0  0  0  0
    3.7303   -8.8773   17.2849 C   0  0  0  0  0  0  0  0  0  0  0  0
   10.0944   -1.9526   23.6468 C   0  0  0  0  0  0  0  0  0  0  0  0
    9.5518   -2.1804   27.1497 F   0  0  0  0  0  0  0  0  0  0  0  0
    8.8256   -8.2190   17.3567 C   0  0  0  0  0  0  0  0  0  0  0  0
   11.1825   -3.5500   16.3741 N   0  0  0  0  0  0  0  0  0  0  0  0
   10.6951   -5.3655   20.2785 C   0  0  0  0  0  0  0  0  0  0  0  0
    7.4063   -7.5483   16.7273 C   0  0  0  0  0  0  0  0  0  0  0  0
   10.6225   -4.1890   19.1298 C   0  0  0  0  0  0  0  0  0  0  0  0
    5.0630   -9.4699   15.5425 C   0  0  0  0  0  0  0  0  0  0  0  0
   10.6826   -3.6073   25.9299 He  0  0  0  0  0  0  0  0  0  0  0  0
  1 12  1  0
  2  6  1  0
  2 14  2  0
  3  5  1  0
  3  6  4  0
  3 22  1  0
  3 23  4  0
  3 25  3  0
  4 20  4  0
  4 28  4  0
  5 13  4  0
  5 14  1  0
  5 27  1  0
  6 15  4  0
  6 21  1  0
  6 23  1  0
  7 17  4  0
  7 25  4  0
  8 16  2  0
  8 17  1  0
  8 18  4  0
  8 21  4  0
  8 26  4  0
  9 11  4  0
  9 20  3  0
  9 21  2  0
 10 19  4  0
 10 20  4  0
 10 26  1  0
 11 22  1  0
 12 19  4  0
 12 28  4  0
 13 16  4  0
 13 25  2  0
 13 27  4  0
 14 20  3  0
 14 24  1  0
 15 18  1  0
 15 24  1  0
 15 26  4  0
 16 17  4  0
 18 19  3  0
 18 23  4  0
 18 24  1  0
 19 22  2  0
 19 26  1  0
 20 25  1  0
 21 23  4  0
 21 26  4  0
 23 26  4  0
 24 28  1  0
 25 27  4  0
 26 28  4  0
M  END
$$$$

 Created by Python create_sdf_string function

 29 47  0  0  0  0  0  0  0  0999 V2000
    9.2177   -4.3126   16.0021 N   0  0  0  0  0  0  0  0  0  0  0  0
    9.5708   -5.6580   17.2291 C   0  0  0  0  0  0  0  0  0  0  0  0
    3.8916   -9.5164   16.0999 N   0  0  0  0  0  0  0  0  0  0  0  0
   10.0977   -4.7214   17.9425 C   0  0  0  0  0  0  0  0  0  0  0  0
    8.9808   -5.7318   16.5965 C   0  0  0  0  0  0  0  0  0  0  0  0
   10.8241   -5.0103   21.2972 I   0  0  0  0  0  0  0  0  0  0  0  0
   10.6828   -2.9592   23.4066 O   0  0  0  0  0  0  0  0  0  0  0  0
   10.0879   -3.7813   25.4794 C   0  0  0  0  0  0  0  0  0  0  0  0
    9.7310   -1.5314   25.1424 O   0  0  0  0  0  0  0  0  0  0  0  0
    5.4472   -8.1930   17.5707 C   0  0  0  0  0  0  0  0  0  0  0  0
    9.8878   -2.1507   25.7163 C   0  0  0  0  0  0  0  0  0  0  0  0
   11.1034   -3.2214   19.7874 C   0  0  0  0  0  0  0  0  0  0  0  0
   10.2010   -3.9294   16.8273 C   0  0  0  0  0  0  0  0  0  0  0  0
    7.7260   -6.0658   16.0287 C   0  0  0  0  0  0  0  0  0  0  0  0
   11.2140   -2.6510   20.7613 S   0  0  0  0  0  0  0  0  0  0  0  0
   10.9512   -3.5176   21.7809 C   0  0  0  0  0  0  0  0  0  0  0  0
   10.7709   -4.0044   24.2466 C   0  0  0  0  0  0  0  0  0  0  0  0
    6.2043   -8.4873   16.3679 F   0  0  0  0  0  0  0  0  0  0  0  0
    3.8984   -8.7091   17.3532 C   0  0  0  0  0  0  0  0  0  0  0  0
   10.3453   -2.0764   24.0926 C   0  0  0  0  0  0  0  0  0  0  0  0
    9.6511   -2.1592   27.0908 F   0  0  0  0  0  0  0  0  0  0  0  0
   11.3676   -3.0003   16.3972 N   0  0  0  0  0  0  0  0  0  0  0  0
   10.5140   -5.6136   20.2335 C   0  0  0  0  0  0  0  0  0  0  0  0
    7.4899   -7.6438   16.5797 C   0  0  0  0  0  0  0  0  0  0  0  0
   10.8321   -4.5652   19.3736 C   0  0  0  0  0  0  0  0  0  0  0  0
    4.6606   -9.7162   15.2144 C   0  0  0  0  0  0  0  0  0  0  0  0
    9.4672   -7.0700   18.0051 He  0  0  0  0  0  0  0  0  0  0  0  0
    6.4418   -9.1439   15.2871 He  0  0  0  0  0  0  0  0  0  0  0  0
    8.8450   -8.2115   17.5894 He  0  0  0  0  0  0  0  0  0  0  0  0
  1  5  1  0
  1 13  2  0
  2  4  1  0
  2  5  4  0
  3  5  1  0
  3 12  1  0
  3 19  4  0
  3 26  4  0
  4 13  1  0
  4 25  1  0
  5  9  4  0
  5 14  4  0
  6 23  4  0
  7 16  1  0
  7 17  4  0
  7 19  4  0
  7 20  4  0
  7 24  3  0
  8 11  4  0
  8 17  4  0
  8 20  4  0
  9 20  4  0
 10 18  4  0
 10 19  4  0
 11 17  1  0
 11 23  2  0
 12 15  4  0
 12 21  1  0
 12 25  4  0
 13 20  4  0
 13 22  1  0
 14 19  3  0
 14 24  4  0
 15 16  4  0
 15 21  3  0
 15 23  4  0
 15 26  4  0
 17 18  3  0
 18 24  1  0
 18 25  4  0
 18 26  2  0
 19 21  2  0
 19 22  2  0
 21 23  1  0
 23 25  4  0
 24 25  2  0
 24 26  4  0
M  END
$$$$

 Created by Python create_sdf_string function

 29 55  0  0  0  0  0  0  0  0999 V2000
    9.4519   -7.2628   17.7553 C   0  0  0  0  0  0  0  0  0  0  0  0
    8.9791   -4.1680   16.1344 N   0  0  0  0  0  0  0  0  0  0  0  0
    9.4588   -5.6056   17.4028 C   0  0  0  0  0  0  0  0  0  0  0  0
    3.9317   -9.2986   16.0478 N   0  0  0  0  0  0  0  0  0  0  0  0
   10.3500   -5.0073   17.6767 C   0  0  0  0  0  0  0  0  0  0  0  0
    8.6709   -5.4916   16.4568 C   0  0  0  0  0  0  0  0  0  0  0  0
   11.2201   -5.1442   21.6313 C   0  0  0  0  0  0  0  0  0  0  0  0
   10.3971   -3.2072   23.3248 C   0  0  0  0  0  0  0  0  0  0  0  0
   10.2762   -3.7669   25.7071 C   0  0  0  0  0  0  0  0  0  0  0  0
   10.0796   -1.5903   24.7577 C   0  0  0  0  0  0  0  0  0  0  0  0
    5.4323   -8.2124   17.3612 C   0  0  0  0  0  0  0  0  0  0  0  0
    6.2157   -9.3011   15.3594 C   0  0  0  0  0  0  0  0  0  0  0  0
   11.1743   -3.2652   19.5116 C   0  0  0  0  0  0  0  0  0  0  0  0
   10.2689   -3.8838   16.8276 C   0  0  0  0  0  0  0  0  0  0  0  0
    7.6806   -6.2481   16.2157 C   0  0  0  0  0  0  0  0  0  0  0  0
   11.3512   -2.8392   20.7509 C   0  0  0  0  0  0  0  0  0  0  0  0
   10.9397   -3.4498   21.8593 C   0  0  0  0  0  0  0  0  0  0  0  0
   10.5610   -4.1855   24.3862 C   0  0  0  0  0  0  0  0  0  0  0  0
    6.7458   -8.5446   16.4908 C   0  0  0  0  0  0  0  0  0  0  0  0
    4.2996   -8.4560   17.3971 C   0  0  0  0  0  0  0  0  0  0  0  0
   10.3420   -1.7515   23.5289 C   0  0  0  0  0  0  0  0  0  0  0  0
    9.5620   -1.9547   27.1323 F   0  0  0  0  0  0  0  0  0  0  0  0
    8.8259   -7.8463   17.6781 C   0  0  0  0  0  0  0  0  0  0  0  0
   11.6444   -3.1045   16.4552 N   0  0  0  0  0  0  0  0  0  0  0  0
   10.6205   -5.4224   20.3779 C   0  0  0  0  0  0  0  0  0  0  0  0
    7.6712   -7.6895   16.8557 C   0  0  0  0  0  0  0  0  0  0  0  0
   10.6313   -4.4491   19.2370 C   0  0  0  0  0  0  0  0  0  0  0  0
    4.7331   -9.5529   15.1827 C   0  0  0  0  0  0  0  0  0  0  0  0
    9.8696   -2.2329   25.8441 He  0  0  0  0  0  0  0  0  0  0  0  0
  1  3  1  0
  1 12  2  0
  1 16  2  0
  1 23  1  0
  1 27  3  0
  2  6  1  0
  2 14  2  0
  3  6  4  0
  3  8  3  0
  3 22  2  0
  3 27  2  0
  3 28  4  0
  4  9  4  0
  4 14  1  0
  4 20  4  0
  4 28  4  0
  5 13  1  0
  5 14  1  0
  5 28  2  0
  6  9  4  0
  6 15  4  0
  6 24  2  0
  7 23  2  0
  7 25  4  0
  8  9  4  0
  8 11  1  0
  8 15  1  0
  8 17  1  0
  8 18  4  0
  8 21  4  0
  8 26  4  0
  9 18  4  0
  9 21  3  0
 10 21  4  0
 11 19  4  0
 12 17  2  0
 12 19  4  0
 12 28  4  0
 13 27  4  0
 14 18  1  0
 14 24  1  0
 15 26  4  0
 16 17  4  0
 17 19  1  0
 18 19  1  0
 18 24  4  0
 19 22  4  0
 19 26  1  0
 20 23  2  0
 21 26  1  0
 23 26  4  0
 23 27  1  0
 24 28  2  0
 25 27  4  0
 27 28  4  0
M  END
$$$$

 Created by Python create_sdf_string function

 29 48  0  0  0  0  0  0  0  0999 V2000
    9.6058   -7.1962   18.0528 C   0  0  0  0  0  0  0  0  0  0  0  0
    8.9494   -4.1969   16.1488 N   0  0  0  0  0  0  0  0  0  0  0  0
    9.5437   -5.8780   17.6524 C   0  0  0  0  0  0  0  0  0  0  0  0
    3.8494   -9.2982   16.2202 N   0  0  0  0  0  0  0  0  0  0  0  0
   10.6042   -4.4380   18.2008 C   0  0  0  0  0  0  0  0  0  0  0  0
    8.7708   -5.5339   16.5422 C   0  0  0  0  0  0  0  0  0  0  0  0
   11.0295   -4.9409   22.0384 C   0  0  0  0  0  0  0  0  0  0  0  0
   10.7018   -2.8274   23.3558 C   0  0  0  0  0  0  0  0  0  0  0  0
   10.2951   -3.9544   25.6831 C   0  0  0  0  0  0  0  0  0  0  0  0
    9.8822   -1.7178   24.8725 C   0  0  0  0  0  0  0  0  0  0  0  0
    5.3394   -7.9358   17.1319 C   0  0  0  0  0  0  0  0  0  0  0  0
   10.0156   -2.2452   25.5854 C   0  0  0  0  0  0  0  0  0  0  0  0
    5.6976   -8.9045   15.2653 C   0  0  0  0  0  0  0  0  0  0  0  0
   10.0407   -3.8601   16.9471 C   0  0  0  0  0  0  0  0  0  0  0  0
    7.6241   -6.4462   16.1943 C   0  0  0  0  0  0  0  0  0  0  0  0
   11.1557   -2.9256   20.8167 C   0  0  0  0  0  0  0  0  0  0  0  0
   10.8917   -3.8046   22.0644 C   0  0  0  0  0  0  0  0  0  0  0  0
   10.7029   -4.3298   24.2701 C   0  0  0  0  0  0  0  0  0  0  0  0
    6.4389   -8.2869   16.3016 C   0  0  0  0  0  0  0  0  0  0  0  0
    4.1936   -8.8766   16.8521 B   0  0  0  0  0  0  0  0  0  0  0  0
   10.3398   -1.7374   23.5193 C   0  0  0  0  0  0  0  0  0  0  0  0
    9.6248   -1.8242   26.9757 F   0  0  0  0  0  0  0  0  0  0  0  0
    8.6768   -7.9021   17.5060 C   0  0  0  0  0  0  0  0  0  0  0  0
   11.1458   -3.2356   16.1913 N   0  0  0  0  0  0  0  0  0  0  0  0
   10.7277   -5.2141   20.1682 C   0  0  0  0  0  0  0  0  0  0  0  0
    7.5787   -7.5482   16.8091 C   0  0  0  0  0  0  0  0  0  0  0  0
   10.7146   -4.4769   19.0748 C   0  0  0  0  0  0  0  0  0  0  0  0
    4.7122   -9.6610   15.4504 C   0  0  0  0  0  0  0  0  0  0  0  0
   11.2593   -3.2159   19.5518 He  0  0  0  0  0  0  0  0  0  0  0  0
  1  3  4  0
  1  6  1  0
  1 12  2  0
  1 23  4  0
  2  6  1  0
  2 14  2  0
  3  5  4  0
  3  6  4  0
  4  5  1  0
  4 20  4  0
  4 28  4  0
  5 14  1  0
  5 27  1  0
  6 11  3  0
  6 15  4  0
  7 25  4  0
  7 26  2  0
  8 14  4  0
  8 17  2  0
  8 18  4  0
  8 21  4  0
  9 12  4  0
  9 13  2  0
  9 16  4  0
  9 18  4  0
 10 12  4  0
 10 15  2  0
 10 21  4  0
 11 19  4  0
 11 20  4  0
 11 22  2  0
 11 26  4  0
 12 18  2  0
 12 22  2  0
 12 26  2  0
 13 17  1  0
 13 18  2  0
 13 19  4  0
 13 28  3  0
 14 21  4  0
 14 24  1  0
 15 26  4  0
 16 17  4  0
 17 23  3  0
 19 26  1  0
 23 26  4  0
 24 25  2  0
 25 27  4  0
M  END
$$$$

 Created by Python create_sdf_string function

 29 42  0  0  0  0  0  0  0  0999 V2000
    9.4631   -7.2289   18.0181 C   0  0  0  0  0  0  0  0  0  0  0  0
    9.1482   -4.1635   15.8985 N   0  0  0  0  0  0  0  0  0  0  0  0
    9.5432   -5.8628   17.5691 C   0  0  0  0  0  0  0  0  0  0  0  0
    3.7622   -9.2945   15.9925 N   0  0  0  0  0  0  0  0  0  0  0  0
   10.1827   -4.8215   17.8384 C   0  0  0  0  0  0  0  0  0  0  0  0
    8.6939   -5.4950   16.5228 C   0  0  0  0  0  0  0  0  0  0  0  0
   10.7919   -3.1505   23.6280 C   0  0  0  0  0  0  0  0  0  0  0  0
    5.3864   -8.1254   17.6647 C   0  0  0  0  0  0  0  0  0  0  0  0
    9.6202   -2.3693   25.8540 C   0  0  0  0  0  0  0  0  0  0  0  0
    5.9252   -8.8619   15.4812 C   0  0  0  0  0  0  0  0  0  0  0  0
   11.1415   -3.0455   19.7264 C   0  0  0  0  0  0  0  0  0  0  0  0
   10.3326   -3.9725   16.7264 C   0  0  0  0  0  0  0  0  0  0  0  0
    7.7903   -6.3299   16.0955 C   0  0  0  0  0  0  0  0  0  0  0  0
   11.0994   -2.6290   20.8700 C   0  0  0  0  0  0  0  0  0  0  0  0
   10.8900   -3.5963   21.9353 C   0  0  0  0  0  0  0  0  0  0  0  0
   10.6915   -3.9813   24.6412 C   0  0  0  0  0  0  0  0  0  0  0  0
    6.3520   -8.3293   16.4021 C   0  0  0  0  0  0  0  0  0  0  0  0
    4.0149   -8.5723   17.1219 C   0  0  0  0  0  0  0  0  0  0  0  0
   10.2161   -1.8045   23.3577 C   0  0  0  0  0  0  0  0  0  0  0  0
    9.4880   -2.0788   26.9830 F   0  0  0  0  0  0  0  0  0  0  0  0
    8.7564   -7.9082   17.5745 F   0  0  0  0  0  0  0  0  0  0  0  0
   10.8982   -5.4772   20.2258 C   0  0  0  0  0  0  0  0  0  0  0  0
    7.7084   -7.4831   16.7910 C   0  0  0  0  0  0  0  0  0  0  0  0
   10.6609   -4.1793   19.0341 C   0  0  0  0  0  0  0  0  0  0  0  0
    4.8906   -9.6332   15.0813 S   0  0  0  0  0  0  0  0  0  0  0  0
   11.1206   -4.6282   21.5340 He  0  0  0  0  0  0  0  0  0  0  0  0
   10.3094   -3.8882   25.7131 He  0  0  0  0  0  0  0  0  0  0  0  0
    9.7971   -1.4182   24.7461 He  0  0  0  0  0  0  0  0  0  0  0  0
   10.8924   -3.0461   16.3013 He  0  0  0  0  0  0  0  0  0  0  0  0
  1  3  4  0
  1  9  4  0
  1 20  1  0
  1 21  4  0
  1 22  3  0
  2  6  4  0
  2 10  4  0
  2 12  2  0
  2 17  4  0
  2 25  1  0
  3  5  4  0
  3  6  4  0
  4  6  1  0
  4 10  3  0
  4 16  3  0
  4 18  4  0
  4 21  4  0
  4 25  4  0
  5  8  1  0
  5 12  1  0
  5 15  4  0
  5 24  1  0
  6 13  4  0
  6 22  2  0
  7 15  1  0
  7 16  4  0
  7 18  1  0
  8 17  4  0
  8 18  4  0
  9 23  3  0
 10 17  4  0
 10 25  4  0
 11 14  3  0
 11 24  4  0
 11 25  2  0
 13 23  4  0
 14 15  4  0
 14 22  4  0
 17 19  2  0
 17 23  1  0
 21 23  4  0
 24 25  3  0
M  END
$$$$

 Created by Python create_sdf_string function

 29 44  0  0  0  0  0  0  0  0999 V2000
    9.3175   -4.4711   15.8882 F   0  0  0  0  0  0  0  0  0  0  0  0
    9.3671   -5.7393   17.8591 C   0  0  0  0  0  0  0  0  0  0  0  0
    4.0243   -9.0010   16.2057 N   0  0  0  0  0  0  0  0  0  0  0  0
   10.3583   -4.6622   17.8779 C   0  0  0  0  0  0  0  0  0  0  0  0
    8.8804   -5.5715   16.6388 Cl  0  0  0  0  0  0  0  0  0  0  0  0
   10.9031   -4.7033   21.7169 P   0  0  0  0  0  0  0  0  0  0  0  0
   10.4239   -3.2385   23.5462 C   0  0  0  0  0  0  0  0  0  0  0  0
   10.1509   -3.6438   25.3752 C   0  0  0  0  0  0  0  0  0  0  0  0
    9.6237   -1.4481   24.6001 C   0  0  0  0  0  0  0  0  0  0  0  0
    5.2456   -8.2114   17.5329 C   0  0  0  0  0  0  0  0  0  0  0  0
    9.8877   -2.5252   26.0281 C   0  0  0  0  0  0  0  0  0  0  0  0
    6.1016   -8.8528   15.4736 C   0  0  0  0  0  0  0  0  0  0  0  0
   10.2539   -3.8273   16.8681 C   0  0  0  0  0  0  0  0  0  0  0  0
    7.4395   -6.2132   16.0116 C   0  0  0  0  0  0  0  0  0  0  0  0
   11.0532   -2.5484   20.7795 C   0  0  0  0  0  0  0  0  0  0  0  0
   10.9082   -3.5954   21.9680 C   0  0  0  0  0  0  0  0  0  0  0  0
   10.8003   -4.0506   24.3487 C   0  0  0  0  0  0  0  0  0  0  0  0
    6.5767   -8.0639   16.6843 C   0  0  0  0  0  0  0  0  0  0  0  0
    4.2799   -8.5237   17.1304 C   0  0  0  0  0  0  0  0  0  0  0  0
   10.1005   -2.0094   23.6652 C   0  0  0  0  0  0  0  0  0  0  0  0
    9.1805   -2.0267   27.2439 F   0  0  0  0  0  0  0  0  0  0  0  0
    8.4426   -8.3402   17.7452 C   0  0  0  0  0  0  0  0  0  0  0  0
   10.7760   -5.1891   20.2958 C   0  0  0  0  0  0  0  0  0  0  0  0
    7.5171   -7.4996   16.8094 C   0  0  0  0  0  0  0  0  0  0  0  0
   10.5988   -4.6810   19.2166 C   0  0  0  0  0  0  0  0  0  0  0  0
    4.7000   -9.6188   15.4017 C   0  0  0  0  0  0  0  0  0  0  0  0
    9.5606   -7.0515   18.1556 He  0  0  0  0  0  0  0  0  0  0  0  0
   11.1667   -3.0043   19.4616 He  0  0  0  0  0  0  0  0  0  0  0  0
   11.1716   -3.0939   16.4875 He  0  0  0  0  0  0  0  0  0  0  0  0
  1  5  4  0
  1 13  4  0
  2  4  4  0
  2  5  4  0
  2  8  2  0
  2 13  1  0
  3 19  4  0
  3 26  4  0
  4 13  4  0
  4 14  3  0
  4 22  3  0
  4 25  1  0
  5 14  4  0
  5 16  2  0
  5 22  3  0
  5 25  2  0
  6 11  3  0
  6 16  4  0
  6 23  4  0
  7 10  4  0
  7 16  1  0
  7 17  4  0
  7 20  4  0
  7 23  4  0
  8 11  4  0
  8 17  4  0
  8 18  2  0
  9 14  3  0
  9 20  4  0
 10 18  4  0
 10 19  3  0
 11 21  1  0
 12 18  4  0
 12 26  4  0
 13 15  2  0
 14 24  4  0
 15 22  2  0
 15 24  4  0
 16 20  4  0
 17 24  3  0
 18 24  1  0
 21 22  2  0
 22 24  4  0
 23 25  4  0
M  END
$$$$

 Created by Python create_sdf_string function

 29 50  0  0  0  0  0  0  0  0999 V2000
    9.4760   -7.1273   18.4452 C   0  0  0  0  0  0  0  0  0  0  0  0
    9.2176   -4.4837   15.9588 N   0  0  0  0  0  0  0  0  0  0  0  0
    9.5085   -5.4877   17.7578 C   0  0  0  0  0  0  0  0  0  0  0  0
    3.7680   -9.2729   16.1313 N   0  0  0  0  0  0  0  0  0  0  0  0
   10.3466   -4.8870   18.0366 C   0  0  0  0  0  0  0  0  0  0  0  0
    8.7354   -5.6014   16.5458 C   0  0  0  0  0  0  0  0  0  0  0  0
   10.9467   -4.7405   21.6102 C   0  0  0  0  0  0  0  0  0  0  0  0
   10.6650   -3.1944   23.0299 C   0  0  0  0  0  0  0  0  0  0  0  0
   10.2544   -3.6047   25.2651 C   0  0  0  0  0  0  0  0  0  0  0  0
    9.5892   -1.3287   24.8936 C   0  0  0  0  0  0  0  0  0  0  0  0
    5.2846   -7.9880   17.5773 C   0  0  0  0  0  0  0  0  0  0  0  0
    9.8450   -1.9961   25.7699 C   0  0  0  0  0  0  0  0  0  0  0  0
   10.9928   -2.9450   19.5147 C   0  0  0  0  0  0  0  0  0  0  0  0
   10.4952   -3.9025   16.8999 C   0  0  0  0  0  0  0  0  0  0  0  0
    7.7963   -6.1723   16.4454 C   0  0  0  0  0  0  0  0  0  0  0  0
   11.0806   -2.6650   20.8954 C   0  0  0  0  0  0  0  0  0  0  0  0
   10.9713   -3.6052   22.1098 C   0  0  0  0  0  0  0  0  0  0  0  0
   10.7976   -4.0996   24.3120 C   0  0  0  0  0  0  0  0  0  0  0  0
    6.2074   -8.0508   16.6124 C   0  0  0  0  0  0  0  0  0  0  0  0
    3.9832   -8.4193   17.1981 C   0  0  0  0  0  0  0  0  0  0  0  0
    9.8087   -1.8129   23.3480 C   0  0  0  0  0  0  0  0  0  0  0  0
    9.3110   -2.1779   27.0974 F   0  0  0  0  0  0  0  0  0  0  0  0
    8.5467   -8.2045   17.6875 C   0  0  0  0  0  0  0  0  0  0  0  0
   11.1996   -2.9480   16.6690 N   0  0  0  0  0  0  0  0  0  0  0  0
   10.5952   -5.2121   20.2684 C   0  0  0  0  0  0  0  0  0  0  0  0
    7.4854   -7.5948   16.8284 C   0  0  0  0  0  0  0  0  0  0  0  0
   10.8546   -4.1093   19.3232 C   0  0  0  0  0  0  0  0  0  0  0  0
    4.9370   -9.4749   15.4299 C   0  0  0  0  0  0  0  0  0  0  0  0
    6.2079   -9.0471   15.6804 He  0  0  0  0  0  0  0  0  0  0  0  0
  1  3  4  0
  1 12  2  0
  1 17  4  0
  1 23  4  0
  2  6  4  0
  2 14  4  0
  2 28  3  0
  3  5  4  0
  3  6  4  0
  3  9  3  0
  3 12  2  0
  4 20  4  0
  4 23  1  0
  4 28  4  0
  5 12  1  0
  5 14  4  0
  5 27  1  0
  6 15  4  0
  6 23  4  0
  7 17  4  0
  7 25  4  0
  7 28  4  0
  8 11  2  0
  8 17  1  0
  8 18  4  0
  8 21  4  0
  9 10  3  0
  9 12  2  0
  9 16  1  0
  9 18  4  0
  9 22  2  0
  9 25  1  0
 10 12  4  0
 10 21  4  0
 11 15  3  0
 11 19  4  0
 11 20  4  0
 11 27  1  0
 12 22  1  0
 13 16  4  0
 13 27  4  0
 14 23  3  0
 14 24  2  0
 15 26  4  0
 16 17  4  0
 16 25  3  0
 19 26  1  0
 21 24  4  0
 25 27  4  0
 26 27  3  0
M  END
$$$$

 Created by Python create_sdf_string function

 29 42  0  0  0  0  0  0  0  0999 V2000
    9.3111   -6.9911   18.2339 C   0  0  0  0  0  0  0  0  0  0  0  0
    9.1896   -4.6083   15.9263 N   0  0  0  0  0  0  0  0  0  0  0  0
    9.5871   -5.9243   17.8524 C   0  0  0  0  0  0  0  0  0  0  0  0
    3.9300   -9.3839   16.2504 N   0  0  0  0  0  0  0  0  0  0  0  0
   10.0798   -5.0284   17.8542 C   0  0  0  0  0  0  0  0  0  0  0  0
    8.8443   -5.5637   16.6560 C   0  0  0  0  0  0  0  0  0  0  0  0
   10.4132   -2.8938   23.3291 C   0  0  0  0  0  0  0  0  0  0  0  0
   10.2455   -3.5767   25.4586 C   0  0  0  0  0  0  0  0  0  0  0  0
    5.3591   -7.8656   17.5310 C   0  0  0  0  0  0  0  0  0  0  0  0
    9.8524   -2.2393   26.0034 C   0  0  0  0  0  0  0  0  0  0  0  0
    6.0359   -9.1790   15.5919 C   0  0  0  0  0  0  0  0  0  0  0  0
   10.9313   -2.9722   19.6826 C   0  0  0  0  0  0  0  0  0  0  0  0
   10.5351   -3.7324   17.1298 C   0  0  0  0  0  0  0  0  0  0  0  0
    7.9528   -6.3565   16.5532 C   0  0  0  0  0  0  0  0  0  0  0  0
   10.8038   -2.3386   20.7586 C   0  0  0  0  0  0  0  0  0  0  0  0
   11.0116   -3.6150   21.8858 C   0  0  0  0  0  0  0  0  0  0  0  0
   10.6954   -4.0937   24.2409 C   0  0  0  0  0  0  0  0  0  0  0  0
    6.1218   -7.9220   16.5958 C   0  0  0  0  0  0  0  0  0  0  0  0
    4.0401   -8.6230   17.0189 F   0  0  0  0  0  0  0  0  0  0  0  0
    9.9793   -1.6439   23.2183 C   0  0  0  0  0  0  0  0  0  0  0  0
    9.4380   -2.0101   27.0360 F   0  0  0  0  0  0  0  0  0  0  0  0
    8.3137   -7.9271   17.8508 C   0  0  0  0  0  0  0  0  0  0  0  0
   11.1110   -3.1478   16.8574 N   0  0  0  0  0  0  0  0  0  0  0  0
   10.7238   -5.4415   20.1751 C   0  0  0  0  0  0  0  0  0  0  0  0
   10.6854   -4.2079   19.3125 C   0  0  0  0  0  0  0  0  0  0  0  0
    4.7872   -9.4137   15.3908 C   0  0  0  0  0  0  0  0  0  0  0  0
   10.6873   -4.8137   21.5968 He  0  0  0  0  0  0  0  0  0  0  0  0
    9.5322   -1.3413   24.6451 He  0  0  0  0  0  0  0  0  0  0  0  0
    7.3605   -7.4733   16.8185 He  0  0  0  0  0  0  0  0  0  0  0  0
  1  3  4  0
  1  8  4  0
  1 11  2  0
  1 20  2  0
  1 22  4  0
  2  6  4  0
  2 13  4  0
  3  5  4  0
  3  6  4  0
  3  7  2  0
  3 20  1  0
  4 10  1  0
  4 19  4  0
  4 26  4  0
  5 13  2  0
  5 25  1  0
  6 14  4  0
  6 17  1  0
  7 16  1  0
  7 17  4  0
  7 20  4  0
  8 10  4  0
  8 16  3  0
  8 17  4  0
  9 18  4  0
  9 19  4  0
 10 21  1  0
 11 17  4  0
 11 18  4  0
 11 26  4  0
 12 15  4  0
 12 25  4  0
 12 26  4  0
 13 22  3  0
 13 23  2  0
 13 24  3  0
 15 16  4  0
 17 23  1  0
 19 20  4  0
 19 26  1  0
 21 23  4  0
 24 25  4  0
M  END
$$$$

 Created by Python create_sdf_string function

 29 33  0  0  0  0  0  0  0  0999 V2000
    9.4203   -7.0989   18.0981 C   0  0  0  0  0  0  0  0  0  0  0  0
    9.2722   -4.3581   16.0929 N   0  0  0  0  0  0  0  0  0  0  0  0
    9.5500   -5.8293   17.7821 C   0  0  0  0  0  0  0  0  0  0  0  0
    3.8154   -9.2970   16.2578 N   0  0  0  0  0  0  0  0  0  0  0  0
   10.1798   -4.9163   18.1340 N   0  0  0  0  0  0  0  0  0  0  0  0
    8.7647   -5.6278   16.4949 C   0  0  0  0  0  0  0  0  0  0  0  0
   10.5568   -3.3405   23.3098 C   0  0  0  0  0  0  0  0  0  0  0  0
    5.0253   -8.1258   17.6622 C   0  0  0  0  0  0  0  0  0  0  0  0
   10.0220   -2.3962   25.6338 C   0  0  0  0  0  0  0  0  0  0  0  0
    6.1287   -8.8362   15.6253 C   0  0  0  0  0  0  0  0  0  0  0  0
   10.8484   -2.7850   19.3784 C   0  0  0  0  0  0  0  0  0  0  0  0
   10.4079   -3.9159   16.6511 C   0  0  0  0  0  0  0  0  0  0  0  0
   10.9186   -2.7341   20.8561 C   0  0  0  0  0  0  0  0  0  0  0  0
   10.7380   -3.4576   21.8722 C   0  0  0  0  0  0  0  0  0  0  0  0
   10.6821   -4.0373   24.1255 C   0  0  0  0  0  0  0  0  0  0  0  0
    6.0042   -7.9166   16.8081 C   0  0  0  0  0  0  0  0  0  0  0  0
    4.0243   -8.5128   17.5035 C   0  0  0  0  0  0  0  0  0  0  0  0
   10.1016   -1.8855   23.2224 C   0  0  0  0  0  0  0  0  0  0  0  0
    9.3489   -1.8605   27.0157 F   0  0  0  0  0  0  0  0  0  0  0  0
    8.3318   -7.8998   17.7525 C   0  0  0  0  0  0  0  0  0  0  0  0
   10.8118   -2.8352   16.7002 N   0  0  0  0  0  0  0  0  0  0  0  0
   10.7598   -5.3686   20.3836 C   0  0  0  0  0  0  0  0  0  0  0  0
    7.4449   -7.4599   16.9710 C   0  0  0  0  0  0  0  0  0  0  0  0
   10.7703   -4.4976   19.4498 C   0  0  0  0  0  0  0  0  0  0  0  0
    5.0277   -9.3189   15.4634 C   0  0  0  0  0  0  0  0  0  0  0  0
   10.6133   -4.7880   21.7250 He  0  0  0  0  0  0  0  0  0  0  0  0
   10.3953   -3.4848   25.6477 He  0  0  0  0  0  0  0  0  0  0  0  0
    9.5661   -1.4650   24.6560 He  0  0  0  0  0  0  0  0  0  0  0  0
    7.7640   -6.6136   16.1000 He  0  0  0  0  0  0  0  0  0  0  0  0
  1  3  4  0
  1 11  2  0
  1 20  4  0
  1 23  4  0
  2  5  4  0
  2  6  4  0
  2 12  4  0
  3  5  4  0
  3  6  2  0
  3 16  1  0
  4  8  1  0
  4 17  4  0
  4 18  1  0
  4 25  4  0
  5 12  4  0
  5 24  1  0
  7 14  1  0
  7 18  4  0
  8 16  4  0
  9 10  4  0
  9 19  1  0
 10 23  1  0
 10 25  4  0
 11 13  4  0
 11 24  4  0
 12 21  2  0
 13 14  4  0
 14 17  3  0
 16 23  1  0
 16 24  2  0
 18 23  1  0
 20 23  4  0
 22 24  4  0
M  END
$$$$

 Created by Python create_sdf_string function

 29 41  0  0  0  0  0  0  0  0999 V2000
    9.2684   -4.4447   16.0417 N   0  0  0  0  0  0  0  0  0  0  0  0
    9.3143   -6.0425   17.7835 C   0  0  0  0  0  0  0  0  0  0  0  0
    3.8195   -9.1134   16.1030 N   0  0  0  0  0  0  0  0  0  0  0  0
   10.2723   -4.9372   17.9215 N   0  0  0  0  0  0  0  0  0  0  0  0
    8.9156   -5.3820   16.4378 C   0  0  0  0  0  0  0  0  0  0  0  0
   10.6379   -5.1689   21.8422 C   0  0  0  0  0  0  0  0  0  0  0  0
   10.7353   -3.1711   23.2922 C   0  0  0  0  0  0  0  0  0  0  0  0
   10.4968   -3.5791   25.6041 C   0  0  0  0  0  0  0  0  0  0  0  0
    9.5995   -1.2142   24.9230 C   0  0  0  0  0  0  0  0  0  0  0  0
    5.2247   -7.9002   17.6497 C   0  0  0  0  0  0  0  0  0  0  0  0
    9.8830   -2.3309   25.7944 C   0  0  0  0  0  0  0  0  0  0  0  0
    6.0871   -8.6632   15.6338 C   0  0  0  0  0  0  0  0  0  0  0  0
   10.8047   -2.9903   19.5076 C   0  0  0  0  0  0  0  0  0  0  0  0
   10.1917   -3.9692   16.8031 C   0  0  0  0  0  0  0  0  0  0  0  0
    7.7270   -6.2676   16.1020 C   0  0  0  0  0  0  0  0  0  0  0  0
   10.9961   -2.5843   20.8415 C   0  0  0  0  0  0  0  0  0  0  0  0
   10.8754   -3.5843   21.8964 C   0  0  0  0  0  0  0  0  0  0  0  0
   10.7036   -4.0817   24.3435 C   0  0  0  0  0  0  0  0  0  0  0  0
    6.2072   -8.0534   16.8725 C   0  0  0  0  0  0  0  0  0  0  0  0
    9.9363   -1.7385   23.4183 C   0  0  0  0  0  0  0  0  0  0  0  0
    9.4970   -2.0348   27.0634 F   0  0  0  0  0  0  0  0  0  0  0  0
    8.2753   -7.8755   17.8564 C   0  0  0  0  0  0  0  0  0  0  0  0
   10.8679   -2.7057   16.4805 N   0  0  0  0  0  0  0  0  0  0  0  0
   10.7443   -5.4483   20.3436 C   0  0  0  0  0  0  0  0  0  0  0  0
    7.3474   -7.6417   16.9160 C   0  0  0  0  0  0  0  0  0  0  0  0
   10.5729   -4.4472   19.4202 C   0  0  0  0  0  0  0  0  0  0  0  0
    4.6747   -9.5892   15.2877 C   0  0  0  0  0  0  0  0  0  0  0  0
    9.2531   -7.2051   18.4432 He  0  0  0  0  0  0  0  0  0  0  0  0
    3.9252   -8.6022   17.3675 He  0  0  0  0  0  0  0  0  0  0  0  0
  1  5  4  0
  1  7  1  0
  1 14  4  0
  2  4  4  0
  2  5  4  0
  3 13  3  0
  3 27  4  0
  4 14  4  0
  4 26  1  0
  5  8  2  0
  5 15  4  0
  5 16  2  0
  5 27  3  0
  6 10  2  0
  6 24  4  0
  7 18  4  0
  7 20  4  0
  8 11  4  0
  8 18  4  0
  9 11  4  0
  9 20  4  0
  9 23  1  0
 10 18  4  0
 10 19  4  0
 11 21  1  0
 12 16  1  0
 12 17  3  0
 12 19  3  0
 12 27  4  0
 13 16  4  0
 13 26  4  0
 14 15  1  0
 14 22  2  0
 14 23  2  0
 15 25  4  0
 16 17  4  0
 19 25  1  0
 21 22  4  0
 22 25  4  0
 24 26  4  0
 25 26  1  0
M  END
$$$$

 Created by Python create_sdf_string function

 29 38  0  0  0  0  0  0  0  0999 V2000
    9.3457   -4.4163   15.8959 N   0  0  0  0  0  0  0  0  0  0  0  0
    9.2997   -6.0556   17.7903 C   0  0  0  0  0  0  0  0  0  0  0  0
    3.6580   -9.2035   16.0887 N   0  0  0  0  0  0  0  0  0  0  0  0
   10.0771   -4.7753   18.1159 N   0  0  0  0  0  0  0  0  0  0  0  0
    8.6321   -5.5481   16.5501 C   0  0  0  0  0  0  0  0  0  0  0  0
   10.7428   -4.9910   21.4700 C   0  0  0  0  0  0  0  0  0  0  0  0
   10.5155   -3.1555   23.3556 Se  0  0  0  0  0  0  0  0  0  0  0  0
   10.2877   -3.3571   25.5255 C   0  0  0  0  0  0  0  0  0  0  0  0
    9.7407   -1.5218   24.7523 C   0  0  0  0  0  0  0  0  0  0  0  0
    5.0854   -7.8036   17.7671 C   0  0  0  0  0  0  0  0  0  0  0  0
    9.7716   -2.2344   25.9058 C   0  0  0  0  0  0  0  0  0  0  0  0
    6.1036   -8.8307   15.5688 C   0  0  0  0  0  0  0  0  0  0  0  0
   10.8509   -3.0602   19.4792 C   0  0  0  0  0  0  0  0  0  0  0  0
    9.9848   -4.1998   16.7976 C   0  0  0  0  0  0  0  0  0  0  0  0
    7.8142   -6.3647   16.0085 C   0  0  0  0  0  0  0  0  0  0  0  0
   10.9463   -2.5656   20.8886 C   0  0  0  0  0  0  0  0  0  0  0  0
   10.7854   -3.5656   21.9318 C   0  0  0  0  0  0  0  0  0  0  0  0
    6.1674   -8.0053   16.7225 C   0  0  0  0  0  0  0  0  0  0  0  0
    3.8931   -8.7801   17.4381 O   0  0  0  0  0  0  0  0  0  0  0  0
   10.0974   -1.6502   23.5153 I   0  0  0  0  0  0  0  0  0  0  0  0
    9.4253   -1.8639   27.0250 F   0  0  0  0  0  0  0  0  0  0  0  0
   10.9585   -2.8905   16.6697 N   0  0  0  0  0  0  0  0  0  0  0  0
   10.5840   -5.4554   20.3333 C   0  0  0  0  0  0  0  0  0  0  0  0
    7.1742   -7.3521   16.8100 C   0  0  0  0  0  0  0  0  0  0  0  0
    4.6272   -9.3639   15.2045 C   0  0  0  0  0  0  0  0  0  0  0  0
    9.1871   -6.9479   18.2682 He  0  0  0  0  0  0  0  0  0  0  0  0
   10.7614   -3.9321   24.3624 He  0  0  0  0  0  0  0  0  0  0  0  0
    8.2442   -7.9449   17.8919 He  0  0  0  0  0  0  0  0  0  0  0  0
   10.6987   -4.4065   19.4140 He  0  0  0  0  0  0  0  0  0  0  0  0
  1  5  4  0
  1 14  4  0
  1 17  2  0
  2  4  4  0
  2  5  4  0
  2 21  4  0
  2 23  3  0
  3 19  4  0
  3 25  4  0
  4 10  3  0
  4 14  4  0
  4 24  4  0
  5 15  1  0
  6  7  1  0
  6  9  3  0
  6 15  1  0
  6 17  4  0
  6 23  4  0
  7 17  2  0
  7 20  4  0
  7 21  4  0
  8 11  4  0
  8 12  2  0
  9 11  4  0
  9 13  3  0
  9 20  4  0
 10 19  4  0
 11 21  3  0
 12 18  4  0
 12 25  4  0
 13 14  4  0
 13 16  4  0
 14 22  2  0
 15 24  4  0
 16 17  4  0
 18 24  1  0
 19 25  3  0
 23 24  4  0
M  END
$$$$

 Created by Python create_sdf_string function

 29 27  0  0  0  0  0  0  0  0999 V2000
    9.2213   -7.1200   18.4823 C   0  0  0  0  0  0  0  0  0  0  0  0
    9.2996   -4.5639   15.9757 N   0  0  0  0  0  0  0  0  0  0  0  0
    9.4017   -5.7985   17.4831 C   0  0  0  0  0  0  0  0  0  0  0  0
    3.6191   -9.2547   16.1967 N   0  0  0  0  0  0  0  0  0  0  0  0
    9.9859   -4.7894   18.2063 N   0  0  0  0  0  0  0  0  0  0  0  0
   10.7996   -4.8466   21.6357 C   0  0  0  0  0  0  0  0  0  0  0  0
   10.4929   -3.0608   23.3915 C   0  0  0  0  0  0  0  0  0  0  0  0
   10.3003   -3.5379   25.7045 C   0  0  0  0  0  0  0  0  0  0  0  0
    9.5045   -1.4313   24.9878 C   0  0  0  0  0  0  0  0  0  0  0  0
    5.0743   -7.9696   17.5412 C   0  0  0  0  0  0  0  0  0  0  0  0
    9.7345   -2.2152   25.6729 C   0  0  0  0  0  0  0  0  0  0  0  0
    5.6608   -8.7402   15.4019 C   0  0  0  0  0  0  0  0  0  0  0  0
   10.8020   -3.0002   19.5850 C   0  0  0  0  0  0  0  0  0  0  0  0
   10.1868   -3.9058   16.8591 C   0  0  0  0  0  0  0  0  0  0  0  0
    7.7304   -6.3800   15.9359 C   0  0  0  0  0  0  0  0  0  0  0  0
   10.9494   -2.6453   20.7648 C   0  0  0  0  0  0  0  0  0  0  0  0
   10.6459   -3.8794   24.3159 C   0  0  0  0  0  0  0  0  0  0  0  0
    6.3302   -8.0284   16.7497 C   0  0  0  0  0  0  0  0  0  0  0  0
   10.1268   -1.6256   23.4127 C   0  0  0  0  0  0  0  0  0  0  0  0
    9.4181   -1.7305   27.0934 F   0  0  0  0  0  0  0  0  0  0  0  0
    8.0337   -7.7478   17.7820 C   0  0  0  0  0  0  0  0  0  0  0  0
   10.8149   -3.0690   16.7506 N   0  0  0  0  0  0  0  0  0  0  0  0
   10.6764   -5.3690   20.3709 C   0  0  0  0  0  0  0  0  0  0  0  0
    7.3773   -7.3386   16.9091 C   0  0  0  0  0  0  0  0  0  0  0  0
   10.4586   -4.4144   19.3905 C   0  0  0  0  0  0  0  0  0  0  0  0
    4.6343   -9.3318   15.3769 C   0  0  0  0  0  0  0  0  0  0  0  0
    8.6993   -5.6883   16.4757 He  0  0  0  0  0  0  0  0  0  0  0  0
   10.7599   -3.5634   21.8931 He  0  0  0  0  0  0  0  0  0  0  0  0
    3.8935   -8.6537   17.3758 He  0  0  0  0  0  0  0  0  0  0  0  0
  1  3  4  0
  1 21  2  0
  2 14  4  0
  2 22  2  0
  3  5  4  0
  4 26  4  0
  5 25  1  0
  6 23  4  0
  7 19  4  0
  8 11  4  0
  8 14  3  0
  8 17  4  0
  9 11  4  0
  9 19  4  0
 10 18  4  0
 10 19  1  0
 11 20  1  0
 12 18  4  0
 12 26  4  0
 13 16  4  0
 13 25  4  0
 14 22  2  0
 15 24  4  0
 16 21  1  0
 18 24  1  0
 21 24  4  0
 23 25  4  0
M  END
$$$$

 Created by Python create_sdf_string function

 29 35  0  0  0  0  0  0  0  0999 V2000
    9.2103   -7.1593   18.3460 C   0  0  0  0  0  0  0  0  0  0  0  0
    9.2886   -4.4487   15.9422 Cl  0  0  0  0  0  0  0  0  0  0  0  0
    9.4024   -5.7593   17.6328 C   0  0  0  0  0  0  0  0  0  0  0  0
    3.8451   -9.2199   16.2663 N   0  0  0  0  0  0  0  0  0  0  0  0
   10.0076   -4.7880   18.1942 N   0  0  0  0  0  0  0  0  0  0  0  0
    8.6546   -5.6067   16.5242 C   0  0  0  0  0  0  0  0  0  0  0  0
   10.7039   -4.8906   21.6621 C   0  0  0  0  0  0  0  0  0  0  0  0
   10.5102   -3.0459   23.3423 C   0  0  0  0  0  0  0  0  0  0  0  0
   10.1588   -3.4248   25.6834 C   0  0  0  0  0  0  0  0  0  0  0  0
    9.5737   -1.1894   24.8137 C   0  0  0  0  0  0  0  0  0  0  0  0
    5.1538   -8.0137   17.6159 C   0  0  0  0  0  0  0  0  0  0  0  0
    9.8430   -2.2180   25.9465 C   0  0  0  0  0  0  0  0  0  0  0  0
    5.7985   -8.7892   15.6569 C   0  0  0  0  0  0  0  0  0  0  0  0
   10.8530   -3.1319   19.5972 C   0  0  0  0  0  0  0  0  0  0  0  0
   10.2689   -4.1515   16.7983 C   0  0  0  0  0  0  0  0  0  0  0  0
    7.7703   -6.3416   16.0680 C   0  0  0  0  0  0  0  0  0  0  0  0
   10.8784   -2.6239   20.7674 C   0  0  0  0  0  0  0  0  0  0  0  0
   10.7369   -3.4492   21.9532 C   0  0  0  0  0  0  0  0  0  0  0  0
   10.6069   -3.9267   24.1583 C   0  0  0  0  0  0  0  0  0  0  0  0
    6.0771   -8.0415   16.5432 C   0  0  0  0  0  0  0  0  0  0  0  0
    9.9282   -1.7885   23.6013 O   0  0  0  0  0  0  0  0  0  0  0  0
    9.3945   -1.8171   27.1004 F   0  0  0  0  0  0  0  0  0  0  0  0
    8.1676   -7.8079   17.8469 C   0  0  0  0  0  0  0  0  0  0  0  0
   10.8426   -3.0667   16.9135 N   0  0  0  0  0  0  0  0  0  0  0  0
    7.2673   -7.2822   16.8369 C   0  0  0  0  0  0  0  0  0  0  0  0
   10.5212   -4.4273   19.4179 C   0  0  0  0  0  0  0  0  0  0  0  0
    4.4124   -9.2298   15.3154 C   0  0  0  0  0  0  0  0  0  0  0  0
    3.8914   -8.7121   17.3208 He  0  0  0  0  0  0  0  0  0  0  0  0
   10.7282   -5.1319   20.3294 He  0  0  0  0  0  0  0  0  0  0  0  0
  1  3  4  0
  1 23  1  0
  1 26  4  0
  2  6  4  0
  2 15  4  0
  3  5  4  0
  3  6  4  0
  3 25  3  0
  3 27  4  0
  4  8  1  0
  4 27  4  0
  5 15  4  0
  5 26  1  0
  6 16  4  0
  6 19  1  0
  7 18  4  0
  8 18  1  0
  8 19  4  0
  8 21  4  0
  9 12  4  0
  9 13  2  0
  9 19  4  0
 10 12  4  0
 10 21  4  0
 11 20  4  0
 11 23  1  0
 12 22  2  0
 13 20  4  0
 13 27  4  0
 14 17  4  0
 14 26  4  0
 16 25  4  0
 17 18  4  0
 20 25  1  0
 23 25  4  0
M  END
$$$$

 Created by Python create_sdf_string function

 29 36  0  0  0  0  0  0  0  0999 V2000
    9.1575   -7.0176   18.4085 C   0  0  0  0  0  0  0  0  0  0  0  0
    9.3609   -5.8871   17.7187 C   0  0  0  0  0  0  0  0  0  0  0  0
    3.7350   -9.2105   16.2598 N   0  0  0  0  0  0  0  0  0  0  0  0
    9.9988   -4.8519   18.1048 N   0  0  0  0  0  0  0  0  0  0  0  0
    8.6121   -5.6475   16.3097 C   0  0  0  0  0  0  0  0  0  0  0  0
   10.6949   -4.7172   21.5952 C   0  0  0  0  0  0  0  0  0  0  0  0
   10.2290   -3.0584   23.3962 C   0  0  0  0  0  0  0  0  0  0  0  0
   10.3018   -3.3698   25.7357 C   0  0  0  0  0  0  0  0  0  0  0  0
    9.5694   -1.1502   24.7207 C   0  0  0  0  0  0  0  0  0  0  0  0
    5.0319   -8.1478   17.6018 C   0  0  0  0  0  0  0  0  0  0  0  0
    9.8559   -2.0701   25.9109 C   0  0  0  0  0  0  0  0  0  0  0  0
    5.8761   -8.7462   15.4643 C   0  0  0  0  0  0  0  0  0  0  0  0
   10.8465   -3.0841   19.5006 C   0  0  0  0  0  0  0  0  0  0  0  0
   10.0511   -4.1001   16.8515 C   0  0  0  0  0  0  0  0  0  0  0  0
    7.8520   -6.2790   16.0821 C   0  0  0  0  0  0  0  0  0  0  0  0
   10.8435   -2.6471   20.7822 C   0  0  0  0  0  0  0  0  0  0  0  0
   10.5787   -3.4436   22.0254 C   0  0  0  0  0  0  0  0  0  0  0  0
   10.5494   -3.9225   24.2893 C   0  0  0  0  0  0  0  0  0  0  0  0
    6.0896   -8.0737   16.5778 C   0  0  0  0  0  0  0  0  0  0  0  0
    4.0285   -8.7850   17.3694 C   0  0  0  0  0  0  0  0  0  0  0  0
   10.0027   -1.8140   23.4669 C   0  0  0  0  0  0  0  0  0  0  0  0
    9.3896   -1.8488   27.1295 F   0  0  0  0  0  0  0  0  0  0  0  0
    8.0845   -7.7276   17.7402 C   0  0  0  0  0  0  0  0  0  0  0  0
   10.6911   -5.2361   20.4461 C   0  0  0  0  0  0  0  0  0  0  0  0
    7.2123   -7.4674   16.8534 C   0  0  0  0  0  0  0  0  0  0  0  0
   10.6381   -4.3638   19.2431 C   0  0  0  0  0  0  0  0  0  0  0  0
    4.6597   -9.3117   15.2460 C   0  0  0  0  0  0  0  0  0  0  0  0
    9.2835   -4.4022   15.9389 He  0  0  0  0  0  0  0  0  0  0  0  0
   11.0735   -2.9025   16.7450 He  0  0  0  0  0  0  0  0  0  0  0  0
  1  2  4  0
  1 23  4  0
  2  4  4  0
  2  5  4  0
  2 14  1  0
  3 13  3  0
  3 20  4  0
  3 27  4  0
  4 14  4  0
  5  9  3  0
  5 15  4  0
  5 21  3  0
  6 17  4  0
  6 24  4  0
  7 17  1  0
  7 18  4  0
  7 21  4  0
  8 11  4  0
  8 18  4  0
  9 11  4  0
  9 15  1  0
  9 21  4  0
 10 19  4  0
 10 20  4  0
 11 22  2  0
 12 19  4  0
 12 27  4  0
 13 16  4  0
 13 26  4  0
 15 18  3  0
 15 25  4  0
 16 17  4  0
 16 26  2  0
 18 27  1  0
 23 25  4  0
 24 26  4  0
M  END
$$$$

 Created by Python create_sdf_string function

 29 46  0  0  0  0  0  0  0  0999 V2000
    9.1375   -7.0957   18.2392 C   0  0  0  0  0  0  0  0  0  0  0  0
    9.2304   -4.3277   15.8960 N   0  0  0  0  0  0  0  0  0  0  0  0
    9.2411   -5.9553   17.6387 C   0  0  0  0  0  0  0  0  0  0  0  0
    3.7290   -9.4006   16.2186 N   0  0  0  0  0  0  0  0  0  0  0  0
   10.0338   -4.7654   18.0809 N   0  0  0  0  0  0  0  0  0  0  0  0
    8.5706   -5.6369   16.4111 C   0  0  0  0  0  0  0  0  0  0  0  0
   10.7979   -4.8701   21.7005 C   0  0  0  0  0  0  0  0  0  0  0  0
   10.5240   -3.0207   23.3733 C   0  0  0  0  0  0  0  0  0  0  0  0
   10.2526   -3.5143   25.5975 C   0  0  0  0  0  0  0  0  0  0  0  0
    9.6386   -1.2136   24.7886 C   0  0  0  0  0  0  0  0  0  0  0  0
    5.1044   -8.0913   17.6940 C   0  0  0  0  0  0  0  0  0  0  0  0
    9.6983   -2.0739   25.8075 C   0  0  0  0  0  0  0  0  0  0  0  0
    5.8440   -8.9220   15.3469 C   0  0  0  0  0  0  0  0  0  0  0  0
   10.7679   -2.9899   19.5481 C   0  0  0  0  0  0  0  0  0  0  0  0
   10.2274   -3.9155   16.9427 P   0  0  0  0  0  0  0  0  0  0  0  0
    7.7508   -6.4148   15.8725 C   0  0  0  0  0  0  0  0  0  0  0  0
   10.9799   -2.6500   20.9698 C   0  0  0  0  0  0  0  0  0  0  0  0
   10.5818   -3.4214   21.9960 C   0  0  0  0  0  0  0  0  0  0  0  0
   10.4702   -3.8893   24.3581 C   0  0  0  0  0  0  0  0  0  0  0  0
    6.1795   -8.0580   16.6267 C   0  0  0  0  0  0  0  0  0  0  0  0
    3.8304   -8.8479   17.2126 C   0  0  0  0  0  0  0  0  0  0  0  0
    9.9763   -1.6604   23.5454 C   0  0  0  0  0  0  0  0  0  0  0  0
    9.4520   -1.7490   27.1409 F   0  0  0  0  0  0  0  0  0  0  0  0
    8.1455   -7.8241   17.8528 C   0  0  0  0  0  0  0  0  0  0  0  0
   10.8166   -2.9425   16.7603 O   0  0  0  0  0  0  0  0  0  0  0  0
   10.7020   -5.2000   20.3269 C   0  0  0  0  0  0  0  0  0  0  0  0
    7.2865   -7.5133   16.7598 C   0  0  0  0  0  0  0  0  0  0  0  0
   10.5041   -4.3936   19.2547 C   0  0  0  0  0  0  0  0  0  0  0  0
    4.6142   -9.3327   15.2339 C   0  0  0  0  0  0  0  0  0  0  0  0
  1  3  4  0
  1 24  4  0
  2  6  4  0
  2 15  4  0
  3  4  3  0
  3  5  4  0
  3  6  4  0
  3 10  2  0
  3 25  3  0
  4 18  2  0
  4 21  4  0
  4 27  4  0
  4 29  4  0
  5 14  2  0
  5 15  4  0
  5 28  1  0
  6 14  4  0
  6 16  4  0
  6 24  2  0
  7 18  4  0
  7 24  2  0
  7 26  4  0
  8 18  1  0
  8 19  4  0
  8 22  4  0
  9 12  2  0
  9 18  3  0
  9 19  4  0
  9 21  2  0
 10 12  4  0
 10 22  4  0
 11 20  4  0
 11 21  4  0
 12 23  2  0
 13 16  4  0
 13 20  4  0
 13 29  4  0
 14 17  4  0
 14 28  4  0
 15 25  2  0
 16 27  4  0
 17 18  4  0
 20 27  1  0
 23 24  4  0
 24 27  4  0
 26 28  4  0
M  END
$$$$

 Created by Python create_sdf_string function

 29 41  0  0  0  0  0  0  0  0999 V2000
    9.0856   -7.0276   18.3289 C   0  0  0  0  0  0  0  0  0  0  0  0
    9.2826   -4.3660   16.0125 N   0  0  0  0  0  0  0  0  0  0  0  0
    9.2588   -5.7914   17.7087 C   0  0  0  0  0  0  0  0  0  0  0  0
    3.8171   -9.3868   16.0751 N   0  0  0  0  0  0  0  0  0  0  0  0
   10.0329   -4.7339   18.1889 N   0  0  0  0  0  0  0  0  0  0  0  0
    8.5841   -5.5571   16.3996 C   0  0  0  0  0  0  0  0  0  0  0  0
   10.6859   -4.8993   21.7704 C   0  0  0  0  0  0  0  0  0  0  0  0
   10.3992   -3.0255   23.2326 C   0  0  0  0  0  0  0  0  0  0  0  0
   10.2786   -3.4163   25.6720 C   0  0  0  0  0  0  0  0  0  0  0  0
    9.6015   -1.2098   24.7236 C   0  0  0  0  0  0  0  0  0  0  0  0
    5.0735   -8.1313   17.4678 C   0  0  0  0  0  0  0  0  0  0  0  0
    9.8439   -2.0889   25.8822 C   0  0  0  0  0  0  0  0  0  0  0  0
    5.8030   -8.7338   15.3880 C   0  0  0  0  0  0  0  0  0  0  0  0
   10.7004   -3.0537   19.6623 C   0  0  0  0  0  0  0  0  0  0  0  0
   10.0299   -3.9619   16.9977 C   0  0  0  0  0  0  0  0  0  0  0  0
    7.6600   -6.3543   16.0366 C   0  0  0  0  0  0  0  0  0  0  0  0
   10.8890   -2.5468   20.7724 C   0  0  0  0  0  0  0  0  0  0  0  0
   10.7039   -3.5791   21.9056 C   0  0  0  0  0  0  0  0  0  0  0  0
   10.5011   -3.9259   24.4320 C   0  0  0  0  0  0  0  0  0  0  0  0
    6.1530   -8.2113   16.5174 C   0  0  0  0  0  0  0  0  0  0  0  0
    3.9626   -8.7376   17.3155 C   0  0  0  0  0  0  0  0  0  0  0  0
   10.0661   -1.6550   23.4678 C   0  0  0  0  0  0  0  0  0  0  0  0
    9.4043   -1.7240   27.0050 F   0  0  0  0  0  0  0  0  0  0  0  0
    8.1159   -7.8032   17.8073 C   0  0  0  0  0  0  0  0  0  0  0  0
   10.8093   -3.0065   16.8112 O   0  0  0  0  0  0  0  0  0  0  0  0
   10.5971   -5.3190   20.5149 C   0  0  0  0  0  0  0  0  0  0  0  0
    7.3561   -7.6142   16.8923 C   0  0  0  0  0  0  0  0  0  0  0  0
   10.5410   -4.3459   19.3720 C   0  0  0  0  0  0  0  0  0  0  0  0
    4.7284   -9.3915   15.1665 C   0  0  0  0  0  0  0  0  0  0  0  0
  1  3  4  0
  1 24  4  0
  2  6  4  0
  2  7  2  0
  2 15  4  0
  3  5  4  0
  3  6  4  0
  4 21  4  0
  4 29  1  0
  5  8  3  0
  5 15  4  0
  5 28  1  0
  6 16  4  0
  7 12  1  0
  7 16  3  0
  7 17  4  0
  7 18  4  0
  7 26  4  0
  8 18  1  0
  8 22  4  0
  8 23  4  0
  9 12  4  0
  9 19  4  0
  9 21  3  0
 10 12  4  0
 10 13  1  0
 10 22  4  0
 10 25  4  0
 11 20  4  0
 11 21  4  0
 12 23  1  0
 13 20  4  0
 13 29  4  0
 14 17  4  0
 14 28  4  0
 15 25  2  0
 16 27  4  0
 17 18  4  0
 20 27  1  0
 24 27  4  0
 26 28  4  0
M  END
$$$$

 Created by Python create_sdf_string function

 29 40  0  0  0  0  0  0  0  0999 V2000
    9.0325   -7.0432   18.3068 C   0  0  0  0  0  0  0  0  0  0  0  0
    9.1250   -4.4131   15.8980 N   0  0  0  0  0  0  0  0  0  0  0  0
    9.3176   -5.8556   17.6288 C   0  0  0  0  0  0  0  0  0  0  0  0
    3.7376   -9.4021   16.1161 N   0  0  0  0  0  0  0  0  0  0  0  0
   10.0297   -4.8100   18.0665 N   0  0  0  0  0  0  0  0  0  0  0  0
    8.5608   -5.6198   16.5321 C   0  0  0  0  0  0  0  0  0  0  0  0
   10.7015   -4.7781   21.6795 C   0  0  0  0  0  0  0  0  0  0  0  0
   10.4780   -2.8552   23.2283 C   0  0  0  0  0  0  0  0  0  0  0  0
   10.3450   -3.3609   25.6334 C   0  0  0  0  0  0  0  0  0  0  0  0
    9.5905   -1.1864   24.8115 C   0  0  0  0  0  0  0  0  0  0  0  0
    5.0944   -8.2388   17.6670 C   0  0  0  0  0  0  0  0  0  0  0  0
    9.7344   -2.0397   25.8626 C   0  0  0  0  0  0  0  0  0  0  0  0
    5.9547   -8.8994   15.3871 C   0  0  0  0  0  0  0  0  0  0  0  0
   10.6719   -3.1684   19.6060 C   0  0  0  0  0  0  0  0  0  0  0  0
   10.1218   -3.9742   16.9490 C   0  0  0  0  0  0  0  0  0  0  0  0
    7.5403   -6.3160   16.0738 C   0  0  0  0  0  0  0  0  0  0  0  0
   10.8058   -2.6929   20.8937 C   0  0  0  0  0  0  0  0  0  0  0  0
   10.6847   -3.4663   21.8943 C   0  0  0  0  0  0  0  0  0  0  0  0
   10.4610   -3.8491   24.2765 C   0  0  0  0  0  0  0  0  0  0  0  0
    6.1018   -8.0193   16.4453 C   0  0  0  0  0  0  0  0  0  0  0  0
    3.9477   -8.8706   17.1924 C   0  0  0  0  0  0  0  0  0  0  0  0
   10.0148   -1.5274   23.5184 C   0  0  0  0  0  0  0  0  0  0  0  0
    9.5151   -1.6395   27.0851 F   0  0  0  0  0  0  0  0  0  0  0  0
    8.0383   -7.8700   17.8359 C   0  0  0  0  0  0  0  0  0  0  0  0
   10.7722   -3.0392   16.6602 O   0  0  0  0  0  0  0  0  0  0  0  0
   10.4942   -5.2776   20.4301 C   0  0  0  0  0  0  0  0  0  0  0  0
    7.2876   -7.4891   16.7262 C   0  0  0  0  0  0  0  0  0  0  0  0
   10.3393   -4.4605   19.4150 C   0  0  0  0  0  0  0  0  0  0  0  0
    4.6579   -9.4042   15.1286 C   0  0  0  0  0  0  0  0  0  0  0  0
  1  3  4  0
  1 24  4  0
  1 26  1  0
  2  6  4  0
  2 12  4  0
  2 15  4  0
  3  5  4  0
  3  6  4  0
  4 21  4  0
  4 29  4  0
  5 15  4  0
  5 27  3  0
  5 28  1  0
  6 16  4  0
  6 22  4  0
  7 18  4  0
  7 26  4  0
  8 18  1  0
  8 19  4  0
  8 22  4  0
  9 12  4  0
  9 19  4  0
 10 12  4  0
 10 22  4  0
 11 20  4  0
 12 23  1  0
 13 20  4  0
 13 29  4  0
 14 17  4  0
 14 28  4  0
 15 25  2  0
 16 27  4  0
 16 28  3  0
 17 18  4  0
 17 27  4  0
 19 20  2  0
 20 27  1  0
 24 27  4  0
 25 29  1  0
 26 28  4  0
M  END
$$$$

 Created by Python create_sdf_string function

 29 37  0  0  0  0  0  0  0  0999 V2000
    9.0893   -7.1075   18.2542 C   0  0  0  0  0  0  0  0  0  0  0  0
    9.2064   -4.4420   15.9364 N   0  0  0  0  0  0  0  0  0  0  0  0
    9.2616   -5.8178   17.6604 C   0  0  0  0  0  0  0  0  0  0  0  0
    3.6976   -9.4048   16.0763 N   0  0  0  0  0  0  0  0  0  0  0  0
   10.0242   -4.8780   18.0729 N   0  0  0  0  0  0  0  0  0  0  0  0
    8.6411   -5.6137   16.4667 C   0  0  0  0  0  0  0  0  0  0  0  0
   10.5606   -4.8868   21.8007 C   0  0  0  0  0  0  0  0  0  0  0  0
   10.5245   -2.9638   23.3969 N   0  0  0  0  0  0  0  0  0  0  0  0
   10.2812   -3.4237   25.6743 C   0  0  0  0  0  0  0  0  0  0  0  0
    9.6010   -1.2440   24.7720 C   0  0  0  0  0  0  0  0  0  0  0  0
    4.9959   -8.2460   17.5893 C   0  0  0  0  0  0  0  0  0  0  0  0
    9.7382   -1.9901   25.8170 C   0  0  0  0  0  0  0  0  0  0  0  0
    5.9099   -8.8015   15.4734 C   0  0  0  0  0  0  0  0  0  0  0  0
   10.7209   -3.1005   19.5743 N   0  0  0  0  0  0  0  0  0  0  0  0
   10.1329   -4.0274   16.8222 C   0  0  0  0  0  0  0  0  0  0  0  0
    7.5282   -6.4564   15.9977 C   0  0  0  0  0  0  0  0  0  0  0  0
   10.8506   -2.6262   20.8862 C   0  0  0  0  0  0  0  0  0  0  0  0
   10.7385   -3.4058   21.9024 C   0  0  0  0  0  0  0  0  0  0  0  0
   10.4442   -3.8448   24.3192 C   0  0  0  0  0  0  0  0  0  0  0  0
    6.0647   -8.1886   16.5282 C   0  0  0  0  0  0  0  0  0  0  0  0
    3.9073   -8.8968   17.2335 C   0  0  0  0  0  0  0  0  0  0  0  0
   10.1301   -1.5991   23.3982 C   0  0  0  0  0  0  0  0  0  0  0  0
    9.4671   -1.6635   27.0040 F   0  0  0  0  0  0  0  0  0  0  0  0
    8.0483   -7.8370   17.8959 C   0  0  0  0  0  0  0  0  0  0  0  0
   10.7802   -3.1422   16.6485 O   0  0  0  0  0  0  0  0  0  0  0  0
   10.4525   -5.3312   20.3942 C   0  0  0  0  0  0  0  0  0  0  0  0
    7.1836   -7.3861   16.6791 C   0  0  0  0  0  0  0  0  0  0  0  0
   10.3000   -4.4316   19.3470 C   0  0  0  0  0  0  0  0  0  0  0  0
    4.6738   -9.5105   15.1656 C   0  0  0  0  0  0  0  0  0  0  0  0
  1  3  4  0
  1 24  4  0
  2  6  4  0
  2 11  2  0
  2 15  4  0
  3  6  4  0
  3 16  1  0
  3 23  1  0
  4 13  2  0
  4 21  4  0
  4 29  4  0
  5 15  4  0
  5 28  1  0
  6 16  4  0
  7 18  4  0
  7 26  4  0
  8 18  1  0
  8 19  4  0
  8 22  4  0
 10 12  4  0
 10 22  4  0
 11 20  4  0
 11 21  4  0
 12 23  1  0
 13 15  1  0
 13 20  4  0
 13 29  4  0
 14 17  4  0
 14 28  4  0
 15 25  2  0
 15 26  2  0
 16 27  4  0
 17 18  4  0
 18 19  3  0
 20 27  1  0
 24 27  4  0
 26 28  4  0
M  END
$$$$

 Created by Python create_sdf_string function

 29 41  0  0  0  0  0  0  0  0999 V2000
    9.1099   -7.1120   18.3075 C   0  0  0  0  0  0  0  0  0  0  0  0
    9.1383   -4.4648   15.8663 N   0  0  0  0  0  0  0  0  0  0  0  0
    9.1360   -5.8241   17.6359 C   0  0  0  0  0  0  0  0  0  0  0  0
    3.6705   -9.4727   16.1427 N   0  0  0  0  0  0  0  0  0  0  0  0
   10.0068   -4.8121   18.0906 N   0  0  0  0  0  0  0  0  0  0  0  0
    8.7055   -5.5996   16.4599 C   0  0  0  0  0  0  0  0  0  0  0  0
   10.6756   -4.8710   21.6732 C   0  0  0  0  0  0  0  0  0  0  0  0
   10.4648   -3.0593   23.2456 C   0  0  0  0  0  0  0  0  0  0  0  0
   10.1500   -3.3176   25.6085 C   0  0  0  0  0  0  0  0  0  0  0  0
    9.6845   -1.1712   24.7235 C   0  0  0  0  0  0  0  0  0  0  0  0
    5.0273   -8.2677   17.5708 C   0  0  0  0  0  0  0  0  0  0  0  0
    9.7612   -2.0665   25.8233 C   0  0  0  0  0  0  0  0  0  0  0  0
    5.8177   -8.8018   15.3306 C   0  0  0  0  0  0  0  0  0  0  0  0
   10.6359   -3.0887   19.6053 N   0  0  0  0  0  0  0  0  0  0  0  0
   10.0473   -4.1133   16.9264 C   0  0  0  0  0  0  0  0  0  0  0  0
    7.5677   -6.2968   16.0688 C   0  0  0  0  0  0  0  0  0  0  0  0
   10.8559   -2.7181   20.8089 C   0  0  0  0  0  0  0  0  0  0  0  0
   10.5360   -3.8352   24.3099 C   0  0  0  0  0  0  0  0  0  0  0  0
    6.0178   -8.1838   16.5304 C   0  0  0  0  0  0  0  0  0  0  0  0
    3.8716   -8.9058   17.1936 C   0  0  0  0  0  0  0  0  0  0  0  0
   10.0559   -1.7386   23.3762 C   0  0  0  0  0  0  0  0  0  0  0  0
    9.4310   -1.6945   26.9433 F   0  0  0  0  0  0  0  0  0  0  0  0
    7.9270   -7.8872   17.8290 C   0  0  0  0  0  0  0  0  0  0  0  0
   10.8108   -3.0815   16.7123 O   0  0  0  0  0  0  0  0  0  0  0  0
   10.3453   -5.2806   20.4474 C   0  0  0  0  0  0  0  0  0  0  0  0
    7.2121   -7.5411   16.7605 C   0  0  0  0  0  0  0  0  0  0  0  0
   10.4607   -4.3214   19.3857 C   0  0  0  0  0  0  0  0  0  0  0  0
    4.6679   -9.4714   15.2320 C   0  0  0  0  0  0  0  0  0  0  0  0
   10.6640   -3.5337   21.9040 He  0  0  0  0  0  0  0  0  0  0  0  0
  1  3  4  0
  1 23  4  0
  2  6  4  0
  2 15  4  0
  3  5  4  0
  3  6  4  0
  3 19  4  0
  3 27  1  0
  4  5  1  0
  4  8  4  0
  4 20  4  0
  4 28  4  0
  5 15  4  0
  5 24  1  0
  5 27  1  0
  6 16  4  0
  7 25  4  0
  8 18  4  0
  8 21  4  0
  9 12  4  0
  9 18  4  0
 10 12  4  0
 10 14  4  0
 10 21  4  0
 11 19  4  0
 11 20  4  0
 12 22  1  0
 12 23  4  0
 12 27  4  0
 13 19  4  0
 13 28  4  0
 14 17  4  0
 14 27  4  0
 15 24  2  0
 15 27  3  0
 16 26  4  0
 17 27  4  0
 19 26  1  0
 23 26  4  0
 25 27  4  0
 26 27  1  0
M  END
$$$$

 Created by Python create_sdf_string function

 29 32  0  0  0  0  0  0  0  0999 V2000
    8.9250   -7.1132   18.2893 C   0  0  0  0  0  0  0  0  0  0  0  0
    9.2880   -5.8325   17.6830 C   0  0  0  0  0  0  0  0  0  0  0  0
    3.6834   -9.4684   16.0753 N   0  0  0  0  0  0  0  0  0  0  0  0
    9.9870   -4.7478   18.0257 N   0  0  0  0  0  0  0  0  0  0  0  0
    8.6313   -5.6936   16.4191 C   0  0  0  0  0  0  0  0  0  0  0  0
   10.6403   -4.8635   21.7538 C   0  0  0  0  0  0  0  0  0  0  0  0
   10.4051   -3.0596   23.2513 C   0  0  0  0  0  0  0  0  0  0  0  0
   10.1640   -3.3376   25.6176 C   0  0  0  0  0  0  0  0  0  0  0  0
    9.7027   -1.2070   24.7467 C   0  0  0  0  0  0  0  0  0  0  0  0
    4.9225   -8.2599   17.4918 C   0  0  0  0  0  0  0  0  0  0  0  0
    9.7171   -2.0425   25.7391 C   0  0  0  0  0  0  0  0  0  0  0  0
    5.7386   -8.8033   15.4003 C   0  0  0  0  0  0  0  0  0  0  0  0
   10.6873   -3.0861   19.5403 N   0  0  0  0  0  0  0  0  0  0  0  0
    7.5639   -6.3775   16.1011 C   0  0  0  0  0  0  0  0  0  0  0  0
   10.8602   -2.6876   20.8382 C   0  0  0  0  0  0  0  0  0  0  0  0
   10.6393   -3.5820   21.8759 C   0  0  0  0  0  0  0  0  0  0  0  0
   10.4899   -3.8743   24.3625 C   0  0  0  0  0  0  0  0  0  0  0  0
    5.9921   -8.3516   16.5620 C   0  0  0  0  0  0  0  0  0  0  0  0
    3.9124   -8.8769   17.2912 C   0  0  0  0  0  0  0  0  0  0  0  0
   10.0739   -1.6596   23.3703 C   0  0  0  0  0  0  0  0  0  0  0  0
    9.3864   -1.7743   26.9731 F   0  0  0  0  0  0  0  0  0  0  0  0
    7.8782   -7.8349   17.9306 C   0  0  0  0  0  0  0  0  0  0  0  0
   10.8360   -3.1200   16.7437 O   0  0  0  0  0  0  0  0  0  0  0  0
   10.4229   -5.3615   20.3754 C   0  0  0  0  0  0  0  0  0  0  0  0
    7.2661   -7.4700   16.7591 C   0  0  0  0  0  0  0  0  0  0  0  0
   10.3588   -4.3282   19.2395 C   0  0  0  0  0  0  0  0  0  0  0  0
    4.7210   -9.3932   15.1126 C   0  0  0  0  0  0  0  0  0  0  0  0
    9.0665   -4.4850   15.8627 He  0  0  0  0  0  0  0  0  0  0  0  0
   10.0129   -4.0741   16.9088 He  0  0  0  0  0  0  0  0  0  0  0  0
  1  2  4  0
  1 22  4  0
  2  4  4  0
  2  5  4  0
  2 18  3  0
  3 19  4  0
  3 27  4  0
  4  9  4  0
  4 26  1  0
  5 14  4  0
  6 16  4  0
  7 16  1  0
  7 17  4  0
  7 20  4  0
  8 11  4  0
  8 17  1  0
  9 11  4  0
  9 20  4  0
 10 18  4  0
 10 19  4  0
 11 21  1  0
 12 18  4  0
 12 27  4  0
 13 15  4  0
 13 26  4  0
 14 25  4  0
 15 16  4  0
 17 23  2  0
 18 25  1  0
 18 26  3  0
 22 25  4  0
 24 26  4  0
M  END
$$$$

 Created by Python create_sdf_string function

 29 32  0  0  0  0  0  0  0  0999 V2000
    9.0035   -7.0347   18.3158 C   0  0  0  0  0  0  0  0  0  0  0  0
    9.1488   -4.4902   15.9271 O   0  0  0  0  0  0  0  0  0  0  0  0
    9.2640   -5.8776   17.7084 C   0  0  0  0  0  0  0  0  0  0  0  0
    3.6732   -9.4478   16.0248 N   0  0  0  0  0  0  0  0  0  0  0  0
    9.9897   -4.7817   18.0692 N   0  0  0  0  0  0  0  0  0  0  0  0
    8.6000   -5.6893   16.3725 C   0  0  0  0  0  0  0  0  0  0  0  0
   10.5807   -4.9298   21.6912 C   0  0  0  0  0  0  0  0  0  0  0  0
   10.1686   -3.3608   25.5606 C   0  0  0  0  0  0  0  0  0  0  0  0
    9.7035   -1.2287   24.6864 C   0  0  0  0  0  0  0  0  0  0  0  0
    5.0452   -8.3452   17.5302 C   0  0  0  0  0  0  0  0  0  0  0  0
    9.7091   -2.0950   25.7300 C   0  0  0  0  0  0  0  0  0  0  0  0
    5.7862   -8.8267   15.3288 C   0  0  0  0  0  0  0  0  0  0  0  0
   10.6458   -3.1077   19.5185 N   0  0  0  0  0  0  0  0  0  0  0  0
   10.0594   -3.9506   16.8638 C   0  0  0  0  0  0  0  0  0  0  0  0
   10.8930   -2.7055   20.8302 C   0  0  0  0  0  0  0  0  0  0  0  0
   10.5657   -3.5037   21.8647 C   0  0  0  0  0  0  0  0  0  0  0  0
   10.5405   -3.8192   24.2883 C   0  0  0  0  0  0  0  0  0  0  0  0
    5.9465   -8.1993   16.5441 C   0  0  0  0  0  0  0  0  0  0  0  0
    3.7993   -8.9073   17.2402 C   0  0  0  0  0  0  0  0  0  0  0  0
   10.0596   -1.6590   23.4554 C   0  0  0  0  0  0  0  0  0  0  0  0
    9.4151   -1.6733   26.9531 F   0  0  0  0  0  0  0  0  0  0  0  0
    7.9484   -7.8785   17.9737 C   0  0  0  0  0  0  0  0  0  0  0  0
   10.7534   -3.0599   16.7003 O   0  0  0  0  0  0  0  0  0  0  0  0
   10.4661   -5.3603   20.2409 C   0  0  0  0  0  0  0  0  0  0  0  0
    7.1116   -7.5258   16.8070 C   0  0  0  0  0  0  0  0  0  0  0  0
   10.3450   -4.3407   19.2803 C   0  0  0  0  0  0  0  0  0  0  0  0
    4.5911   -9.5426   15.1544 C   0  0  0  0  0  0  0  0  0  0  0  0
   10.4122   -2.9524   23.2270 He  0  0  0  0  0  0  0  0  0  0  0  0
    7.6577   -6.4343   15.9874 He  0  0  0  0  0  0  0  0  0  0  0  0
  1  3  4  0
  1 22  4  0
  2  6  4  0
  2 14  4  0
  2 27  3  0
  3  5  4  0
  3  6  4  0
  3 22  2  0
  4 19  4  0
  4 27  4  0
  5 14  4  0
  5 26  1  0
  6 15  3  0
  7 16  4  0
  7 24  4  0
  8 11  4  0
  8 17  4  0
  9 11  4  0
  9 20  4  0
 10 18  4  0
 10 19  4  0
 11 21  1  0
 12 18  4  0
 12 27  4  0
 13 15  4  0
 13 26  4  0
 14 15  1  0
 14 23  2  0
 15 16  4  0
 18 25  1  0
 22 25  4  0
 24 26  4  0
M  END
$$$$

 Created by Python create_sdf_string function

 29 34  0  0  0  0  0  0  0  0999 V2000
    8.9801   -7.0920   18.2914 C   0  0  0  0  0  0  0  0  0  0  0  0
    9.2389   -4.5223   15.8940 O   0  0  0  0  0  0  0  0  0  0  0  0
    9.2620   -5.8757   17.6957 C   0  0  0  0  0  0  0  0  0  0  0  0
    3.6911   -9.5213   16.0588 B   0  0  0  0  0  0  0  0  0  0  0  0
    9.9205   -4.7866   18.0280 N   0  0  0  0  0  0  0  0  0  0  0  0
    8.6196   -5.6684   16.4480 C   0  0  0  0  0  0  0  0  0  0  0  0
   10.6235   -4.8494   21.6947 C   0  0  0  0  0  0  0  0  0  0  0  0
   10.3800   -3.0290   23.1727 C   0  0  0  0  0  0  0  0  0  0  0  0
   10.2015   -3.3806   25.5315 C   0  0  0  0  0  0  0  0  0  0  0  0
    9.7233   -1.1971   24.6650 C   0  0  0  0  0  0  0  0  0  0  0  0
    4.9638   -8.3707   17.5862 C   0  0  0  0  0  0  0  0  0  0  0  0
    9.7132   -2.1101   25.7305 C   0  0  0  0  0  0  0  0  0  0  0  0
    5.7883   -8.8255   15.3229 C   0  0  0  0  0  0  0  0  0  0  0  0
   10.7454   -3.0525   19.4336 N   0  0  0  0  0  0  0  0  0  0  0  0
   10.0193   -4.0072   16.8404 C   0  0  0  0  0  0  0  0  0  0  0  0
    7.6155   -6.4395   16.0607 C   0  0  0  0  0  0  0  0  0  0  0  0
   10.8045   -2.6523   20.8022 C   0  0  0  0  0  0  0  0  0  0  0  0
   10.6105   -3.4549   21.8841 C   0  0  0  0  0  0  0  0  0  0  0  0
   10.5578   -3.8866   24.2482 C   0  0  0  0  0  0  0  0  0  0  0  0
    6.0178   -8.2287   16.5374 C   0  0  0  0  0  0  0  0  0  0  0  0
    3.8349   -8.9651   17.2491 C   0  0  0  0  0  0  0  0  0  0  0  0
   10.0061   -1.6482   23.4977 C   0  0  0  0  0  0  0  0  0  0  0  0
    9.3360   -1.6450   26.9270 F   0  0  0  0  0  0  0  0  0  0  0  0
    7.9728   -7.8116   17.9200 C   0  0  0  0  0  0  0  0  0  0  0  0
   10.7108   -3.0497   16.7211 O   0  0  0  0  0  0  0  0  0  0  0  0
   10.4538   -5.3235   20.4092 C   0  0  0  0  0  0  0  0  0  0  0  0
    7.1674   -7.5980   16.7912 C   0  0  0  0  0  0  0  0  0  0  0  0
   10.3655   -4.4067   19.2232 C   0  0  0  0  0  0  0  0  0  0  0  0
    4.6056   -9.5112   15.1345 C   0  0  0  0  0  0  0  0  0  0  0  0
  1  3  4  0
  1 24  4  0
  2  6  4  0
  3  5  4  0
  3  6  4  0
  4 21  4  0
  4 29  4  0
  5 15  4  0
  5 28  1  0
  6 16  4  0
  7 18  4  0
  7 26  4  0
  8 18  1  0
  8 19  4  0
  8 22  4  0
  9 12  4  0
  9 16  4  0
  9 19  4  0
 10 12  4  0
 10 22  4  0
 11 20  4  0
 11 21  4  0
 12 23  1  0
 13 20  4  0
 13 25  1  0
 13 29  4  0
 14 17  4  0
 14 28  4  0
 15 25  2  0
 16 27  4  0
 17 18  4  0
 20 27  1  0
 24 27  4  0
 26 28  4  0
M  END
$$$$

 Created by Python create_sdf_string function

 29 34  0  0  0  0  0  0  0  0999 V2000
    9.0113   -7.0389   18.3419 C   0  0  0  0  0  0  0  0  0  0  0  0
    9.1877   -4.5460   15.8742 O   0  0  0  0  0  0  0  0  0  0  0  0
    9.2454   -5.9075   17.6404 C   0  0  0  0  0  0  0  0  0  0  0  0
    3.6336   -9.5412   16.0939 S   0  0  0  0  0  0  0  0  0  0  0  0
    9.9398   -4.8054   18.0140 N   0  0  0  0  0  0  0  0  0  0  0  0
    8.5727   -5.6870   16.4272 C   0  0  0  0  0  0  0  0  0  0  0  0
   10.5759   -4.8774   21.6779 C   0  0  0  0  0  0  0  0  0  0  0  0
   10.4364   -3.0322   23.1394 C   0  0  0  0  0  0  0  0  0  0  0  0
   10.1819   -3.3576   25.5569 C   0  0  0  0  0  0  0  0  0  0  0  0
    9.6931   -1.1469   24.6223 C   0  0  0  0  0  0  0  0  0  0  0  0
    4.9410   -8.4138   17.5421 C   0  0  0  0  0  0  0  0  0  0  0  0
    9.7766   -2.0776   25.7453 C   0  0  0  0  0  0  0  0  0  0  0  0
    5.7691   -8.8079   15.3807 C   0  0  0  0  0  0  0  0  0  0  0  0
   10.7080   -3.1108   19.5158 N   0  0  0  0  0  0  0  0  0  0  0  0
   10.0106   -4.0102   16.8874 C   0  0  0  0  0  0  0  0  0  0  0  0
    7.5849   -6.4142   15.9773 C   0  0  0  0  0  0  0  0  0  0  0  0
   10.7913   -2.6374   20.7937 C   0  0  0  0  0  0  0  0  0  0  0  0
   10.5880   -3.4058   21.8709 C   0  0  0  0  0  0  0  0  0  0  0  0
   10.5105   -3.9295   24.2827 C   0  0  0  0  0  0  0  0  0  0  0  0
    5.9398   -8.2544   16.5764 C   0  0  0  0  0  0  0  0  0  0  0  0
    3.8795   -8.9872   17.2581 C   0  0  0  0  0  0  0  0  0  0  0  0
   10.0291   -1.6636   23.4060 C   0  0  0  0  0  0  0  0  0  0  0  0
    9.3568   -1.7191   26.9196 F   0  0  0  0  0  0  0  0  0  0  0  0
    7.9472   -7.8843   17.9484 C   0  0  0  0  0  0  0  0  0  0  0  0
   10.6512   -3.0052   16.7601 O   0  0  0  0  0  0  0  0  0  0  0  0
   10.4754   -5.3094   20.3254 C   0  0  0  0  0  0  0  0  0  0  0  0
   10.3952   -4.3918   19.2813 C   0  0  0  0  0  0  0  0  0  0  0  0
    4.5802   -9.4589   15.1149 C   0  0  0  0  0  0  0  0  0  0  0  0
    7.1771   -7.5025   16.8178 He  0  0  0  0  0  0  0  0  0  0  0  0
  1  3  4  0
  1 24  4  0
  2  6  4  0
  2 15  4  0
  3  5  4  0
  3  6  4  0
  4 21  4  0
  4 28  4  0
  5 15  4  0
  5 27  1  0
  6 16  4  0
  7 18  4  0
  7 26  4  0
  8 18  1  0
  8 19  4  0
  8 22  4  0
  9 12  4  0
  9 19  4  0
 10 12  4  0
 10 22  4  0
 11 20  4  0
 11 21  4  0
 12 23  1  0
 13 20  4  0
 13 28  4  0
 14 17  4  0
 14 27  4  0
 15 25  2  0
 16 20  2  0
 17 18  4  0
 18 25  3  0
 20 22  3  0
 21 24  2  0
 26 27  4  0
M  END
$$$$

 Created by Python create_sdf_string function

 29 35  0  0  0  0  0  0  0  0999 V2000
    8.9283   -7.0821   18.3810 C   0  0  0  0  0  0  0  0  0  0  0  0
    9.1523   -4.5487   15.8763 O   0  0  0  0  0  0  0  0  0  0  0  0
    9.1762   -5.9425   17.6955 C   0  0  0  0  0  0  0  0  0  0  0  0
    3.6490   -9.5220   16.0481 N   0  0  0  0  0  0  0  0  0  0  0  0
    9.9268   -4.8138   18.0000 N   0  0  0  0  0  0  0  0  0  0  0  0
    8.6176   -5.6762   16.4116 C   0  0  0  0  0  0  0  0  0  0  0  0
   10.5635   -4.8578   21.6032 C   0  0  0  0  0  0  0  0  0  0  0  0
   10.3570   -2.9761   23.2052 C   0  0  0  0  0  0  0  0  0  0  0  0
    9.6660   -1.2173   24.6451 C   0  0  0  0  0  0  0  0  0  0  0  0
    5.0031   -8.3928   17.5483 C   0  0  0  0  0  0  0  0  0  0  0  0
    9.7151   -2.1217   25.6922 C   0  0  0  0  0  0  0  0  0  0  0  0
    5.7729   -8.7962   15.3572 C   0  0  0  0  0  0  0  0  0  0  0  0
   10.7284   -3.0737   19.4698 N   0  0  0  0  0  0  0  0  0  0  0  0
    9.9335   -3.9809   16.8843 C   0  0  0  0  0  0  0  0  0  0  0  0
    7.5926   -6.4717   16.0055 C   0  0  0  0  0  0  0  0  0  0  0  0
   10.7720   -2.6384   20.7765 C   0  0  0  0  0  0  0  0  0  0  0  0
   10.5970   -3.4485   21.8587 C   0  0  0  0  0  0  0  0  0  0  0  0
   10.5064   -3.9673   24.3067 C   0  0  0  0  0  0  0  0  0  0  0  0
    5.9966   -8.2286   16.6079 C   0  0  0  0  0  0  0  0  0  0  0  0
    3.8801   -9.0197   17.3100 C   0  0  0  0  0  0  0  0  0  0  0  0
   10.0681   -1.6558   23.3517 C   0  0  0  0  0  0  0  0  0  0  0  0
    9.3873   -1.6495   26.8988 F   0  0  0  0  0  0  0  0  0  0  0  0
    7.8906   -7.8677   17.9179 C   0  0  0  0  0  0  0  0  0  0  0  0
   10.6591   -2.9989   16.7359 O   0  0  0  0  0  0  0  0  0  0  0  0
   10.4464   -5.3531   20.3698 C   0  0  0  0  0  0  0  0  0  0  0  0
    7.1864   -7.5082   16.8044 C   0  0  0  0  0  0  0  0  0  0  0  0
   10.3825   -4.4600   19.2696 C   0  0  0  0  0  0  0  0  0  0  0  0
    4.5628   -9.4407   15.0891 C   0  0  0  0  0  0  0  0  0  0  0  0
   10.2044   -3.3871   25.5234 He  0  0  0  0  0  0  0  0  0  0  0  0
  1  3  4  0
  1 23  4  0
  2  6  4  0
  2 14  4  0
  3  5  4  0
  3  6  4  0
  3 21  4  0
  4 20  4  0
  4 28  4  0
  5 14  4  0
  5 27  1  0
  6 15  4  0
  7 13  4  0
  7 17  4  0
  7 25  2  0
  8 15  2  0
  8 17  1  0
  8 18  4  0
  8 21  4  0
  9 11  4  0
  9 21  4  0
 10 19  4  0
 10 20  4  0
 11 22  1  0
 12 19  4  0
 12 28  4  0
 13 16  4  0
 13 27  4  0
 14 24  2  0
 15 26  4  0
 16 17  4  0
 19 26  1  0
 20 24  3  0
 23 26  4  0
 25 27  4  0
M  END
$$$$

 Created by Python create_sdf_string function

 29 33  0  0  0  0  0  0  0  0999 V2000
    8.9107   -7.0813   18.3563 C   0  0  0  0  0  0  0  0  0  0  0  0
    9.1512   -4.5532   15.9102 O   0  0  0  0  0  0  0  0  0  0  0  0
    9.1845   -5.8601   17.6355 C   0  0  0  0  0  0  0  0  0  0  0  0
    3.6718   -9.5093   16.0645 N   0  0  0  0  0  0  0  0  0  0  0  0
    9.9350   -4.8348   18.0203 N   0  0  0  0  0  0  0  0  0  0  0  0
    8.6049   -5.7219   16.4482 C   0  0  0  0  0  0  0  0  0  0  0  0
   10.5779   -4.8324   21.6104 C   0  0  0  0  0  0  0  0  0  0  0  0
   10.4009   -2.9936   23.2222 C   0  0  0  0  0  0  0  0  0  0  0  0
   10.2187   -3.3719   25.5029 C   0  0  0  0  0  0  0  0  0  0  0  0
    9.6808   -1.2391   24.6134 C   0  0  0  0  0  0  0  0  0  0  0  0
    5.0103   -8.4467   17.5276 C   0  0  0  0  0  0  0  0  0  0  0  0
    9.7221   -2.1270   25.6906 C   0  0  0  0  0  0  0  0  0  0  0  0
    5.7366   -8.7789   15.3657 C   0  0  0  0  0  0  0  0  0  0  0  0
   10.7381   -3.0718   19.4727 N   0  0  0  0  0  0  0  0  0  0  0  0
    9.9509   -4.0337   16.9183 C   0  0  0  0  0  0  0  0  0  0  0  0
    7.5759   -6.4663   16.0063 C   0  0  0  0  0  0  0  0  0  0  0  0
   10.8044   -2.5886   20.7493 C   0  0  0  0  0  0  0  0  0  0  0  0
   10.5722   -3.5263   21.8490 C   0  0  0  0  0  0  0  0  0  0  0  0
   10.5283   -3.9543   24.2567 C   0  0  0  0  0  0  0  0  0  0  0  0
    5.9812   -8.2520   16.5575 C   0  0  0  0  0  0  0  0  0  0  0  0
    3.8624   -9.0503   17.2601 C   0  0  0  0  0  0  0  0  0  0  0  0
   10.0975   -1.6430   23.3459 C   0  0  0  0  0  0  0  0  0  0  0  0
    9.3831   -1.6169   26.8470 F   0  0  0  0  0  0  0  0  0  0  0  0
    7.9000   -7.8682   17.9472 C   0  0  0  0  0  0  0  0  0  0  0  0
   10.6563   -2.9967   16.7108 O   0  0  0  0  0  0  0  0  0  0  0  0
   10.4357   -5.3294   20.3805 C   0  0  0  0  0  0  0  0  0  0  0  0
    7.2014   -7.5152   16.8137 C   0  0  0  0  0  0  0  0  0  0  0  0
   10.3952   -4.4451   19.3062 C   0  0  0  0  0  0  0  0  0  0  0  0
    4.5708   -9.4103   15.1052 C   0  0  0  0  0  0  0  0  0  0  0  0
  1  3  4  0
  1 24  4  0
  2  6  4  0
  2 15  4  0
  3  5  4  0
  3  6  4  0
  4 21  4  0
  4 29  4  0
  5 15  4  0
  5 28  1  0
  6 16  4  0
  6 26  1  0
  7 18  4  0
  7 26  1  0
  8 18  1  0
  8 19  4  0
  8 22  4  0
  9 12  4  0
  9 19  4  0
 10 12  4  0
 10 22  4  0
 11 20  4  0
 11 21  4  0
 12 23  1  0
 13 20  4  0
 13 29  4  0
 14 17  4  0
 14 28  4  0
 15 25  2  0
 16 27  4  0
 17 18  4  0
 24 27  4  0
 26 28  4  0
M  END
$$$$

 Created by Python create_sdf_string function

 29 36  0  0  0  0  0  0  0  0999 V2000
    8.9223   -7.0670   18.3696 C   0  0  0  0  0  0  0  0  0  0  0  0
    9.1503   -4.5798   15.8980 O   0  0  0  0  0  0  0  0  0  0  0  0
    9.1823   -5.8926   17.6887 C   0  0  0  0  0  0  0  0  0  0  0  0
    3.6504   -9.5233   16.0827 N   0  0  0  0  0  0  0  0  0  0  0  0
    9.9515   -4.8214   18.0457 N   0  0  0  0  0  0  0  0  0  0  0  0
    8.5741   -5.7301   16.4356 C   0  0  0  0  0  0  0  0  0  0  0  0
   10.5943   -4.8812   21.6408 C   0  0  0  0  0  0  0  0  0  0  0  0
   10.4033   -2.9864   23.1782 C   0  0  0  0  0  0  0  0  0  0  0  0
   10.2255   -3.4189   25.5121 C   0  0  0  0  0  0  0  0  0  0  0  0
    9.7127   -1.2441   24.5844 C   0  0  0  0  0  0  0  0  0  0  0  0
    5.0463   -8.4653   17.5325 C   0  0  0  0  0  0  0  0  0  0  0  0
    9.7538   -2.1128   25.6745 C   0  0  0  0  0  0  0  0  0  0  0  0
    5.7207   -8.7575   15.3440 C   0  0  0  0  0  0  0  0  0  0  0  0
   10.7399   -3.1162   19.5045 N   0  0  0  0  0  0  0  0  0  0  0  0
    9.9886   -3.9935   16.8862 C   0  0  0  0  0  0  0  0  0  0  0  0
    7.5973   -6.4783   15.9900 C   0  0  0  0  0  0  0  0  0  0  0  0
   10.8109   -2.6080   20.7474 C   0  0  0  0  0  0  0  0  0  0  0  0
   10.5881   -3.4812   21.8537 C   0  0  0  0  0  0  0  0  0  0  0  0
   10.5307   -3.8717   24.2079 C   0  0  0  0  0  0  0  0  0  0  0  0
    5.9768   -8.2698   16.5662 C   0  0  0  0  0  0  0  0  0  0  0  0
    3.8735   -9.0429   17.2548 C   0  0  0  0  0  0  0  0  0  0  0  0
   10.1077   -1.6575   23.3214 C   0  0  0  0  0  0  0  0  0  0  0  0
    9.4031   -1.6141   26.8218 F   0  0  0  0  0  0  0  0  0  0  0  0
    7.8872   -7.8421   17.9397 C   0  0  0  0  0  0  0  0  0  0  0  0
   10.6409   -3.0395   16.7660 O   0  0  0  0  0  0  0  0  0  0  0  0
   10.4488   -5.3650   20.3947 C   0  0  0  0  0  0  0  0  0  0  0  0
    7.1479   -7.5195   16.8165 C   0  0  0  0  0  0  0  0  0  0  0  0
   10.3894   -4.4415   19.2888 C   0  0  0  0  0  0  0  0  0  0  0  0
    4.5564   -9.4163   15.1301 C   0  0  0  0  0  0  0  0  0  0  0  0
  1  3  4  0
  1 24  4  0
  2  6  4  0
  2 15  4  0
  3  5  4  0
  3  6  4  0
  3 28  1  0
  4  5  1  0
  4 21  4  0
  4 29  4  0
  5 15  4  0
  5 28  1  0
  6 16  4  0
  7 17  3  0
  7 18  4  0
  7 26  4  0
  8 18  1  0
  8 19  4  0
  8 22  4  0
  9 12  4  0
  9 19  4  0
 10 12  4  0
 10 22  4  0
 11 20  4  0
 11 21  4  0
 12 23  1  0
 13 20  4  0
 13 29  4  0
 14 17  4  0
 14 28  4  0
 15 25  2  0
 16 27  4  0
 17 18  4  0
 20 27  1  0
 24 27  4  0
 26 28  4  0
M  END
$$$$

 Created by Python create_sdf_string function

 29 33  0  0  0  0  0  0  0  0999 V2000
    8.9057   -7.0853   18.3632 C   0  0  0  0  0  0  0  0  0  0  0  0
    9.1395   -4.5799   15.8862 O   0  0  0  0  0  0  0  0  0  0  0  0
    9.1677   -5.8950   17.6942 C   0  0  0  0  0  0  0  0  0  0  0  0
    3.6291   -9.5277   16.0523 N   0  0  0  0  0  0  0  0  0  0  0  0
    9.9413   -4.8116   18.0494 N   0  0  0  0  0  0  0  0  0  0  0  0
    8.5685   -5.7273   16.4404 C   0  0  0  0  0  0  0  0  0  0  0  0
   10.5897   -4.8744   21.6219 C   0  0  0  0  0  0  0  0  0  0  0  0
   10.4187   -2.9798   23.1409 C   0  0  0  0  0  0  0  0  0  0  0  0
   10.2302   -3.4243   25.5043 C   0  0  0  0  0  0  0  0  0  0  0  0
    9.7353   -1.1798   24.5522 C   0  0  0  0  0  0  0  0  0  0  0  0
    5.0316   -8.4552   17.5646 C   0  0  0  0  0  0  0  0  0  0  0  0
    9.7703   -2.0842   25.6569 C   0  0  0  0  0  0  0  0  0  0  0  0
    5.6589   -8.7469   15.3578 C   0  0  0  0  0  0  0  0  0  0  0  0
   10.7295   -3.1056   19.4693 N   0  0  0  0  0  0  0  0  0  0  0  0
    9.9587   -4.0356   16.8986 C   0  0  0  0  0  0  0  0  0  0  0  0
    7.6202   -6.5168   16.0153 C   0  0  0  0  0  0  0  0  0  0  0  0
   10.8095   -2.6293   20.7489 C   0  0  0  0  0  0  0  0  0  0  0  0
   10.5943   -3.4969   21.8398 C   0  0  0  0  0  0  0  0  0  0  0  0
   10.5180   -3.8958   24.2563 C   0  0  0  0  0  0  0  0  0  0  0  0
    5.9919   -8.2659   16.5556 C   0  0  0  0  0  0  0  0  0  0  0  0
    3.8812   -9.0711   17.2339 C   0  0  0  0  0  0  0  0  0  0  0  0
   10.0852   -1.6526   23.3128 C   0  0  0  0  0  0  0  0  0  0  0  0
    9.4033   -1.6601   26.7925 F   0  0  0  0  0  0  0  0  0  0  0  0
    7.8512   -7.8276   17.9568 C   0  0  0  0  0  0  0  0  0  0  0  0
   10.6326   -3.0636   16.7670 O   0  0  0  0  0  0  0  0  0  0  0  0
   10.4388   -5.3701   20.3821 C   0  0  0  0  0  0  0  0  0  0  0  0
    7.1639   -7.5584   16.8364 C   0  0  0  0  0  0  0  0  0  0  0  0
   10.3894   -4.4296   19.3056 C   0  0  0  0  0  0  0  0  0  0  0  0
    4.5494   -9.4213   15.1196 C   0  0  0  0  0  0  0  0  0  0  0  0
  1  3  4  0
  1 24  4  0
  2  6  4  0
  2 15  4  0
  3  5  4  0
  3  6  4  0
  4 21  4  0
  4 29  4  0
  5 15  4  0
  5 28  1  0
  6 16  4  0
  7 18  4  0
  7 26  4  0
  8 18  1  0
  8 19  4  0
  8 22  4  0
  9 12  4  0
  9 19  4  0
 10 12  4  0
 10 22  4  0
 11 20  4  0
 11 21  4  0
 12 23  1  0
 13 20  4  0
 13 29  4  0
 14 17  4  0
 14 28  4  0
 15 25  2  0
 16 27  4  0
 17 18  4  0
 20 27  1  0
 24 27  4  0
 26 28  4  0
M  END
$$$$

 Created by Python create_sdf_string function

 29 36  0  0  0  0  0  0  0  0999 V2000
    8.8925   -7.0334   18.3937 C   0  0  0  0  0  0  0  0  0  0  0  0
    9.1431   -4.5860   15.9002 O   0  0  0  0  0  0  0  0  0  0  0  0
    9.1555   -5.9119   17.7105 C   0  0  0  0  0  0  0  0  0  0  0  0
    3.6320   -9.5343   16.0618 N   0  0  0  0  0  0  0  0  0  0  0  0
    9.9482   -4.8025   18.0472 N   0  0  0  0  0  0  0  0  0  0  0  0
    8.6108   -5.7266   16.4385 C   0  0  0  0  0  0  0  0  0  0  0  0
   10.5887   -4.8821   21.6400 C   0  0  0  0  0  0  0  0  0  0  0  0
   10.4199   -3.0044   23.1446 C   0  0  0  0  0  0  0  0  0  0  0  0
   10.2235   -3.4290   25.4915 C   0  0  0  0  0  0  0  0  0  0  0  0
    9.7562   -1.2070   24.5477 C   0  0  0  0  0  0  0  0  0  0  0  0
    5.0301   -8.4836   17.5469 C   0  0  0  0  0  0  0  0  0  0  0  0
    9.8028   -2.1094   25.6414 C   0  0  0  0  0  0  0  0  0  0  0  0
    5.6669   -8.7492   15.3232 C   0  0  0  0  0  0  0  0  0  0  0  0
   10.7452   -3.1115   19.4824 N   0  0  0  0  0  0  0  0  0  0  0  0
    9.9611   -4.0434   16.9011 C   0  0  0  0  0  0  0  0  0  0  0  0
    7.6047   -6.5316   15.9957 C   0  0  0  0  0  0  0  0  0  0  0  0
   10.8290   -2.6536   20.7446 C   0  0  0  0  0  0  0  0  0  0  0  0
   10.6284   -3.5071   21.8041 C   0  0  0  0  0  0  0  0  0  0  0  0
   10.4964   -3.8915   24.2200 C   0  0  0  0  0  0  0  0  0  0  0  0
    5.9465   -8.2638   16.5592 C   0  0  0  0  0  0  0  0  0  0  0  0
    3.8836   -9.0777   17.2483 C   0  0  0  0  0  0  0  0  0  0  0  0
   10.0891   -1.6540   23.2769 C   0  0  0  0  0  0  0  0  0  0  0  0
    9.4077   -1.6917   26.7738 F   0  0  0  0  0  0  0  0  0  0  0  0
    7.8438   -7.8161   17.9738 C   0  0  0  0  0  0  0  0  0  0  0  0
   10.6296   -3.0672   16.7828 O   0  0  0  0  0  0  0  0  0  0  0  0
   10.4516   -5.3788   20.3490 C   0  0  0  0  0  0  0  0  0  0  0  0
    7.1521   -7.5459   16.8301 C   0  0  0  0  0  0  0  0  0  0  0  0
   10.3826   -4.4457   19.2832 O   0  0  0  0  0  0  0  0  0  0  0  0
    4.5377   -9.4115   15.0955 C   0  0  0  0  0  0  0  0  0  0  0  0
  1  3  4  0
  1 24  4  0
  2  6  4  0
  2 15  4  0
  3  5  4  0
  3  6  4  0
  3 19  1  0
  4 21  4  0
  4 29  4  0
  5 15  4  0
  5 28  1  0
  6 16  4  0
  7 18  4  0
  7 26  4  0
  8 18  1  0
  8 19  4  0
  8 22  4  0
  9 12  4  0
  9 19  4  0
 10 12  4  0
 10 22  4  0
 11 20  4  0
 11 21  4  0
 12 23  1  0
 13 16  1  0
 13 20  4  0
 13 29  4  0
 14 17  4  0
 14 28  4  0
 15 22  4  0
 15 25  2  0
 16 27  4  0
 17 18  4  0
 20 27  1  0
 24 27  4  0
 26 28  4  0
M  END
$$$$

 Created by Python create_sdf_string function

 29 34  0  0  0  0  0  0  0  0999 V2000
    8.8645   -7.0311   18.4102 C   0  0  0  0  0  0  0  0  0  0  0  0
    9.1595   -4.5951   15.8914 O   0  0  0  0  0  0  0  0  0  0  0  0
    9.1619   -5.9190   17.7121 C   0  0  0  0  0  0  0  0  0  0  0  0
    3.6412   -9.5228   16.0564 N   0  0  0  0  0  0  0  0  0  0  0  0
    9.9232   -4.8127   18.0584 N   0  0  0  0  0  0  0  0  0  0  0  0
    8.5931   -5.7373   16.4327 C   0  0  0  0  0  0  0  0  0  0  0  0
   10.5797   -4.8983   21.6133 C   0  0  0  0  0  0  0  0  0  0  0  0
   10.4151   -3.0151   23.1317 C   0  0  0  0  0  0  0  0  0  0  0  0
   10.2232   -3.4377   25.4576 C   0  0  0  0  0  0  0  0  0  0  0  0
    9.7674   -1.1897   24.5384 C   0  0  0  0  0  0  0  0  0  0  0  0
    5.0255   -8.4970   17.5373 C   0  0  0  0  0  0  0  0  0  0  0  0
    9.8019   -2.0913   25.6203 C   0  0  0  0  0  0  0  0  0  0  0  0
    5.6699   -8.7337   15.3152 C   0  0  0  0  0  0  0  0  0  0  0  0
   10.7325   -3.1297   19.4785 N   0  0  0  0  0  0  0  0  0  0  0  0
    9.9643   -4.0496   16.8950 C   0  0  0  0  0  0  0  0  0  0  0  0
    7.6061   -6.5427   16.0140 C   0  0  0  0  0  0  0  0  0  0  0  0
   10.8461   -2.6449   20.7313 C   0  0  0  0  0  0  0  0  0  0  0  0
   10.6294   -3.4910   21.8219 C   0  0  0  0  0  0  0  0  0  0  0  0
   10.4989   -3.8899   24.2024 C   0  0  0  0  0  0  0  0  0  0  0  0
    5.9455   -8.2603   16.5662 C   0  0  0  0  0  0  0  0  0  0  0  0
    3.8786   -9.0939   17.2586 C   0  0  0  0  0  0  0  0  0  0  0  0
   10.1083   -1.6691   23.2665 C   0  0  0  0  0  0  0  0  0  0  0  0
    9.4292   -1.6949   26.7597 F   0  0  0  0  0  0  0  0  0  0  0  0
    7.8276   -7.8061   17.9710 C   0  0  0  0  0  0  0  0  0  0  0  0
   10.6060   -3.0686   16.7729 O   0  0  0  0  0  0  0  0  0  0  0  0
   10.4421   -5.3582   20.3334 C   0  0  0  0  0  0  0  0  0  0  0  0
    7.1404   -7.5478   16.8189 C   0  0  0  0  0  0  0  0  0  0  0  0
   10.3927   -4.4255   19.2874 C   0  0  0  0  0  0  0  0  0  0  0  0
    4.5272   -9.4074   15.0975 C   0  0  0  0  0  0  0  0  0  0  0  0
  1  3  4  0
  1 24  4  0
  2  6  4  0
  2 15  4  0
  3  5  4  0
  3  6  4  0
  4 21  4  0
  4 29  4  0
  5 15  4  0
  5 28  1  0
  6 16  4  0
  7  8  4  0
  7 18  4  0
  7 26  4  0
  8 18  1  0
  8 19  4  0
  8 22  4  0
  9 12  4  0
  9 19  4  0
 10 12  4  0
 10 22  4  0
 11 20  4  0
 11 21  4  0
 12 23  1  0
 13 20  4  0
 13 29  4  0
 14 17  4  0
 14 28  4  0
 15 25  2  0
 16 27  4  0
 17 18  4  0
 20 27  1  0
 24 27  4  0
 26 28  4  0
M  END
$$$$

 Created by Python create_sdf_string function

 29 33  0  0  0  0  0  0  0  0999 V2000
    8.8386   -7.0372   18.4193 C   0  0  0  0  0  0  0  0  0  0  0  0
    9.1552   -4.6134   15.8919 O   0  0  0  0  0  0  0  0  0  0  0  0
    9.1610   -5.9165   17.7180 C   0  0  0  0  0  0  0  0  0  0  0  0
    3.6370   -9.5332   16.0620 N   0  0  0  0  0  0  0  0  0  0  0  0
    9.9324   -4.7985   18.0449 N   0  0  0  0  0  0  0  0  0  0  0  0
    8.5894   -5.7391   16.4361 C   0  0  0  0  0  0  0  0  0  0  0  0
   10.5904   -4.8945   21.6069 C   0  0  0  0  0  0  0  0  0  0  0  0
   10.4143   -3.0098   23.1149 C   0  0  0  0  0  0  0  0  0  0  0  0
   10.2160   -3.4316   25.4420 C   0  0  0  0  0  0  0  0  0  0  0  0
    9.7768   -1.1817   24.5145 C   0  0  0  0  0  0  0  0  0  0  0  0
    5.0295   -8.5101   17.5386 C   0  0  0  0  0  0  0  0  0  0  0  0
    9.8152   -2.0911   25.6021 C   0  0  0  0  0  0  0  0  0  0  0  0
    5.6571   -8.7303   15.3196 C   0  0  0  0  0  0  0  0  0  0  0  0
   10.7498   -3.1208   19.4740 N   0  0  0  0  0  0  0  0  0  0  0  0
    9.9612   -4.0552   16.8901 C   0  0  0  0  0  0  0  0  0  0  0  0
    7.6185   -6.5528   16.0067 C   0  0  0  0  0  0  0  0  0  0  0  0
   10.8517   -2.6532   20.7232 C   0  0  0  0  0  0  0  0  0  0  0  0
   10.6303   -3.5007   21.8108 C   0  0  0  0  0  0  0  0  0  0  0  0
   10.5005   -3.8955   24.1784 C   0  0  0  0  0  0  0  0  0  0  0  0
    5.9339   -8.2719   16.5474 C   0  0  0  0  0  0  0  0  0  0  0  0
    3.8786   -9.1029   17.2487 C   0  0  0  0  0  0  0  0  0  0  0  0
   10.1155   -1.6584   23.2547 C   0  0  0  0  0  0  0  0  0  0  0  0
    9.4493   -1.6930   26.7419 F   0  0  0  0  0  0  0  0  0  0  0  0
    7.8134   -7.7988   17.9784 C   0  0  0  0  0  0  0  0  0  0  0  0
   10.5983   -3.0737   16.7863 O   0  0  0  0  0  0  0  0  0  0  0  0
   10.4359   -5.3483   20.3534 C   0  0  0  0  0  0  0  0  0  0  0  0
    7.1237   -7.5476   16.8195 C   0  0  0  0  0  0  0  0  0  0  0  0
   10.3895   -4.4360   19.2781 C   0  0  0  0  0  0  0  0  0  0  0  0
    4.5263   -9.3911   15.0850 C   0  0  0  0  0  0  0  0  0  0  0  0
  1  3  4  0
  1 24  4  0
  2  6  4  0
  2 15  4  0
  3  5  4  0
  3  6  4  0
  4 21  4  0
  4 29  4  0
  5 15  4  0
  5 28  1  0
  6 16  4  0
  7 18  4  0
  7 26  4  0
  8 18  1  0
  8 19  4  0
  8 22  4  0
  9 12  4  0
  9 19  4  0
 10 12  4  0
 10 22  4  0
 11 20  4  0
 11 21  4  0
 12 23  1  0
 13 20  4  0
 13 29  4  0
 14 17  4  0
 14 28  4  0
 15 25  2  0
 16 27  4  0
 17 18  4  0
 20 27  1  0
 24 27  4  0
 26 28  4  0
M  END
$$$$

 Created by Python create_sdf_string function

 29 33  0  0  0  0  0  0  0  0999 V2000
    8.8270   -7.0288   18.4251 C   0  0  0  0  0  0  0  0  0  0  0  0
    9.1576   -4.6236   15.8860 O   0  0  0  0  0  0  0  0  0  0  0  0
    9.1509   -5.9108   17.7177 C   0  0  0  0  0  0  0  0  0  0  0  0
    3.6373   -9.5349   16.0582 N   0  0  0  0  0  0  0  0  0  0  0  0
    9.9275   -4.8001   18.0438 N   0  0  0  0  0  0  0  0  0  0  0  0
    8.5908   -5.7425   16.4412 C   0  0  0  0  0  0  0  0  0  0  0  0
   10.5993   -4.8981   21.6068 C   0  0  0  0  0  0  0  0  0  0  0  0
   10.4258   -3.0106   23.0998 C   0  0  0  0  0  0  0  0  0  0  0  0
   10.2148   -3.4364   25.4200 C   0  0  0  0  0  0  0  0  0  0  0  0
    9.7853   -1.1840   24.4927 C   0  0  0  0  0  0  0  0  0  0  0  0
    5.0276   -8.5227   17.5352 C   0  0  0  0  0  0  0  0  0  0  0  0
    9.8187   -2.0895   25.5800 C   0  0  0  0  0  0  0  0  0  0  0  0
    5.6473   -8.7216   15.3158 C   0  0  0  0  0  0  0  0  0  0  0  0
   10.7581   -3.1233   19.4720 N   0  0  0  0  0  0  0  0  0  0  0  0
    9.9571   -4.0573   16.8866 C   0  0  0  0  0  0  0  0  0  0  0  0
    7.6213   -6.5618   16.0087 C   0  0  0  0  0  0  0  0  0  0  0  0
   10.8583   -2.6527   20.7222 C   0  0  0  0  0  0  0  0  0  0  0  0
   10.6412   -3.5089   21.7936 C   0  0  0  0  0  0  0  0  0  0  0  0
   10.4972   -3.8968   24.1589 C   0  0  0  0  0  0  0  0  0  0  0  0
    5.9260   -8.2736   16.5517 C   0  0  0  0  0  0  0  0  0  0  0  0
    3.8816   -9.1166   17.2493 C   0  0  0  0  0  0  0  0  0  0  0  0
   10.1297   -1.6575   23.2324 C   0  0  0  0  0  0  0  0  0  0  0  0
    9.4684   -1.6929   26.7263 F   0  0  0  0  0  0  0  0  0  0  0  0
    7.7963   -7.7906   17.9837 C   0  0  0  0  0  0  0  0  0  0  0  0
   10.5884   -3.0725   16.7902 O   0  0  0  0  0  0  0  0  0  0  0  0
   10.4323   -5.3494   20.3516 C   0  0  0  0  0  0  0  0  0  0  0  0
    7.1156   -7.5454   16.8218 C   0  0  0  0  0  0  0  0  0  0  0  0
   10.3885   -4.4388   19.2773 C   0  0  0  0  0  0  0  0  0  0  0  0
    4.5160   -9.3822   15.0841 C   0  0  0  0  0  0  0  0  0  0  0  0
  1  3  4  0
  1 24  4  0
  2  6  4  0
  2 15  4  0
  3  5  4  0
  3  6  4  0
  4 21  4  0
  4 29  4  0
  5 15  4  0
  5 28  1  0
  6 16  4  0
  7 18  4  0
  7 26  4  0
  8 18  1  0
  8 19  4  0
  8 22  4  0
  9 12  4  0
  9 19  4  0
 10 12  4  0
 10 22  4  0
 11 20  4  0
 11 21  4  0
 12 23  1  0
 13 20  4  0
 13 29  4  0
 14 17  4  0
 14 28  4  0
 15 25  2  0
 16 27  4  0
 17 18  4  0
 20 27  1  0
 24 27  4  0
 26 28  4  0
M  END
$$$$

 Created by Python create_sdf_string function

 29 33  0  0  0  0  0  0  0  0999 V2000
    8.8270   -7.0288   18.4251 C   0  0  0  0  0  0  0  0  0  0  0  0
    9.1576   -4.6236   15.8860 O   0  0  0  0  0  0  0  0  0  0  0  0
    9.1509   -5.9108   17.7177 C   0  0  0  0  0  0  0  0  0  0  0  0
    3.6373   -9.5349   16.0582 N   0  0  0  0  0  0  0  0  0  0  0  0
    9.9275   -4.8001   18.0438 N   0  0  0  0  0  0  0  0  0  0  0  0
    8.5908   -5.7425   16.4412 C   0  0  0  0  0  0  0  0  0  0  0  0
   10.5993   -4.8981   21.6068 C   0  0  0  0  0  0  0  0  0  0  0  0
   10.4258   -3.0106   23.0998 C   0  0  0  0  0  0  0  0  0  0  0  0
   10.2148   -3.4364   25.4200 C   0  0  0  0  0  0  0  0  0  0  0  0
    9.7853   -1.1840   24.4927 C   0  0  0  0  0  0  0  0  0  0  0  0
    5.0276   -8.5227   17.5352 C   0  0  0  0  0  0  0  0  0  0  0  0
    9.8187   -2.0895   25.5800 C   0  0  0  0  0  0  0  0  0  0  0  0
    5.6473   -8.7216   15.3158 C   0  0  0  0  0  0  0  0  0  0  0  0
   10.7581   -3.1233   19.4720 N   0  0  0  0  0  0  0  0  0  0  0  0
    9.9571   -4.0573   16.8866 C   0  0  0  0  0  0  0  0  0  0  0  0
    7.6213   -6.5618   16.0087 C   0  0  0  0  0  0  0  0  0  0  0  0
   10.8583   -2.6527   20.7222 C   0  0  0  0  0  0  0  0  0  0  0  0
   10.6412   -3.5089   21.7936 C   0  0  0  0  0  0  0  0  0  0  0  0
   10.4972   -3.8968   24.1589 C   0  0  0  0  0  0  0  0  0  0  0  0
    5.9260   -8.2736   16.5517 C   0  0  0  0  0  0  0  0  0  0  0  0
    3.8816   -9.1166   17.2493 C   0  0  0  0  0  0  0  0  0  0  0  0
   10.1297   -1.6575   23.2324 C   0  0  0  0  0  0  0  0  0  0  0  0
    9.4684   -1.6929   26.7263 F   0  0  0  0  0  0  0  0  0  0  0  0
    7.7963   -7.7906   17.9837 C   0  0  0  0  0  0  0  0  0  0  0  0
   10.5884   -3.0725   16.7902 O   0  0  0  0  0  0  0  0  0  0  0  0
   10.4323   -5.3494   20.3516 C   0  0  0  0  0  0  0  0  0  0  0  0
    7.1156   -7.5454   16.8218 C   0  0  0  0  0  0  0  0  0  0  0  0
   10.3885   -4.4388   19.2773 C   0  0  0  0  0  0  0  0  0  0  0  0
    4.5160   -9.3822   15.0841 C   0  0  0  0  0  0  0  0  0  0  0  0
  1  3  4  0
  1 24  4  0
  2  6  4  0
  2 15  4  0
  3  5  4  0
  3  6  4  0
  4 21  4  0
  4 29  4  0
  5 15  4  0
  5 28  1  0
  6 16  4  0
  7 18  4  0
  7 26  4  0
  8 18  1  0
  8 19  4  0
  8 22  4  0
  9 12  4  0
  9 19  4  0
 10 12  4  0
 10 22  4  0
 11 20  4  0
 11 21  4  0
 12 23  1  0
 13 20  4  0
 13 29  4  0
 14 17  4  0
 14 28  4  0
 15 25  2  0
 16 27  4  0
 17 18  4  0
 20 27  1  0
 24 27  4  0
 26 28  4  0
M  END
$$$$

 Created by Python create_sdf_string function

 29 33  0  0  0  0  0  0  0  0999 V2000
    8.8270   -7.0288   18.4251 C   0  0  0  0  0  0  0  0  0  0  0  0
    9.1576   -4.6236   15.8860 O   0  0  0  0  0  0  0  0  0  0  0  0
    9.1509   -5.9108   17.7177 C   0  0  0  0  0  0  0  0  0  0  0  0
    3.6373   -9.5349   16.0582 N   0  0  0  0  0  0  0  0  0  0  0  0
    9.9275   -4.8001   18.0438 N   0  0  0  0  0  0  0  0  0  0  0  0
    8.5908   -5.7425   16.4412 C   0  0  0  0  0  0  0  0  0  0  0  0
   10.5993   -4.8981   21.6068 C   0  0  0  0  0  0  0  0  0  0  0  0
   10.4258   -3.0106   23.0998 C   0  0  0  0  0  0  0  0  0  0  0  0
   10.2148   -3.4364   25.4200 C   0  0  0  0  0  0  0  0  0  0  0  0
    9.7853   -1.1840   24.4927 C   0  0  0  0  0  0  0  0  0  0  0  0
    5.0276   -8.5227   17.5352 C   0  0  0  0  0  0  0  0  0  0  0  0
    9.8187   -2.0895   25.5800 C   0  0  0  0  0  0  0  0  0  0  0  0
    5.6473   -8.7216   15.3158 C   0  0  0  0  0  0  0  0  0  0  0  0
   10.7581   -3.1233   19.4720 N   0  0  0  0  0  0  0  0  0  0  0  0
    9.9571   -4.0573   16.8866 C   0  0  0  0  0  0  0  0  0  0  0  0
    7.6213   -6.5618   16.0087 C   0  0  0  0  0  0  0  0  0  0  0  0
   10.8583   -2.6527   20.7222 C   0  0  0  0  0  0  0  0  0  0  0  0
   10.6412   -3.5089   21.7936 C   0  0  0  0  0  0  0  0  0  0  0  0
   10.4972   -3.8968   24.1589 C   0  0  0  0  0  0  0  0  0  0  0  0
    5.9260   -8.2736   16.5517 C   0  0  0  0  0  0  0  0  0  0  0  0
    3.8816   -9.1166   17.2493 C   0  0  0  0  0  0  0  0  0  0  0  0
   10.1297   -1.6575   23.2324 C   0  0  0  0  0  0  0  0  0  0  0  0
    9.4684   -1.6929   26.7263 F   0  0  0  0  0  0  0  0  0  0  0  0
    7.7963   -7.7906   17.9837 C   0  0  0  0  0  0  0  0  0  0  0  0
   10.5884   -3.0725   16.7902 O   0  0  0  0  0  0  0  0  0  0  0  0
   10.4323   -5.3494   20.3516 C   0  0  0  0  0  0  0  0  0  0  0  0
    7.1156   -7.5454   16.8218 C   0  0  0  0  0  0  0  0  0  0  0  0
   10.3885   -4.4388   19.2773 C   0  0  0  0  0  0  0  0  0  0  0  0
    4.5160   -9.3822   15.0841 C   0  0  0  0  0  0  0  0  0  0  0  0
  1  3  4  0
  1 24  4  0
  2  6  4  0
  2 15  4  0
  3  5  4  0
  3  6  4  0
  4 21  4  0
  4 29  4  0
  5 15  4  0
  5 28  1  0
  6 16  4  0
  7 18  4  0
  7 26  4  0
  8 18  1  0
  8 19  4  0
  8 22  4  0
  9 12  4  0
  9 19  4  0
 10 12  4  0
 10 22  4  0
 11 20  4  0
 11 21  4  0
 12 23  1  0
 13 20  4  0
 13 29  4  0
 14 17  4  0
 14 28  4  0
 15 25  2  0
 16 27  4  0
 17 18  4  0
 20 27  1  0
 24 27  4  0
 26 28  4  0
M  END
$$$$

 Created by Python create_sdf_string function

 29 33  0  0  0  0  0  0  0  0999 V2000
    8.8270   -7.0288   18.4251 C   0  0  0  0  0  0  0  0  0  0  0  0
    9.1576   -4.6236   15.8860 O   0  0  0  0  0  0  0  0  0  0  0  0
    9.1509   -5.9108   17.7177 C   0  0  0  0  0  0  0  0  0  0  0  0
    3.6373   -9.5349   16.0582 N   0  0  0  0  0  0  0  0  0  0  0  0
    9.9275   -4.8001   18.0438 N   0  0  0  0  0  0  0  0  0  0  0  0
    8.5908   -5.7425   16.4412 C   0  0  0  0  0  0  0  0  0  0  0  0
   10.5993   -4.8981   21.6068 C   0  0  0  0  0  0  0  0  0  0  0  0
   10.4258   -3.0106   23.0998 C   0  0  0  0  0  0  0  0  0  0  0  0
   10.2148   -3.4364   25.4200 C   0  0  0  0  0  0  0  0  0  0  0  0
    9.7853   -1.1840   24.4927 C   0  0  0  0  0  0  0  0  0  0  0  0
    5.0276   -8.5227   17.5352 C   0  0  0  0  0  0  0  0  0  0  0  0
    9.8187   -2.0895   25.5800 C   0  0  0  0  0  0  0  0  0  0  0  0
    5.6473   -8.7216   15.3158 C   0  0  0  0  0  0  0  0  0  0  0  0
   10.7581   -3.1233   19.4720 N   0  0  0  0  0  0  0  0  0  0  0  0
    9.9571   -4.0573   16.8866 C   0  0  0  0  0  0  0  0  0  0  0  0
    7.6213   -6.5618   16.0087 C   0  0  0  0  0  0  0  0  0  0  0  0
   10.8583   -2.6527   20.7222 C   0  0  0  0  0  0  0  0  0  0  0  0
   10.6412   -3.5089   21.7936 C   0  0  0  0  0  0  0  0  0  0  0  0
   10.4972   -3.8968   24.1589 C   0  0  0  0  0  0  0  0  0  0  0  0
    5.9260   -8.2736   16.5517 C   0  0  0  0  0  0  0  0  0  0  0  0
    3.8816   -9.1166   17.2493 C   0  0  0  0  0  0  0  0  0  0  0  0
   10.1297   -1.6575   23.2324 C   0  0  0  0  0  0  0  0  0  0  0  0
    9.4684   -1.6929   26.7263 F   0  0  0  0  0  0  0  0  0  0  0  0
    7.7963   -7.7906   17.9837 C   0  0  0  0  0  0  0  0  0  0  0  0
   10.5884   -3.0725   16.7902 O   0  0  0  0  0  0  0  0  0  0  0  0
   10.4323   -5.3494   20.3516 C   0  0  0  0  0  0  0  0  0  0  0  0
    7.1156   -7.5454   16.8218 C   0  0  0  0  0  0  0  0  0  0  0  0
   10.3885   -4.4388   19.2773 C   0  0  0  0  0  0  0  0  0  0  0  0
    4.5160   -9.3822   15.0841 C   0  0  0  0  0  0  0  0  0  0  0  0
  1  3  4  0
  1 24  4  0
  2  6  4  0
  2 15  4  0
  3  5  4  0
  3  6  4  0
  4 21  4  0
  4 29  4  0
  5 15  4  0
  5 28  1  0
  6 16  4  0
  7 18  4  0
  7 26  4  0
  8 18  1  0
  8 19  4  0
  8 22  4  0
  9 12  4  0
  9 19  4  0
 10 12  4  0
 10 22  4  0
 11 20  4  0
 11 21  4  0
 12 23  1  0
 13 20  4  0
 13 29  4  0
 14 17  4  0
 14 28  4  0
 15 25  2  0
 16 27  4  0
 17 18  4  0
 20 27  1  0
 24 27  4  0
 26 28  4  0
M  END
$$$$

 Created by Python create_sdf_string function

 29 33  0  0  0  0  0  0  0  0999 V2000
    8.8270   -7.0288   18.4251 C   0  0  0  0  0  0  0  0  0  0  0  0
    9.1576   -4.6236   15.8860 O   0  0  0  0  0  0  0  0  0  0  0  0
    9.1509   -5.9108   17.7177 C   0  0  0  0  0  0  0  0  0  0  0  0
    3.6373   -9.5349   16.0582 N   0  0  0  0  0  0  0  0  0  0  0  0
    9.9275   -4.8001   18.0438 N   0  0  0  0  0  0  0  0  0  0  0  0
    8.5908   -5.7425   16.4412 C   0  0  0  0  0  0  0  0  0  0  0  0
   10.5993   -4.8981   21.6068 C   0  0  0  0  0  0  0  0  0  0  0  0
   10.4258   -3.0106   23.0998 C   0  0  0  0  0  0  0  0  0  0  0  0
   10.2148   -3.4364   25.4200 C   0  0  0  0  0  0  0  0  0  0  0  0
    9.7853   -1.1840   24.4927 C   0  0  0  0  0  0  0  0  0  0  0  0
    5.0276   -8.5227   17.5352 C   0  0  0  0  0  0  0  0  0  0  0  0
    9.8187   -2.0895   25.5800 C   0  0  0  0  0  0  0  0  0  0  0  0
    5.6473   -8.7216   15.3158 C   0  0  0  0  0  0  0  0  0  0  0  0
   10.7581   -3.1233   19.4720 N   0  0  0  0  0  0  0  0  0  0  0  0
    9.9571   -4.0573   16.8866 C   0  0  0  0  0  0  0  0  0  0  0  0
    7.6213   -6.5618   16.0087 C   0  0  0  0  0  0  0  0  0  0  0  0
   10.8583   -2.6527   20.7222 C   0  0  0  0  0  0  0  0  0  0  0  0
   10.6412   -3.5089   21.7936 C   0  0  0  0  0  0  0  0  0  0  0  0
   10.4972   -3.8968   24.1589 C   0  0  0  0  0  0  0  0  0  0  0  0
    5.9260   -8.2736   16.5517 C   0  0  0  0  0  0  0  0  0  0  0  0
    3.8816   -9.1166   17.2493 C   0  0  0  0  0  0  0  0  0  0  0  0
   10.1297   -1.6575   23.2324 C   0  0  0  0  0  0  0  0  0  0  0  0
    9.4684   -1.6929   26.7263 F   0  0  0  0  0  0  0  0  0  0  0  0
    7.7963   -7.7906   17.9837 C   0  0  0  0  0  0  0  0  0  0  0  0
   10.5884   -3.0725   16.7902 O   0  0  0  0  0  0  0  0  0  0  0  0
   10.4323   -5.3494   20.3516 C   0  0  0  0  0  0  0  0  0  0  0  0
    7.1156   -7.5454   16.8218 C   0  0  0  0  0  0  0  0  0  0  0  0
   10.3885   -4.4388   19.2773 C   0  0  0  0  0  0  0  0  0  0  0  0
    4.5160   -9.3822   15.0841 C   0  0  0  0  0  0  0  0  0  0  0  0
  1  3  4  0
  1 24  4  0
  2  6  4  0
  2 15  4  0
  3  5  4  0
  3  6  4  0
  4 21  4  0
  4 29  4  0
  5 15  4  0
  5 28  1  0
  6 16  4  0
  7 18  4  0
  7 26  4  0
  8 18  1  0
  8 19  4  0
  8 22  4  0
  9 12  4  0
  9 19  4  0
 10 12  4  0
 10 22  4  0
 11 20  4  0
 11 21  4  0
 12 23  1  0
 13 20  4  0
 13 29  4  0
 14 17  4  0
 14 28  4  0
 15 25  2  0
 16 27  4  0
 17 18  4  0
 20 27  1  0
 24 27  4  0
 26 28  4  0
M  END
$$$$

 Created by Python create_sdf_string function

 29 33  0  0  0  0  0  0  0  0999 V2000
    8.8270   -7.0288   18.4251 C   0  0  0  0  0  0  0  0  0  0  0  0
    9.1576   -4.6236   15.8860 O   0  0  0  0  0  0  0  0  0  0  0  0
    9.1509   -5.9108   17.7177 C   0  0  0  0  0  0  0  0  0  0  0  0
    3.6373   -9.5349   16.0582 N   0  0  0  0  0  0  0  0  0  0  0  0
    9.9275   -4.8001   18.0438 N   0  0  0  0  0  0  0  0  0  0  0  0
    8.5908   -5.7425   16.4412 C   0  0  0  0  0  0  0  0  0  0  0  0
   10.5993   -4.8981   21.6068 C   0  0  0  0  0  0  0  0  0  0  0  0
   10.4258   -3.0106   23.0998 C   0  0  0  0  0  0  0  0  0  0  0  0
   10.2148   -3.4364   25.4200 C   0  0  0  0  0  0  0  0  0  0  0  0
    9.7853   -1.1840   24.4927 C   0  0  0  0  0  0  0  0  0  0  0  0
    5.0276   -8.5227   17.5352 C   0  0  0  0  0  0  0  0  0  0  0  0
    9.8187   -2.0895   25.5800 C   0  0  0  0  0  0  0  0  0  0  0  0
    5.6473   -8.7216   15.3158 C   0  0  0  0  0  0  0  0  0  0  0  0
   10.7581   -3.1233   19.4720 N   0  0  0  0  0  0  0  0  0  0  0  0
    9.9571   -4.0573   16.8866 C   0  0  0  0  0  0  0  0  0  0  0  0
    7.6213   -6.5618   16.0087 C   0  0  0  0  0  0  0  0  0  0  0  0
   10.8583   -2.6527   20.7222 C   0  0  0  0  0  0  0  0  0  0  0  0
   10.6412   -3.5089   21.7936 C   0  0  0  0  0  0  0  0  0  0  0  0
   10.4972   -3.8968   24.1589 C   0  0  0  0  0  0  0  0  0  0  0  0
    5.9260   -8.2736   16.5517 C   0  0  0  0  0  0  0  0  0  0  0  0
    3.8816   -9.1166   17.2493 C   0  0  0  0  0  0  0  0  0  0  0  0
   10.1297   -1.6575   23.2324 C   0  0  0  0  0  0  0  0  0  0  0  0
    9.4684   -1.6929   26.7263 F   0  0  0  0  0  0  0  0  0  0  0  0
    7.7963   -7.7906   17.9837 C   0  0  0  0  0  0  0  0  0  0  0  0
   10.5884   -3.0725   16.7902 O   0  0  0  0  0  0  0  0  0  0  0  0
   10.4323   -5.3494   20.3516 C   0  0  0  0  0  0  0  0  0  0  0  0
    7.1156   -7.5454   16.8218 C   0  0  0  0  0  0  0  0  0  0  0  0
   10.3885   -4.4388   19.2773 C   0  0  0  0  0  0  0  0  0  0  0  0
    4.5160   -9.3822   15.0841 C   0  0  0  0  0  0  0  0  0  0  0  0
  1  3  4  0
  1 24  4  0
  2  6  4  0
  2 15  4  0
  3  5  4  0
  3  6  4  0
  4 21  4  0
  4 29  4  0
  5 15  4  0
  5 28  1  0
  6 16  4  0
  7 18  4  0
  7 26  4  0
  8 18  1  0
  8 19  4  0
  8 22  4  0
  9 12  4  0
  9 19  4  0
 10 12  4  0
 10 22  4  0
 11 20  4  0
 11 21  4  0
 12 23  1  0
 13 20  4  0
 13 29  4  0
 14 17  4  0
 14 28  4  0
 15 25  2  0
 16 27  4  0
 17 18  4  0
 20 27  1  0
 24 27  4  0
 26 28  4  0
M  END
$$$$

 Created by Python create_sdf_string function

 29 33  0  0  0  0  0  0  0  0999 V2000
    8.8270   -7.0288   18.4251 C   0  0  0  0  0  0  0  0  0  0  0  0
    9.1576   -4.6236   15.8860 O   0  0  0  0  0  0  0  0  0  0  0  0
    9.1509   -5.9108   17.7177 C   0  0  0  0  0  0  0  0  0  0  0  0
    3.6373   -9.5349   16.0582 N   0  0  0  0  0  0  0  0  0  0  0  0
    9.9275   -4.8001   18.0438 N   0  0  0  0  0  0  0  0  0  0  0  0
    8.5908   -5.7425   16.4412 C   0  0  0  0  0  0  0  0  0  0  0  0
   10.5993   -4.8981   21.6068 C   0  0  0  0  0  0  0  0  0  0  0  0
   10.4258   -3.0106   23.0998 C   0  0  0  0  0  0  0  0  0  0  0  0
   10.2148   -3.4364   25.4200 C   0  0  0  0  0  0  0  0  0  0  0  0
    9.7853   -1.1840   24.4927 C   0  0  0  0  0  0  0  0  0  0  0  0
    5.0276   -8.5227   17.5352 C   0  0  0  0  0  0  0  0  0  0  0  0
    9.8187   -2.0895   25.5800 C   0  0  0  0  0  0  0  0  0  0  0  0
    5.6473   -8.7216   15.3158 C   0  0  0  0  0  0  0  0  0  0  0  0
   10.7581   -3.1233   19.4720 N   0  0  0  0  0  0  0  0  0  0  0  0
    9.9571   -4.0573   16.8866 C   0  0  0  0  0  0  0  0  0  0  0  0
    7.6213   -6.5618   16.0087 C   0  0  0  0  0  0  0  0  0  0  0  0
   10.8583   -2.6527   20.7222 C   0  0  0  0  0  0  0  0  0  0  0  0
   10.6412   -3.5089   21.7936 C   0  0  0  0  0  0  0  0  0  0  0  0
   10.4972   -3.8968   24.1589 C   0  0  0  0  0  0  0  0  0  0  0  0
    5.9260   -8.2736   16.5517 C   0  0  0  0  0  0  0  0  0  0  0  0
    3.8816   -9.1166   17.2493 C   0  0  0  0  0  0  0  0  0  0  0  0
   10.1297   -1.6575   23.2324 C   0  0  0  0  0  0  0  0  0  0  0  0
    9.4684   -1.6929   26.7263 F   0  0  0  0  0  0  0  0  0  0  0  0
    7.7963   -7.7906   17.9837 C   0  0  0  0  0  0  0  0  0  0  0  0
   10.5884   -3.0725   16.7902 O   0  0  0  0  0  0  0  0  0  0  0  0
   10.4323   -5.3494   20.3516 C   0  0  0  0  0  0  0  0  0  0  0  0
    7.1156   -7.5454   16.8218 C   0  0  0  0  0  0  0  0  0  0  0  0
   10.3885   -4.4388   19.2773 C   0  0  0  0  0  0  0  0  0  0  0  0
    4.5160   -9.3822   15.0841 C   0  0  0  0  0  0  0  0  0  0  0  0
  1  3  4  0
  1 24  4  0
  2  6  4  0
  2 15  4  0
  3  5  4  0
  3  6  4  0
  4 21  4  0
  4 29  4  0
  5 15  4  0
  5 28  1  0
  6 16  4  0
  7 18  4  0
  7 26  4  0
  8 18  1  0
  8 19  4  0
  8 22  4  0
  9 12  4  0
  9 19  4  0
 10 12  4  0
 10 22  4  0
 11 20  4  0
 11 21  4  0
 12 23  1  0
 13 20  4  0
 13 29  4  0
 14 17  4  0
 14 28  4  0
 15 25  2  0
 16 27  4  0
 17 18  4  0
 20 27  1  0
 24 27  4  0
 26 28  4  0
M  END
$$$$

 Created by Python create_sdf_string function

 29 33  0  0  0  0  0  0  0  0999 V2000
    8.8270   -7.0288   18.4251 C   0  0  0  0  0  0  0  0  0  0  0  0
    9.1576   -4.6236   15.8860 O   0  0  0  0  0  0  0  0  0  0  0  0
    9.1509   -5.9108   17.7177 C   0  0  0  0  0  0  0  0  0  0  0  0
    3.6373   -9.5349   16.0582 N   0  0  0  0  0  0  0  0  0  0  0  0
    9.9275   -4.8001   18.0438 N   0  0  0  0  0  0  0  0  0  0  0  0
    8.5908   -5.7425   16.4412 C   0  0  0  0  0  0  0  0  0  0  0  0
   10.5993   -4.8981   21.6068 C   0  0  0  0  0  0  0  0  0  0  0  0
   10.4258   -3.0106   23.0998 C   0  0  0  0  0  0  0  0  0  0  0  0
   10.2148   -3.4364   25.4200 C   0  0  0  0  0  0  0  0  0  0  0  0
    9.7853   -1.1840   24.4927 C   0  0  0  0  0  0  0  0  0  0  0  0
    5.0276   -8.5227   17.5352 C   0  0  0  0  0  0  0  0  0  0  0  0
    9.8187   -2.0895   25.5800 C   0  0  0  0  0  0  0  0  0  0  0  0
    5.6473   -8.7216   15.3158 C   0  0  0  0  0  0  0  0  0  0  0  0
   10.7581   -3.1233   19.4720 N   0  0  0  0  0  0  0  0  0  0  0  0
    9.9571   -4.0573   16.8866 C   0  0  0  0  0  0  0  0  0  0  0  0
    7.6213   -6.5618   16.0087 C   0  0  0  0  0  0  0  0  0  0  0  0
   10.8583   -2.6527   20.7222 C   0  0  0  0  0  0  0  0  0  0  0  0
   10.6412   -3.5089   21.7936 C   0  0  0  0  0  0  0  0  0  0  0  0
   10.4972   -3.8968   24.1589 C   0  0  0  0  0  0  0  0  0  0  0  0
    5.9260   -8.2736   16.5517 C   0  0  0  0  0  0  0  0  0  0  0  0
    3.8816   -9.1166   17.2493 C   0  0  0  0  0  0  0  0  0  0  0  0
   10.1297   -1.6575   23.2324 C   0  0  0  0  0  0  0  0  0  0  0  0
    9.4684   -1.6929   26.7263 F   0  0  0  0  0  0  0  0  0  0  0  0
    7.7963   -7.7906   17.9837 C   0  0  0  0  0  0  0  0  0  0  0  0
   10.5884   -3.0725   16.7902 O   0  0  0  0  0  0  0  0  0  0  0  0
   10.4323   -5.3494   20.3516 C   0  0  0  0  0  0  0  0  0  0  0  0
    7.1156   -7.5454   16.8218 C   0  0  0  0  0  0  0  0  0  0  0  0
   10.3885   -4.4388   19.2773 C   0  0  0  0  0  0  0  0  0  0  0  0
    4.5160   -9.3822   15.0841 C   0  0  0  0  0  0  0  0  0  0  0  0
  1  3  4  0
  1 24  4  0
  2  6  4  0
  2 15  4  0
  3  5  4  0
  3  6  4  0
  4 21  4  0
  4 29  4  0
  5 15  4  0
  5 28  1  0
  6 16  4  0
  7 18  4  0
  7 26  4  0
  8 18  1  0
  8 19  4  0
  8 22  4  0
  9 12  4  0
  9 19  4  0
 10 12  4  0
 10 22  4  0
 11 20  4  0
 11 21  4  0
 12 23  1  0
 13 20  4  0
 13 29  4  0
 14 17  4  0
 14 28  4  0
 15 25  2  0
 16 27  4  0
 17 18  4  0
 20 27  1  0
 24 27  4  0
 26 28  4  0
M  END
$$$$

 Created by Python create_sdf_string function

 29 33  0  0  0  0  0  0  0  0999 V2000
    8.8270   -7.0288   18.4251 C   0  0  0  0  0  0  0  0  0  0  0  0
    9.1576   -4.6236   15.8860 O   0  0  0  0  0  0  0  0  0  0  0  0
    9.1509   -5.9108   17.7177 C   0  0  0  0  0  0  0  0  0  0  0  0
    3.6373   -9.5349   16.0582 N   0  0  0  0  0  0  0  0  0  0  0  0
    9.9275   -4.8001   18.0438 N   0  0  0  0  0  0  0  0  0  0  0  0
    8.5908   -5.7425   16.4412 C   0  0  0  0  0  0  0  0  0  0  0  0
   10.5993   -4.8981   21.6068 C   0  0  0  0  0  0  0  0  0  0  0  0
   10.4258   -3.0106   23.0998 C   0  0  0  0  0  0  0  0  0  0  0  0
   10.2148   -3.4364   25.4200 C   0  0  0  0  0  0  0  0  0  0  0  0
    9.7853   -1.1840   24.4927 C   0  0  0  0  0  0  0  0  0  0  0  0
    5.0276   -8.5227   17.5352 C   0  0  0  0  0  0  0  0  0  0  0  0
    9.8187   -2.0895   25.5800 C   0  0  0  0  0  0  0  0  0  0  0  0
    5.6473   -8.7216   15.3158 C   0  0  0  0  0  0  0  0  0  0  0  0
   10.7581   -3.1233   19.4720 N   0  0  0  0  0  0  0  0  0  0  0  0
    9.9571   -4.0573   16.8866 C   0  0  0  0  0  0  0  0  0  0  0  0
    7.6213   -6.5618   16.0087 C   0  0  0  0  0  0  0  0  0  0  0  0
   10.8583   -2.6527   20.7222 C   0  0  0  0  0  0  0  0  0  0  0  0
   10.6412   -3.5089   21.7936 C   0  0  0  0  0  0  0  0  0  0  0  0
   10.4972   -3.8968   24.1589 C   0  0  0  0  0  0  0  0  0  0  0  0
    5.9260   -8.2736   16.5517 C   0  0  0  0  0  0  0  0  0  0  0  0
    3.8816   -9.1166   17.2493 C   0  0  0  0  0  0  0  0  0  0  0  0
   10.1297   -1.6575   23.2324 C   0  0  0  0  0  0  0  0  0  0  0  0
    9.4684   -1.6929   26.7263 F   0  0  0  0  0  0  0  0  0  0  0  0
    7.7963   -7.7906   17.9837 C   0  0  0  0  0  0  0  0  0  0  0  0
   10.5884   -3.0725   16.7902 O   0  0  0  0  0  0  0  0  0  0  0  0
   10.4323   -5.3494   20.3516 C   0  0  0  0  0  0  0  0  0  0  0  0
    7.1156   -7.5454   16.8218 C   0  0  0  0  0  0  0  0  0  0  0  0
   10.3885   -4.4388   19.2773 C   0  0  0  0  0  0  0  0  0  0  0  0
    4.5160   -9.3822   15.0841 C   0  0  0  0  0  0  0  0  0  0  0  0
  1  3  4  0
  1 24  4  0
  2  6  4  0
  2 15  4  0
  3  5  4  0
  3  6  4  0
  4 21  4  0
  4 29  4  0
  5 15  4  0
  5 28  1  0
  6 16  4  0
  7 18  4  0
  7 26  4  0
  8 18  1  0
  8 19  4  0
  8 22  4  0
  9 12  4  0
  9 19  4  0
 10 12  4  0
 10 22  4  0
 11 20  4  0
 11 21  4  0
 12 23  1  0
 13 20  4  0
 13 29  4  0
 14 17  4  0
 14 28  4  0
 15 25  2  0
 16 27  4  0
 17 18  4  0
 20 27  1  0
 24 27  4  0
 26 28  4  0
M  END
$$$$

 Created by Python create_sdf_string function

 29 33  0  0  0  0  0  0  0  0999 V2000
    8.8270   -7.0288   18.4251 C   0  0  0  0  0  0  0  0  0  0  0  0
    9.1576   -4.6236   15.8860 O   0  0  0  0  0  0  0  0  0  0  0  0
    9.1509   -5.9108   17.7177 C   0  0  0  0  0  0  0  0  0  0  0  0
    3.6373   -9.5349   16.0582 N   0  0  0  0  0  0  0  0  0  0  0  0
    9.9275   -4.8001   18.0438 N   0  0  0  0  0  0  0  0  0  0  0  0
    8.5908   -5.7425   16.4412 C   0  0  0  0  0  0  0  0  0  0  0  0
   10.5993   -4.8981   21.6068 C   0  0  0  0  0  0  0  0  0  0  0  0
   10.4258   -3.0106   23.0998 C   0  0  0  0  0  0  0  0  0  0  0  0
   10.2148   -3.4364   25.4200 C   0  0  0  0  0  0  0  0  0  0  0  0
    9.7853   -1.1840   24.4927 C   0  0  0  0  0  0  0  0  0  0  0  0
    5.0276   -8.5227   17.5352 C   0  0  0  0  0  0  0  0  0  0  0  0
    9.8187   -2.0895   25.5800 C   0  0  0  0  0  0  0  0  0  0  0  0
    5.6473   -8.7216   15.3158 C   0  0  0  0  0  0  0  0  0  0  0  0
   10.7581   -3.1233   19.4720 N   0  0  0  0  0  0  0  0  0  0  0  0
    9.9571   -4.0573   16.8866 C   0  0  0  0  0  0  0  0  0  0  0  0
    7.6213   -6.5618   16.0087 C   0  0  0  0  0  0  0  0  0  0  0  0
   10.8583   -2.6527   20.7222 C   0  0  0  0  0  0  0  0  0  0  0  0
   10.6412   -3.5089   21.7936 C   0  0  0  0  0  0  0  0  0  0  0  0
   10.4972   -3.8968   24.1589 C   0  0  0  0  0  0  0  0  0  0  0  0
    5.9260   -8.2736   16.5517 C   0  0  0  0  0  0  0  0  0  0  0  0
    3.8816   -9.1166   17.2493 C   0  0  0  0  0  0  0  0  0  0  0  0
   10.1297   -1.6575   23.2324 C   0  0  0  0  0  0  0  0  0  0  0  0
    9.4684   -1.6929   26.7263 F   0  0  0  0  0  0  0  0  0  0  0  0
    7.7963   -7.7906   17.9837 C   0  0  0  0  0  0  0  0  0  0  0  0
   10.5884   -3.0725   16.7902 O   0  0  0  0  0  0  0  0  0  0  0  0
   10.4323   -5.3494   20.3516 C   0  0  0  0  0  0  0  0  0  0  0  0
    7.1156   -7.5454   16.8218 C   0  0  0  0  0  0  0  0  0  0  0  0
   10.3885   -4.4388   19.2773 C   0  0  0  0  0  0  0  0  0  0  0  0
    4.5160   -9.3822   15.0841 C   0  0  0  0  0  0  0  0  0  0  0  0
  1  3  4  0
  1 24  4  0
  2  6  4  0
  2 15  4  0
  3  5  4  0
  3  6  4  0
  4 21  4  0
  4 29  4  0
  5 15  4  0
  5 28  1  0
  6 16  4  0
  7 18  4  0
  7 26  4  0
  8 18  1  0
  8 19  4  0
  8 22  4  0
  9 12  4  0
  9 19  4  0
 10 12  4  0
 10 22  4  0
 11 20  4  0
 11 21  4  0
 12 23  1  0
 13 20  4  0
 13 29  4  0
 14 17  4  0
 14 28  4  0
 15 25  2  0
 16 27  4  0
 17 18  4  0
 20 27  1  0
 24 27  4  0
 26 28  4  0
M  END
$$$$

 Created by Python create_sdf_string function

 29 33  0  0  0  0  0  0  0  0999 V2000
    8.8270   -7.0288   18.4251 C   0  0  0  0  0  0  0  0  0  0  0  0
    9.1576   -4.6236   15.8860 O   0  0  0  0  0  0  0  0  0  0  0  0
    9.1509   -5.9108   17.7177 C   0  0  0  0  0  0  0  0  0  0  0  0
    3.6373   -9.5349   16.0582 N   0  0  0  0  0  0  0  0  0  0  0  0
    9.9275   -4.8001   18.0438 N   0  0  0  0  0  0  0  0  0  0  0  0
    8.5908   -5.7425   16.4412 C   0  0  0  0  0  0  0  0  0  0  0  0
   10.5993   -4.8981   21.6068 C   0  0  0  0  0  0  0  0  0  0  0  0
   10.4258   -3.0106   23.0998 C   0  0  0  0  0  0  0  0  0  0  0  0
   10.2148   -3.4364   25.4200 C   0  0  0  0  0  0  0  0  0  0  0  0
    9.7853   -1.1840   24.4927 C   0  0  0  0  0  0  0  0  0  0  0  0
    5.0276   -8.5227   17.5352 C   0  0  0  0  0  0  0  0  0  0  0  0
    9.8187   -2.0895   25.5800 C   0  0  0  0  0  0  0  0  0  0  0  0
    5.6473   -8.7216   15.3158 C   0  0  0  0  0  0  0  0  0  0  0  0
   10.7581   -3.1233   19.4720 N   0  0  0  0  0  0  0  0  0  0  0  0
    9.9571   -4.0573   16.8866 C   0  0  0  0  0  0  0  0  0  0  0  0
    7.6213   -6.5618   16.0087 C   0  0  0  0  0  0  0  0  0  0  0  0
   10.8583   -2.6527   20.7222 C   0  0  0  0  0  0  0  0  0  0  0  0
   10.6412   -3.5089   21.7936 C   0  0  0  0  0  0  0  0  0  0  0  0
   10.4972   -3.8968   24.1589 C   0  0  0  0  0  0  0  0  0  0  0  0
    5.9260   -8.2736   16.5517 C   0  0  0  0  0  0  0  0  0  0  0  0
    3.8816   -9.1166   17.2493 C   0  0  0  0  0  0  0  0  0  0  0  0
   10.1297   -1.6575   23.2324 C   0  0  0  0  0  0  0  0  0  0  0  0
    9.4684   -1.6929   26.7263 F   0  0  0  0  0  0  0  0  0  0  0  0
    7.7963   -7.7906   17.9837 C   0  0  0  0  0  0  0  0  0  0  0  0
   10.5884   -3.0725   16.7902 O   0  0  0  0  0  0  0  0  0  0  0  0
   10.4323   -5.3494   20.3516 C   0  0  0  0  0  0  0  0  0  0  0  0
    7.1156   -7.5454   16.8218 C   0  0  0  0  0  0  0  0  0  0  0  0
   10.3885   -4.4388   19.2773 C   0  0  0  0  0  0  0  0  0  0  0  0
    4.5160   -9.3822   15.0841 C   0  0  0  0  0  0  0  0  0  0  0  0
  1  3  4  0
  1 24  4  0
  2  6  4  0
  2 15  4  0
  3  5  4  0
  3  6  4  0
  4 21  4  0
  4 29  4  0
  5 15  4  0
  5 28  1  0
  6 16  4  0
  7 18  4  0
  7 26  4  0
  8 18  1  0
  8 19  4  0
  8 22  4  0
  9 12  4  0
  9 19  4  0
 10 12  4  0
 10 22  4  0
 11 20  4  0
 11 21  4  0
 12 23  1  0
 13 20  4  0
 13 29  4  0
 14 17  4  0
 14 28  4  0
 15 25  2  0
 16 27  4  0
 17 18  4  0
 20 27  1  0
 24 27  4  0
 26 28  4  0
M  END
$$$$

 Created by Python create_sdf_string function

 29 33  0  0  0  0  0  0  0  0999 V2000
    8.8270   -7.0288   18.4251 C   0  0  0  0  0  0  0  0  0  0  0  0
    9.1576   -4.6236   15.8860 O   0  0  0  0  0  0  0  0  0  0  0  0
    9.1509   -5.9108   17.7177 C   0  0  0  0  0  0  0  0  0  0  0  0
    3.6373   -9.5349   16.0582 N   0  0  0  0  0  0  0  0  0  0  0  0
    9.9275   -4.8001   18.0438 N   0  0  0  0  0  0  0  0  0  0  0  0
    8.5908   -5.7425   16.4412 C   0  0  0  0  0  0  0  0  0  0  0  0
   10.5993   -4.8981   21.6068 C   0  0  0  0  0  0  0  0  0  0  0  0
   10.4258   -3.0106   23.0998 C   0  0  0  0  0  0  0  0  0  0  0  0
   10.2148   -3.4364   25.4200 C   0  0  0  0  0  0  0  0  0  0  0  0
    9.7853   -1.1840   24.4927 C   0  0  0  0  0  0  0  0  0  0  0  0
    5.0276   -8.5227   17.5352 C   0  0  0  0  0  0  0  0  0  0  0  0
    9.8187   -2.0895   25.5800 C   0  0  0  0  0  0  0  0  0  0  0  0
    5.6473   -8.7216   15.3158 C   0  0  0  0  0  0  0  0  0  0  0  0
   10.7581   -3.1233   19.4720 N   0  0  0  0  0  0  0  0  0  0  0  0
    9.9571   -4.0573   16.8866 C   0  0  0  0  0  0  0  0  0  0  0  0
    7.6213   -6.5618   16.0087 C   0  0  0  0  0  0  0  0  0  0  0  0
   10.8583   -2.6527   20.7222 C   0  0  0  0  0  0  0  0  0  0  0  0
   10.6412   -3.5089   21.7936 C   0  0  0  0  0  0  0  0  0  0  0  0
   10.4972   -3.8968   24.1589 C   0  0  0  0  0  0  0  0  0  0  0  0
    5.9260   -8.2736   16.5517 C   0  0  0  0  0  0  0  0  0  0  0  0
    3.8816   -9.1166   17.2493 C   0  0  0  0  0  0  0  0  0  0  0  0
   10.1297   -1.6575   23.2324 C   0  0  0  0  0  0  0  0  0  0  0  0
    9.4684   -1.6929   26.7263 F   0  0  0  0  0  0  0  0  0  0  0  0
    7.7963   -7.7906   17.9837 C   0  0  0  0  0  0  0  0  0  0  0  0
   10.5884   -3.0725   16.7902 O   0  0  0  0  0  0  0  0  0  0  0  0
   10.4323   -5.3494   20.3516 C   0  0  0  0  0  0  0  0  0  0  0  0
    7.1156   -7.5454   16.8218 C   0  0  0  0  0  0  0  0  0  0  0  0
   10.3885   -4.4388   19.2773 C   0  0  0  0  0  0  0  0  0  0  0  0
    4.5160   -9.3822   15.0841 C   0  0  0  0  0  0  0  0  0  0  0  0
  1  3  4  0
  1 24  4  0
  2  6  4  0
  2 15  4  0
  3  5  4  0
  3  6  4  0
  4 21  4  0
  4 29  4  0
  5 15  4  0
  5 28  1  0
  6 16  4  0
  7 18  4  0
  7 26  4  0
  8 18  1  0
  8 19  4  0
  8 22  4  0
  9 12  4  0
  9 19  4  0
 10 12  4  0
 10 22  4  0
 11 20  4  0
 11 21  4  0
 12 23  1  0
 13 20  4  0
 13 29  4  0
 14 17  4  0
 14 28  4  0
 15 25  2  0
 16 27  4  0
 17 18  4  0
 20 27  1  0
 24 27  4  0
 26 28  4  0
M  END
$$$$

 Created by Python create_sdf_string function

 29 33  0  0  0  0  0  0  0  0999 V2000
    8.8270   -7.0288   18.4251 C   0  0  0  0  0  0  0  0  0  0  0  0
    9.1576   -4.6236   15.8860 O   0  0  0  0  0  0  0  0  0  0  0  0
    9.1509   -5.9108   17.7177 C   0  0  0  0  0  0  0  0  0  0  0  0
    3.6373   -9.5349   16.0582 N   0  0  0  0  0  0  0  0  0  0  0  0
    9.9275   -4.8001   18.0438 N   0  0  0  0  0  0  0  0  0  0  0  0
    8.5908   -5.7425   16.4412 C   0  0  0  0  0  0  0  0  0  0  0  0
   10.5993   -4.8981   21.6068 C   0  0  0  0  0  0  0  0  0  0  0  0
   10.4258   -3.0106   23.0998 C   0  0  0  0  0  0  0  0  0  0  0  0
   10.2148   -3.4364   25.4200 C   0  0  0  0  0  0  0  0  0  0  0  0
    9.7853   -1.1840   24.4927 C   0  0  0  0  0  0  0  0  0  0  0  0
    5.0276   -8.5227   17.5352 C   0  0  0  0  0  0  0  0  0  0  0  0
    9.8187   -2.0895   25.5800 C   0  0  0  0  0  0  0  0  0  0  0  0
    5.6473   -8.7216   15.3158 C   0  0  0  0  0  0  0  0  0  0  0  0
   10.7581   -3.1233   19.4720 N   0  0  0  0  0  0  0  0  0  0  0  0
    9.9571   -4.0573   16.8866 C   0  0  0  0  0  0  0  0  0  0  0  0
    7.6213   -6.5618   16.0087 C   0  0  0  0  0  0  0  0  0  0  0  0
   10.8583   -2.6527   20.7222 C   0  0  0  0  0  0  0  0  0  0  0  0
   10.6412   -3.5089   21.7936 C   0  0  0  0  0  0  0  0  0  0  0  0
   10.4972   -3.8968   24.1589 C   0  0  0  0  0  0  0  0  0  0  0  0
    5.9260   -8.2736   16.5517 C   0  0  0  0  0  0  0  0  0  0  0  0
    3.8816   -9.1166   17.2493 C   0  0  0  0  0  0  0  0  0  0  0  0
   10.1297   -1.6575   23.2324 C   0  0  0  0  0  0  0  0  0  0  0  0
    9.4684   -1.6929   26.7263 F   0  0  0  0  0  0  0  0  0  0  0  0
    7.7963   -7.7906   17.9837 C   0  0  0  0  0  0  0  0  0  0  0  0
   10.5884   -3.0725   16.7902 O   0  0  0  0  0  0  0  0  0  0  0  0
   10.4323   -5.3494   20.3516 C   0  0  0  0  0  0  0  0  0  0  0  0
    7.1156   -7.5454   16.8218 C   0  0  0  0  0  0  0  0  0  0  0  0
   10.3885   -4.4388   19.2773 C   0  0  0  0  0  0  0  0  0  0  0  0
    4.5160   -9.3822   15.0841 C   0  0  0  0  0  0  0  0  0  0  0  0
  1  3  4  0
  1 24  4  0
  2  6  4  0
  2 15  4  0
  3  5  4  0
  3  6  4  0
  4 21  4  0
  4 29  4  0
  5 15  4  0
  5 28  1  0
  6 16  4  0
  7 18  4  0
  7 26  4  0
  8 18  1  0
  8 19  4  0
  8 22  4  0
  9 12  4  0
  9 19  4  0
 10 12  4  0
 10 22  4  0
 11 20  4  0
 11 21  4  0
 12 23  1  0
 13 20  4  0
 13 29  4  0
 14 17  4  0
 14 28  4  0
 15 25  2  0
 16 27  4  0
 17 18  4  0
 20 27  1  0
 24 27  4  0
 26 28  4  0
M  END
$$$$

 Created by Python create_sdf_string function

 29 33  0  0  0  0  0  0  0  0999 V2000
    8.8270   -7.0288   18.4251 C   0  0  0  0  0  0  0  0  0  0  0  0
    9.1576   -4.6236   15.8860 O   0  0  0  0  0  0  0  0  0  0  0  0
    9.1509   -5.9108   17.7177 C   0  0  0  0  0  0  0  0  0  0  0  0
    3.6373   -9.5349   16.0582 N   0  0  0  0  0  0  0  0  0  0  0  0
    9.9275   -4.8001   18.0438 N   0  0  0  0  0  0  0  0  0  0  0  0
    8.5908   -5.7425   16.4412 C   0  0  0  0  0  0  0  0  0  0  0  0
   10.5993   -4.8981   21.6068 C   0  0  0  0  0  0  0  0  0  0  0  0
   10.4258   -3.0106   23.0998 C   0  0  0  0  0  0  0  0  0  0  0  0
   10.2148   -3.4364   25.4200 C   0  0  0  0  0  0  0  0  0  0  0  0
    9.7853   -1.1840   24.4927 C   0  0  0  0  0  0  0  0  0  0  0  0
    5.0276   -8.5227   17.5352 C   0  0  0  0  0  0  0  0  0  0  0  0
    9.8187   -2.0895   25.5800 C   0  0  0  0  0  0  0  0  0  0  0  0
    5.6473   -8.7216   15.3158 C   0  0  0  0  0  0  0  0  0  0  0  0
   10.7581   -3.1233   19.4720 N   0  0  0  0  0  0  0  0  0  0  0  0
    9.9571   -4.0573   16.8866 C   0  0  0  0  0  0  0  0  0  0  0  0
    7.6213   -6.5618   16.0087 C   0  0  0  0  0  0  0  0  0  0  0  0
   10.8583   -2.6527   20.7222 C   0  0  0  0  0  0  0  0  0  0  0  0
   10.6412   -3.5089   21.7936 C   0  0  0  0  0  0  0  0  0  0  0  0
   10.4972   -3.8968   24.1589 C   0  0  0  0  0  0  0  0  0  0  0  0
    5.9260   -8.2736   16.5517 C   0  0  0  0  0  0  0  0  0  0  0  0
    3.8816   -9.1166   17.2493 C   0  0  0  0  0  0  0  0  0  0  0  0
   10.1297   -1.6575   23.2324 C   0  0  0  0  0  0  0  0  0  0  0  0
    9.4684   -1.6929   26.7263 F   0  0  0  0  0  0  0  0  0  0  0  0
    7.7963   -7.7906   17.9837 C   0  0  0  0  0  0  0  0  0  0  0  0
   10.5884   -3.0725   16.7902 O   0  0  0  0  0  0  0  0  0  0  0  0
   10.4323   -5.3494   20.3516 C   0  0  0  0  0  0  0  0  0  0  0  0
    7.1156   -7.5454   16.8218 C   0  0  0  0  0  0  0  0  0  0  0  0
   10.3885   -4.4388   19.2773 C   0  0  0  0  0  0  0  0  0  0  0  0
    4.5160   -9.3822   15.0841 C   0  0  0  0  0  0  0  0  0  0  0  0
  1  3  4  0
  1 24  4  0
  2  6  4  0
  2 15  4  0
  3  5  4  0
  3  6  4  0
  4 21  4  0
  4 29  4  0
  5 15  4  0
  5 28  1  0
  6 16  4  0
  7 18  4  0
  7 26  4  0
  8 18  1  0
  8 19  4  0
  8 22  4  0
  9 12  4  0
  9 19  4  0
 10 12  4  0
 10 22  4  0
 11 20  4  0
 11 21  4  0
 12 23  1  0
 13 20  4  0
 13 29  4  0
 14 17  4  0
 14 28  4  0
 15 25  2  0
 16 27  4  0
 17 18  4  0
 20 27  1  0
 24 27  4  0
 26 28  4  0
M  END
$$$$

 Created by Python create_sdf_string function

 29 33  0  0  0  0  0  0  0  0999 V2000
    8.8270   -7.0288   18.4251 C   0  0  0  0  0  0  0  0  0  0  0  0
    9.1576   -4.6236   15.8860 O   0  0  0  0  0  0  0  0  0  0  0  0
    9.1509   -5.9108   17.7177 C   0  0  0  0  0  0  0  0  0  0  0  0
    3.6373   -9.5349   16.0582 N   0  0  0  0  0  0  0  0  0  0  0  0
    9.9275   -4.8001   18.0438 N   0  0  0  0  0  0  0  0  0  0  0  0
    8.5908   -5.7425   16.4412 C   0  0  0  0  0  0  0  0  0  0  0  0
   10.5993   -4.8981   21.6068 C   0  0  0  0  0  0  0  0  0  0  0  0
   10.4258   -3.0106   23.0998 C   0  0  0  0  0  0  0  0  0  0  0  0
   10.2148   -3.4364   25.4200 C   0  0  0  0  0  0  0  0  0  0  0  0
    9.7853   -1.1840   24.4927 C   0  0  0  0  0  0  0  0  0  0  0  0
    5.0276   -8.5227   17.5352 C   0  0  0  0  0  0  0  0  0  0  0  0
    9.8187   -2.0895   25.5800 C   0  0  0  0  0  0  0  0  0  0  0  0
    5.6473   -8.7216   15.3158 C   0  0  0  0  0  0  0  0  0  0  0  0
   10.7581   -3.1233   19.4720 N   0  0  0  0  0  0  0  0  0  0  0  0
    9.9571   -4.0573   16.8866 C   0  0  0  0  0  0  0  0  0  0  0  0
    7.6213   -6.5618   16.0087 C   0  0  0  0  0  0  0  0  0  0  0  0
   10.8583   -2.6527   20.7222 C   0  0  0  0  0  0  0  0  0  0  0  0
   10.6412   -3.5089   21.7936 C   0  0  0  0  0  0  0  0  0  0  0  0
   10.4972   -3.8968   24.1589 C   0  0  0  0  0  0  0  0  0  0  0  0
    5.9260   -8.2736   16.5517 C   0  0  0  0  0  0  0  0  0  0  0  0
    3.8816   -9.1166   17.2493 C   0  0  0  0  0  0  0  0  0  0  0  0
   10.1297   -1.6575   23.2324 C   0  0  0  0  0  0  0  0  0  0  0  0
    9.4684   -1.6929   26.7263 F   0  0  0  0  0  0  0  0  0  0  0  0
    7.7963   -7.7906   17.9837 C   0  0  0  0  0  0  0  0  0  0  0  0
   10.5884   -3.0725   16.7902 O   0  0  0  0  0  0  0  0  0  0  0  0
   10.4323   -5.3494   20.3516 C   0  0  0  0  0  0  0  0  0  0  0  0
    7.1156   -7.5454   16.8218 C   0  0  0  0  0  0  0  0  0  0  0  0
   10.3885   -4.4388   19.2773 C   0  0  0  0  0  0  0  0  0  0  0  0
    4.5160   -9.3822   15.0841 C   0  0  0  0  0  0  0  0  0  0  0  0
  1  3  4  0
  1 24  4  0
  2  6  4  0
  2 15  4  0
  3  5  4  0
  3  6  4  0
  4 21  4  0
  4 29  4  0
  5 15  4  0
  5 28  1  0
  6 16  4  0
  7 18  4  0
  7 26  4  0
  8 18  1  0
  8 19  4  0
  8 22  4  0
  9 12  4  0
  9 19  4  0
 10 12  4  0
 10 22  4  0
 11 20  4  0
 11 21  4  0
 12 23  1  0
 13 20  4  0
 13 29  4  0
 14 17  4  0
 14 28  4  0
 15 25  2  0
 16 27  4  0
 17 18  4  0
 20 27  1  0
 24 27  4  0
 26 28  4  0
M  END
$$$$

 Created by Python create_sdf_string function

 29 33  0  0  0  0  0  0  0  0999 V2000
    8.8270   -7.0288   18.4251 C   0  0  0  0  0  0  0  0  0  0  0  0
    9.1576   -4.6236   15.8860 O   0  0  0  0  0  0  0  0  0  0  0  0
    9.1509   -5.9108   17.7177 C   0  0  0  0  0  0  0  0  0  0  0  0
    3.6373   -9.5349   16.0582 N   0  0  0  0  0  0  0  0  0  0  0  0
    9.9275   -4.8001   18.0438 N   0  0  0  0  0  0  0  0  0  0  0  0
    8.5908   -5.7425   16.4412 C   0  0  0  0  0  0  0  0  0  0  0  0
   10.5993   -4.8981   21.6068 C   0  0  0  0  0  0  0  0  0  0  0  0
   10.4258   -3.0106   23.0998 C   0  0  0  0  0  0  0  0  0  0  0  0
   10.2148   -3.4364   25.4200 C   0  0  0  0  0  0  0  0  0  0  0  0
    9.7853   -1.1840   24.4927 C   0  0  0  0  0  0  0  0  0  0  0  0
    5.0276   -8.5227   17.5352 C   0  0  0  0  0  0  0  0  0  0  0  0
    9.8187   -2.0895   25.5800 C   0  0  0  0  0  0  0  0  0  0  0  0
    5.6473   -8.7216   15.3158 C   0  0  0  0  0  0  0  0  0  0  0  0
   10.7581   -3.1233   19.4720 N   0  0  0  0  0  0  0  0  0  0  0  0
    9.9571   -4.0573   16.8866 C   0  0  0  0  0  0  0  0  0  0  0  0
    7.6213   -6.5618   16.0087 C   0  0  0  0  0  0  0  0  0  0  0  0
   10.8583   -2.6527   20.7222 C   0  0  0  0  0  0  0  0  0  0  0  0
   10.6412   -3.5089   21.7936 C   0  0  0  0  0  0  0  0  0  0  0  0
   10.4972   -3.8968   24.1589 C   0  0  0  0  0  0  0  0  0  0  0  0
    5.9260   -8.2736   16.5517 C   0  0  0  0  0  0  0  0  0  0  0  0
    3.8816   -9.1166   17.2493 C   0  0  0  0  0  0  0  0  0  0  0  0
   10.1297   -1.6575   23.2324 C   0  0  0  0  0  0  0  0  0  0  0  0
    9.4684   -1.6929   26.7263 F   0  0  0  0  0  0  0  0  0  0  0  0
    7.7963   -7.7906   17.9837 C   0  0  0  0  0  0  0  0  0  0  0  0
   10.5884   -3.0725   16.7902 O   0  0  0  0  0  0  0  0  0  0  0  0
   10.4323   -5.3494   20.3516 C   0  0  0  0  0  0  0  0  0  0  0  0
    7.1156   -7.5454   16.8218 C   0  0  0  0  0  0  0  0  0  0  0  0
   10.3885   -4.4388   19.2773 C   0  0  0  0  0  0  0  0  0  0  0  0
    4.5160   -9.3822   15.0841 C   0  0  0  0  0  0  0  0  0  0  0  0
  1  3  4  0
  1 24  4  0
  2  6  4  0
  2 15  4  0
  3  5  4  0
  3  6  4  0
  4 21  4  0
  4 29  4  0
  5 15  4  0
  5 28  1  0
  6 16  4  0
  7 18  4  0
  7 26  4  0
  8 18  1  0
  8 19  4  0
  8 22  4  0
  9 12  4  0
  9 19  4  0
 10 12  4  0
 10 22  4  0
 11 20  4  0
 11 21  4  0
 12 23  1  0
 13 20  4  0
 13 29  4  0
 14 17  4  0
 14 28  4  0
 15 25  2  0
 16 27  4  0
 17 18  4  0
 20 27  1  0
 24 27  4  0
 26 28  4  0
M  END
$$$$

 Created by Python create_sdf_string function

 29 33  0  0  0  0  0  0  0  0999 V2000
    8.8270   -7.0288   18.4251 C   0  0  0  0  0  0  0  0  0  0  0  0
    9.1576   -4.6236   15.8860 O   0  0  0  0  0  0  0  0  0  0  0  0
    9.1509   -5.9108   17.7177 C   0  0  0  0  0  0  0  0  0  0  0  0
    3.6373   -9.5349   16.0582 N   0  0  0  0  0  0  0  0  0  0  0  0
    9.9275   -4.8001   18.0438 N   0  0  0  0  0  0  0  0  0  0  0  0
    8.5908   -5.7425   16.4412 C   0  0  0  0  0  0  0  0  0  0  0  0
   10.5993   -4.8981   21.6068 C   0  0  0  0  0  0  0  0  0  0  0  0
   10.4258   -3.0106   23.0998 C   0  0  0  0  0  0  0  0  0  0  0  0
   10.2148   -3.4364   25.4200 C   0  0  0  0  0  0  0  0  0  0  0  0
    9.7853   -1.1840   24.4927 C   0  0  0  0  0  0  0  0  0  0  0  0
    5.0276   -8.5227   17.5352 C   0  0  0  0  0  0  0  0  0  0  0  0
    9.8187   -2.0895   25.5800 C   0  0  0  0  0  0  0  0  0  0  0  0
    5.6473   -8.7216   15.3158 C   0  0  0  0  0  0  0  0  0  0  0  0
   10.7581   -3.1233   19.4720 N   0  0  0  0  0  0  0  0  0  0  0  0
    9.9571   -4.0573   16.8866 C   0  0  0  0  0  0  0  0  0  0  0  0
    7.6213   -6.5618   16.0087 C   0  0  0  0  0  0  0  0  0  0  0  0
   10.8583   -2.6527   20.7222 C   0  0  0  0  0  0  0  0  0  0  0  0
   10.6412   -3.5089   21.7936 C   0  0  0  0  0  0  0  0  0  0  0  0
   10.4972   -3.8968   24.1589 C   0  0  0  0  0  0  0  0  0  0  0  0
    5.9260   -8.2736   16.5517 C   0  0  0  0  0  0  0  0  0  0  0  0
    3.8816   -9.1166   17.2493 C   0  0  0  0  0  0  0  0  0  0  0  0
   10.1297   -1.6575   23.2324 C   0  0  0  0  0  0  0  0  0  0  0  0
    9.4684   -1.6929   26.7263 F   0  0  0  0  0  0  0  0  0  0  0  0
    7.7963   -7.7906   17.9837 C   0  0  0  0  0  0  0  0  0  0  0  0
   10.5884   -3.0725   16.7902 O   0  0  0  0  0  0  0  0  0  0  0  0
   10.4323   -5.3494   20.3516 C   0  0  0  0  0  0  0  0  0  0  0  0
    7.1156   -7.5454   16.8218 C   0  0  0  0  0  0  0  0  0  0  0  0
   10.3885   -4.4388   19.2773 C   0  0  0  0  0  0  0  0  0  0  0  0
    4.5160   -9.3822   15.0841 C   0  0  0  0  0  0  0  0  0  0  0  0
  1  3  4  0
  1 24  4  0
  2  6  4  0
  2 15  4  0
  3  5  4  0
  3  6  4  0
  4 21  4  0
  4 29  4  0
  5 15  4  0
  5 28  1  0
  6 16  4  0
  7 18  4  0
  7 26  4  0
  8 18  1  0
  8 19  4  0
  8 22  4  0
  9 12  4  0
  9 19  4  0
 10 12  4  0
 10 22  4  0
 11 20  4  0
 11 21  4  0
 12 23  1  0
 13 20  4  0
 13 29  4  0
 14 17  4  0
 14 28  4  0
 15 25  2  0
 16 27  4  0
 17 18  4  0
 20 27  1  0
 24 27  4  0
 26 28  4  0
M  END
$$$$

 Created by Python create_sdf_string function

 29 33  0  0  0  0  0  0  0  0999 V2000
    8.8270   -7.0288   18.4251 C   0  0  0  0  0  0  0  0  0  0  0  0
    9.1576   -4.6236   15.8860 O   0  0  0  0  0  0  0  0  0  0  0  0
    9.1509   -5.9108   17.7177 C   0  0  0  0  0  0  0  0  0  0  0  0
    3.6373   -9.5349   16.0582 N   0  0  0  0  0  0  0  0  0  0  0  0
    9.9275   -4.8001   18.0438 N   0  0  0  0  0  0  0  0  0  0  0  0
    8.5908   -5.7425   16.4412 C   0  0  0  0  0  0  0  0  0  0  0  0
   10.5993   -4.8981   21.6068 C   0  0  0  0  0  0  0  0  0  0  0  0
   10.4258   -3.0106   23.0998 C   0  0  0  0  0  0  0  0  0  0  0  0
   10.2148   -3.4364   25.4200 C   0  0  0  0  0  0  0  0  0  0  0  0
    9.7853   -1.1840   24.4927 C   0  0  0  0  0  0  0  0  0  0  0  0
    5.0276   -8.5227   17.5352 C   0  0  0  0  0  0  0  0  0  0  0  0
    9.8187   -2.0895   25.5800 C   0  0  0  0  0  0  0  0  0  0  0  0
    5.6473   -8.7216   15.3158 C   0  0  0  0  0  0  0  0  0  0  0  0
   10.7581   -3.1233   19.4720 N   0  0  0  0  0  0  0  0  0  0  0  0
    9.9571   -4.0573   16.8866 C   0  0  0  0  0  0  0  0  0  0  0  0
    7.6213   -6.5618   16.0087 C   0  0  0  0  0  0  0  0  0  0  0  0
   10.8583   -2.6527   20.7222 C   0  0  0  0  0  0  0  0  0  0  0  0
   10.6412   -3.5089   21.7936 C   0  0  0  0  0  0  0  0  0  0  0  0
   10.4972   -3.8968   24.1589 C   0  0  0  0  0  0  0  0  0  0  0  0
    5.9260   -8.2736   16.5517 C   0  0  0  0  0  0  0  0  0  0  0  0
    3.8816   -9.1166   17.2493 C   0  0  0  0  0  0  0  0  0  0  0  0
   10.1297   -1.6575   23.2324 C   0  0  0  0  0  0  0  0  0  0  0  0
    9.4684   -1.6929   26.7263 F   0  0  0  0  0  0  0  0  0  0  0  0
    7.7963   -7.7906   17.9837 C   0  0  0  0  0  0  0  0  0  0  0  0
   10.5884   -3.0725   16.7902 O   0  0  0  0  0  0  0  0  0  0  0  0
   10.4323   -5.3494   20.3516 C   0  0  0  0  0  0  0  0  0  0  0  0
    7.1156   -7.5454   16.8218 C   0  0  0  0  0  0  0  0  0  0  0  0
   10.3885   -4.4388   19.2773 C   0  0  0  0  0  0  0  0  0  0  0  0
    4.5160   -9.3822   15.0841 C   0  0  0  0  0  0  0  0  0  0  0  0
  1  3  4  0
  1 24  4  0
  2  6  4  0
  2 15  4  0
  3  5  4  0
  3  6  4  0
  4 21  4  0
  4 29  4  0
  5 15  4  0
  5 28  1  0
  6 16  4  0
  7 18  4  0
  7 26  4  0
  8 18  1  0
  8 19  4  0
  8 22  4  0
  9 12  4  0
  9 19  4  0
 10 12  4  0
 10 22  4  0
 11 20  4  0
 11 21  4  0
 12 23  1  0
 13 20  4  0
 13 29  4  0
 14 17  4  0
 14 28  4  0
 15 25  2  0
 16 27  4  0
 17 18  4  0
 20 27  1  0
 24 27  4  0
 26 28  4  0
M  END
$$$$

 Created by Python create_sdf_string function

 29 33  0  0  0  0  0  0  0  0999 V2000
    8.8270   -7.0288   18.4251 C   0  0  0  0  0  0  0  0  0  0  0  0
    9.1576   -4.6236   15.8860 O   0  0  0  0  0  0  0  0  0  0  0  0
    9.1509   -5.9108   17.7177 C   0  0  0  0  0  0  0  0  0  0  0  0
    3.6373   -9.5349   16.0582 N   0  0  0  0  0  0  0  0  0  0  0  0
    9.9275   -4.8001   18.0438 N   0  0  0  0  0  0  0  0  0  0  0  0
    8.5908   -5.7425   16.4412 C   0  0  0  0  0  0  0  0  0  0  0  0
   10.5993   -4.8981   21.6068 C   0  0  0  0  0  0  0  0  0  0  0  0
   10.4258   -3.0106   23.0998 C   0  0  0  0  0  0  0  0  0  0  0  0
   10.2148   -3.4364   25.4200 C   0  0  0  0  0  0  0  0  0  0  0  0
    9.7853   -1.1840   24.4927 C   0  0  0  0  0  0  0  0  0  0  0  0
    5.0276   -8.5227   17.5352 C   0  0  0  0  0  0  0  0  0  0  0  0
    9.8187   -2.0895   25.5800 C   0  0  0  0  0  0  0  0  0  0  0  0
    5.6473   -8.7216   15.3158 C   0  0  0  0  0  0  0  0  0  0  0  0
   10.7581   -3.1233   19.4720 N   0  0  0  0  0  0  0  0  0  0  0  0
    9.9571   -4.0573   16.8866 C   0  0  0  0  0  0  0  0  0  0  0  0
    7.6213   -6.5618   16.0087 C   0  0  0  0  0  0  0  0  0  0  0  0
   10.8583   -2.6527   20.7222 C   0  0  0  0  0  0  0  0  0  0  0  0
   10.6412   -3.5089   21.7936 C   0  0  0  0  0  0  0  0  0  0  0  0
   10.4972   -3.8968   24.1589 C   0  0  0  0  0  0  0  0  0  0  0  0
    5.9260   -8.2736   16.5517 C   0  0  0  0  0  0  0  0  0  0  0  0
    3.8816   -9.1166   17.2493 C   0  0  0  0  0  0  0  0  0  0  0  0
   10.1297   -1.6575   23.2324 C   0  0  0  0  0  0  0  0  0  0  0  0
    9.4684   -1.6929   26.7263 F   0  0  0  0  0  0  0  0  0  0  0  0
    7.7963   -7.7906   17.9837 C   0  0  0  0  0  0  0  0  0  0  0  0
   10.5884   -3.0725   16.7902 O   0  0  0  0  0  0  0  0  0  0  0  0
   10.4323   -5.3494   20.3516 C   0  0  0  0  0  0  0  0  0  0  0  0
    7.1156   -7.5454   16.8218 C   0  0  0  0  0  0  0  0  0  0  0  0
   10.3885   -4.4388   19.2773 C   0  0  0  0  0  0  0  0  0  0  0  0
    4.5160   -9.3822   15.0841 C   0  0  0  0  0  0  0  0  0  0  0  0
  1  3  4  0
  1 24  4  0
  2  6  4  0
  2 15  4  0
  3  5  4  0
  3  6  4  0
  4 21  4  0
  4 29  4  0
  5 15  4  0
  5 28  1  0
  6 16  4  0
  7 18  4  0
  7 26  4  0
  8 18  1  0
  8 19  4  0
  8 22  4  0
  9 12  4  0
  9 19  4  0
 10 12  4  0
 10 22  4  0
 11 20  4  0
 11 21  4  0
 12 23  1  0
 13 20  4  0
 13 29  4  0
 14 17  4  0
 14 28  4  0
 15 25  2  0
 16 27  4  0
 17 18  4  0
 20 27  1  0
 24 27  4  0
 26 28  4  0
M  END
$$$$

 Created by Python create_sdf_string function

 29 33  0  0  0  0  0  0  0  0999 V2000
    8.8270   -7.0288   18.4251 C   0  0  0  0  0  0  0  0  0  0  0  0
    9.1576   -4.6236   15.8860 O   0  0  0  0  0  0  0  0  0  0  0  0
    9.1509   -5.9108   17.7177 C   0  0  0  0  0  0  0  0  0  0  0  0
    3.6373   -9.5349   16.0582 N   0  0  0  0  0  0  0  0  0  0  0  0
    9.9275   -4.8001   18.0438 N   0  0  0  0  0  0  0  0  0  0  0  0
    8.5908   -5.7425   16.4412 C   0  0  0  0  0  0  0  0  0  0  0  0
   10.5993   -4.8981   21.6068 C   0  0  0  0  0  0  0  0  0  0  0  0
   10.4258   -3.0106   23.0998 C   0  0  0  0  0  0  0  0  0  0  0  0
   10.2148   -3.4364   25.4200 C   0  0  0  0  0  0  0  0  0  0  0  0
    9.7853   -1.1840   24.4927 C   0  0  0  0  0  0  0  0  0  0  0  0
    5.0276   -8.5227   17.5352 C   0  0  0  0  0  0  0  0  0  0  0  0
    9.8187   -2.0895   25.5800 C   0  0  0  0  0  0  0  0  0  0  0  0
    5.6473   -8.7216   15.3158 C   0  0  0  0  0  0  0  0  0  0  0  0
   10.7581   -3.1233   19.4720 N   0  0  0  0  0  0  0  0  0  0  0  0
    9.9571   -4.0573   16.8866 C   0  0  0  0  0  0  0  0  0  0  0  0
    7.6213   -6.5618   16.0087 C   0  0  0  0  0  0  0  0  0  0  0  0
   10.8583   -2.6527   20.7222 C   0  0  0  0  0  0  0  0  0  0  0  0
   10.6412   -3.5089   21.7936 C   0  0  0  0  0  0  0  0  0  0  0  0
   10.4972   -3.8968   24.1589 C   0  0  0  0  0  0  0  0  0  0  0  0
    5.9260   -8.2736   16.5517 C   0  0  0  0  0  0  0  0  0  0  0  0
    3.8816   -9.1166   17.2493 C   0  0  0  0  0  0  0  0  0  0  0  0
   10.1297   -1.6575   23.2324 C   0  0  0  0  0  0  0  0  0  0  0  0
    9.4684   -1.6929   26.7263 F   0  0  0  0  0  0  0  0  0  0  0  0
    7.7963   -7.7906   17.9837 C   0  0  0  0  0  0  0  0  0  0  0  0
   10.5884   -3.0725   16.7902 O   0  0  0  0  0  0  0  0  0  0  0  0
   10.4323   -5.3494   20.3516 C   0  0  0  0  0  0  0  0  0  0  0  0
    7.1156   -7.5454   16.8218 C   0  0  0  0  0  0  0  0  0  0  0  0
   10.3885   -4.4388   19.2773 C   0  0  0  0  0  0  0  0  0  0  0  0
    4.5160   -9.3822   15.0841 C   0  0  0  0  0  0  0  0  0  0  0  0
  1  3  4  0
  1 24  4  0
  2  6  4  0
  2 15  4  0
  3  5  4  0
  3  6  4  0
  4 21  4  0
  4 29  4  0
  5 15  4  0
  5 28  1  0
  6 16  4  0
  7 18  4  0
  7 26  4  0
  8 18  1  0
  8 19  4  0
  8 22  4  0
  9 12  4  0
  9 19  4  0
 10 12  4  0
 10 22  4  0
 11 20  4  0
 11 21  4  0
 12 23  1  0
 13 20  4  0
 13 29  4  0
 14 17  4  0
 14 28  4  0
 15 25  2  0
 16 27  4  0
 17 18  4  0
 20 27  1  0
 24 27  4  0
 26 28  4  0
M  END
$$$$

 Created by Python create_sdf_string function

 29 33  0  0  0  0  0  0  0  0999 V2000
    8.8270   -7.0288   18.4251 C   0  0  0  0  0  0  0  0  0  0  0  0
    9.1576   -4.6236   15.8860 O   0  0  0  0  0  0  0  0  0  0  0  0
    9.1509   -5.9108   17.7177 C   0  0  0  0  0  0  0  0  0  0  0  0
    3.6373   -9.5349   16.0582 N   0  0  0  0  0  0  0  0  0  0  0  0
    9.9275   -4.8001   18.0438 N   0  0  0  0  0  0  0  0  0  0  0  0
    8.5908   -5.7425   16.4412 C   0  0  0  0  0  0  0  0  0  0  0  0
   10.5993   -4.8981   21.6068 C   0  0  0  0  0  0  0  0  0  0  0  0
   10.4258   -3.0106   23.0998 C   0  0  0  0  0  0  0  0  0  0  0  0
   10.2148   -3.4364   25.4200 C   0  0  0  0  0  0  0  0  0  0  0  0
    9.7853   -1.1840   24.4927 C   0  0  0  0  0  0  0  0  0  0  0  0
    5.0276   -8.5227   17.5352 C   0  0  0  0  0  0  0  0  0  0  0  0
    9.8187   -2.0895   25.5800 C   0  0  0  0  0  0  0  0  0  0  0  0
    5.6473   -8.7216   15.3158 C   0  0  0  0  0  0  0  0  0  0  0  0
   10.7581   -3.1233   19.4720 N   0  0  0  0  0  0  0  0  0  0  0  0
    9.9571   -4.0573   16.8866 C   0  0  0  0  0  0  0  0  0  0  0  0
    7.6213   -6.5618   16.0087 C   0  0  0  0  0  0  0  0  0  0  0  0
   10.8583   -2.6527   20.7222 C   0  0  0  0  0  0  0  0  0  0  0  0
   10.6412   -3.5089   21.7936 C   0  0  0  0  0  0  0  0  0  0  0  0
   10.4972   -3.8968   24.1589 C   0  0  0  0  0  0  0  0  0  0  0  0
    5.9260   -8.2736   16.5517 C   0  0  0  0  0  0  0  0  0  0  0  0
    3.8816   -9.1166   17.2493 C   0  0  0  0  0  0  0  0  0  0  0  0
   10.1297   -1.6575   23.2324 C   0  0  0  0  0  0  0  0  0  0  0  0
    9.4684   -1.6929   26.7263 F   0  0  0  0  0  0  0  0  0  0  0  0
    7.7963   -7.7906   17.9837 C   0  0  0  0  0  0  0  0  0  0  0  0
   10.5884   -3.0725   16.7902 O   0  0  0  0  0  0  0  0  0  0  0  0
   10.4323   -5.3494   20.3516 C   0  0  0  0  0  0  0  0  0  0  0  0
    7.1156   -7.5454   16.8218 C   0  0  0  0  0  0  0  0  0  0  0  0
   10.3885   -4.4388   19.2773 C   0  0  0  0  0  0  0  0  0  0  0  0
    4.5160   -9.3822   15.0841 C   0  0  0  0  0  0  0  0  0  0  0  0
  1  3  4  0
  1 24  4  0
  2  6  4  0
  2 15  4  0
  3  5  4  0
  3  6  4  0
  4 21  4  0
  4 29  4  0
  5 15  4  0
  5 28  1  0
  6 16  4  0
  7 18  4  0
  7 26  4  0
  8 18  1  0
  8 19  4  0
  8 22  4  0
  9 12  4  0
  9 19  4  0
 10 12  4  0
 10 22  4  0
 11 20  4  0
 11 21  4  0
 12 23  1  0
 13 20  4  0
 13 29  4  0
 14 17  4  0
 14 28  4  0
 15 25  2  0
 16 27  4  0
 17 18  4  0
 20 27  1  0
 24 27  4  0
 26 28  4  0
M  END
$$$$

 Created by Python create_sdf_string function

 29 33  0  0  0  0  0  0  0  0999 V2000
    8.8270   -7.0288   18.4251 C   0  0  0  0  0  0  0  0  0  0  0  0
    9.1576   -4.6236   15.8860 O   0  0  0  0  0  0  0  0  0  0  0  0
    9.1509   -5.9108   17.7177 C   0  0  0  0  0  0  0  0  0  0  0  0
    3.6373   -9.5349   16.0582 N   0  0  0  0  0  0  0  0  0  0  0  0
    9.9275   -4.8001   18.0438 N   0  0  0  0  0  0  0  0  0  0  0  0
    8.5908   -5.7425   16.4412 C   0  0  0  0  0  0  0  0  0  0  0  0
   10.5993   -4.8981   21.6068 C   0  0  0  0  0  0  0  0  0  0  0  0
   10.4258   -3.0106   23.0998 C   0  0  0  0  0  0  0  0  0  0  0  0
   10.2148   -3.4364   25.4200 C   0  0  0  0  0  0  0  0  0  0  0  0
    9.7853   -1.1840   24.4927 C   0  0  0  0  0  0  0  0  0  0  0  0
    5.0276   -8.5227   17.5352 C   0  0  0  0  0  0  0  0  0  0  0  0
    9.8187   -2.0895   25.5800 C   0  0  0  0  0  0  0  0  0  0  0  0
    5.6473   -8.7216   15.3158 C   0  0  0  0  0  0  0  0  0  0  0  0
   10.7581   -3.1233   19.4720 N   0  0  0  0  0  0  0  0  0  0  0  0
    9.9571   -4.0573   16.8866 C   0  0  0  0  0  0  0  0  0  0  0  0
    7.6213   -6.5618   16.0087 C   0  0  0  0  0  0  0  0  0  0  0  0
   10.8583   -2.6527   20.7222 C   0  0  0  0  0  0  0  0  0  0  0  0
   10.6412   -3.5089   21.7936 C   0  0  0  0  0  0  0  0  0  0  0  0
   10.4972   -3.8968   24.1589 C   0  0  0  0  0  0  0  0  0  0  0  0
    5.9260   -8.2736   16.5517 C   0  0  0  0  0  0  0  0  0  0  0  0
    3.8816   -9.1166   17.2493 C   0  0  0  0  0  0  0  0  0  0  0  0
   10.1297   -1.6575   23.2324 C   0  0  0  0  0  0  0  0  0  0  0  0
    9.4684   -1.6929   26.7263 F   0  0  0  0  0  0  0  0  0  0  0  0
    7.7963   -7.7906   17.9837 C   0  0  0  0  0  0  0  0  0  0  0  0
   10.5884   -3.0725   16.7902 O   0  0  0  0  0  0  0  0  0  0  0  0
   10.4323   -5.3494   20.3516 C   0  0  0  0  0  0  0  0  0  0  0  0
    7.1156   -7.5454   16.8218 C   0  0  0  0  0  0  0  0  0  0  0  0
   10.3885   -4.4388   19.2773 C   0  0  0  0  0  0  0  0  0  0  0  0
    4.5160   -9.3822   15.0841 C   0  0  0  0  0  0  0  0  0  0  0  0
  1  3  4  0
  1 24  4  0
  2  6  4  0
  2 15  4  0
  3  5  4  0
  3  6  4  0
  4 21  4  0
  4 29  4  0
  5 15  4  0
  5 28  1  0
  6 16  4  0
  7 18  4  0
  7 26  4  0
  8 18  1  0
  8 19  4  0
  8 22  4  0
  9 12  4  0
  9 19  4  0
 10 12  4  0
 10 22  4  0
 11 20  4  0
 11 21  4  0
 12 23  1  0
 13 20  4  0
 13 29  4  0
 14 17  4  0
 14 28  4  0
 15 25  2  0
 16 27  4  0
 17 18  4  0
 20 27  1  0
 24 27  4  0
 26 28  4  0
M  END
$$$$

 Created by Python create_sdf_string function

 29 33  0  0  0  0  0  0  0  0999 V2000
    8.8270   -7.0288   18.4251 C   0  0  0  0  0  0  0  0  0  0  0  0
    9.1576   -4.6236   15.8860 O   0  0  0  0  0  0  0  0  0  0  0  0
    9.1509   -5.9108   17.7177 C   0  0  0  0  0  0  0  0  0  0  0  0
    3.6373   -9.5349   16.0582 N   0  0  0  0  0  0  0  0  0  0  0  0
    9.9275   -4.8001   18.0438 N   0  0  0  0  0  0  0  0  0  0  0  0
    8.5908   -5.7425   16.4412 C   0  0  0  0  0  0  0  0  0  0  0  0
   10.5993   -4.8981   21.6068 C   0  0  0  0  0  0  0  0  0  0  0  0
   10.4258   -3.0106   23.0998 C   0  0  0  0  0  0  0  0  0  0  0  0
   10.2148   -3.4364   25.4200 C   0  0  0  0  0  0  0  0  0  0  0  0
    9.7853   -1.1840   24.4927 C   0  0  0  0  0  0  0  0  0  0  0  0
    5.0276   -8.5227   17.5352 C   0  0  0  0  0  0  0  0  0  0  0  0
    9.8187   -2.0895   25.5800 C   0  0  0  0  0  0  0  0  0  0  0  0
    5.6473   -8.7216   15.3158 C   0  0  0  0  0  0  0  0  0  0  0  0
   10.7581   -3.1233   19.4720 N   0  0  0  0  0  0  0  0  0  0  0  0
    9.9571   -4.0573   16.8866 C   0  0  0  0  0  0  0  0  0  0  0  0
    7.6213   -6.5618   16.0087 C   0  0  0  0  0  0  0  0  0  0  0  0
   10.8583   -2.6527   20.7222 C   0  0  0  0  0  0  0  0  0  0  0  0
   10.6412   -3.5089   21.7936 C   0  0  0  0  0  0  0  0  0  0  0  0
   10.4972   -3.8968   24.1589 C   0  0  0  0  0  0  0  0  0  0  0  0
    5.9260   -8.2736   16.5517 C   0  0  0  0  0  0  0  0  0  0  0  0
    3.8816   -9.1166   17.2493 C   0  0  0  0  0  0  0  0  0  0  0  0
   10.1297   -1.6575   23.2324 C   0  0  0  0  0  0  0  0  0  0  0  0
    9.4684   -1.6929   26.7263 F   0  0  0  0  0  0  0  0  0  0  0  0
    7.7963   -7.7906   17.9837 C   0  0  0  0  0  0  0  0  0  0  0  0
   10.5884   -3.0725   16.7902 O   0  0  0  0  0  0  0  0  0  0  0  0
   10.4323   -5.3494   20.3516 C   0  0  0  0  0  0  0  0  0  0  0  0
    7.1156   -7.5454   16.8218 C   0  0  0  0  0  0  0  0  0  0  0  0
   10.3885   -4.4388   19.2773 C   0  0  0  0  0  0  0  0  0  0  0  0
    4.5160   -9.3822   15.0841 C   0  0  0  0  0  0  0  0  0  0  0  0
  1  3  4  0
  1 24  4  0
  2  6  4  0
  2 15  4  0
  3  5  4  0
  3  6  4  0
  4 21  4  0
  4 29  4  0
  5 15  4  0
  5 28  1  0
  6 16  4  0
  7 18  4  0
  7 26  4  0
  8 18  1  0
  8 19  4  0
  8 22  4  0
  9 12  4  0
  9 19  4  0
 10 12  4  0
 10 22  4  0
 11 20  4  0
 11 21  4  0
 12 23  1  0
 13 20  4  0
 13 29  4  0
 14 17  4  0
 14 28  4  0
 15 25  2  0
 16 27  4  0
 17 18  4  0
 20 27  1  0
 24 27  4  0
 26 28  4  0
M  END
$$$$

 Created by Python create_sdf_string function

 29 33  0  0  0  0  0  0  0  0999 V2000
    8.8270   -7.0288   18.4251 C   0  0  0  0  0  0  0  0  0  0  0  0
    9.1576   -4.6236   15.8860 O   0  0  0  0  0  0  0  0  0  0  0  0
    9.1509   -5.9108   17.7177 C   0  0  0  0  0  0  0  0  0  0  0  0
    3.6373   -9.5349   16.0582 N   0  0  0  0  0  0  0  0  0  0  0  0
    9.9275   -4.8001   18.0438 N   0  0  0  0  0  0  0  0  0  0  0  0
    8.5908   -5.7425   16.4412 C   0  0  0  0  0  0  0  0  0  0  0  0
   10.5993   -4.8981   21.6068 C   0  0  0  0  0  0  0  0  0  0  0  0
   10.4258   -3.0106   23.0998 C   0  0  0  0  0  0  0  0  0  0  0  0
   10.2148   -3.4364   25.4200 C   0  0  0  0  0  0  0  0  0  0  0  0
    9.7853   -1.1840   24.4927 C   0  0  0  0  0  0  0  0  0  0  0  0
    5.0276   -8.5227   17.5352 C   0  0  0  0  0  0  0  0  0  0  0  0
    9.8187   -2.0895   25.5800 C   0  0  0  0  0  0  0  0  0  0  0  0
    5.6473   -8.7216   15.3158 C   0  0  0  0  0  0  0  0  0  0  0  0
   10.7581   -3.1233   19.4720 N   0  0  0  0  0  0  0  0  0  0  0  0
    9.9571   -4.0573   16.8866 C   0  0  0  0  0  0  0  0  0  0  0  0
    7.6213   -6.5618   16.0087 C   0  0  0  0  0  0  0  0  0  0  0  0
   10.8583   -2.6527   20.7222 C   0  0  0  0  0  0  0  0  0  0  0  0
   10.6412   -3.5089   21.7936 C   0  0  0  0  0  0  0  0  0  0  0  0
   10.4972   -3.8968   24.1589 C   0  0  0  0  0  0  0  0  0  0  0  0
    5.9260   -8.2736   16.5517 C   0  0  0  0  0  0  0  0  0  0  0  0
    3.8816   -9.1166   17.2493 C   0  0  0  0  0  0  0  0  0  0  0  0
   10.1297   -1.6575   23.2324 C   0  0  0  0  0  0  0  0  0  0  0  0
    9.4684   -1.6929   26.7263 F   0  0  0  0  0  0  0  0  0  0  0  0
    7.7963   -7.7906   17.9837 C   0  0  0  0  0  0  0  0  0  0  0  0
   10.5884   -3.0725   16.7902 O   0  0  0  0  0  0  0  0  0  0  0  0
   10.4323   -5.3494   20.3516 C   0  0  0  0  0  0  0  0  0  0  0  0
    7.1156   -7.5454   16.8218 C   0  0  0  0  0  0  0  0  0  0  0  0
   10.3885   -4.4388   19.2773 C   0  0  0  0  0  0  0  0  0  0  0  0
    4.5160   -9.3822   15.0841 C   0  0  0  0  0  0  0  0  0  0  0  0
  1  3  4  0
  1 24  4  0
  2  6  4  0
  2 15  4  0
  3  5  4  0
  3  6  4  0
  4 21  4  0
  4 29  4  0
  5 15  4  0
  5 28  1  0
  6 16  4  0
  7 18  4  0
  7 26  4  0
  8 18  1  0
  8 19  4  0
  8 22  4  0
  9 12  4  0
  9 19  4  0
 10 12  4  0
 10 22  4  0
 11 20  4  0
 11 21  4  0
 12 23  1  0
 13 20  4  0
 13 29  4  0
 14 17  4  0
 14 28  4  0
 15 25  2  0
 16 27  4  0
 17 18  4  0
 20 27  1  0
 24 27  4  0
 26 28  4  0
M  END
$$$$

 Created by Python create_sdf_string function

 29 33  0  0  0  0  0  0  0  0999 V2000
    8.8270   -7.0288   18.4251 C   0  0  0  0  0  0  0  0  0  0  0  0
    9.1576   -4.6236   15.8860 O   0  0  0  0  0  0  0  0  0  0  0  0
    9.1509   -5.9108   17.7177 C   0  0  0  0  0  0  0  0  0  0  0  0
    3.6373   -9.5349   16.0582 N   0  0  0  0  0  0  0  0  0  0  0  0
    9.9275   -4.8001   18.0438 N   0  0  0  0  0  0  0  0  0  0  0  0
    8.5908   -5.7425   16.4412 C   0  0  0  0  0  0  0  0  0  0  0  0
   10.5993   -4.8981   21.6068 C   0  0  0  0  0  0  0  0  0  0  0  0
   10.4258   -3.0106   23.0998 C   0  0  0  0  0  0  0  0  0  0  0  0
   10.2148   -3.4364   25.4200 C   0  0  0  0  0  0  0  0  0  0  0  0
    9.7853   -1.1840   24.4927 C   0  0  0  0  0  0  0  0  0  0  0  0
    5.0276   -8.5227   17.5352 C   0  0  0  0  0  0  0  0  0  0  0  0
    9.8187   -2.0895   25.5800 C   0  0  0  0  0  0  0  0  0  0  0  0
    5.6473   -8.7216   15.3158 C   0  0  0  0  0  0  0  0  0  0  0  0
   10.7581   -3.1233   19.4720 N   0  0  0  0  0  0  0  0  0  0  0  0
    9.9571   -4.0573   16.8866 C   0  0  0  0  0  0  0  0  0  0  0  0
    7.6213   -6.5618   16.0087 C   0  0  0  0  0  0  0  0  0  0  0  0
   10.8583   -2.6527   20.7222 C   0  0  0  0  0  0  0  0  0  0  0  0
   10.6412   -3.5089   21.7936 C   0  0  0  0  0  0  0  0  0  0  0  0
   10.4972   -3.8968   24.1589 C   0  0  0  0  0  0  0  0  0  0  0  0
    5.9260   -8.2736   16.5517 C   0  0  0  0  0  0  0  0  0  0  0  0
    3.8816   -9.1166   17.2493 C   0  0  0  0  0  0  0  0  0  0  0  0
   10.1297   -1.6575   23.2324 C   0  0  0  0  0  0  0  0  0  0  0  0
    9.4684   -1.6929   26.7263 F   0  0  0  0  0  0  0  0  0  0  0  0
    7.7963   -7.7906   17.9837 C   0  0  0  0  0  0  0  0  0  0  0  0
   10.5884   -3.0725   16.7902 O   0  0  0  0  0  0  0  0  0  0  0  0
   10.4323   -5.3494   20.3516 C   0  0  0  0  0  0  0  0  0  0  0  0
    7.1156   -7.5454   16.8218 C   0  0  0  0  0  0  0  0  0  0  0  0
   10.3885   -4.4388   19.2773 C   0  0  0  0  0  0  0  0  0  0  0  0
    4.5160   -9.3822   15.0841 C   0  0  0  0  0  0  0  0  0  0  0  0
  1  3  4  0
  1 24  4  0
  2  6  4  0
  2 15  4  0
  3  5  4  0
  3  6  4  0
  4 21  4  0
  4 29  4  0
  5 15  4  0
  5 28  1  0
  6 16  4  0
  7 18  4  0
  7 26  4  0
  8 18  1  0
  8 19  4  0
  8 22  4  0
  9 12  4  0
  9 19  4  0
 10 12  4  0
 10 22  4  0
 11 20  4  0
 11 21  4  0
 12 23  1  0
 13 20  4  0
 13 29  4  0
 14 17  4  0
 14 28  4  0
 15 25  2  0
 16 27  4  0
 17 18  4  0
 20 27  1  0
 24 27  4  0
 26 28  4  0
M  END
$$$$

 Created by Python create_sdf_string function

 29 33  0  0  0  0  0  0  0  0999 V2000
    8.8270   -7.0288   18.4251 C   0  0  0  0  0  0  0  0  0  0  0  0
    9.1576   -4.6236   15.8860 O   0  0  0  0  0  0  0  0  0  0  0  0
    9.1509   -5.9108   17.7177 C   0  0  0  0  0  0  0  0  0  0  0  0
    3.6373   -9.5349   16.0582 N   0  0  0  0  0  0  0  0  0  0  0  0
    9.9275   -4.8001   18.0438 N   0  0  0  0  0  0  0  0  0  0  0  0
    8.5908   -5.7425   16.4412 C   0  0  0  0  0  0  0  0  0  0  0  0
   10.5993   -4.8981   21.6068 C   0  0  0  0  0  0  0  0  0  0  0  0
   10.4258   -3.0106   23.0998 C   0  0  0  0  0  0  0  0  0  0  0  0
   10.2148   -3.4364   25.4200 C   0  0  0  0  0  0  0  0  0  0  0  0
    9.7853   -1.1840   24.4927 C   0  0  0  0  0  0  0  0  0  0  0  0
    5.0276   -8.5227   17.5352 C   0  0  0  0  0  0  0  0  0  0  0  0
    9.8187   -2.0895   25.5800 C   0  0  0  0  0  0  0  0  0  0  0  0
    5.6473   -8.7216   15.3158 C   0  0  0  0  0  0  0  0  0  0  0  0
   10.7581   -3.1233   19.4720 N   0  0  0  0  0  0  0  0  0  0  0  0
    9.9571   -4.0573   16.8866 C   0  0  0  0  0  0  0  0  0  0  0  0
    7.6213   -6.5618   16.0087 C   0  0  0  0  0  0  0  0  0  0  0  0
   10.8583   -2.6527   20.7222 C   0  0  0  0  0  0  0  0  0  0  0  0
   10.6412   -3.5089   21.7936 C   0  0  0  0  0  0  0  0  0  0  0  0
   10.4972   -3.8968   24.1589 C   0  0  0  0  0  0  0  0  0  0  0  0
    5.9260   -8.2736   16.5517 C   0  0  0  0  0  0  0  0  0  0  0  0
    3.8816   -9.1166   17.2493 C   0  0  0  0  0  0  0  0  0  0  0  0
   10.1297   -1.6575   23.2324 C   0  0  0  0  0  0  0  0  0  0  0  0
    9.4684   -1.6929   26.7263 F   0  0  0  0  0  0  0  0  0  0  0  0
    7.7963   -7.7906   17.9837 C   0  0  0  0  0  0  0  0  0  0  0  0
   10.5884   -3.0725   16.7902 O   0  0  0  0  0  0  0  0  0  0  0  0
   10.4323   -5.3494   20.3516 C   0  0  0  0  0  0  0  0  0  0  0  0
    7.1156   -7.5454   16.8218 C   0  0  0  0  0  0  0  0  0  0  0  0
   10.3885   -4.4388   19.2773 C   0  0  0  0  0  0  0  0  0  0  0  0
    4.5160   -9.3822   15.0841 C   0  0  0  0  0  0  0  0  0  0  0  0
  1  3  4  0
  1 24  4  0
  2  6  4  0
  2 15  4  0
  3  5  4  0
  3  6  4  0
  4 21  4  0
  4 29  4  0
  5 15  4  0
  5 28  1  0
  6 16  4  0
  7 18  4  0
  7 26  4  0
  8 18  1  0
  8 19  4  0
  8 22  4  0
  9 12  4  0
  9 19  4  0
 10 12  4  0
 10 22  4  0
 11 20  4  0
 11 21  4  0
 12 23  1  0
 13 20  4  0
 13 29  4  0
 14 17  4  0
 14 28  4  0
 15 25  2  0
 16 27  4  0
 17 18  4  0
 20 27  1  0
 24 27  4  0
 26 28  4  0
M  END
$$$$

 Created by Python create_sdf_string function

 29 33  0  0  0  0  0  0  0  0999 V2000
    8.8270   -7.0288   18.4251 C   0  0  0  0  0  0  0  0  0  0  0  0
    9.1576   -4.6236   15.8860 O   0  0  0  0  0  0  0  0  0  0  0  0
    9.1509   -5.9108   17.7177 C   0  0  0  0  0  0  0  0  0  0  0  0
    3.6373   -9.5349   16.0582 N   0  0  0  0  0  0  0  0  0  0  0  0
    9.9275   -4.8001   18.0438 N   0  0  0  0  0  0  0  0  0  0  0  0
    8.5908   -5.7425   16.4412 C   0  0  0  0  0  0  0  0  0  0  0  0
   10.5993   -4.8981   21.6068 C   0  0  0  0  0  0  0  0  0  0  0  0
   10.4258   -3.0106   23.0998 C   0  0  0  0  0  0  0  0  0  0  0  0
   10.2148   -3.4364   25.4200 C   0  0  0  0  0  0  0  0  0  0  0  0
    9.7853   -1.1840   24.4927 C   0  0  0  0  0  0  0  0  0  0  0  0
    5.0276   -8.5227   17.5352 C   0  0  0  0  0  0  0  0  0  0  0  0
    9.8187   -2.0895   25.5800 C   0  0  0  0  0  0  0  0  0  0  0  0
    5.6473   -8.7216   15.3158 C   0  0  0  0  0  0  0  0  0  0  0  0
   10.7581   -3.1233   19.4720 N   0  0  0  0  0  0  0  0  0  0  0  0
    9.9571   -4.0573   16.8866 C   0  0  0  0  0  0  0  0  0  0  0  0
    7.6213   -6.5618   16.0087 C   0  0  0  0  0  0  0  0  0  0  0  0
   10.8583   -2.6527   20.7222 C   0  0  0  0  0  0  0  0  0  0  0  0
   10.6412   -3.5089   21.7936 C   0  0  0  0  0  0  0  0  0  0  0  0
   10.4972   -3.8968   24.1589 C   0  0  0  0  0  0  0  0  0  0  0  0
    5.9260   -8.2736   16.5517 C   0  0  0  0  0  0  0  0  0  0  0  0
    3.8816   -9.1166   17.2493 C   0  0  0  0  0  0  0  0  0  0  0  0
   10.1297   -1.6575   23.2324 C   0  0  0  0  0  0  0  0  0  0  0  0
    9.4684   -1.6929   26.7263 F   0  0  0  0  0  0  0  0  0  0  0  0
    7.7963   -7.7906   17.9837 C   0  0  0  0  0  0  0  0  0  0  0  0
   10.5884   -3.0725   16.7902 O   0  0  0  0  0  0  0  0  0  0  0  0
   10.4323   -5.3494   20.3516 C   0  0  0  0  0  0  0  0  0  0  0  0
    7.1156   -7.5454   16.8218 C   0  0  0  0  0  0  0  0  0  0  0  0
   10.3885   -4.4388   19.2773 C   0  0  0  0  0  0  0  0  0  0  0  0
    4.5160   -9.3822   15.0841 C   0  0  0  0  0  0  0  0  0  0  0  0
  1  3  4  0
  1 24  4  0
  2  6  4  0
  2 15  4  0
  3  5  4  0
  3  6  4  0
  4 21  4  0
  4 29  4  0
  5 15  4  0
  5 28  1  0
  6 16  4  0
  7 18  4  0
  7 26  4  0
  8 18  1  0
  8 19  4  0
  8 22  4  0
  9 12  4  0
  9 19  4  0
 10 12  4  0
 10 22  4  0
 11 20  4  0
 11 21  4  0
 12 23  1  0
 13 20  4  0
 13 29  4  0
 14 17  4  0
 14 28  4  0
 15 25  2  0
 16 27  4  0
 17 18  4  0
 20 27  1  0
 24 27  4  0
 26 28  4  0
M  END
$$$$

 Created by Python create_sdf_string function

 29 33  0  0  0  0  0  0  0  0999 V2000
    8.8270   -7.0288   18.4251 C   0  0  0  0  0  0  0  0  0  0  0  0
    9.1576   -4.6236   15.8860 O   0  0  0  0  0  0  0  0  0  0  0  0
    9.1509   -5.9108   17.7177 C   0  0  0  0  0  0  0  0  0  0  0  0
    3.6373   -9.5349   16.0582 N   0  0  0  0  0  0  0  0  0  0  0  0
    9.9275   -4.8001   18.0438 N   0  0  0  0  0  0  0  0  0  0  0  0
    8.5908   -5.7425   16.4412 C   0  0  0  0  0  0  0  0  0  0  0  0
   10.5993   -4.8981   21.6068 C   0  0  0  0  0  0  0  0  0  0  0  0
   10.4258   -3.0106   23.0998 C   0  0  0  0  0  0  0  0  0  0  0  0
   10.2148   -3.4364   25.4200 C   0  0  0  0  0  0  0  0  0  0  0  0
    9.7853   -1.1840   24.4927 C   0  0  0  0  0  0  0  0  0  0  0  0
    5.0276   -8.5227   17.5352 C   0  0  0  0  0  0  0  0  0  0  0  0
    9.8187   -2.0895   25.5800 C   0  0  0  0  0  0  0  0  0  0  0  0
    5.6473   -8.7216   15.3158 C   0  0  0  0  0  0  0  0  0  0  0  0
   10.7581   -3.1233   19.4720 N   0  0  0  0  0  0  0  0  0  0  0  0
    9.9571   -4.0573   16.8866 C   0  0  0  0  0  0  0  0  0  0  0  0
    7.6213   -6.5618   16.0087 C   0  0  0  0  0  0  0  0  0  0  0  0
   10.8583   -2.6527   20.7222 C   0  0  0  0  0  0  0  0  0  0  0  0
   10.6412   -3.5089   21.7936 C   0  0  0  0  0  0  0  0  0  0  0  0
   10.4972   -3.8968   24.1589 C   0  0  0  0  0  0  0  0  0  0  0  0
    5.9260   -8.2736   16.5517 C   0  0  0  0  0  0  0  0  0  0  0  0
    3.8816   -9.1166   17.2493 C   0  0  0  0  0  0  0  0  0  0  0  0
   10.1297   -1.6575   23.2324 C   0  0  0  0  0  0  0  0  0  0  0  0
    9.4684   -1.6929   26.7263 F   0  0  0  0  0  0  0  0  0  0  0  0
    7.7963   -7.7906   17.9837 C   0  0  0  0  0  0  0  0  0  0  0  0
   10.5884   -3.0725   16.7902 O   0  0  0  0  0  0  0  0  0  0  0  0
   10.4323   -5.3494   20.3516 C   0  0  0  0  0  0  0  0  0  0  0  0
    7.1156   -7.5454   16.8218 C   0  0  0  0  0  0  0  0  0  0  0  0
   10.3885   -4.4388   19.2773 C   0  0  0  0  0  0  0  0  0  0  0  0
    4.5160   -9.3822   15.0841 C   0  0  0  0  0  0  0  0  0  0  0  0
  1  3  4  0
  1 24  4  0
  2  6  4  0
  2 15  4  0
  3  5  4  0
  3  6  4  0
  4 21  4  0
  4 29  4  0
  5 15  4  0
  5 28  1  0
  6 16  4  0
  7 18  4  0
  7 26  4  0
  8 18  1  0
  8 19  4  0
  8 22  4  0
  9 12  4  0
  9 19  4  0
 10 12  4  0
 10 22  4  0
 11 20  4  0
 11 21  4  0
 12 23  1  0
 13 20  4  0
 13 29  4  0
 14 17  4  0
 14 28  4  0
 15 25  2  0
 16 27  4  0
 17 18  4  0
 20 27  1  0
 24 27  4  0
 26 28  4  0
M  END
$$$$

 Created by Python create_sdf_string function

 29 33  0  0  0  0  0  0  0  0999 V2000
    8.8270   -7.0288   18.4251 C   0  0  0  0  0  0  0  0  0  0  0  0
    9.1576   -4.6236   15.8860 O   0  0  0  0  0  0  0  0  0  0  0  0
    9.1509   -5.9108   17.7177 C   0  0  0  0  0  0  0  0  0  0  0  0
    3.6373   -9.5349   16.0582 N   0  0  0  0  0  0  0  0  0  0  0  0
    9.9275   -4.8001   18.0438 N   0  0  0  0  0  0  0  0  0  0  0  0
    8.5908   -5.7425   16.4412 C   0  0  0  0  0  0  0  0  0  0  0  0
   10.5993   -4.8981   21.6068 C   0  0  0  0  0  0  0  0  0  0  0  0
   10.4258   -3.0106   23.0998 C   0  0  0  0  0  0  0  0  0  0  0  0
   10.2148   -3.4364   25.4200 C   0  0  0  0  0  0  0  0  0  0  0  0
    9.7853   -1.1840   24.4927 C   0  0  0  0  0  0  0  0  0  0  0  0
    5.0276   -8.5227   17.5352 C   0  0  0  0  0  0  0  0  0  0  0  0
    9.8187   -2.0895   25.5800 C   0  0  0  0  0  0  0  0  0  0  0  0
    5.6473   -8.7216   15.3158 C   0  0  0  0  0  0  0  0  0  0  0  0
   10.7581   -3.1233   19.4720 N   0  0  0  0  0  0  0  0  0  0  0  0
    9.9571   -4.0573   16.8866 C   0  0  0  0  0  0  0  0  0  0  0  0
    7.6213   -6.5618   16.0087 C   0  0  0  0  0  0  0  0  0  0  0  0
   10.8583   -2.6527   20.7222 C   0  0  0  0  0  0  0  0  0  0  0  0
   10.6412   -3.5089   21.7936 C   0  0  0  0  0  0  0  0  0  0  0  0
   10.4972   -3.8968   24.1589 C   0  0  0  0  0  0  0  0  0  0  0  0
    5.9260   -8.2736   16.5517 C   0  0  0  0  0  0  0  0  0  0  0  0
    3.8816   -9.1166   17.2493 C   0  0  0  0  0  0  0  0  0  0  0  0
   10.1297   -1.6575   23.2324 C   0  0  0  0  0  0  0  0  0  0  0  0
    9.4684   -1.6929   26.7263 F   0  0  0  0  0  0  0  0  0  0  0  0
    7.7963   -7.7906   17.9837 C   0  0  0  0  0  0  0  0  0  0  0  0
   10.5884   -3.0725   16.7902 O   0  0  0  0  0  0  0  0  0  0  0  0
   10.4323   -5.3494   20.3516 C   0  0  0  0  0  0  0  0  0  0  0  0
    7.1156   -7.5454   16.8218 C   0  0  0  0  0  0  0  0  0  0  0  0
   10.3885   -4.4388   19.2773 C   0  0  0  0  0  0  0  0  0  0  0  0
    4.5160   -9.3822   15.0841 C   0  0  0  0  0  0  0  0  0  0  0  0
  1  3  4  0
  1 24  4  0
  2  6  4  0
  2 15  4  0
  3  5  4  0
  3  6  4  0
  4 21  4  0
  4 29  4  0
  5 15  4  0
  5 28  1  0
  6 16  4  0
  7 18  4  0
  7 26  4  0
  8 18  1  0
  8 19  4  0
  8 22  4  0
  9 12  4  0
  9 19  4  0
 10 12  4  0
 10 22  4  0
 11 20  4  0
 11 21  4  0
 12 23  1  0
 13 20  4  0
 13 29  4  0
 14 17  4  0
 14 28  4  0
 15 25  2  0
 16 27  4  0
 17 18  4  0
 20 27  1  0
 24 27  4  0
 26 28  4  0
M  END
$$$$

 Created by Python create_sdf_string function

 29 33  0  0  0  0  0  0  0  0999 V2000
    8.8270   -7.0288   18.4251 C   0  0  0  0  0  0  0  0  0  0  0  0
    9.1576   -4.6236   15.8860 O   0  0  0  0  0  0  0  0  0  0  0  0
    9.1509   -5.9108   17.7177 C   0  0  0  0  0  0  0  0  0  0  0  0
    3.6373   -9.5349   16.0582 N   0  0  0  0  0  0  0  0  0  0  0  0
    9.9275   -4.8001   18.0438 N   0  0  0  0  0  0  0  0  0  0  0  0
    8.5908   -5.7425   16.4412 C   0  0  0  0  0  0  0  0  0  0  0  0
   10.5993   -4.8981   21.6068 C   0  0  0  0  0  0  0  0  0  0  0  0
   10.4258   -3.0106   23.0998 C   0  0  0  0  0  0  0  0  0  0  0  0
   10.2148   -3.4364   25.4200 C   0  0  0  0  0  0  0  0  0  0  0  0
    9.7853   -1.1840   24.4927 C   0  0  0  0  0  0  0  0  0  0  0  0
    5.0276   -8.5227   17.5352 C   0  0  0  0  0  0  0  0  0  0  0  0
    9.8187   -2.0895   25.5800 C   0  0  0  0  0  0  0  0  0  0  0  0
    5.6473   -8.7216   15.3158 C   0  0  0  0  0  0  0  0  0  0  0  0
   10.7581   -3.1233   19.4720 N   0  0  0  0  0  0  0  0  0  0  0  0
    9.9571   -4.0573   16.8866 C   0  0  0  0  0  0  0  0  0  0  0  0
    7.6213   -6.5618   16.0087 C   0  0  0  0  0  0  0  0  0  0  0  0
   10.8583   -2.6527   20.7222 C   0  0  0  0  0  0  0  0  0  0  0  0
   10.6412   -3.5089   21.7936 C   0  0  0  0  0  0  0  0  0  0  0  0
   10.4972   -3.8968   24.1589 C   0  0  0  0  0  0  0  0  0  0  0  0
    5.9260   -8.2736   16.5517 C   0  0  0  0  0  0  0  0  0  0  0  0
    3.8816   -9.1166   17.2493 C   0  0  0  0  0  0  0  0  0  0  0  0
   10.1297   -1.6575   23.2324 C   0  0  0  0  0  0  0  0  0  0  0  0
    9.4684   -1.6929   26.7263 F   0  0  0  0  0  0  0  0  0  0  0  0
    7.7963   -7.7906   17.9837 C   0  0  0  0  0  0  0  0  0  0  0  0
   10.5884   -3.0725   16.7902 O   0  0  0  0  0  0  0  0  0  0  0  0
   10.4323   -5.3494   20.3516 C   0  0  0  0  0  0  0  0  0  0  0  0
    7.1156   -7.5454   16.8218 C   0  0  0  0  0  0  0  0  0  0  0  0
   10.3885   -4.4388   19.2773 C   0  0  0  0  0  0  0  0  0  0  0  0
    4.5160   -9.3822   15.0841 C   0  0  0  0  0  0  0  0  0  0  0  0
  1  3  4  0
  1 24  4  0
  2  6  4  0
  2 15  4  0
  3  5  4  0
  3  6  4  0
  4 21  4  0
  4 29  4  0
  5 15  4  0
  5 28  1  0
  6 16  4  0
  7 18  4  0
  7 26  4  0
  8 18  1  0
  8 19  4  0
  8 22  4  0
  9 12  4  0
  9 19  4  0
 10 12  4  0
 10 22  4  0
 11 20  4  0
 11 21  4  0
 12 23  1  0
 13 20  4  0
 13 29  4  0
 14 17  4  0
 14 28  4  0
 15 25  2  0
 16 27  4  0
 17 18  4  0
 20 27  1  0
 24 27  4  0
 26 28  4  0
M  END
$$$$

 Created by Python create_sdf_string function

 29 33  0  0  0  0  0  0  0  0999 V2000
    8.8270   -7.0288   18.4251 C   0  0  0  0  0  0  0  0  0  0  0  0
    9.1576   -4.6236   15.8860 O   0  0  0  0  0  0  0  0  0  0  0  0
    9.1509   -5.9108   17.7177 C   0  0  0  0  0  0  0  0  0  0  0  0
    3.6373   -9.5349   16.0582 N   0  0  0  0  0  0  0  0  0  0  0  0
    9.9275   -4.8001   18.0438 N   0  0  0  0  0  0  0  0  0  0  0  0
    8.5908   -5.7425   16.4412 C   0  0  0  0  0  0  0  0  0  0  0  0
   10.5993   -4.8981   21.6068 C   0  0  0  0  0  0  0  0  0  0  0  0
   10.4258   -3.0106   23.0998 C   0  0  0  0  0  0  0  0  0  0  0  0
   10.2148   -3.4364   25.4200 C   0  0  0  0  0  0  0  0  0  0  0  0
    9.7853   -1.1840   24.4927 C   0  0  0  0  0  0  0  0  0  0  0  0
    5.0276   -8.5227   17.5352 C   0  0  0  0  0  0  0  0  0  0  0  0
    9.8187   -2.0895   25.5800 C   0  0  0  0  0  0  0  0  0  0  0  0
    5.6473   -8.7216   15.3158 C   0  0  0  0  0  0  0  0  0  0  0  0
   10.7581   -3.1233   19.4720 N   0  0  0  0  0  0  0  0  0  0  0  0
    9.9571   -4.0573   16.8866 C   0  0  0  0  0  0  0  0  0  0  0  0
    7.6213   -6.5618   16.0087 C   0  0  0  0  0  0  0  0  0  0  0  0
   10.8583   -2.6527   20.7222 C   0  0  0  0  0  0  0  0  0  0  0  0
   10.6412   -3.5089   21.7936 C   0  0  0  0  0  0  0  0  0  0  0  0
   10.4972   -3.8968   24.1589 C   0  0  0  0  0  0  0  0  0  0  0  0
    5.9260   -8.2736   16.5517 C   0  0  0  0  0  0  0  0  0  0  0  0
    3.8816   -9.1166   17.2493 C   0  0  0  0  0  0  0  0  0  0  0  0
   10.1297   -1.6575   23.2324 C   0  0  0  0  0  0  0  0  0  0  0  0
    9.4684   -1.6929   26.7263 F   0  0  0  0  0  0  0  0  0  0  0  0
    7.7963   -7.7906   17.9837 C   0  0  0  0  0  0  0  0  0  0  0  0
   10.5884   -3.0725   16.7902 O   0  0  0  0  0  0  0  0  0  0  0  0
   10.4323   -5.3494   20.3516 C   0  0  0  0  0  0  0  0  0  0  0  0
    7.1156   -7.5454   16.8218 C   0  0  0  0  0  0  0  0  0  0  0  0
   10.3885   -4.4388   19.2773 C   0  0  0  0  0  0  0  0  0  0  0  0
    4.5160   -9.3822   15.0841 C   0  0  0  0  0  0  0  0  0  0  0  0
  1  3  4  0
  1 24  4  0
  2  6  4  0
  2 15  4  0
  3  5  4  0
  3  6  4  0
  4 21  4  0
  4 29  4  0
  5 15  4  0
  5 28  1  0
  6 16  4  0
  7 18  4  0
  7 26  4  0
  8 18  1  0
  8 19  4  0
  8 22  4  0
  9 12  4  0
  9 19  4  0
 10 12  4  0
 10 22  4  0
 11 20  4  0
 11 21  4  0
 12 23  1  0
 13 20  4  0
 13 29  4  0
 14 17  4  0
 14 28  4  0
 15 25  2  0
 16 27  4  0
 17 18  4  0
 20 27  1  0
 24 27  4  0
 26 28  4  0
M  END
$$$$

 Created by Python create_sdf_string function

 29 33  0  0  0  0  0  0  0  0999 V2000
    8.8270   -7.0288   18.4251 C   0  0  0  0  0  0  0  0  0  0  0  0
    9.1576   -4.6236   15.8860 O   0  0  0  0  0  0  0  0  0  0  0  0
    9.1509   -5.9108   17.7177 C   0  0  0  0  0  0  0  0  0  0  0  0
    3.6373   -9.5349   16.0582 N   0  0  0  0  0  0  0  0  0  0  0  0
    9.9275   -4.8001   18.0438 N   0  0  0  0  0  0  0  0  0  0  0  0
    8.5908   -5.7425   16.4412 C   0  0  0  0  0  0  0  0  0  0  0  0
   10.5993   -4.8981   21.6068 C   0  0  0  0  0  0  0  0  0  0  0  0
   10.4258   -3.0106   23.0998 C   0  0  0  0  0  0  0  0  0  0  0  0
   10.2148   -3.4364   25.4200 C   0  0  0  0  0  0  0  0  0  0  0  0
    9.7853   -1.1840   24.4927 C   0  0  0  0  0  0  0  0  0  0  0  0
    5.0276   -8.5227   17.5352 C   0  0  0  0  0  0  0  0  0  0  0  0
    9.8187   -2.0895   25.5800 C   0  0  0  0  0  0  0  0  0  0  0  0
    5.6473   -8.7216   15.3158 C   0  0  0  0  0  0  0  0  0  0  0  0
   10.7581   -3.1233   19.4720 N   0  0  0  0  0  0  0  0  0  0  0  0
    9.9571   -4.0573   16.8866 C   0  0  0  0  0  0  0  0  0  0  0  0
    7.6213   -6.5618   16.0087 C   0  0  0  0  0  0  0  0  0  0  0  0
   10.8583   -2.6527   20.7222 C   0  0  0  0  0  0  0  0  0  0  0  0
   10.6412   -3.5089   21.7936 C   0  0  0  0  0  0  0  0  0  0  0  0
   10.4972   -3.8968   24.1589 C   0  0  0  0  0  0  0  0  0  0  0  0
    5.9260   -8.2736   16.5517 C   0  0  0  0  0  0  0  0  0  0  0  0
    3.8816   -9.1166   17.2493 C   0  0  0  0  0  0  0  0  0  0  0  0
   10.1297   -1.6575   23.2324 C   0  0  0  0  0  0  0  0  0  0  0  0
    9.4684   -1.6929   26.7263 F   0  0  0  0  0  0  0  0  0  0  0  0
    7.7963   -7.7906   17.9837 C   0  0  0  0  0  0  0  0  0  0  0  0
   10.5884   -3.0725   16.7902 O   0  0  0  0  0  0  0  0  0  0  0  0
   10.4323   -5.3494   20.3516 C   0  0  0  0  0  0  0  0  0  0  0  0
    7.1156   -7.5454   16.8218 C   0  0  0  0  0  0  0  0  0  0  0  0
   10.3885   -4.4388   19.2773 C   0  0  0  0  0  0  0  0  0  0  0  0
    4.5160   -9.3822   15.0841 C   0  0  0  0  0  0  0  0  0  0  0  0
  1  3  4  0
  1 24  4  0
  2  6  4  0
  2 15  4  0
  3  5  4  0
  3  6  4  0
  4 21  4  0
  4 29  4  0
  5 15  4  0
  5 28  1  0
  6 16  4  0
  7 18  4  0
  7 26  4  0
  8 18  1  0
  8 19  4  0
  8 22  4  0
  9 12  4  0
  9 19  4  0
 10 12  4  0
 10 22  4  0
 11 20  4  0
 11 21  4  0
 12 23  1  0
 13 20  4  0
 13 29  4  0
 14 17  4  0
 14 28  4  0
 15 25  2  0
 16 27  4  0
 17 18  4  0
 20 27  1  0
 24 27  4  0
 26 28  4  0
M  END
$$$$

 Created by Python create_sdf_string function

 29 33  0  0  0  0  0  0  0  0999 V2000
    8.8270   -7.0288   18.4251 C   0  0  0  0  0  0  0  0  0  0  0  0
    9.1576   -4.6236   15.8860 O   0  0  0  0  0  0  0  0  0  0  0  0
    9.1509   -5.9108   17.7177 C   0  0  0  0  0  0  0  0  0  0  0  0
    3.6373   -9.5349   16.0582 N   0  0  0  0  0  0  0  0  0  0  0  0
    9.9275   -4.8001   18.0438 N   0  0  0  0  0  0  0  0  0  0  0  0
    8.5908   -5.7425   16.4412 C   0  0  0  0  0  0  0  0  0  0  0  0
   10.5993   -4.8981   21.6068 C   0  0  0  0  0  0  0  0  0  0  0  0
   10.4258   -3.0106   23.0998 C   0  0  0  0  0  0  0  0  0  0  0  0
   10.2148   -3.4364   25.4200 C   0  0  0  0  0  0  0  0  0  0  0  0
    9.7853   -1.1840   24.4927 C   0  0  0  0  0  0  0  0  0  0  0  0
    5.0276   -8.5227   17.5352 C   0  0  0  0  0  0  0  0  0  0  0  0
    9.8187   -2.0895   25.5800 C   0  0  0  0  0  0  0  0  0  0  0  0
    5.6473   -8.7216   15.3158 C   0  0  0  0  0  0  0  0  0  0  0  0
   10.7581   -3.1233   19.4720 N   0  0  0  0  0  0  0  0  0  0  0  0
    9.9571   -4.0573   16.8866 C   0  0  0  0  0  0  0  0  0  0  0  0
    7.6213   -6.5618   16.0087 C   0  0  0  0  0  0  0  0  0  0  0  0
   10.8583   -2.6527   20.7222 C   0  0  0  0  0  0  0  0  0  0  0  0
   10.6412   -3.5089   21.7936 C   0  0  0  0  0  0  0  0  0  0  0  0
   10.4972   -3.8968   24.1589 C   0  0  0  0  0  0  0  0  0  0  0  0
    5.9260   -8.2736   16.5517 C   0  0  0  0  0  0  0  0  0  0  0  0
    3.8816   -9.1166   17.2493 C   0  0  0  0  0  0  0  0  0  0  0  0
   10.1297   -1.6575   23.2324 C   0  0  0  0  0  0  0  0  0  0  0  0
    9.4684   -1.6929   26.7263 F   0  0  0  0  0  0  0  0  0  0  0  0
    7.7963   -7.7906   17.9837 C   0  0  0  0  0  0  0  0  0  0  0  0
   10.5884   -3.0725   16.7902 O   0  0  0  0  0  0  0  0  0  0  0  0
   10.4323   -5.3494   20.3516 C   0  0  0  0  0  0  0  0  0  0  0  0
    7.1156   -7.5454   16.8218 C   0  0  0  0  0  0  0  0  0  0  0  0
   10.3885   -4.4388   19.2773 C   0  0  0  0  0  0  0  0  0  0  0  0
    4.5160   -9.3822   15.0841 C   0  0  0  0  0  0  0  0  0  0  0  0
  1  3  4  0
  1 24  4  0
  2  6  4  0
  2 15  4  0
  3  5  4  0
  3  6  4  0
  4 21  4  0
  4 29  4  0
  5 15  4  0
  5 28  1  0
  6 16  4  0
  7 18  4  0
  7 26  4  0
  8 18  1  0
  8 19  4  0
  8 22  4  0
  9 12  4  0
  9 19  4  0
 10 12  4  0
 10 22  4  0
 11 20  4  0
 11 21  4  0
 12 23  1  0
 13 20  4  0
 13 29  4  0
 14 17  4  0
 14 28  4  0
 15 25  2  0
 16 27  4  0
 17 18  4  0
 20 27  1  0
 24 27  4  0
 26 28  4  0
M  END
$$$$

 Created by Python create_sdf_string function

 29 33  0  0  0  0  0  0  0  0999 V2000
    8.8270   -7.0288   18.4251 C   0  0  0  0  0  0  0  0  0  0  0  0
    9.1576   -4.6236   15.8860 O   0  0  0  0  0  0  0  0  0  0  0  0
    9.1509   -5.9108   17.7177 C   0  0  0  0  0  0  0  0  0  0  0  0
    3.6373   -9.5349   16.0582 N   0  0  0  0  0  0  0  0  0  0  0  0
    9.9275   -4.8001   18.0438 N   0  0  0  0  0  0  0  0  0  0  0  0
    8.5908   -5.7425   16.4412 C   0  0  0  0  0  0  0  0  0  0  0  0
   10.5993   -4.8981   21.6068 C   0  0  0  0  0  0  0  0  0  0  0  0
   10.4258   -3.0106   23.0998 C   0  0  0  0  0  0  0  0  0  0  0  0
   10.2148   -3.4364   25.4200 C   0  0  0  0  0  0  0  0  0  0  0  0
    9.7853   -1.1840   24.4927 C   0  0  0  0  0  0  0  0  0  0  0  0
    5.0276   -8.5227   17.5352 C   0  0  0  0  0  0  0  0  0  0  0  0
    9.8187   -2.0895   25.5800 C   0  0  0  0  0  0  0  0  0  0  0  0
    5.6473   -8.7216   15.3158 C   0  0  0  0  0  0  0  0  0  0  0  0
   10.7581   -3.1233   19.4720 N   0  0  0  0  0  0  0  0  0  0  0  0
    9.9571   -4.0573   16.8866 C   0  0  0  0  0  0  0  0  0  0  0  0
    7.6213   -6.5618   16.0087 C   0  0  0  0  0  0  0  0  0  0  0  0
   10.8583   -2.6527   20.7222 C   0  0  0  0  0  0  0  0  0  0  0  0
   10.6412   -3.5089   21.7936 C   0  0  0  0  0  0  0  0  0  0  0  0
   10.4972   -3.8968   24.1589 C   0  0  0  0  0  0  0  0  0  0  0  0
    5.9260   -8.2736   16.5517 C   0  0  0  0  0  0  0  0  0  0  0  0
    3.8816   -9.1166   17.2493 C   0  0  0  0  0  0  0  0  0  0  0  0
   10.1297   -1.6575   23.2324 C   0  0  0  0  0  0  0  0  0  0  0  0
    9.4684   -1.6929   26.7263 F   0  0  0  0  0  0  0  0  0  0  0  0
    7.7963   -7.7906   17.9837 C   0  0  0  0  0  0  0  0  0  0  0  0
   10.5884   -3.0725   16.7902 O   0  0  0  0  0  0  0  0  0  0  0  0
   10.4323   -5.3494   20.3516 C   0  0  0  0  0  0  0  0  0  0  0  0
    7.1156   -7.5454   16.8218 C   0  0  0  0  0  0  0  0  0  0  0  0
   10.3885   -4.4388   19.2773 C   0  0  0  0  0  0  0  0  0  0  0  0
    4.5160   -9.3822   15.0841 C   0  0  0  0  0  0  0  0  0  0  0  0
  1  3  4  0
  1 24  4  0
  2  6  4  0
  2 15  4  0
  3  5  4  0
  3  6  4  0
  4 21  4  0
  4 29  4  0
  5 15  4  0
  5 28  1  0
  6 16  4  0
  7 18  4  0
  7 26  4  0
  8 18  1  0
  8 19  4  0
  8 22  4  0
  9 12  4  0
  9 19  4  0
 10 12  4  0
 10 22  4  0
 11 20  4  0
 11 21  4  0
 12 23  1  0
 13 20  4  0
 13 29  4  0
 14 17  4  0
 14 28  4  0
 15 25  2  0
 16 27  4  0
 17 18  4  0
 20 27  1  0
 24 27  4  0
 26 28  4  0
M  END
$$$$

 Created by Python create_sdf_string function

 29 33  0  0  0  0  0  0  0  0999 V2000
    8.8270   -7.0288   18.4251 C   0  0  0  0  0  0  0  0  0  0  0  0
    9.1576   -4.6236   15.8860 O   0  0  0  0  0  0  0  0  0  0  0  0
    9.1509   -5.9108   17.7177 C   0  0  0  0  0  0  0  0  0  0  0  0
    3.6373   -9.5349   16.0582 N   0  0  0  0  0  0  0  0  0  0  0  0
    9.9275   -4.8001   18.0438 N   0  0  0  0  0  0  0  0  0  0  0  0
    8.5908   -5.7425   16.4412 C   0  0  0  0  0  0  0  0  0  0  0  0
   10.5993   -4.8981   21.6068 C   0  0  0  0  0  0  0  0  0  0  0  0
   10.4258   -3.0106   23.0998 C   0  0  0  0  0  0  0  0  0  0  0  0
   10.2148   -3.4364   25.4200 C   0  0  0  0  0  0  0  0  0  0  0  0
    9.7853   -1.1840   24.4927 C   0  0  0  0  0  0  0  0  0  0  0  0
    5.0276   -8.5227   17.5352 C   0  0  0  0  0  0  0  0  0  0  0  0
    9.8187   -2.0895   25.5800 C   0  0  0  0  0  0  0  0  0  0  0  0
    5.6473   -8.7216   15.3158 C   0  0  0  0  0  0  0  0  0  0  0  0
   10.7581   -3.1233   19.4720 N   0  0  0  0  0  0  0  0  0  0  0  0
    9.9571   -4.0573   16.8866 C   0  0  0  0  0  0  0  0  0  0  0  0
    7.6213   -6.5618   16.0087 C   0  0  0  0  0  0  0  0  0  0  0  0
   10.8583   -2.6527   20.7222 C   0  0  0  0  0  0  0  0  0  0  0  0
   10.6412   -3.5089   21.7936 C   0  0  0  0  0  0  0  0  0  0  0  0
   10.4972   -3.8968   24.1589 C   0  0  0  0  0  0  0  0  0  0  0  0
    5.9260   -8.2736   16.5517 C   0  0  0  0  0  0  0  0  0  0  0  0
    3.8816   -9.1166   17.2493 C   0  0  0  0  0  0  0  0  0  0  0  0
   10.1297   -1.6575   23.2324 C   0  0  0  0  0  0  0  0  0  0  0  0
    9.4684   -1.6929   26.7263 F   0  0  0  0  0  0  0  0  0  0  0  0
    7.7963   -7.7906   17.9837 C   0  0  0  0  0  0  0  0  0  0  0  0
   10.5884   -3.0725   16.7902 O   0  0  0  0  0  0  0  0  0  0  0  0
   10.4323   -5.3494   20.3516 C   0  0  0  0  0  0  0  0  0  0  0  0
    7.1156   -7.5454   16.8218 C   0  0  0  0  0  0  0  0  0  0  0  0
   10.3885   -4.4388   19.2773 C   0  0  0  0  0  0  0  0  0  0  0  0
    4.5160   -9.3822   15.0841 C   0  0  0  0  0  0  0  0  0  0  0  0
  1  3  4  0
  1 24  4  0
  2  6  4  0
  2 15  4  0
  3  5  4  0
  3  6  4  0
  4 21  4  0
  4 29  4  0
  5 15  4  0
  5 28  1  0
  6 16  4  0
  7 18  4  0
  7 26  4  0
  8 18  1  0
  8 19  4  0
  8 22  4  0
  9 12  4  0
  9 19  4  0
 10 12  4  0
 10 22  4  0
 11 20  4  0
 11 21  4  0
 12 23  1  0
 13 20  4  0
 13 29  4  0
 14 17  4  0
 14 28  4  0
 15 25  2  0
 16 27  4  0
 17 18  4  0
 20 27  1  0
 24 27  4  0
 26 28  4  0
M  END
$$$$

 Created by Python create_sdf_string function

 29 33  0  0  0  0  0  0  0  0999 V2000
    8.8270   -7.0288   18.4251 C   0  0  0  0  0  0  0  0  0  0  0  0
    9.1576   -4.6236   15.8860 O   0  0  0  0  0  0  0  0  0  0  0  0
    9.1509   -5.9108   17.7177 C   0  0  0  0  0  0  0  0  0  0  0  0
    3.6373   -9.5349   16.0582 N   0  0  0  0  0  0  0  0  0  0  0  0
    9.9275   -4.8001   18.0438 N   0  0  0  0  0  0  0  0  0  0  0  0
    8.5908   -5.7425   16.4412 C   0  0  0  0  0  0  0  0  0  0  0  0
   10.5993   -4.8981   21.6068 C   0  0  0  0  0  0  0  0  0  0  0  0
   10.4258   -3.0106   23.0998 C   0  0  0  0  0  0  0  0  0  0  0  0
   10.2148   -3.4364   25.4200 C   0  0  0  0  0  0  0  0  0  0  0  0
    9.7853   -1.1840   24.4927 C   0  0  0  0  0  0  0  0  0  0  0  0
    5.0276   -8.5227   17.5352 C   0  0  0  0  0  0  0  0  0  0  0  0
    9.8187   -2.0895   25.5800 C   0  0  0  0  0  0  0  0  0  0  0  0
    5.6473   -8.7216   15.3158 C   0  0  0  0  0  0  0  0  0  0  0  0
   10.7581   -3.1233   19.4720 N   0  0  0  0  0  0  0  0  0  0  0  0
    9.9571   -4.0573   16.8866 C   0  0  0  0  0  0  0  0  0  0  0  0
    7.6213   -6.5618   16.0087 C   0  0  0  0  0  0  0  0  0  0  0  0
   10.8583   -2.6527   20.7222 C   0  0  0  0  0  0  0  0  0  0  0  0
   10.6412   -3.5089   21.7936 C   0  0  0  0  0  0  0  0  0  0  0  0
   10.4972   -3.8968   24.1589 C   0  0  0  0  0  0  0  0  0  0  0  0
    5.9260   -8.2736   16.5517 C   0  0  0  0  0  0  0  0  0  0  0  0
    3.8816   -9.1166   17.2493 C   0  0  0  0  0  0  0  0  0  0  0  0
   10.1297   -1.6575   23.2324 C   0  0  0  0  0  0  0  0  0  0  0  0
    9.4684   -1.6929   26.7263 F   0  0  0  0  0  0  0  0  0  0  0  0
    7.7963   -7.7906   17.9837 C   0  0  0  0  0  0  0  0  0  0  0  0
   10.5884   -3.0725   16.7902 O   0  0  0  0  0  0  0  0  0  0  0  0
   10.4323   -5.3494   20.3516 C   0  0  0  0  0  0  0  0  0  0  0  0
    7.1156   -7.5454   16.8218 C   0  0  0  0  0  0  0  0  0  0  0  0
   10.3885   -4.4388   19.2773 C   0  0  0  0  0  0  0  0  0  0  0  0
    4.5160   -9.3822   15.0841 C   0  0  0  0  0  0  0  0  0  0  0  0
  1  3  4  0
  1 24  4  0
  2  6  4  0
  2 15  4  0
  3  5  4  0
  3  6  4  0
  4 21  4  0
  4 29  4  0
  5 15  4  0
  5 28  1  0
  6 16  4  0
  7 18  4  0
  7 26  4  0
  8 18  1  0
  8 19  4  0
  8 22  4  0
  9 12  4  0
  9 19  4  0
 10 12  4  0
 10 22  4  0
 11 20  4  0
 11 21  4  0
 12 23  1  0
 13 20  4  0
 13 29  4  0
 14 17  4  0
 14 28  4  0
 15 25  2  0
 16 27  4  0
 17 18  4  0
 20 27  1  0
 24 27  4  0
 26 28  4  0
M  END
$$$$

 Created by Python create_sdf_string function

 29 33  0  0  0  0  0  0  0  0999 V2000
    8.8270   -7.0288   18.4251 C   0  0  0  0  0  0  0  0  0  0  0  0
    9.1576   -4.6236   15.8860 O   0  0  0  0  0  0  0  0  0  0  0  0
    9.1509   -5.9108   17.7177 C   0  0  0  0  0  0  0  0  0  0  0  0
    3.6373   -9.5349   16.0582 N   0  0  0  0  0  0  0  0  0  0  0  0
    9.9275   -4.8001   18.0438 N   0  0  0  0  0  0  0  0  0  0  0  0
    8.5908   -5.7425   16.4412 C   0  0  0  0  0  0  0  0  0  0  0  0
   10.5993   -4.8981   21.6068 C   0  0  0  0  0  0  0  0  0  0  0  0
   10.4258   -3.0106   23.0998 C   0  0  0  0  0  0  0  0  0  0  0  0
   10.2148   -3.4364   25.4200 C   0  0  0  0  0  0  0  0  0  0  0  0
    9.7853   -1.1840   24.4927 C   0  0  0  0  0  0  0  0  0  0  0  0
    5.0276   -8.5227   17.5352 C   0  0  0  0  0  0  0  0  0  0  0  0
    9.8187   -2.0895   25.5800 C   0  0  0  0  0  0  0  0  0  0  0  0
    5.6473   -8.7216   15.3158 C   0  0  0  0  0  0  0  0  0  0  0  0
   10.7581   -3.1233   19.4720 N   0  0  0  0  0  0  0  0  0  0  0  0
    9.9571   -4.0573   16.8866 C   0  0  0  0  0  0  0  0  0  0  0  0
    7.6213   -6.5618   16.0087 C   0  0  0  0  0  0  0  0  0  0  0  0
   10.8583   -2.6527   20.7222 C   0  0  0  0  0  0  0  0  0  0  0  0
   10.6412   -3.5089   21.7936 C   0  0  0  0  0  0  0  0  0  0  0  0
   10.4972   -3.8968   24.1589 C   0  0  0  0  0  0  0  0  0  0  0  0
    5.9260   -8.2736   16.5517 C   0  0  0  0  0  0  0  0  0  0  0  0
    3.8816   -9.1166   17.2493 C   0  0  0  0  0  0  0  0  0  0  0  0
   10.1297   -1.6575   23.2324 C   0  0  0  0  0  0  0  0  0  0  0  0
    9.4684   -1.6929   26.7263 F   0  0  0  0  0  0  0  0  0  0  0  0
    7.7963   -7.7906   17.9837 C   0  0  0  0  0  0  0  0  0  0  0  0
   10.5884   -3.0725   16.7902 O   0  0  0  0  0  0  0  0  0  0  0  0
   10.4323   -5.3494   20.3516 C   0  0  0  0  0  0  0  0  0  0  0  0
    7.1156   -7.5454   16.8218 C   0  0  0  0  0  0  0  0  0  0  0  0
   10.3885   -4.4388   19.2773 C   0  0  0  0  0  0  0  0  0  0  0  0
    4.5160   -9.3822   15.0841 C   0  0  0  0  0  0  0  0  0  0  0  0
  1  3  4  0
  1 24  4  0
  2  6  4  0
  2 15  4  0
  3  5  4  0
  3  6  4  0
  4 21  4  0
  4 29  4  0
  5 15  4  0
  5 28  1  0
  6 16  4  0
  7 18  4  0
  7 26  4  0
  8 18  1  0
  8 19  4  0
  8 22  4  0
  9 12  4  0
  9 19  4  0
 10 12  4  0
 10 22  4  0
 11 20  4  0
 11 21  4  0
 12 23  1  0
 13 20  4  0
 13 29  4  0
 14 17  4  0
 14 28  4  0
 15 25  2  0
 16 27  4  0
 17 18  4  0
 20 27  1  0
 24 27  4  0
 26 28  4  0
M  END
$$$$

 Created by Python create_sdf_string function

 29 33  0  0  0  0  0  0  0  0999 V2000
    8.8270   -7.0288   18.4251 C   0  0  0  0  0  0  0  0  0  0  0  0
    9.1576   -4.6236   15.8860 O   0  0  0  0  0  0  0  0  0  0  0  0
    9.1509   -5.9108   17.7177 C   0  0  0  0  0  0  0  0  0  0  0  0
    3.6373   -9.5349   16.0582 N   0  0  0  0  0  0  0  0  0  0  0  0
    9.9275   -4.8001   18.0438 N   0  0  0  0  0  0  0  0  0  0  0  0
    8.5908   -5.7425   16.4412 C   0  0  0  0  0  0  0  0  0  0  0  0
   10.5993   -4.8981   21.6068 C   0  0  0  0  0  0  0  0  0  0  0  0
   10.4258   -3.0106   23.0998 C   0  0  0  0  0  0  0  0  0  0  0  0
   10.2148   -3.4364   25.4200 C   0  0  0  0  0  0  0  0  0  0  0  0
    9.7853   -1.1840   24.4927 C   0  0  0  0  0  0  0  0  0  0  0  0
    5.0276   -8.5227   17.5352 C   0  0  0  0  0  0  0  0  0  0  0  0
    9.8187   -2.0895   25.5800 C   0  0  0  0  0  0  0  0  0  0  0  0
    5.6473   -8.7216   15.3158 C   0  0  0  0  0  0  0  0  0  0  0  0
   10.7581   -3.1233   19.4720 N   0  0  0  0  0  0  0  0  0  0  0  0
    9.9571   -4.0573   16.8866 C   0  0  0  0  0  0  0  0  0  0  0  0
    7.6213   -6.5618   16.0087 C   0  0  0  0  0  0  0  0  0  0  0  0
   10.8583   -2.6527   20.7222 C   0  0  0  0  0  0  0  0  0  0  0  0
   10.6412   -3.5089   21.7936 C   0  0  0  0  0  0  0  0  0  0  0  0
   10.4972   -3.8968   24.1589 C   0  0  0  0  0  0  0  0  0  0  0  0
    5.9260   -8.2736   16.5517 C   0  0  0  0  0  0  0  0  0  0  0  0
    3.8816   -9.1166   17.2493 C   0  0  0  0  0  0  0  0  0  0  0  0
   10.1297   -1.6575   23.2324 C   0  0  0  0  0  0  0  0  0  0  0  0
    9.4684   -1.6929   26.7263 F   0  0  0  0  0  0  0  0  0  0  0  0
    7.7963   -7.7906   17.9837 C   0  0  0  0  0  0  0  0  0  0  0  0
   10.5884   -3.0725   16.7902 O   0  0  0  0  0  0  0  0  0  0  0  0
   10.4323   -5.3494   20.3516 C   0  0  0  0  0  0  0  0  0  0  0  0
    7.1156   -7.5454   16.8218 C   0  0  0  0  0  0  0  0  0  0  0  0
   10.3885   -4.4388   19.2773 C   0  0  0  0  0  0  0  0  0  0  0  0
    4.5160   -9.3822   15.0841 C   0  0  0  0  0  0  0  0  0  0  0  0
  1  3  4  0
  1 24  4  0
  2  6  4  0
  2 15  4  0
  3  5  4  0
  3  6  4  0
  4 21  4  0
  4 29  4  0
  5 15  4  0
  5 28  1  0
  6 16  4  0
  7 18  4  0
  7 26  4  0
  8 18  1  0
  8 19  4  0
  8 22  4  0
  9 12  4  0
  9 19  4  0
 10 12  4  0
 10 22  4  0
 11 20  4  0
 11 21  4  0
 12 23  1  0
 13 20  4  0
 13 29  4  0
 14 17  4  0
 14 28  4  0
 15 25  2  0
 16 27  4  0
 17 18  4  0
 20 27  1  0
 24 27  4  0
 26 28  4  0
M  END
$$$$

 Created by Python create_sdf_string function

 29 33  0  0  0  0  0  0  0  0999 V2000
    8.8270   -7.0288   18.4251 C   0  0  0  0  0  0  0  0  0  0  0  0
    9.1576   -4.6236   15.8860 O   0  0  0  0  0  0  0  0  0  0  0  0
    9.1509   -5.9108   17.7177 C   0  0  0  0  0  0  0  0  0  0  0  0
    3.6373   -9.5349   16.0582 N   0  0  0  0  0  0  0  0  0  0  0  0
    9.9275   -4.8001   18.0438 N   0  0  0  0  0  0  0  0  0  0  0  0
    8.5908   -5.7425   16.4412 C   0  0  0  0  0  0  0  0  0  0  0  0
   10.5993   -4.8981   21.6068 C   0  0  0  0  0  0  0  0  0  0  0  0
   10.4258   -3.0106   23.0998 C   0  0  0  0  0  0  0  0  0  0  0  0
   10.2148   -3.4364   25.4200 C   0  0  0  0  0  0  0  0  0  0  0  0
    9.7853   -1.1840   24.4927 C   0  0  0  0  0  0  0  0  0  0  0  0
    5.0276   -8.5227   17.5352 C   0  0  0  0  0  0  0  0  0  0  0  0
    9.8187   -2.0895   25.5800 C   0  0  0  0  0  0  0  0  0  0  0  0
    5.6473   -8.7216   15.3158 C   0  0  0  0  0  0  0  0  0  0  0  0
   10.7581   -3.1233   19.4720 N   0  0  0  0  0  0  0  0  0  0  0  0
    9.9571   -4.0573   16.8866 C   0  0  0  0  0  0  0  0  0  0  0  0
    7.6213   -6.5618   16.0087 C   0  0  0  0  0  0  0  0  0  0  0  0
   10.8583   -2.6527   20.7222 C   0  0  0  0  0  0  0  0  0  0  0  0
   10.6412   -3.5089   21.7936 C   0  0  0  0  0  0  0  0  0  0  0  0
   10.4972   -3.8968   24.1589 C   0  0  0  0  0  0  0  0  0  0  0  0
    5.9260   -8.2736   16.5517 C   0  0  0  0  0  0  0  0  0  0  0  0
    3.8816   -9.1166   17.2493 C   0  0  0  0  0  0  0  0  0  0  0  0
   10.1297   -1.6575   23.2324 C   0  0  0  0  0  0  0  0  0  0  0  0
    9.4684   -1.6929   26.7263 F   0  0  0  0  0  0  0  0  0  0  0  0
    7.7963   -7.7906   17.9837 C   0  0  0  0  0  0  0  0  0  0  0  0
   10.5884   -3.0725   16.7902 O   0  0  0  0  0  0  0  0  0  0  0  0
   10.4323   -5.3494   20.3516 C   0  0  0  0  0  0  0  0  0  0  0  0
    7.1156   -7.5454   16.8218 C   0  0  0  0  0  0  0  0  0  0  0  0
   10.3885   -4.4388   19.2773 C   0  0  0  0  0  0  0  0  0  0  0  0
    4.5160   -9.3822   15.0841 C   0  0  0  0  0  0  0  0  0  0  0  0
  1  3  4  0
  1 24  4  0
  2  6  4  0
  2 15  4  0
  3  5  4  0
  3  6  4  0
  4 21  4  0
  4 29  4  0
  5 15  4  0
  5 28  1  0
  6 16  4  0
  7 18  4  0
  7 26  4  0
  8 18  1  0
  8 19  4  0
  8 22  4  0
  9 12  4  0
  9 19  4  0
 10 12  4  0
 10 22  4  0
 11 20  4  0
 11 21  4  0
 12 23  1  0
 13 20  4  0
 13 29  4  0
 14 17  4  0
 14 28  4  0
 15 25  2  0
 16 27  4  0
 17 18  4  0
 20 27  1  0
 24 27  4  0
 26 28  4  0
M  END
$$$$

 Created by Python create_sdf_string function

 29 33  0  0  0  0  0  0  0  0999 V2000
    8.8270   -7.0288   18.4251 C   0  0  0  0  0  0  0  0  0  0  0  0
    9.1576   -4.6236   15.8860 O   0  0  0  0  0  0  0  0  0  0  0  0
    9.1509   -5.9108   17.7177 C   0  0  0  0  0  0  0  0  0  0  0  0
    3.6373   -9.5349   16.0582 N   0  0  0  0  0  0  0  0  0  0  0  0
    9.9275   -4.8001   18.0438 N   0  0  0  0  0  0  0  0  0  0  0  0
    8.5908   -5.7425   16.4412 C   0  0  0  0  0  0  0  0  0  0  0  0
   10.5993   -4.8981   21.6068 C   0  0  0  0  0  0  0  0  0  0  0  0
   10.4258   -3.0106   23.0998 C   0  0  0  0  0  0  0  0  0  0  0  0
   10.2148   -3.4364   25.4200 C   0  0  0  0  0  0  0  0  0  0  0  0
    9.7853   -1.1840   24.4927 C   0  0  0  0  0  0  0  0  0  0  0  0
    5.0276   -8.5227   17.5352 C   0  0  0  0  0  0  0  0  0  0  0  0
    9.8187   -2.0895   25.5800 C   0  0  0  0  0  0  0  0  0  0  0  0
    5.6473   -8.7216   15.3158 C   0  0  0  0  0  0  0  0  0  0  0  0
   10.7581   -3.1233   19.4720 N   0  0  0  0  0  0  0  0  0  0  0  0
    9.9571   -4.0573   16.8866 C   0  0  0  0  0  0  0  0  0  0  0  0
    7.6213   -6.5618   16.0087 C   0  0  0  0  0  0  0  0  0  0  0  0
   10.8583   -2.6527   20.7222 C   0  0  0  0  0  0  0  0  0  0  0  0
   10.6412   -3.5089   21.7936 C   0  0  0  0  0  0  0  0  0  0  0  0
   10.4972   -3.8968   24.1589 C   0  0  0  0  0  0  0  0  0  0  0  0
    5.9260   -8.2736   16.5517 C   0  0  0  0  0  0  0  0  0  0  0  0
    3.8816   -9.1166   17.2493 C   0  0  0  0  0  0  0  0  0  0  0  0
   10.1297   -1.6575   23.2324 C   0  0  0  0  0  0  0  0  0  0  0  0
    9.4684   -1.6929   26.7263 F   0  0  0  0  0  0  0  0  0  0  0  0
    7.7963   -7.7906   17.9837 C   0  0  0  0  0  0  0  0  0  0  0  0
   10.5884   -3.0725   16.7902 O   0  0  0  0  0  0  0  0  0  0  0  0
   10.4323   -5.3494   20.3516 C   0  0  0  0  0  0  0  0  0  0  0  0
    7.1156   -7.5454   16.8218 C   0  0  0  0  0  0  0  0  0  0  0  0
   10.3885   -4.4388   19.2773 C   0  0  0  0  0  0  0  0  0  0  0  0
    4.5160   -9.3822   15.0841 C   0  0  0  0  0  0  0  0  0  0  0  0
  1  3  4  0
  1 24  4  0
  2  6  4  0
  2 15  4  0
  3  5  4  0
  3  6  4  0
  4 21  4  0
  4 29  4  0
  5 15  4  0
  5 28  1  0
  6 16  4  0
  7 18  4  0
  7 26  4  0
  8 18  1  0
  8 19  4  0
  8 22  4  0
  9 12  4  0
  9 19  4  0
 10 12  4  0
 10 22  4  0
 11 20  4  0
 11 21  4  0
 12 23  1  0
 13 20  4  0
 13 29  4  0
 14 17  4  0
 14 28  4  0
 15 25  2  0
 16 27  4  0
 17 18  4  0
 20 27  1  0
 24 27  4  0
 26 28  4  0
M  END
$$$$

 Created by Python create_sdf_string function

 29 33  0  0  0  0  0  0  0  0999 V2000
    8.8270   -7.0288   18.4251 C   0  0  0  0  0  0  0  0  0  0  0  0
    9.1576   -4.6236   15.8860 O   0  0  0  0  0  0  0  0  0  0  0  0
    9.1509   -5.9108   17.7177 C   0  0  0  0  0  0  0  0  0  0  0  0
    3.6373   -9.5349   16.0582 N   0  0  0  0  0  0  0  0  0  0  0  0
    9.9275   -4.8001   18.0438 N   0  0  0  0  0  0  0  0  0  0  0  0
    8.5908   -5.7425   16.4412 C   0  0  0  0  0  0  0  0  0  0  0  0
   10.5993   -4.8981   21.6068 C   0  0  0  0  0  0  0  0  0  0  0  0
   10.4258   -3.0106   23.0998 C   0  0  0  0  0  0  0  0  0  0  0  0
   10.2148   -3.4364   25.4200 C   0  0  0  0  0  0  0  0  0  0  0  0
    9.7853   -1.1840   24.4927 C   0  0  0  0  0  0  0  0  0  0  0  0
    5.0276   -8.5227   17.5352 C   0  0  0  0  0  0  0  0  0  0  0  0
    9.8187   -2.0895   25.5800 C   0  0  0  0  0  0  0  0  0  0  0  0
    5.6473   -8.7216   15.3158 C   0  0  0  0  0  0  0  0  0  0  0  0
   10.7581   -3.1233   19.4720 N   0  0  0  0  0  0  0  0  0  0  0  0
    9.9571   -4.0573   16.8866 C   0  0  0  0  0  0  0  0  0  0  0  0
    7.6213   -6.5618   16.0087 C   0  0  0  0  0  0  0  0  0  0  0  0
   10.8583   -2.6527   20.7222 C   0  0  0  0  0  0  0  0  0  0  0  0
   10.6412   -3.5089   21.7936 C   0  0  0  0  0  0  0  0  0  0  0  0
   10.4972   -3.8968   24.1589 C   0  0  0  0  0  0  0  0  0  0  0  0
    5.9260   -8.2736   16.5517 C   0  0  0  0  0  0  0  0  0  0  0  0
    3.8816   -9.1166   17.2493 C   0  0  0  0  0  0  0  0  0  0  0  0
   10.1297   -1.6575   23.2324 C   0  0  0  0  0  0  0  0  0  0  0  0
    9.4684   -1.6929   26.7263 F   0  0  0  0  0  0  0  0  0  0  0  0
    7.7963   -7.7906   17.9837 C   0  0  0  0  0  0  0  0  0  0  0  0
   10.5884   -3.0725   16.7902 O   0  0  0  0  0  0  0  0  0  0  0  0
   10.4323   -5.3494   20.3516 C   0  0  0  0  0  0  0  0  0  0  0  0
    7.1156   -7.5454   16.8218 C   0  0  0  0  0  0  0  0  0  0  0  0
   10.3885   -4.4388   19.2773 C   0  0  0  0  0  0  0  0  0  0  0  0
    4.5160   -9.3822   15.0841 C   0  0  0  0  0  0  0  0  0  0  0  0
  1  3  4  0
  1 24  4  0
  2  6  4  0
  2 15  4  0
  3  5  4  0
  3  6  4  0
  4 21  4  0
  4 29  4  0
  5 15  4  0
  5 28  1  0
  6 16  4  0
  7 18  4  0
  7 26  4  0
  8 18  1  0
  8 19  4  0
  8 22  4  0
  9 12  4  0
  9 19  4  0
 10 12  4  0
 10 22  4  0
 11 20  4  0
 11 21  4  0
 12 23  1  0
 13 20  4  0
 13 29  4  0
 14 17  4  0
 14 28  4  0
 15 25  2  0
 16 27  4  0
 17 18  4  0
 20 27  1  0
 24 27  4  0
 26 28  4  0
M  END
$$$$

 Created by Python create_sdf_string function

 29 33  0  0  0  0  0  0  0  0999 V2000
    8.8270   -7.0288   18.4251 C   0  0  0  0  0  0  0  0  0  0  0  0
    9.1576   -4.6236   15.8860 O   0  0  0  0  0  0  0  0  0  0  0  0
    9.1509   -5.9108   17.7177 C   0  0  0  0  0  0  0  0  0  0  0  0
    3.6373   -9.5349   16.0582 N   0  0  0  0  0  0  0  0  0  0  0  0
    9.9275   -4.8001   18.0438 N   0  0  0  0  0  0  0  0  0  0  0  0
    8.5908   -5.7425   16.4412 C   0  0  0  0  0  0  0  0  0  0  0  0
   10.5993   -4.8981   21.6068 C   0  0  0  0  0  0  0  0  0  0  0  0
   10.4258   -3.0106   23.0998 C   0  0  0  0  0  0  0  0  0  0  0  0
   10.2148   -3.4364   25.4200 C   0  0  0  0  0  0  0  0  0  0  0  0
    9.7853   -1.1840   24.4927 C   0  0  0  0  0  0  0  0  0  0  0  0
    5.0276   -8.5227   17.5352 C   0  0  0  0  0  0  0  0  0  0  0  0
    9.8187   -2.0895   25.5800 C   0  0  0  0  0  0  0  0  0  0  0  0
    5.6473   -8.7216   15.3158 C   0  0  0  0  0  0  0  0  0  0  0  0
   10.7581   -3.1233   19.4720 N   0  0  0  0  0  0  0  0  0  0  0  0
    9.9571   -4.0573   16.8866 C   0  0  0  0  0  0  0  0  0  0  0  0
    7.6213   -6.5618   16.0087 C   0  0  0  0  0  0  0  0  0  0  0  0
   10.8583   -2.6527   20.7222 C   0  0  0  0  0  0  0  0  0  0  0  0
   10.6412   -3.5089   21.7936 C   0  0  0  0  0  0  0  0  0  0  0  0
   10.4972   -3.8968   24.1589 C   0  0  0  0  0  0  0  0  0  0  0  0
    5.9260   -8.2736   16.5517 C   0  0  0  0  0  0  0  0  0  0  0  0
    3.8816   -9.1166   17.2493 C   0  0  0  0  0  0  0  0  0  0  0  0
   10.1297   -1.6575   23.2324 C   0  0  0  0  0  0  0  0  0  0  0  0
    9.4684   -1.6929   26.7263 F   0  0  0  0  0  0  0  0  0  0  0  0
    7.7963   -7.7906   17.9837 C   0  0  0  0  0  0  0  0  0  0  0  0
   10.5884   -3.0725   16.7902 O   0  0  0  0  0  0  0  0  0  0  0  0
   10.4323   -5.3494   20.3516 C   0  0  0  0  0  0  0  0  0  0  0  0
    7.1156   -7.5454   16.8218 C   0  0  0  0  0  0  0  0  0  0  0  0
   10.3885   -4.4388   19.2773 C   0  0  0  0  0  0  0  0  0  0  0  0
    4.5160   -9.3822   15.0841 C   0  0  0  0  0  0  0  0  0  0  0  0
  1  3  4  0
  1 24  4  0
  2  6  4  0
  2 15  4  0
  3  5  4  0
  3  6  4  0
  4 21  4  0
  4 29  4  0
  5 15  4  0
  5 28  1  0
  6 16  4  0
  7 18  4  0
  7 26  4  0
  8 18  1  0
  8 19  4  0
  8 22  4  0
  9 12  4  0
  9 19  4  0
 10 12  4  0
 10 22  4  0
 11 20  4  0
 11 21  4  0
 12 23  1  0
 13 20  4  0
 13 29  4  0
 14 17  4  0
 14 28  4  0
 15 25  2  0
 16 27  4  0
 17 18  4  0
 20 27  1  0
 24 27  4  0
 26 28  4  0
M  END
$$$$

 Created by Python create_sdf_string function

 29 33  0  0  0  0  0  0  0  0999 V2000
    8.8270   -7.0288   18.4251 C   0  0  0  0  0  0  0  0  0  0  0  0
    9.1576   -4.6236   15.8860 O   0  0  0  0  0  0  0  0  0  0  0  0
    9.1509   -5.9108   17.7177 C   0  0  0  0  0  0  0  0  0  0  0  0
    3.6373   -9.5349   16.0582 N   0  0  0  0  0  0  0  0  0  0  0  0
    9.9275   -4.8001   18.0438 N   0  0  0  0  0  0  0  0  0  0  0  0
    8.5908   -5.7425   16.4412 C   0  0  0  0  0  0  0  0  0  0  0  0
   10.5993   -4.8981   21.6068 C   0  0  0  0  0  0  0  0  0  0  0  0
   10.4258   -3.0106   23.0998 C   0  0  0  0  0  0  0  0  0  0  0  0
   10.2148   -3.4364   25.4200 C   0  0  0  0  0  0  0  0  0  0  0  0
    9.7853   -1.1840   24.4927 C   0  0  0  0  0  0  0  0  0  0  0  0
    5.0276   -8.5227   17.5352 C   0  0  0  0  0  0  0  0  0  0  0  0
    9.8187   -2.0895   25.5800 C   0  0  0  0  0  0  0  0  0  0  0  0
    5.6473   -8.7216   15.3158 C   0  0  0  0  0  0  0  0  0  0  0  0
   10.7581   -3.1233   19.4720 N   0  0  0  0  0  0  0  0  0  0  0  0
    9.9571   -4.0573   16.8866 C   0  0  0  0  0  0  0  0  0  0  0  0
    7.6213   -6.5618   16.0087 C   0  0  0  0  0  0  0  0  0  0  0  0
   10.8583   -2.6527   20.7222 C   0  0  0  0  0  0  0  0  0  0  0  0
   10.6412   -3.5089   21.7936 C   0  0  0  0  0  0  0  0  0  0  0  0
   10.4972   -3.8968   24.1589 C   0  0  0  0  0  0  0  0  0  0  0  0
    5.9260   -8.2736   16.5517 C   0  0  0  0  0  0  0  0  0  0  0  0
    3.8816   -9.1166   17.2493 C   0  0  0  0  0  0  0  0  0  0  0  0
   10.1297   -1.6575   23.2324 C   0  0  0  0  0  0  0  0  0  0  0  0
    9.4684   -1.6929   26.7263 F   0  0  0  0  0  0  0  0  0  0  0  0
    7.7963   -7.7906   17.9837 C   0  0  0  0  0  0  0  0  0  0  0  0
   10.5884   -3.0725   16.7902 O   0  0  0  0  0  0  0  0  0  0  0  0
   10.4323   -5.3494   20.3516 C   0  0  0  0  0  0  0  0  0  0  0  0
    7.1156   -7.5454   16.8218 C   0  0  0  0  0  0  0  0  0  0  0  0
   10.3885   -4.4388   19.2773 C   0  0  0  0  0  0  0  0  0  0  0  0
    4.5160   -9.3822   15.0841 C   0  0  0  0  0  0  0  0  0  0  0  0
  1  3  4  0
  1 24  4  0
  2  6  4  0
  2 15  4  0
  3  5  4  0
  3  6  4  0
  4 21  4  0
  4 29  4  0
  5 15  4  0
  5 28  1  0
  6 16  4  0
  7 18  4  0
  7 26  4  0
  8 18  1  0
  8 19  4  0
  8 22  4  0
  9 12  4  0
  9 19  4  0
 10 12  4  0
 10 22  4  0
 11 20  4  0
 11 21  4  0
 12 23  1  0
 13 20  4  0
 13 29  4  0
 14 17  4  0
 14 28  4  0
 15 25  2  0
 16 27  4  0
 17 18  4  0
 20 27  1  0
 24 27  4  0
 26 28  4  0
M  END
$$$$

 Created by Python create_sdf_string function

 29 33  0  0  0  0  0  0  0  0999 V2000
    8.8270   -7.0288   18.4251 C   0  0  0  0  0  0  0  0  0  0  0  0
    9.1576   -4.6236   15.8860 O   0  0  0  0  0  0  0  0  0  0  0  0
    9.1509   -5.9108   17.7177 C   0  0  0  0  0  0  0  0  0  0  0  0
    3.6373   -9.5349   16.0582 N   0  0  0  0  0  0  0  0  0  0  0  0
    9.9275   -4.8001   18.0438 N   0  0  0  0  0  0  0  0  0  0  0  0
    8.5908   -5.7425   16.4412 C   0  0  0  0  0  0  0  0  0  0  0  0
   10.5993   -4.8981   21.6068 C   0  0  0  0  0  0  0  0  0  0  0  0
   10.4258   -3.0106   23.0998 C   0  0  0  0  0  0  0  0  0  0  0  0
   10.2148   -3.4364   25.4200 C   0  0  0  0  0  0  0  0  0  0  0  0
    9.7853   -1.1840   24.4927 C   0  0  0  0  0  0  0  0  0  0  0  0
    5.0276   -8.5227   17.5352 C   0  0  0  0  0  0  0  0  0  0  0  0
    9.8187   -2.0895   25.5800 C   0  0  0  0  0  0  0  0  0  0  0  0
    5.6473   -8.7216   15.3158 C   0  0  0  0  0  0  0  0  0  0  0  0
   10.7581   -3.1233   19.4720 N   0  0  0  0  0  0  0  0  0  0  0  0
    9.9571   -4.0573   16.8866 C   0  0  0  0  0  0  0  0  0  0  0  0
    7.6213   -6.5618   16.0087 C   0  0  0  0  0  0  0  0  0  0  0  0
   10.8583   -2.6527   20.7222 C   0  0  0  0  0  0  0  0  0  0  0  0
   10.6412   -3.5089   21.7936 C   0  0  0  0  0  0  0  0  0  0  0  0
   10.4972   -3.8968   24.1589 C   0  0  0  0  0  0  0  0  0  0  0  0
    5.9260   -8.2736   16.5517 C   0  0  0  0  0  0  0  0  0  0  0  0
    3.8816   -9.1166   17.2493 C   0  0  0  0  0  0  0  0  0  0  0  0
   10.1297   -1.6575   23.2324 C   0  0  0  0  0  0  0  0  0  0  0  0
    9.4684   -1.6929   26.7263 F   0  0  0  0  0  0  0  0  0  0  0  0
    7.7963   -7.7906   17.9837 C   0  0  0  0  0  0  0  0  0  0  0  0
   10.5884   -3.0725   16.7902 O   0  0  0  0  0  0  0  0  0  0  0  0
   10.4323   -5.3494   20.3516 C   0  0  0  0  0  0  0  0  0  0  0  0
    7.1156   -7.5454   16.8218 C   0  0  0  0  0  0  0  0  0  0  0  0
   10.3885   -4.4388   19.2773 C   0  0  0  0  0  0  0  0  0  0  0  0
    4.5160   -9.3822   15.0841 C   0  0  0  0  0  0  0  0  0  0  0  0
  1  3  4  0
  1 24  4  0
  2  6  4  0
  2 15  4  0
  3  5  4  0
  3  6  4  0
  4 21  4  0
  4 29  4  0
  5 15  4  0
  5 28  1  0
  6 16  4  0
  7 18  4  0
  7 26  4  0
  8 18  1  0
  8 19  4  0
  8 22  4  0
  9 12  4  0
  9 19  4  0
 10 12  4  0
 10 22  4  0
 11 20  4  0
 11 21  4  0
 12 23  1  0
 13 20  4  0
 13 29  4  0
 14 17  4  0
 14 28  4  0
 15 25  2  0
 16 27  4  0
 17 18  4  0
 20 27  1  0
 24 27  4  0
 26 28  4  0
M  END
$$$$

 Created by Python create_sdf_string function

 29 33  0  0  0  0  0  0  0  0999 V2000
    8.8270   -7.0288   18.4251 C   0  0  0  0  0  0  0  0  0  0  0  0
    9.1576   -4.6236   15.8860 O   0  0  0  0  0  0  0  0  0  0  0  0
    9.1509   -5.9108   17.7177 C   0  0  0  0  0  0  0  0  0  0  0  0
    3.6373   -9.5349   16.0582 N   0  0  0  0  0  0  0  0  0  0  0  0
    9.9275   -4.8001   18.0438 N   0  0  0  0  0  0  0  0  0  0  0  0
    8.5908   -5.7425   16.4412 C   0  0  0  0  0  0  0  0  0  0  0  0
   10.5993   -4.8981   21.6068 C   0  0  0  0  0  0  0  0  0  0  0  0
   10.4258   -3.0106   23.0998 C   0  0  0  0  0  0  0  0  0  0  0  0
   10.2148   -3.4364   25.4200 C   0  0  0  0  0  0  0  0  0  0  0  0
    9.7853   -1.1840   24.4927 C   0  0  0  0  0  0  0  0  0  0  0  0
    5.0276   -8.5227   17.5352 C   0  0  0  0  0  0  0  0  0  0  0  0
    9.8187   -2.0895   25.5800 C   0  0  0  0  0  0  0  0  0  0  0  0
    5.6473   -8.7216   15.3158 C   0  0  0  0  0  0  0  0  0  0  0  0
   10.7581   -3.1233   19.4720 N   0  0  0  0  0  0  0  0  0  0  0  0
    9.9571   -4.0573   16.8866 C   0  0  0  0  0  0  0  0  0  0  0  0
    7.6213   -6.5618   16.0087 C   0  0  0  0  0  0  0  0  0  0  0  0
   10.8583   -2.6527   20.7222 C   0  0  0  0  0  0  0  0  0  0  0  0
   10.6412   -3.5089   21.7936 C   0  0  0  0  0  0  0  0  0  0  0  0
   10.4972   -3.8968   24.1589 C   0  0  0  0  0  0  0  0  0  0  0  0
    5.9260   -8.2736   16.5517 C   0  0  0  0  0  0  0  0  0  0  0  0
    3.8816   -9.1166   17.2493 C   0  0  0  0  0  0  0  0  0  0  0  0
   10.1297   -1.6575   23.2324 C   0  0  0  0  0  0  0  0  0  0  0  0
    9.4684   -1.6929   26.7263 F   0  0  0  0  0  0  0  0  0  0  0  0
    7.7963   -7.7906   17.9837 C   0  0  0  0  0  0  0  0  0  0  0  0
   10.5884   -3.0725   16.7902 O   0  0  0  0  0  0  0  0  0  0  0  0
   10.4323   -5.3494   20.3516 C   0  0  0  0  0  0  0  0  0  0  0  0
    7.1156   -7.5454   16.8218 C   0  0  0  0  0  0  0  0  0  0  0  0
   10.3885   -4.4388   19.2773 C   0  0  0  0  0  0  0  0  0  0  0  0
    4.5160   -9.3822   15.0841 C   0  0  0  0  0  0  0  0  0  0  0  0
  1  3  4  0
  1 24  4  0
  2  6  4  0
  2 15  4  0
  3  5  4  0
  3  6  4  0
  4 21  4  0
  4 29  4  0
  5 15  4  0
  5 28  1  0
  6 16  4  0
  7 18  4  0
  7 26  4  0
  8 18  1  0
  8 19  4  0
  8 22  4  0
  9 12  4  0
  9 19  4  0
 10 12  4  0
 10 22  4  0
 11 20  4  0
 11 21  4  0
 12 23  1  0
 13 20  4  0
 13 29  4  0
 14 17  4  0
 14 28  4  0
 15 25  2  0
 16 27  4  0
 17 18  4  0
 20 27  1  0
 24 27  4  0
 26 28  4  0
M  END
$$$$

 Created by Python create_sdf_string function

 29 33  0  0  0  0  0  0  0  0999 V2000
    8.8270   -7.0288   18.4251 C   0  0  0  0  0  0  0  0  0  0  0  0
    9.1576   -4.6236   15.8860 O   0  0  0  0  0  0  0  0  0  0  0  0
    9.1509   -5.9108   17.7177 C   0  0  0  0  0  0  0  0  0  0  0  0
    3.6373   -9.5349   16.0582 N   0  0  0  0  0  0  0  0  0  0  0  0
    9.9275   -4.8001   18.0438 N   0  0  0  0  0  0  0  0  0  0  0  0
    8.5908   -5.7425   16.4412 C   0  0  0  0  0  0  0  0  0  0  0  0
   10.5993   -4.8981   21.6068 C   0  0  0  0  0  0  0  0  0  0  0  0
   10.4258   -3.0106   23.0998 C   0  0  0  0  0  0  0  0  0  0  0  0
   10.2148   -3.4364   25.4200 C   0  0  0  0  0  0  0  0  0  0  0  0
    9.7853   -1.1840   24.4927 C   0  0  0  0  0  0  0  0  0  0  0  0
    5.0276   -8.5227   17.5352 C   0  0  0  0  0  0  0  0  0  0  0  0
    9.8187   -2.0895   25.5800 C   0  0  0  0  0  0  0  0  0  0  0  0
    5.6473   -8.7216   15.3158 C   0  0  0  0  0  0  0  0  0  0  0  0
   10.7581   -3.1233   19.4720 N   0  0  0  0  0  0  0  0  0  0  0  0
    9.9571   -4.0573   16.8866 C   0  0  0  0  0  0  0  0  0  0  0  0
    7.6213   -6.5618   16.0087 C   0  0  0  0  0  0  0  0  0  0  0  0
   10.8583   -2.6527   20.7222 C   0  0  0  0  0  0  0  0  0  0  0  0
   10.6412   -3.5089   21.7936 C   0  0  0  0  0  0  0  0  0  0  0  0
   10.4972   -3.8968   24.1589 C   0  0  0  0  0  0  0  0  0  0  0  0
    5.9260   -8.2736   16.5517 C   0  0  0  0  0  0  0  0  0  0  0  0
    3.8816   -9.1166   17.2493 C   0  0  0  0  0  0  0  0  0  0  0  0
   10.1297   -1.6575   23.2324 C   0  0  0  0  0  0  0  0  0  0  0  0
    9.4684   -1.6929   26.7263 F   0  0  0  0  0  0  0  0  0  0  0  0
    7.7963   -7.7906   17.9837 C   0  0  0  0  0  0  0  0  0  0  0  0
   10.5884   -3.0725   16.7902 O   0  0  0  0  0  0  0  0  0  0  0  0
   10.4323   -5.3494   20.3516 C   0  0  0  0  0  0  0  0  0  0  0  0
    7.1156   -7.5454   16.8218 C   0  0  0  0  0  0  0  0  0  0  0  0
   10.3885   -4.4388   19.2773 C   0  0  0  0  0  0  0  0  0  0  0  0
    4.5160   -9.3822   15.0841 C   0  0  0  0  0  0  0  0  0  0  0  0
  1  3  4  0
  1 24  4  0
  2  6  4  0
  2 15  4  0
  3  5  4  0
  3  6  4  0
  4 21  4  0
  4 29  4  0
  5 15  4  0
  5 28  1  0
  6 16  4  0
  7 18  4  0
  7 26  4  0
  8 18  1  0
  8 19  4  0
  8 22  4  0
  9 12  4  0
  9 19  4  0
 10 12  4  0
 10 22  4  0
 11 20  4  0
 11 21  4  0
 12 23  1  0
 13 20  4  0
 13 29  4  0
 14 17  4  0
 14 28  4  0
 15 25  2  0
 16 27  4  0
 17 18  4  0
 20 27  1  0
 24 27  4  0
 26 28  4  0
M  END
$$$$

 Created by Python create_sdf_string function

 29 33  0  0  0  0  0  0  0  0999 V2000
    8.8270   -7.0288   18.4251 C   0  0  0  0  0  0  0  0  0  0  0  0
    9.1576   -4.6236   15.8860 O   0  0  0  0  0  0  0  0  0  0  0  0
    9.1509   -5.9108   17.7177 C   0  0  0  0  0  0  0  0  0  0  0  0
    3.6373   -9.5349   16.0582 N   0  0  0  0  0  0  0  0  0  0  0  0
    9.9275   -4.8001   18.0438 N   0  0  0  0  0  0  0  0  0  0  0  0
    8.5908   -5.7425   16.4412 C   0  0  0  0  0  0  0  0  0  0  0  0
   10.5993   -4.8981   21.6068 C   0  0  0  0  0  0  0  0  0  0  0  0
   10.4258   -3.0106   23.0998 C   0  0  0  0  0  0  0  0  0  0  0  0
   10.2148   -3.4364   25.4200 C   0  0  0  0  0  0  0  0  0  0  0  0
    9.7853   -1.1840   24.4927 C   0  0  0  0  0  0  0  0  0  0  0  0
    5.0276   -8.5227   17.5352 C   0  0  0  0  0  0  0  0  0  0  0  0
    9.8187   -2.0895   25.5800 C   0  0  0  0  0  0  0  0  0  0  0  0
    5.6473   -8.7216   15.3158 C   0  0  0  0  0  0  0  0  0  0  0  0
   10.7581   -3.1233   19.4720 N   0  0  0  0  0  0  0  0  0  0  0  0
    9.9571   -4.0573   16.8866 C   0  0  0  0  0  0  0  0  0  0  0  0
    7.6213   -6.5618   16.0087 C   0  0  0  0  0  0  0  0  0  0  0  0
   10.8583   -2.6527   20.7222 C   0  0  0  0  0  0  0  0  0  0  0  0
   10.6412   -3.5089   21.7936 C   0  0  0  0  0  0  0  0  0  0  0  0
   10.4972   -3.8968   24.1589 C   0  0  0  0  0  0  0  0  0  0  0  0
    5.9260   -8.2736   16.5517 C   0  0  0  0  0  0  0  0  0  0  0  0
    3.8816   -9.1166   17.2493 C   0  0  0  0  0  0  0  0  0  0  0  0
   10.1297   -1.6575   23.2324 C   0  0  0  0  0  0  0  0  0  0  0  0
    9.4684   -1.6929   26.7263 F   0  0  0  0  0  0  0  0  0  0  0  0
    7.7963   -7.7906   17.9837 C   0  0  0  0  0  0  0  0  0  0  0  0
   10.5884   -3.0725   16.7902 O   0  0  0  0  0  0  0  0  0  0  0  0
   10.4323   -5.3494   20.3516 C   0  0  0  0  0  0  0  0  0  0  0  0
    7.1156   -7.5454   16.8218 C   0  0  0  0  0  0  0  0  0  0  0  0
   10.3885   -4.4388   19.2773 C   0  0  0  0  0  0  0  0  0  0  0  0
    4.5160   -9.3822   15.0841 C   0  0  0  0  0  0  0  0  0  0  0  0
  1  3  4  0
  1 24  4  0
  2  6  4  0
  2 15  4  0
  3  5  4  0
  3  6  4  0
  4 21  4  0
  4 29  4  0
  5 15  4  0
  5 28  1  0
  6 16  4  0
  7 18  4  0
  7 26  4  0
  8 18  1  0
  8 19  4  0
  8 22  4  0
  9 12  4  0
  9 19  4  0
 10 12  4  0
 10 22  4  0
 11 20  4  0
 11 21  4  0
 12 23  1  0
 13 20  4  0
 13 29  4  0
 14 17  4  0
 14 28  4  0
 15 25  2  0
 16 27  4  0
 17 18  4  0
 20 27  1  0
 24 27  4  0
 26 28  4  0
M  END
$$$$

 Created by Python create_sdf_string function

 29 33  0  0  0  0  0  0  0  0999 V2000
    8.8270   -7.0288   18.4251 C   0  0  0  0  0  0  0  0  0  0  0  0
    9.1576   -4.6236   15.8860 O   0  0  0  0  0  0  0  0  0  0  0  0
    9.1509   -5.9108   17.7177 C   0  0  0  0  0  0  0  0  0  0  0  0
    3.6373   -9.5349   16.0582 N   0  0  0  0  0  0  0  0  0  0  0  0
    9.9275   -4.8001   18.0438 N   0  0  0  0  0  0  0  0  0  0  0  0
    8.5908   -5.7425   16.4412 C   0  0  0  0  0  0  0  0  0  0  0  0
   10.5993   -4.8981   21.6068 C   0  0  0  0  0  0  0  0  0  0  0  0
   10.4258   -3.0106   23.0998 C   0  0  0  0  0  0  0  0  0  0  0  0
   10.2148   -3.4364   25.4200 C   0  0  0  0  0  0  0  0  0  0  0  0
    9.7853   -1.1840   24.4927 C   0  0  0  0  0  0  0  0  0  0  0  0
    5.0276   -8.5227   17.5352 C   0  0  0  0  0  0  0  0  0  0  0  0
    9.8187   -2.0895   25.5800 C   0  0  0  0  0  0  0  0  0  0  0  0
    5.6473   -8.7216   15.3158 C   0  0  0  0  0  0  0  0  0  0  0  0
   10.7581   -3.1233   19.4720 N   0  0  0  0  0  0  0  0  0  0  0  0
    9.9571   -4.0573   16.8866 C   0  0  0  0  0  0  0  0  0  0  0  0
    7.6213   -6.5618   16.0087 C   0  0  0  0  0  0  0  0  0  0  0  0
   10.8583   -2.6527   20.7222 C   0  0  0  0  0  0  0  0  0  0  0  0
   10.6412   -3.5089   21.7936 C   0  0  0  0  0  0  0  0  0  0  0  0
   10.4972   -3.8968   24.1589 C   0  0  0  0  0  0  0  0  0  0  0  0
    5.9260   -8.2736   16.5517 C   0  0  0  0  0  0  0  0  0  0  0  0
    3.8816   -9.1166   17.2493 C   0  0  0  0  0  0  0  0  0  0  0  0
   10.1297   -1.6575   23.2324 C   0  0  0  0  0  0  0  0  0  0  0  0
    9.4684   -1.6929   26.7263 F   0  0  0  0  0  0  0  0  0  0  0  0
    7.7963   -7.7906   17.9837 C   0  0  0  0  0  0  0  0  0  0  0  0
   10.5884   -3.0725   16.7902 O   0  0  0  0  0  0  0  0  0  0  0  0
   10.4323   -5.3494   20.3516 C   0  0  0  0  0  0  0  0  0  0  0  0
    7.1156   -7.5454   16.8218 C   0  0  0  0  0  0  0  0  0  0  0  0
   10.3885   -4.4388   19.2773 C   0  0  0  0  0  0  0  0  0  0  0  0
    4.5160   -9.3822   15.0841 C   0  0  0  0  0  0  0  0  0  0  0  0
  1  3  4  0
  1 24  4  0
  2  6  4  0
  2 15  4  0
  3  5  4  0
  3  6  4  0
  4 21  4  0
  4 29  4  0
  5 15  4  0
  5 28  1  0
  6 16  4  0
  7 18  4  0
  7 26  4  0
  8 18  1  0
  8 19  4  0
  8 22  4  0
  9 12  4  0
  9 19  4  0
 10 12  4  0
 10 22  4  0
 11 20  4  0
 11 21  4  0
 12 23  1  0
 13 20  4  0
 13 29  4  0
 14 17  4  0
 14 28  4  0
 15 25  2  0
 16 27  4  0
 17 18  4  0
 20 27  1  0
 24 27  4  0
 26 28  4  0
M  END
$$$$

 Created by Python create_sdf_string function

 29 33  0  0  0  0  0  0  0  0999 V2000
    8.8270   -7.0288   18.4251 C   0  0  0  0  0  0  0  0  0  0  0  0
    9.1576   -4.6236   15.8860 O   0  0  0  0  0  0  0  0  0  0  0  0
    9.1509   -5.9108   17.7177 C   0  0  0  0  0  0  0  0  0  0  0  0
    3.6373   -9.5349   16.0582 N   0  0  0  0  0  0  0  0  0  0  0  0
    9.9275   -4.8001   18.0438 N   0  0  0  0  0  0  0  0  0  0  0  0
    8.5908   -5.7425   16.4412 C   0  0  0  0  0  0  0  0  0  0  0  0
   10.5993   -4.8981   21.6068 C   0  0  0  0  0  0  0  0  0  0  0  0
   10.4258   -3.0106   23.0998 C   0  0  0  0  0  0  0  0  0  0  0  0
   10.2148   -3.4364   25.4200 C   0  0  0  0  0  0  0  0  0  0  0  0
    9.7853   -1.1840   24.4927 C   0  0  0  0  0  0  0  0  0  0  0  0
    5.0276   -8.5227   17.5352 C   0  0  0  0  0  0  0  0  0  0  0  0
    9.8187   -2.0895   25.5800 C   0  0  0  0  0  0  0  0  0  0  0  0
    5.6473   -8.7216   15.3158 C   0  0  0  0  0  0  0  0  0  0  0  0
   10.7581   -3.1233   19.4720 N   0  0  0  0  0  0  0  0  0  0  0  0
    9.9571   -4.0573   16.8866 C   0  0  0  0  0  0  0  0  0  0  0  0
    7.6213   -6.5618   16.0087 C   0  0  0  0  0  0  0  0  0  0  0  0
   10.8583   -2.6527   20.7222 C   0  0  0  0  0  0  0  0  0  0  0  0
   10.6412   -3.5089   21.7936 C   0  0  0  0  0  0  0  0  0  0  0  0
   10.4972   -3.8968   24.1589 C   0  0  0  0  0  0  0  0  0  0  0  0
    5.9260   -8.2736   16.5517 C   0  0  0  0  0  0  0  0  0  0  0  0
    3.8816   -9.1166   17.2493 C   0  0  0  0  0  0  0  0  0  0  0  0
   10.1297   -1.6575   23.2324 C   0  0  0  0  0  0  0  0  0  0  0  0
    9.4684   -1.6929   26.7263 F   0  0  0  0  0  0  0  0  0  0  0  0
    7.7963   -7.7906   17.9837 C   0  0  0  0  0  0  0  0  0  0  0  0
   10.5884   -3.0725   16.7902 O   0  0  0  0  0  0  0  0  0  0  0  0
   10.4323   -5.3494   20.3516 C   0  0  0  0  0  0  0  0  0  0  0  0
    7.1156   -7.5454   16.8218 C   0  0  0  0  0  0  0  0  0  0  0  0
   10.3885   -4.4388   19.2773 C   0  0  0  0  0  0  0  0  0  0  0  0
    4.5160   -9.3822   15.0841 C   0  0  0  0  0  0  0  0  0  0  0  0
  1  3  4  0
  1 24  4  0
  2  6  4  0
  2 15  4  0
  3  5  4  0
  3  6  4  0
  4 21  4  0
  4 29  4  0
  5 15  4  0
  5 28  1  0
  6 16  4  0
  7 18  4  0
  7 26  4  0
  8 18  1  0
  8 19  4  0
  8 22  4  0
  9 12  4  0
  9 19  4  0
 10 12  4  0
 10 22  4  0
 11 20  4  0
 11 21  4  0
 12 23  1  0
 13 20  4  0
 13 29  4  0
 14 17  4  0
 14 28  4  0
 15 25  2  0
 16 27  4  0
 17 18  4  0
 20 27  1  0
 24 27  4  0
 26 28  4  0
M  END
$$$$

 Created by Python create_sdf_string function

 29 33  0  0  0  0  0  0  0  0999 V2000
    8.8270   -7.0288   18.4251 C   0  0  0  0  0  0  0  0  0  0  0  0
    9.1576   -4.6236   15.8860 O   0  0  0  0  0  0  0  0  0  0  0  0
    9.1509   -5.9108   17.7177 C   0  0  0  0  0  0  0  0  0  0  0  0
    3.6373   -9.5349   16.0582 N   0  0  0  0  0  0  0  0  0  0  0  0
    9.9275   -4.8001   18.0438 N   0  0  0  0  0  0  0  0  0  0  0  0
    8.5908   -5.7425   16.4412 C   0  0  0  0  0  0  0  0  0  0  0  0
   10.5993   -4.8981   21.6068 C   0  0  0  0  0  0  0  0  0  0  0  0
   10.4258   -3.0106   23.0998 C   0  0  0  0  0  0  0  0  0  0  0  0
   10.2148   -3.4364   25.4200 C   0  0  0  0  0  0  0  0  0  0  0  0
    9.7853   -1.1840   24.4927 C   0  0  0  0  0  0  0  0  0  0  0  0
    5.0276   -8.5227   17.5352 C   0  0  0  0  0  0  0  0  0  0  0  0
    9.8187   -2.0895   25.5800 C   0  0  0  0  0  0  0  0  0  0  0  0
    5.6473   -8.7216   15.3158 C   0  0  0  0  0  0  0  0  0  0  0  0
   10.7581   -3.1233   19.4720 N   0  0  0  0  0  0  0  0  0  0  0  0
    9.9571   -4.0573   16.8866 C   0  0  0  0  0  0  0  0  0  0  0  0
    7.6213   -6.5618   16.0087 C   0  0  0  0  0  0  0  0  0  0  0  0
   10.8583   -2.6527   20.7222 C   0  0  0  0  0  0  0  0  0  0  0  0
   10.6412   -3.5089   21.7936 C   0  0  0  0  0  0  0  0  0  0  0  0
   10.4972   -3.8968   24.1589 C   0  0  0  0  0  0  0  0  0  0  0  0
    5.9260   -8.2736   16.5517 C   0  0  0  0  0  0  0  0  0  0  0  0
    3.8816   -9.1166   17.2493 C   0  0  0  0  0  0  0  0  0  0  0  0
   10.1297   -1.6575   23.2324 C   0  0  0  0  0  0  0  0  0  0  0  0
    9.4684   -1.6929   26.7263 F   0  0  0  0  0  0  0  0  0  0  0  0
    7.7963   -7.7906   17.9837 C   0  0  0  0  0  0  0  0  0  0  0  0
   10.5884   -3.0725   16.7902 O   0  0  0  0  0  0  0  0  0  0  0  0
   10.4323   -5.3494   20.3516 C   0  0  0  0  0  0  0  0  0  0  0  0
    7.1156   -7.5454   16.8218 C   0  0  0  0  0  0  0  0  0  0  0  0
   10.3885   -4.4388   19.2773 C   0  0  0  0  0  0  0  0  0  0  0  0
    4.5160   -9.3822   15.0841 C   0  0  0  0  0  0  0  0  0  0  0  0
  1  3  4  0
  1 24  4  0
  2  6  4  0
  2 15  4  0
  3  5  4  0
  3  6  4  0
  4 21  4  0
  4 29  4  0
  5 15  4  0
  5 28  1  0
  6 16  4  0
  7 18  4  0
  7 26  4  0
  8 18  1  0
  8 19  4  0
  8 22  4  0
  9 12  4  0
  9 19  4  0
 10 12  4  0
 10 22  4  0
 11 20  4  0
 11 21  4  0
 12 23  1  0
 13 20  4  0
 13 29  4  0
 14 17  4  0
 14 28  4  0
 15 25  2  0
 16 27  4  0
 17 18  4  0
 20 27  1  0
 24 27  4  0
 26 28  4  0
M  END
$$$$

 Created by Python create_sdf_string function

 29 33  0  0  0  0  0  0  0  0999 V2000
    8.8270   -7.0288   18.4251 C   0  0  0  0  0  0  0  0  0  0  0  0
    9.1576   -4.6236   15.8860 O   0  0  0  0  0  0  0  0  0  0  0  0
    9.1509   -5.9108   17.7177 C   0  0  0  0  0  0  0  0  0  0  0  0
    3.6373   -9.5349   16.0582 N   0  0  0  0  0  0  0  0  0  0  0  0
    9.9275   -4.8001   18.0438 N   0  0  0  0  0  0  0  0  0  0  0  0
    8.5908   -5.7425   16.4412 C   0  0  0  0  0  0  0  0  0  0  0  0
   10.5993   -4.8981   21.6068 C   0  0  0  0  0  0  0  0  0  0  0  0
   10.4258   -3.0106   23.0998 C   0  0  0  0  0  0  0  0  0  0  0  0
   10.2148   -3.4364   25.4200 C   0  0  0  0  0  0  0  0  0  0  0  0
    9.7853   -1.1840   24.4927 C   0  0  0  0  0  0  0  0  0  0  0  0
    5.0276   -8.5227   17.5352 C   0  0  0  0  0  0  0  0  0  0  0  0
    9.8187   -2.0895   25.5800 C   0  0  0  0  0  0  0  0  0  0  0  0
    5.6473   -8.7216   15.3158 C   0  0  0  0  0  0  0  0  0  0  0  0
   10.7581   -3.1233   19.4720 N   0  0  0  0  0  0  0  0  0  0  0  0
    9.9571   -4.0573   16.8866 C   0  0  0  0  0  0  0  0  0  0  0  0
    7.6213   -6.5618   16.0087 C   0  0  0  0  0  0  0  0  0  0  0  0
   10.8583   -2.6527   20.7222 C   0  0  0  0  0  0  0  0  0  0  0  0
   10.6412   -3.5089   21.7936 C   0  0  0  0  0  0  0  0  0  0  0  0
   10.4972   -3.8968   24.1589 C   0  0  0  0  0  0  0  0  0  0  0  0
    5.9260   -8.2736   16.5517 C   0  0  0  0  0  0  0  0  0  0  0  0
    3.8816   -9.1166   17.2493 C   0  0  0  0  0  0  0  0  0  0  0  0
   10.1297   -1.6575   23.2324 C   0  0  0  0  0  0  0  0  0  0  0  0
    9.4684   -1.6929   26.7263 F   0  0  0  0  0  0  0  0  0  0  0  0
    7.7963   -7.7906   17.9837 C   0  0  0  0  0  0  0  0  0  0  0  0
   10.5884   -3.0725   16.7902 O   0  0  0  0  0  0  0  0  0  0  0  0
   10.4323   -5.3494   20.3516 C   0  0  0  0  0  0  0  0  0  0  0  0
    7.1156   -7.5454   16.8218 C   0  0  0  0  0  0  0  0  0  0  0  0
   10.3885   -4.4388   19.2773 C   0  0  0  0  0  0  0  0  0  0  0  0
    4.5160   -9.3822   15.0841 C   0  0  0  0  0  0  0  0  0  0  0  0
  1  3  4  0
  1 24  4  0
  2  6  4  0
  2 15  4  0
  3  5  4  0
  3  6  4  0
  4 21  4  0
  4 29  4  0
  5 15  4  0
  5 28  1  0
  6 16  4  0
  7 18  4  0
  7 26  4  0
  8 18  1  0
  8 19  4  0
  8 22  4  0
  9 12  4  0
  9 19  4  0
 10 12  4  0
 10 22  4  0
 11 20  4  0
 11 21  4  0
 12 23  1  0
 13 20  4  0
 13 29  4  0
 14 17  4  0
 14 28  4  0
 15 25  2  0
 16 27  4  0
 17 18  4  0
 20 27  1  0
 24 27  4  0
 26 28  4  0
M  END
$$$$

 Created by Python create_sdf_string function

 29 33  0  0  0  0  0  0  0  0999 V2000
    8.8270   -7.0288   18.4251 C   0  0  0  0  0  0  0  0  0  0  0  0
    9.1576   -4.6236   15.8860 O   0  0  0  0  0  0  0  0  0  0  0  0
    9.1509   -5.9108   17.7177 C   0  0  0  0  0  0  0  0  0  0  0  0
    3.6373   -9.5349   16.0582 N   0  0  0  0  0  0  0  0  0  0  0  0
    9.9275   -4.8001   18.0438 N   0  0  0  0  0  0  0  0  0  0  0  0
    8.5908   -5.7425   16.4412 C   0  0  0  0  0  0  0  0  0  0  0  0
   10.5993   -4.8981   21.6068 C   0  0  0  0  0  0  0  0  0  0  0  0
   10.4258   -3.0106   23.0998 C   0  0  0  0  0  0  0  0  0  0  0  0
   10.2148   -3.4364   25.4200 C   0  0  0  0  0  0  0  0  0  0  0  0
    9.7853   -1.1840   24.4927 C   0  0  0  0  0  0  0  0  0  0  0  0
    5.0276   -8.5227   17.5352 C   0  0  0  0  0  0  0  0  0  0  0  0
    9.8187   -2.0895   25.5800 C   0  0  0  0  0  0  0  0  0  0  0  0
    5.6473   -8.7216   15.3158 C   0  0  0  0  0  0  0  0  0  0  0  0
   10.7581   -3.1233   19.4720 N   0  0  0  0  0  0  0  0  0  0  0  0
    9.9571   -4.0573   16.8866 C   0  0  0  0  0  0  0  0  0  0  0  0
    7.6213   -6.5618   16.0087 C   0  0  0  0  0  0  0  0  0  0  0  0
   10.8583   -2.6527   20.7222 C   0  0  0  0  0  0  0  0  0  0  0  0
   10.6412   -3.5089   21.7936 C   0  0  0  0  0  0  0  0  0  0  0  0
   10.4972   -3.8968   24.1589 C   0  0  0  0  0  0  0  0  0  0  0  0
    5.9260   -8.2736   16.5517 C   0  0  0  0  0  0  0  0  0  0  0  0
    3.8816   -9.1166   17.2493 C   0  0  0  0  0  0  0  0  0  0  0  0
   10.1297   -1.6575   23.2324 C   0  0  0  0  0  0  0  0  0  0  0  0
    9.4684   -1.6929   26.7263 F   0  0  0  0  0  0  0  0  0  0  0  0
    7.7963   -7.7906   17.9837 C   0  0  0  0  0  0  0  0  0  0  0  0
   10.5884   -3.0725   16.7902 O   0  0  0  0  0  0  0  0  0  0  0  0
   10.4323   -5.3494   20.3516 C   0  0  0  0  0  0  0  0  0  0  0  0
    7.1156   -7.5454   16.8218 C   0  0  0  0  0  0  0  0  0  0  0  0
   10.3885   -4.4388   19.2773 C   0  0  0  0  0  0  0  0  0  0  0  0
    4.5160   -9.3822   15.0841 C   0  0  0  0  0  0  0  0  0  0  0  0
  1  3  4  0
  1 24  4  0
  2  6  4  0
  2 15  4  0
  3  5  4  0
  3  6  4  0
  4 21  4  0
  4 29  4  0
  5 15  4  0
  5 28  1  0
  6 16  4  0
  7 18  4  0
  7 26  4  0
  8 18  1  0
  8 19  4  0
  8 22  4  0
  9 12  4  0
  9 19  4  0
 10 12  4  0
 10 22  4  0
 11 20  4  0
 11 21  4  0
 12 23  1  0
 13 20  4  0
 13 29  4  0
 14 17  4  0
 14 28  4  0
 15 25  2  0
 16 27  4  0
 17 18  4  0
 20 27  1  0
 24 27  4  0
 26 28  4  0
M  END
$$$$

 Created by Python create_sdf_string function

 29 33  0  0  0  0  0  0  0  0999 V2000
    8.8270   -7.0288   18.4251 C   0  0  0  0  0  0  0  0  0  0  0  0
    9.1576   -4.6236   15.8860 O   0  0  0  0  0  0  0  0  0  0  0  0
    9.1509   -5.9108   17.7177 C   0  0  0  0  0  0  0  0  0  0  0  0
    3.6373   -9.5349   16.0582 N   0  0  0  0  0  0  0  0  0  0  0  0
    9.9275   -4.8001   18.0438 N   0  0  0  0  0  0  0  0  0  0  0  0
    8.5908   -5.7425   16.4412 C   0  0  0  0  0  0  0  0  0  0  0  0
   10.5993   -4.8981   21.6068 C   0  0  0  0  0  0  0  0  0  0  0  0
   10.4258   -3.0106   23.0998 C   0  0  0  0  0  0  0  0  0  0  0  0
   10.2148   -3.4364   25.4200 C   0  0  0  0  0  0  0  0  0  0  0  0
    9.7853   -1.1840   24.4927 C   0  0  0  0  0  0  0  0  0  0  0  0
    5.0276   -8.5227   17.5352 C   0  0  0  0  0  0  0  0  0  0  0  0
    9.8187   -2.0895   25.5800 C   0  0  0  0  0  0  0  0  0  0  0  0
    5.6473   -8.7216   15.3158 C   0  0  0  0  0  0  0  0  0  0  0  0
   10.7581   -3.1233   19.4720 N   0  0  0  0  0  0  0  0  0  0  0  0
    9.9571   -4.0573   16.8866 C   0  0  0  0  0  0  0  0  0  0  0  0
    7.6213   -6.5618   16.0087 C   0  0  0  0  0  0  0  0  0  0  0  0
   10.8583   -2.6527   20.7222 C   0  0  0  0  0  0  0  0  0  0  0  0
   10.6412   -3.5089   21.7936 C   0  0  0  0  0  0  0  0  0  0  0  0
   10.4972   -3.8968   24.1589 C   0  0  0  0  0  0  0  0  0  0  0  0
    5.9260   -8.2736   16.5517 C   0  0  0  0  0  0  0  0  0  0  0  0
    3.8816   -9.1166   17.2493 C   0  0  0  0  0  0  0  0  0  0  0  0
   10.1297   -1.6575   23.2324 C   0  0  0  0  0  0  0  0  0  0  0  0
    9.4684   -1.6929   26.7263 F   0  0  0  0  0  0  0  0  0  0  0  0
    7.7963   -7.7906   17.9837 C   0  0  0  0  0  0  0  0  0  0  0  0
   10.5884   -3.0725   16.7902 O   0  0  0  0  0  0  0  0  0  0  0  0
   10.4323   -5.3494   20.3516 C   0  0  0  0  0  0  0  0  0  0  0  0
    7.1156   -7.5454   16.8218 C   0  0  0  0  0  0  0  0  0  0  0  0
   10.3885   -4.4388   19.2773 C   0  0  0  0  0  0  0  0  0  0  0  0
    4.5160   -9.3822   15.0841 C   0  0  0  0  0  0  0  0  0  0  0  0
  1  3  4  0
  1 24  4  0
  2  6  4  0
  2 15  4  0
  3  5  4  0
  3  6  4  0
  4 21  4  0
  4 29  4  0
  5 15  4  0
  5 28  1  0
  6 16  4  0
  7 18  4  0
  7 26  4  0
  8 18  1  0
  8 19  4  0
  8 22  4  0
  9 12  4  0
  9 19  4  0
 10 12  4  0
 10 22  4  0
 11 20  4  0
 11 21  4  0
 12 23  1  0
 13 20  4  0
 13 29  4  0
 14 17  4  0
 14 28  4  0
 15 25  2  0
 16 27  4  0
 17 18  4  0
 20 27  1  0
 24 27  4  0
 26 28  4  0
M  END
$$$$

 Created by Python create_sdf_string function

 29 33  0  0  0  0  0  0  0  0999 V2000
    8.8270   -7.0288   18.4251 C   0  0  0  0  0  0  0  0  0  0  0  0
    9.1576   -4.6236   15.8860 O   0  0  0  0  0  0  0  0  0  0  0  0
    9.1509   -5.9108   17.7177 C   0  0  0  0  0  0  0  0  0  0  0  0
    3.6373   -9.5349   16.0582 N   0  0  0  0  0  0  0  0  0  0  0  0
    9.9275   -4.8001   18.0438 N   0  0  0  0  0  0  0  0  0  0  0  0
    8.5908   -5.7425   16.4412 C   0  0  0  0  0  0  0  0  0  0  0  0
   10.5993   -4.8981   21.6068 C   0  0  0  0  0  0  0  0  0  0  0  0
   10.4258   -3.0106   23.0998 C   0  0  0  0  0  0  0  0  0  0  0  0
   10.2148   -3.4364   25.4200 C   0  0  0  0  0  0  0  0  0  0  0  0
    9.7853   -1.1840   24.4927 C   0  0  0  0  0  0  0  0  0  0  0  0
    5.0276   -8.5227   17.5352 C   0  0  0  0  0  0  0  0  0  0  0  0
    9.8187   -2.0895   25.5800 C   0  0  0  0  0  0  0  0  0  0  0  0
    5.6473   -8.7216   15.3158 C   0  0  0  0  0  0  0  0  0  0  0  0
   10.7581   -3.1233   19.4720 N   0  0  0  0  0  0  0  0  0  0  0  0
    9.9571   -4.0573   16.8866 C   0  0  0  0  0  0  0  0  0  0  0  0
    7.6213   -6.5618   16.0087 C   0  0  0  0  0  0  0  0  0  0  0  0
   10.8583   -2.6527   20.7222 C   0  0  0  0  0  0  0  0  0  0  0  0
   10.6412   -3.5089   21.7936 C   0  0  0  0  0  0  0  0  0  0  0  0
   10.4972   -3.8968   24.1589 C   0  0  0  0  0  0  0  0  0  0  0  0
    5.9260   -8.2736   16.5517 C   0  0  0  0  0  0  0  0  0  0  0  0
    3.8816   -9.1166   17.2493 C   0  0  0  0  0  0  0  0  0  0  0  0
   10.1297   -1.6575   23.2324 C   0  0  0  0  0  0  0  0  0  0  0  0
    9.4684   -1.6929   26.7263 F   0  0  0  0  0  0  0  0  0  0  0  0
    7.7963   -7.7906   17.9837 C   0  0  0  0  0  0  0  0  0  0  0  0
   10.5884   -3.0725   16.7902 O   0  0  0  0  0  0  0  0  0  0  0  0
   10.4323   -5.3494   20.3516 C   0  0  0  0  0  0  0  0  0  0  0  0
    7.1156   -7.5454   16.8218 C   0  0  0  0  0  0  0  0  0  0  0  0
   10.3885   -4.4388   19.2773 C   0  0  0  0  0  0  0  0  0  0  0  0
    4.5160   -9.3822   15.0841 C   0  0  0  0  0  0  0  0  0  0  0  0
  1  3  4  0
  1 24  4  0
  2  6  4  0
  2 15  4  0
  3  5  4  0
  3  6  4  0
  4 21  4  0
  4 29  4  0
  5 15  4  0
  5 28  1  0
  6 16  4  0
  7 18  4  0
  7 26  4  0
  8 18  1  0
  8 19  4  0
  8 22  4  0
  9 12  4  0
  9 19  4  0
 10 12  4  0
 10 22  4  0
 11 20  4  0
 11 21  4  0
 12 23  1  0
 13 20  4  0
 13 29  4  0
 14 17  4  0
 14 28  4  0
 15 25  2  0
 16 27  4  0
 17 18  4  0
 20 27  1  0
 24 27  4  0
 26 28  4  0
M  END
$$$$

 Created by Python create_sdf_string function

 29 33  0  0  0  0  0  0  0  0999 V2000
    8.8270   -7.0288   18.4251 C   0  0  0  0  0  0  0  0  0  0  0  0
    9.1576   -4.6236   15.8860 O   0  0  0  0  0  0  0  0  0  0  0  0
    9.1509   -5.9108   17.7177 C   0  0  0  0  0  0  0  0  0  0  0  0
    3.6373   -9.5349   16.0582 N   0  0  0  0  0  0  0  0  0  0  0  0
    9.9275   -4.8001   18.0438 N   0  0  0  0  0  0  0  0  0  0  0  0
    8.5908   -5.7425   16.4412 C   0  0  0  0  0  0  0  0  0  0  0  0
   10.5993   -4.8981   21.6068 C   0  0  0  0  0  0  0  0  0  0  0  0
   10.4258   -3.0106   23.0998 C   0  0  0  0  0  0  0  0  0  0  0  0
   10.2148   -3.4364   25.4200 C   0  0  0  0  0  0  0  0  0  0  0  0
    9.7853   -1.1840   24.4927 C   0  0  0  0  0  0  0  0  0  0  0  0
    5.0276   -8.5227   17.5352 C   0  0  0  0  0  0  0  0  0  0  0  0
    9.8187   -2.0895   25.5800 C   0  0  0  0  0  0  0  0  0  0  0  0
    5.6473   -8.7216   15.3158 C   0  0  0  0  0  0  0  0  0  0  0  0
   10.7581   -3.1233   19.4720 N   0  0  0  0  0  0  0  0  0  0  0  0
    9.9571   -4.0573   16.8866 C   0  0  0  0  0  0  0  0  0  0  0  0
    7.6213   -6.5618   16.0087 C   0  0  0  0  0  0  0  0  0  0  0  0
   10.8583   -2.6527   20.7222 C   0  0  0  0  0  0  0  0  0  0  0  0
   10.6412   -3.5089   21.7936 C   0  0  0  0  0  0  0  0  0  0  0  0
   10.4972   -3.8968   24.1589 C   0  0  0  0  0  0  0  0  0  0  0  0
    5.9260   -8.2736   16.5517 C   0  0  0  0  0  0  0  0  0  0  0  0
    3.8816   -9.1166   17.2493 C   0  0  0  0  0  0  0  0  0  0  0  0
   10.1297   -1.6575   23.2324 C   0  0  0  0  0  0  0  0  0  0  0  0
    9.4684   -1.6929   26.7263 F   0  0  0  0  0  0  0  0  0  0  0  0
    7.7963   -7.7906   17.9837 C   0  0  0  0  0  0  0  0  0  0  0  0
   10.5884   -3.0725   16.7902 O   0  0  0  0  0  0  0  0  0  0  0  0
   10.4323   -5.3494   20.3516 C   0  0  0  0  0  0  0  0  0  0  0  0
    7.1156   -7.5454   16.8218 C   0  0  0  0  0  0  0  0  0  0  0  0
   10.3885   -4.4388   19.2773 C   0  0  0  0  0  0  0  0  0  0  0  0
    4.5160   -9.3822   15.0841 C   0  0  0  0  0  0  0  0  0  0  0  0
  1  3  4  0
  1 24  4  0
  2  6  4  0
  2 15  4  0
  3  5  4  0
  3  6  4  0
  4 21  4  0
  4 29  4  0
  5 15  4  0
  5 28  1  0
  6 16  4  0
  7 18  4  0
  7 26  4  0
  8 18  1  0
  8 19  4  0
  8 22  4  0
  9 12  4  0
  9 19  4  0
 10 12  4  0
 10 22  4  0
 11 20  4  0
 11 21  4  0
 12 23  1  0
 13 20  4  0
 13 29  4  0
 14 17  4  0
 14 28  4  0
 15 25  2  0
 16 27  4  0
 17 18  4  0
 20 27  1  0
 24 27  4  0
 26 28  4  0
M  END
$$$$

 Created by Python create_sdf_string function

 29 33  0  0  0  0  0  0  0  0999 V2000
    8.8270   -7.0288   18.4251 C   0  0  0  0  0  0  0  0  0  0  0  0
    9.1576   -4.6236   15.8860 O   0  0  0  0  0  0  0  0  0  0  0  0
    9.1509   -5.9108   17.7177 C   0  0  0  0  0  0  0  0  0  0  0  0
    3.6373   -9.5349   16.0582 N   0  0  0  0  0  0  0  0  0  0  0  0
    9.9275   -4.8001   18.0438 N   0  0  0  0  0  0  0  0  0  0  0  0
    8.5908   -5.7425   16.4412 C   0  0  0  0  0  0  0  0  0  0  0  0
   10.5993   -4.8981   21.6068 C   0  0  0  0  0  0  0  0  0  0  0  0
   10.4258   -3.0106   23.0998 C   0  0  0  0  0  0  0  0  0  0  0  0
   10.2148   -3.4364   25.4200 C   0  0  0  0  0  0  0  0  0  0  0  0
    9.7853   -1.1840   24.4927 C   0  0  0  0  0  0  0  0  0  0  0  0
    5.0276   -8.5227   17.5352 C   0  0  0  0  0  0  0  0  0  0  0  0
    9.8187   -2.0895   25.5800 C   0  0  0  0  0  0  0  0  0  0  0  0
    5.6473   -8.7216   15.3158 C   0  0  0  0  0  0  0  0  0  0  0  0
   10.7581   -3.1233   19.4720 N   0  0  0  0  0  0  0  0  0  0  0  0
    9.9571   -4.0573   16.8866 C   0  0  0  0  0  0  0  0  0  0  0  0
    7.6213   -6.5618   16.0087 C   0  0  0  0  0  0  0  0  0  0  0  0
   10.8583   -2.6527   20.7222 C   0  0  0  0  0  0  0  0  0  0  0  0
   10.6412   -3.5089   21.7936 C   0  0  0  0  0  0  0  0  0  0  0  0
   10.4972   -3.8968   24.1589 C   0  0  0  0  0  0  0  0  0  0  0  0
    5.9260   -8.2736   16.5517 C   0  0  0  0  0  0  0  0  0  0  0  0
    3.8816   -9.1166   17.2493 C   0  0  0  0  0  0  0  0  0  0  0  0
   10.1297   -1.6575   23.2324 C   0  0  0  0  0  0  0  0  0  0  0  0
    9.4684   -1.6929   26.7263 F   0  0  0  0  0  0  0  0  0  0  0  0
    7.7963   -7.7906   17.9837 C   0  0  0  0  0  0  0  0  0  0  0  0
   10.5884   -3.0725   16.7902 O   0  0  0  0  0  0  0  0  0  0  0  0
   10.4323   -5.3494   20.3516 C   0  0  0  0  0  0  0  0  0  0  0  0
    7.1156   -7.5454   16.8218 C   0  0  0  0  0  0  0  0  0  0  0  0
   10.3885   -4.4388   19.2773 C   0  0  0  0  0  0  0  0  0  0  0  0
    4.5160   -9.3822   15.0841 C   0  0  0  0  0  0  0  0  0  0  0  0
  1  3  4  0
  1 24  4  0
  2  6  4  0
  2 15  4  0
  3  5  4  0
  3  6  4  0
  4 21  4  0
  4 29  4  0
  5 15  4  0
  5 28  1  0
  6 16  4  0
  7 18  4  0
  7 26  4  0
  8 18  1  0
  8 19  4  0
  8 22  4  0
  9 12  4  0
  9 19  4  0
 10 12  4  0
 10 22  4  0
 11 20  4  0
 11 21  4  0
 12 23  1  0
 13 20  4  0
 13 29  4  0
 14 17  4  0
 14 28  4  0
 15 25  2  0
 16 27  4  0
 17 18  4  0
 20 27  1  0
 24 27  4  0
 26 28  4  0
M  END
$$$$

 Created by Python create_sdf_string function

 29 33  0  0  0  0  0  0  0  0999 V2000
    8.8270   -7.0288   18.4251 C   0  0  0  0  0  0  0  0  0  0  0  0
    9.1576   -4.6236   15.8860 O   0  0  0  0  0  0  0  0  0  0  0  0
    9.1509   -5.9108   17.7177 C   0  0  0  0  0  0  0  0  0  0  0  0
    3.6373   -9.5349   16.0582 N   0  0  0  0  0  0  0  0  0  0  0  0
    9.9275   -4.8001   18.0438 N   0  0  0  0  0  0  0  0  0  0  0  0
    8.5908   -5.7425   16.4412 C   0  0  0  0  0  0  0  0  0  0  0  0
   10.5993   -4.8981   21.6068 C   0  0  0  0  0  0  0  0  0  0  0  0
   10.4258   -3.0106   23.0998 C   0  0  0  0  0  0  0  0  0  0  0  0
   10.2148   -3.4364   25.4200 C   0  0  0  0  0  0  0  0  0  0  0  0
    9.7853   -1.1840   24.4927 C   0  0  0  0  0  0  0  0  0  0  0  0
    5.0276   -8.5227   17.5352 C   0  0  0  0  0  0  0  0  0  0  0  0
    9.8187   -2.0895   25.5800 C   0  0  0  0  0  0  0  0  0  0  0  0
    5.6473   -8.7216   15.3158 C   0  0  0  0  0  0  0  0  0  0  0  0
   10.7581   -3.1233   19.4720 N   0  0  0  0  0  0  0  0  0  0  0  0
    9.9571   -4.0573   16.8866 C   0  0  0  0  0  0  0  0  0  0  0  0
    7.6213   -6.5618   16.0087 C   0  0  0  0  0  0  0  0  0  0  0  0
   10.8583   -2.6527   20.7222 C   0  0  0  0  0  0  0  0  0  0  0  0
   10.6412   -3.5089   21.7936 C   0  0  0  0  0  0  0  0  0  0  0  0
   10.4972   -3.8968   24.1589 C   0  0  0  0  0  0  0  0  0  0  0  0
    5.9260   -8.2736   16.5517 C   0  0  0  0  0  0  0  0  0  0  0  0
    3.8816   -9.1166   17.2493 C   0  0  0  0  0  0  0  0  0  0  0  0
   10.1297   -1.6575   23.2324 C   0  0  0  0  0  0  0  0  0  0  0  0
    9.4684   -1.6929   26.7263 F   0  0  0  0  0  0  0  0  0  0  0  0
    7.7963   -7.7906   17.9837 C   0  0  0  0  0  0  0  0  0  0  0  0
   10.5884   -3.0725   16.7902 O   0  0  0  0  0  0  0  0  0  0  0  0
   10.4323   -5.3494   20.3516 C   0  0  0  0  0  0  0  0  0  0  0  0
    7.1156   -7.5454   16.8218 C   0  0  0  0  0  0  0  0  0  0  0  0
   10.3885   -4.4388   19.2773 C   0  0  0  0  0  0  0  0  0  0  0  0
    4.5160   -9.3822   15.0841 C   0  0  0  0  0  0  0  0  0  0  0  0
  1  3  4  0
  1 24  4  0
  2  6  4  0
  2 15  4  0
  3  5  4  0
  3  6  4  0
  4 21  4  0
  4 29  4  0
  5 15  4  0
  5 28  1  0
  6 16  4  0
  7 18  4  0
  7 26  4  0
  8 18  1  0
  8 19  4  0
  8 22  4  0
  9 12  4  0
  9 19  4  0
 10 12  4  0
 10 22  4  0
 11 20  4  0
 11 21  4  0
 12 23  1  0
 13 20  4  0
 13 29  4  0
 14 17  4  0
 14 28  4  0
 15 25  2  0
 16 27  4  0
 17 18  4  0
 20 27  1  0
 24 27  4  0
 26 28  4  0
M  END
$$$$

 Created by Python create_sdf_string function

 29 33  0  0  0  0  0  0  0  0999 V2000
    8.8270   -7.0288   18.4251 C   0  0  0  0  0  0  0  0  0  0  0  0
    9.1576   -4.6236   15.8860 O   0  0  0  0  0  0  0  0  0  0  0  0
    9.1509   -5.9108   17.7177 C   0  0  0  0  0  0  0  0  0  0  0  0
    3.6373   -9.5349   16.0582 N   0  0  0  0  0  0  0  0  0  0  0  0
    9.9275   -4.8001   18.0438 N   0  0  0  0  0  0  0  0  0  0  0  0
    8.5908   -5.7425   16.4412 C   0  0  0  0  0  0  0  0  0  0  0  0
   10.5993   -4.8981   21.6068 C   0  0  0  0  0  0  0  0  0  0  0  0
   10.4258   -3.0106   23.0998 C   0  0  0  0  0  0  0  0  0  0  0  0
   10.2148   -3.4364   25.4200 C   0  0  0  0  0  0  0  0  0  0  0  0
    9.7853   -1.1840   24.4927 C   0  0  0  0  0  0  0  0  0  0  0  0
    5.0276   -8.5227   17.5352 C   0  0  0  0  0  0  0  0  0  0  0  0
    9.8187   -2.0895   25.5800 C   0  0  0  0  0  0  0  0  0  0  0  0
    5.6473   -8.7216   15.3158 C   0  0  0  0  0  0  0  0  0  0  0  0
   10.7581   -3.1233   19.4720 N   0  0  0  0  0  0  0  0  0  0  0  0
    9.9571   -4.0573   16.8866 C   0  0  0  0  0  0  0  0  0  0  0  0
    7.6213   -6.5618   16.0087 C   0  0  0  0  0  0  0  0  0  0  0  0
   10.8583   -2.6527   20.7222 C   0  0  0  0  0  0  0  0  0  0  0  0
   10.6412   -3.5089   21.7936 C   0  0  0  0  0  0  0  0  0  0  0  0
   10.4972   -3.8968   24.1589 C   0  0  0  0  0  0  0  0  0  0  0  0
    5.9260   -8.2736   16.5517 C   0  0  0  0  0  0  0  0  0  0  0  0
    3.8816   -9.1166   17.2493 C   0  0  0  0  0  0  0  0  0  0  0  0
   10.1297   -1.6575   23.2324 C   0  0  0  0  0  0  0  0  0  0  0  0
    9.4684   -1.6929   26.7263 F   0  0  0  0  0  0  0  0  0  0  0  0
    7.7963   -7.7906   17.9837 C   0  0  0  0  0  0  0  0  0  0  0  0
   10.5884   -3.0725   16.7902 O   0  0  0  0  0  0  0  0  0  0  0  0
   10.4323   -5.3494   20.3516 C   0  0  0  0  0  0  0  0  0  0  0  0
    7.1156   -7.5454   16.8218 C   0  0  0  0  0  0  0  0  0  0  0  0
   10.3885   -4.4388   19.2773 C   0  0  0  0  0  0  0  0  0  0  0  0
    4.5160   -9.3822   15.0841 C   0  0  0  0  0  0  0  0  0  0  0  0
  1  3  4  0
  1 24  4  0
  2  6  4  0
  2 15  4  0
  3  5  4  0
  3  6  4  0
  4 21  4  0
  4 29  4  0
  5 15  4  0
  5 28  1  0
  6 16  4  0
  7 18  4  0
  7 26  4  0
  8 18  1  0
  8 19  4  0
  8 22  4  0
  9 12  4  0
  9 19  4  0
 10 12  4  0
 10 22  4  0
 11 20  4  0
 11 21  4  0
 12 23  1  0
 13 20  4  0
 13 29  4  0
 14 17  4  0
 14 28  4  0
 15 25  2  0
 16 27  4  0
 17 18  4  0
 20 27  1  0
 24 27  4  0
 26 28  4  0
M  END
$$$$

 Created by Python create_sdf_string function

 29 33  0  0  0  0  0  0  0  0999 V2000
    8.8270   -7.0288   18.4251 C   0  0  0  0  0  0  0  0  0  0  0  0
    9.1576   -4.6236   15.8860 O   0  0  0  0  0  0  0  0  0  0  0  0
    9.1509   -5.9108   17.7177 C   0  0  0  0  0  0  0  0  0  0  0  0
    3.6373   -9.5349   16.0582 N   0  0  0  0  0  0  0  0  0  0  0  0
    9.9275   -4.8001   18.0438 N   0  0  0  0  0  0  0  0  0  0  0  0
    8.5908   -5.7425   16.4412 C   0  0  0  0  0  0  0  0  0  0  0  0
   10.5993   -4.8981   21.6068 C   0  0  0  0  0  0  0  0  0  0  0  0
   10.4258   -3.0106   23.0998 C   0  0  0  0  0  0  0  0  0  0  0  0
   10.2148   -3.4364   25.4200 C   0  0  0  0  0  0  0  0  0  0  0  0
    9.7853   -1.1840   24.4927 C   0  0  0  0  0  0  0  0  0  0  0  0
    5.0276   -8.5227   17.5352 C   0  0  0  0  0  0  0  0  0  0  0  0
    9.8187   -2.0895   25.5800 C   0  0  0  0  0  0  0  0  0  0  0  0
    5.6473   -8.7216   15.3158 C   0  0  0  0  0  0  0  0  0  0  0  0
   10.7581   -3.1233   19.4720 N   0  0  0  0  0  0  0  0  0  0  0  0
    9.9571   -4.0573   16.8866 C   0  0  0  0  0  0  0  0  0  0  0  0
    7.6213   -6.5618   16.0087 C   0  0  0  0  0  0  0  0  0  0  0  0
   10.8583   -2.6527   20.7222 C   0  0  0  0  0  0  0  0  0  0  0  0
   10.6412   -3.5089   21.7936 C   0  0  0  0  0  0  0  0  0  0  0  0
   10.4972   -3.8968   24.1589 C   0  0  0  0  0  0  0  0  0  0  0  0
    5.9260   -8.2736   16.5517 C   0  0  0  0  0  0  0  0  0  0  0  0
    3.8816   -9.1166   17.2493 C   0  0  0  0  0  0  0  0  0  0  0  0
   10.1297   -1.6575   23.2324 C   0  0  0  0  0  0  0  0  0  0  0  0
    9.4684   -1.6929   26.7263 F   0  0  0  0  0  0  0  0  0  0  0  0
    7.7963   -7.7906   17.9837 C   0  0  0  0  0  0  0  0  0  0  0  0
   10.5884   -3.0725   16.7902 O   0  0  0  0  0  0  0  0  0  0  0  0
   10.4323   -5.3494   20.3516 C   0  0  0  0  0  0  0  0  0  0  0  0
    7.1156   -7.5454   16.8218 C   0  0  0  0  0  0  0  0  0  0  0  0
   10.3885   -4.4388   19.2773 C   0  0  0  0  0  0  0  0  0  0  0  0
    4.5160   -9.3822   15.0841 C   0  0  0  0  0  0  0  0  0  0  0  0
  1  3  4  0
  1 24  4  0
  2  6  4  0
  2 15  4  0
  3  5  4  0
  3  6  4  0
  4 21  4  0
  4 29  4  0
  5 15  4  0
  5 28  1  0
  6 16  4  0
  7 18  4  0
  7 26  4  0
  8 18  1  0
  8 19  4  0
  8 22  4  0
  9 12  4  0
  9 19  4  0
 10 12  4  0
 10 22  4  0
 11 20  4  0
 11 21  4  0
 12 23  1  0
 13 20  4  0
 13 29  4  0
 14 17  4  0
 14 28  4  0
 15 25  2  0
 16 27  4  0
 17 18  4  0
 20 27  1  0
 24 27  4  0
 26 28  4  0
M  END
$$$$

 Created by Python create_sdf_string function

 29 33  0  0  0  0  0  0  0  0999 V2000
    8.8270   -7.0288   18.4251 C   0  0  0  0  0  0  0  0  0  0  0  0
    9.1576   -4.6236   15.8860 O   0  0  0  0  0  0  0  0  0  0  0  0
    9.1509   -5.9108   17.7177 C   0  0  0  0  0  0  0  0  0  0  0  0
    3.6373   -9.5349   16.0582 N   0  0  0  0  0  0  0  0  0  0  0  0
    9.9275   -4.8001   18.0438 N   0  0  0  0  0  0  0  0  0  0  0  0
    8.5908   -5.7425   16.4412 C   0  0  0  0  0  0  0  0  0  0  0  0
   10.5993   -4.8981   21.6068 C   0  0  0  0  0  0  0  0  0  0  0  0
   10.4258   -3.0106   23.0998 C   0  0  0  0  0  0  0  0  0  0  0  0
   10.2148   -3.4364   25.4200 C   0  0  0  0  0  0  0  0  0  0  0  0
    9.7853   -1.1840   24.4927 C   0  0  0  0  0  0  0  0  0  0  0  0
    5.0276   -8.5227   17.5352 C   0  0  0  0  0  0  0  0  0  0  0  0
    9.8187   -2.0895   25.5800 C   0  0  0  0  0  0  0  0  0  0  0  0
    5.6473   -8.7216   15.3158 C   0  0  0  0  0  0  0  0  0  0  0  0
   10.7581   -3.1233   19.4720 N   0  0  0  0  0  0  0  0  0  0  0  0
    9.9571   -4.0573   16.8866 C   0  0  0  0  0  0  0  0  0  0  0  0
    7.6213   -6.5618   16.0087 C   0  0  0  0  0  0  0  0  0  0  0  0
   10.8583   -2.6527   20.7222 C   0  0  0  0  0  0  0  0  0  0  0  0
   10.6412   -3.5089   21.7936 C   0  0  0  0  0  0  0  0  0  0  0  0
   10.4972   -3.8968   24.1589 C   0  0  0  0  0  0  0  0  0  0  0  0
    5.9260   -8.2736   16.5517 C   0  0  0  0  0  0  0  0  0  0  0  0
    3.8816   -9.1166   17.2493 C   0  0  0  0  0  0  0  0  0  0  0  0
   10.1297   -1.6575   23.2324 C   0  0  0  0  0  0  0  0  0  0  0  0
    9.4684   -1.6929   26.7263 F   0  0  0  0  0  0  0  0  0  0  0  0
    7.7963   -7.7906   17.9837 C   0  0  0  0  0  0  0  0  0  0  0  0
   10.5884   -3.0725   16.7902 O   0  0  0  0  0  0  0  0  0  0  0  0
   10.4323   -5.3494   20.3516 C   0  0  0  0  0  0  0  0  0  0  0  0
    7.1156   -7.5454   16.8218 C   0  0  0  0  0  0  0  0  0  0  0  0
   10.3885   -4.4388   19.2773 C   0  0  0  0  0  0  0  0  0  0  0  0
    4.5160   -9.3822   15.0841 C   0  0  0  0  0  0  0  0  0  0  0  0
  1  3  4  0
  1 24  4  0
  2  6  4  0
  2 15  4  0
  3  5  4  0
  3  6  4  0
  4 21  4  0
  4 29  4  0
  5 15  4  0
  5 28  1  0
  6 16  4  0
  7 18  4  0
  7 26  4  0
  8 18  1  0
  8 19  4  0
  8 22  4  0
  9 12  4  0
  9 19  4  0
 10 12  4  0
 10 22  4  0
 11 20  4  0
 11 21  4  0
 12 23  1  0
 13 20  4  0
 13 29  4  0
 14 17  4  0
 14 28  4  0
 15 25  2  0
 16 27  4  0
 17 18  4  0
 20 27  1  0
 24 27  4  0
 26 28  4  0
M  END
$$$$

 Created by Python create_sdf_string function

 29 33  0  0  0  0  0  0  0  0999 V2000
    8.8270   -7.0288   18.4251 C   0  0  0  0  0  0  0  0  0  0  0  0
    9.1576   -4.6236   15.8860 O   0  0  0  0  0  0  0  0  0  0  0  0
    9.1509   -5.9108   17.7177 C   0  0  0  0  0  0  0  0  0  0  0  0
    3.6373   -9.5349   16.0582 N   0  0  0  0  0  0  0  0  0  0  0  0
    9.9275   -4.8001   18.0438 N   0  0  0  0  0  0  0  0  0  0  0  0
    8.5908   -5.7425   16.4412 C   0  0  0  0  0  0  0  0  0  0  0  0
   10.5993   -4.8981   21.6068 C   0  0  0  0  0  0  0  0  0  0  0  0
   10.4258   -3.0106   23.0998 C   0  0  0  0  0  0  0  0  0  0  0  0
   10.2148   -3.4364   25.4200 C   0  0  0  0  0  0  0  0  0  0  0  0
    9.7853   -1.1840   24.4927 C   0  0  0  0  0  0  0  0  0  0  0  0
    5.0276   -8.5227   17.5352 C   0  0  0  0  0  0  0  0  0  0  0  0
    9.8187   -2.0895   25.5800 C   0  0  0  0  0  0  0  0  0  0  0  0
    5.6473   -8.7216   15.3158 C   0  0  0  0  0  0  0  0  0  0  0  0
   10.7581   -3.1233   19.4720 N   0  0  0  0  0  0  0  0  0  0  0  0
    9.9571   -4.0573   16.8866 C   0  0  0  0  0  0  0  0  0  0  0  0
    7.6213   -6.5618   16.0087 C   0  0  0  0  0  0  0  0  0  0  0  0
   10.8583   -2.6527   20.7222 C   0  0  0  0  0  0  0  0  0  0  0  0
   10.6412   -3.5089   21.7936 C   0  0  0  0  0  0  0  0  0  0  0  0
   10.4972   -3.8968   24.1589 C   0  0  0  0  0  0  0  0  0  0  0  0
    5.9260   -8.2736   16.5517 C   0  0  0  0  0  0  0  0  0  0  0  0
    3.8816   -9.1166   17.2493 C   0  0  0  0  0  0  0  0  0  0  0  0
   10.1297   -1.6575   23.2324 C   0  0  0  0  0  0  0  0  0  0  0  0
    9.4684   -1.6929   26.7263 F   0  0  0  0  0  0  0  0  0  0  0  0
    7.7963   -7.7906   17.9837 C   0  0  0  0  0  0  0  0  0  0  0  0
   10.5884   -3.0725   16.7902 O   0  0  0  0  0  0  0  0  0  0  0  0
   10.4323   -5.3494   20.3516 C   0  0  0  0  0  0  0  0  0  0  0  0
    7.1156   -7.5454   16.8218 C   0  0  0  0  0  0  0  0  0  0  0  0
   10.3885   -4.4388   19.2773 C   0  0  0  0  0  0  0  0  0  0  0  0
    4.5160   -9.3822   15.0841 C   0  0  0  0  0  0  0  0  0  0  0  0
  1  3  4  0
  1 24  4  0
  2  6  4  0
  2 15  4  0
  3  5  4  0
  3  6  4  0
  4 21  4  0
  4 29  4  0
  5 15  4  0
  5 28  1  0
  6 16  4  0
  7 18  4  0
  7 26  4  0
  8 18  1  0
  8 19  4  0
  8 22  4  0
  9 12  4  0
  9 19  4  0
 10 12  4  0
 10 22  4  0
 11 20  4  0
 11 21  4  0
 12 23  1  0
 13 20  4  0
 13 29  4  0
 14 17  4  0
 14 28  4  0
 15 25  2  0
 16 27  4  0
 17 18  4  0
 20 27  1  0
 24 27  4  0
 26 28  4  0
M  END
$$$$

 Created by Python create_sdf_string function

 29 33  0  0  0  0  0  0  0  0999 V2000
    8.8270   -7.0288   18.4251 C   0  0  0  0  0  0  0  0  0  0  0  0
    9.1576   -4.6236   15.8860 O   0  0  0  0  0  0  0  0  0  0  0  0
    9.1509   -5.9108   17.7177 C   0  0  0  0  0  0  0  0  0  0  0  0
    3.6373   -9.5349   16.0582 N   0  0  0  0  0  0  0  0  0  0  0  0
    9.9275   -4.8001   18.0438 N   0  0  0  0  0  0  0  0  0  0  0  0
    8.5908   -5.7425   16.4412 C   0  0  0  0  0  0  0  0  0  0  0  0
   10.5993   -4.8981   21.6068 C   0  0  0  0  0  0  0  0  0  0  0  0
   10.4258   -3.0106   23.0998 C   0  0  0  0  0  0  0  0  0  0  0  0
   10.2148   -3.4364   25.4200 C   0  0  0  0  0  0  0  0  0  0  0  0
    9.7853   -1.1840   24.4927 C   0  0  0  0  0  0  0  0  0  0  0  0
    5.0276   -8.5227   17.5352 C   0  0  0  0  0  0  0  0  0  0  0  0
    9.8187   -2.0895   25.5800 C   0  0  0  0  0  0  0  0  0  0  0  0
    5.6473   -8.7216   15.3158 C   0  0  0  0  0  0  0  0  0  0  0  0
   10.7581   -3.1233   19.4720 N   0  0  0  0  0  0  0  0  0  0  0  0
    9.9571   -4.0573   16.8866 C   0  0  0  0  0  0  0  0  0  0  0  0
    7.6213   -6.5618   16.0087 C   0  0  0  0  0  0  0  0  0  0  0  0
   10.8583   -2.6527   20.7222 C   0  0  0  0  0  0  0  0  0  0  0  0
   10.6412   -3.5089   21.7936 C   0  0  0  0  0  0  0  0  0  0  0  0
   10.4972   -3.8968   24.1589 C   0  0  0  0  0  0  0  0  0  0  0  0
    5.9260   -8.2736   16.5517 C   0  0  0  0  0  0  0  0  0  0  0  0
    3.8816   -9.1166   17.2493 C   0  0  0  0  0  0  0  0  0  0  0  0
   10.1297   -1.6575   23.2324 C   0  0  0  0  0  0  0  0  0  0  0  0
    9.4684   -1.6929   26.7263 F   0  0  0  0  0  0  0  0  0  0  0  0
    7.7963   -7.7906   17.9837 C   0  0  0  0  0  0  0  0  0  0  0  0
   10.5884   -3.0725   16.7902 O   0  0  0  0  0  0  0  0  0  0  0  0
   10.4323   -5.3494   20.3516 C   0  0  0  0  0  0  0  0  0  0  0  0
    7.1156   -7.5454   16.8218 C   0  0  0  0  0  0  0  0  0  0  0  0
   10.3885   -4.4388   19.2773 C   0  0  0  0  0  0  0  0  0  0  0  0
    4.5160   -9.3822   15.0841 C   0  0  0  0  0  0  0  0  0  0  0  0
  1  3  4  0
  1 24  4  0
  2  6  4  0
  2 15  4  0
  3  5  4  0
  3  6  4  0
  4 21  4  0
  4 29  4  0
  5 15  4  0
  5 28  1  0
  6 16  4  0
  7 18  4  0
  7 26  4  0
  8 18  1  0
  8 19  4  0
  8 22  4  0
  9 12  4  0
  9 19  4  0
 10 12  4  0
 10 22  4  0
 11 20  4  0
 11 21  4  0
 12 23  1  0
 13 20  4  0
 13 29  4  0
 14 17  4  0
 14 28  4  0
 15 25  2  0
 16 27  4  0
 17 18  4  0
 20 27  1  0
 24 27  4  0
 26 28  4  0
M  END
$$$$

 Created by Python create_sdf_string function

 29 33  0  0  0  0  0  0  0  0999 V2000
    8.8270   -7.0288   18.4251 C   0  0  0  0  0  0  0  0  0  0  0  0
    9.1576   -4.6236   15.8860 O   0  0  0  0  0  0  0  0  0  0  0  0
    9.1509   -5.9108   17.7177 C   0  0  0  0  0  0  0  0  0  0  0  0
    3.6373   -9.5349   16.0582 N   0  0  0  0  0  0  0  0  0  0  0  0
    9.9275   -4.8001   18.0438 N   0  0  0  0  0  0  0  0  0  0  0  0
    8.5908   -5.7425   16.4412 C   0  0  0  0  0  0  0  0  0  0  0  0
   10.5993   -4.8981   21.6068 C   0  0  0  0  0  0  0  0  0  0  0  0
   10.4258   -3.0106   23.0998 C   0  0  0  0  0  0  0  0  0  0  0  0
   10.2148   -3.4364   25.4200 C   0  0  0  0  0  0  0  0  0  0  0  0
    9.7853   -1.1840   24.4927 C   0  0  0  0  0  0  0  0  0  0  0  0
    5.0276   -8.5227   17.5352 C   0  0  0  0  0  0  0  0  0  0  0  0
    9.8187   -2.0895   25.5800 C   0  0  0  0  0  0  0  0  0  0  0  0
    5.6473   -8.7216   15.3158 C   0  0  0  0  0  0  0  0  0  0  0  0
   10.7581   -3.1233   19.4720 N   0  0  0  0  0  0  0  0  0  0  0  0
    9.9571   -4.0573   16.8866 C   0  0  0  0  0  0  0  0  0  0  0  0
    7.6213   -6.5618   16.0087 C   0  0  0  0  0  0  0  0  0  0  0  0
   10.8583   -2.6527   20.7222 C   0  0  0  0  0  0  0  0  0  0  0  0
   10.6412   -3.5089   21.7936 C   0  0  0  0  0  0  0  0  0  0  0  0
   10.4972   -3.8968   24.1589 C   0  0  0  0  0  0  0  0  0  0  0  0
    5.9260   -8.2736   16.5517 C   0  0  0  0  0  0  0  0  0  0  0  0
    3.8816   -9.1166   17.2493 C   0  0  0  0  0  0  0  0  0  0  0  0
   10.1297   -1.6575   23.2324 C   0  0  0  0  0  0  0  0  0  0  0  0
    9.4684   -1.6929   26.7263 F   0  0  0  0  0  0  0  0  0  0  0  0
    7.7963   -7.7906   17.9837 C   0  0  0  0  0  0  0  0  0  0  0  0
   10.5884   -3.0725   16.7902 O   0  0  0  0  0  0  0  0  0  0  0  0
   10.4323   -5.3494   20.3516 C   0  0  0  0  0  0  0  0  0  0  0  0
    7.1156   -7.5454   16.8218 C   0  0  0  0  0  0  0  0  0  0  0  0
   10.3885   -4.4388   19.2773 C   0  0  0  0  0  0  0  0  0  0  0  0
    4.5160   -9.3822   15.0841 C   0  0  0  0  0  0  0  0  0  0  0  0
  1  3  4  0
  1 24  4  0
  2  6  4  0
  2 15  4  0
  3  5  4  0
  3  6  4  0
  4 21  4  0
  4 29  4  0
  5 15  4  0
  5 28  1  0
  6 16  4  0
  7 18  4  0
  7 26  4  0
  8 18  1  0
  8 19  4  0
  8 22  4  0
  9 12  4  0
  9 19  4  0
 10 12  4  0
 10 22  4  0
 11 20  4  0
 11 21  4  0
 12 23  1  0
 13 20  4  0
 13 29  4  0
 14 17  4  0
 14 28  4  0
 15 25  2  0
 16 27  4  0
 17 18  4  0
 20 27  1  0
 24 27  4  0
 26 28  4  0
M  END
$$$$

 Created by Python create_sdf_string function

 29 33  0  0  0  0  0  0  0  0999 V2000
    8.8270   -7.0288   18.4251 C   0  0  0  0  0  0  0  0  0  0  0  0
    9.1576   -4.6236   15.8860 O   0  0  0  0  0  0  0  0  0  0  0  0
    9.1509   -5.9108   17.7177 C   0  0  0  0  0  0  0  0  0  0  0  0
    3.6373   -9.5349   16.0582 N   0  0  0  0  0  0  0  0  0  0  0  0
    9.9275   -4.8001   18.0438 N   0  0  0  0  0  0  0  0  0  0  0  0
    8.5908   -5.7425   16.4412 C   0  0  0  0  0  0  0  0  0  0  0  0
   10.5993   -4.8981   21.6068 C   0  0  0  0  0  0  0  0  0  0  0  0
   10.4258   -3.0106   23.0998 C   0  0  0  0  0  0  0  0  0  0  0  0
   10.2148   -3.4364   25.4200 C   0  0  0  0  0  0  0  0  0  0  0  0
    9.7853   -1.1840   24.4927 C   0  0  0  0  0  0  0  0  0  0  0  0
    5.0276   -8.5227   17.5352 C   0  0  0  0  0  0  0  0  0  0  0  0
    9.8187   -2.0895   25.5800 C   0  0  0  0  0  0  0  0  0  0  0  0
    5.6473   -8.7216   15.3158 C   0  0  0  0  0  0  0  0  0  0  0  0
   10.7581   -3.1233   19.4720 N   0  0  0  0  0  0  0  0  0  0  0  0
    9.9571   -4.0573   16.8866 C   0  0  0  0  0  0  0  0  0  0  0  0
    7.6213   -6.5618   16.0087 C   0  0  0  0  0  0  0  0  0  0  0  0
   10.8583   -2.6527   20.7222 C   0  0  0  0  0  0  0  0  0  0  0  0
   10.6412   -3.5089   21.7936 C   0  0  0  0  0  0  0  0  0  0  0  0
   10.4972   -3.8968   24.1589 C   0  0  0  0  0  0  0  0  0  0  0  0
    5.9260   -8.2736   16.5517 C   0  0  0  0  0  0  0  0  0  0  0  0
    3.8816   -9.1166   17.2493 C   0  0  0  0  0  0  0  0  0  0  0  0
   10.1297   -1.6575   23.2324 C   0  0  0  0  0  0  0  0  0  0  0  0
    9.4684   -1.6929   26.7263 F   0  0  0  0  0  0  0  0  0  0  0  0
    7.7963   -7.7906   17.9837 C   0  0  0  0  0  0  0  0  0  0  0  0
   10.5884   -3.0725   16.7902 O   0  0  0  0  0  0  0  0  0  0  0  0
   10.4323   -5.3494   20.3516 C   0  0  0  0  0  0  0  0  0  0  0  0
    7.1156   -7.5454   16.8218 C   0  0  0  0  0  0  0  0  0  0  0  0
   10.3885   -4.4388   19.2773 C   0  0  0  0  0  0  0  0  0  0  0  0
    4.5160   -9.3822   15.0841 C   0  0  0  0  0  0  0  0  0  0  0  0
  1  3  4  0
  1 24  4  0
  2  6  4  0
  2 15  4  0
  3  5  4  0
  3  6  4  0
  4 21  4  0
  4 29  4  0
  5 15  4  0
  5 28  1  0
  6 16  4  0
  7 18  4  0
  7 26  4  0
  8 18  1  0
  8 19  4  0
  8 22  4  0
  9 12  4  0
  9 19  4  0
 10 12  4  0
 10 22  4  0
 11 20  4  0
 11 21  4  0
 12 23  1  0
 13 20  4  0
 13 29  4  0
 14 17  4  0
 14 28  4  0
 15 25  2  0
 16 27  4  0
 17 18  4  0
 20 27  1  0
 24 27  4  0
 26 28  4  0
M  END
$$$$

 Created by Python create_sdf_string function

 29 33  0  0  0  0  0  0  0  0999 V2000
    8.8270   -7.0288   18.4251 C   0  0  0  0  0  0  0  0  0  0  0  0
    9.1576   -4.6236   15.8860 O   0  0  0  0  0  0  0  0  0  0  0  0
    9.1509   -5.9108   17.7177 C   0  0  0  0  0  0  0  0  0  0  0  0
    3.6373   -9.5349   16.0582 N   0  0  0  0  0  0  0  0  0  0  0  0
    9.9275   -4.8001   18.0438 N   0  0  0  0  0  0  0  0  0  0  0  0
    8.5908   -5.7425   16.4412 C   0  0  0  0  0  0  0  0  0  0  0  0
   10.5993   -4.8981   21.6068 C   0  0  0  0  0  0  0  0  0  0  0  0
   10.4258   -3.0106   23.0998 C   0  0  0  0  0  0  0  0  0  0  0  0
   10.2148   -3.4364   25.4200 C   0  0  0  0  0  0  0  0  0  0  0  0
    9.7853   -1.1840   24.4927 C   0  0  0  0  0  0  0  0  0  0  0  0
    5.0276   -8.5227   17.5352 C   0  0  0  0  0  0  0  0  0  0  0  0
    9.8187   -2.0895   25.5800 C   0  0  0  0  0  0  0  0  0  0  0  0
    5.6473   -8.7216   15.3158 C   0  0  0  0  0  0  0  0  0  0  0  0
   10.7581   -3.1233   19.4720 N   0  0  0  0  0  0  0  0  0  0  0  0
    9.9571   -4.0573   16.8866 C   0  0  0  0  0  0  0  0  0  0  0  0
    7.6213   -6.5618   16.0087 C   0  0  0  0  0  0  0  0  0  0  0  0
   10.8583   -2.6527   20.7222 C   0  0  0  0  0  0  0  0  0  0  0  0
   10.6412   -3.5089   21.7936 C   0  0  0  0  0  0  0  0  0  0  0  0
   10.4972   -3.8968   24.1589 C   0  0  0  0  0  0  0  0  0  0  0  0
    5.9260   -8.2736   16.5517 C   0  0  0  0  0  0  0  0  0  0  0  0
    3.8816   -9.1166   17.2493 C   0  0  0  0  0  0  0  0  0  0  0  0
   10.1297   -1.6575   23.2324 C   0  0  0  0  0  0  0  0  0  0  0  0
    9.4684   -1.6929   26.7263 F   0  0  0  0  0  0  0  0  0  0  0  0
    7.7963   -7.7906   17.9837 C   0  0  0  0  0  0  0  0  0  0  0  0
   10.5884   -3.0725   16.7902 O   0  0  0  0  0  0  0  0  0  0  0  0
   10.4323   -5.3494   20.3516 C   0  0  0  0  0  0  0  0  0  0  0  0
    7.1156   -7.5454   16.8218 C   0  0  0  0  0  0  0  0  0  0  0  0
   10.3885   -4.4388   19.2773 C   0  0  0  0  0  0  0  0  0  0  0  0
    4.5160   -9.3822   15.0841 C   0  0  0  0  0  0  0  0  0  0  0  0
  1  3  4  0
  1 24  4  0
  2  6  4  0
  2 15  4  0
  3  5  4  0
  3  6  4  0
  4 21  4  0
  4 29  4  0
  5 15  4  0
  5 28  1  0
  6 16  4  0
  7 18  4  0
  7 26  4  0
  8 18  1  0
  8 19  4  0
  8 22  4  0
  9 12  4  0
  9 19  4  0
 10 12  4  0
 10 22  4  0
 11 20  4  0
 11 21  4  0
 12 23  1  0
 13 20  4  0
 13 29  4  0
 14 17  4  0
 14 28  4  0
 15 25  2  0
 16 27  4  0
 17 18  4  0
 20 27  1  0
 24 27  4  0
 26 28  4  0
M  END
$$$$

 Created by Python create_sdf_string function

 29 33  0  0  0  0  0  0  0  0999 V2000
    8.8270   -7.0288   18.4251 C   0  0  0  0  0  0  0  0  0  0  0  0
    9.1576   -4.6236   15.8860 O   0  0  0  0  0  0  0  0  0  0  0  0
    9.1509   -5.9108   17.7177 C   0  0  0  0  0  0  0  0  0  0  0  0
    3.6373   -9.5349   16.0582 N   0  0  0  0  0  0  0  0  0  0  0  0
    9.9275   -4.8001   18.0438 N   0  0  0  0  0  0  0  0  0  0  0  0
    8.5908   -5.7425   16.4412 C   0  0  0  0  0  0  0  0  0  0  0  0
   10.5993   -4.8981   21.6068 C   0  0  0  0  0  0  0  0  0  0  0  0
   10.4258   -3.0106   23.0998 C   0  0  0  0  0  0  0  0  0  0  0  0
   10.2148   -3.4364   25.4200 C   0  0  0  0  0  0  0  0  0  0  0  0
    9.7853   -1.1840   24.4927 C   0  0  0  0  0  0  0  0  0  0  0  0
    5.0276   -8.5227   17.5352 C   0  0  0  0  0  0  0  0  0  0  0  0
    9.8187   -2.0895   25.5800 C   0  0  0  0  0  0  0  0  0  0  0  0
    5.6473   -8.7216   15.3158 C   0  0  0  0  0  0  0  0  0  0  0  0
   10.7581   -3.1233   19.4720 N   0  0  0  0  0  0  0  0  0  0  0  0
    9.9571   -4.0573   16.8866 C   0  0  0  0  0  0  0  0  0  0  0  0
    7.6213   -6.5618   16.0087 C   0  0  0  0  0  0  0  0  0  0  0  0
   10.8583   -2.6527   20.7222 C   0  0  0  0  0  0  0  0  0  0  0  0
   10.6412   -3.5089   21.7936 C   0  0  0  0  0  0  0  0  0  0  0  0
   10.4972   -3.8968   24.1589 C   0  0  0  0  0  0  0  0  0  0  0  0
    5.9260   -8.2736   16.5517 C   0  0  0  0  0  0  0  0  0  0  0  0
    3.8816   -9.1166   17.2493 C   0  0  0  0  0  0  0  0  0  0  0  0
   10.1297   -1.6575   23.2324 C   0  0  0  0  0  0  0  0  0  0  0  0
    9.4684   -1.6929   26.7263 F   0  0  0  0  0  0  0  0  0  0  0  0
    7.7963   -7.7906   17.9837 C   0  0  0  0  0  0  0  0  0  0  0  0
   10.5884   -3.0725   16.7902 O   0  0  0  0  0  0  0  0  0  0  0  0
   10.4323   -5.3494   20.3516 C   0  0  0  0  0  0  0  0  0  0  0  0
    7.1156   -7.5454   16.8218 C   0  0  0  0  0  0  0  0  0  0  0  0
   10.3885   -4.4388   19.2773 C   0  0  0  0  0  0  0  0  0  0  0  0
    4.5160   -9.3822   15.0841 C   0  0  0  0  0  0  0  0  0  0  0  0
  1  3  4  0
  1 24  4  0
  2  6  4  0
  2 15  4  0
  3  5  4  0
  3  6  4  0
  4 21  4  0
  4 29  4  0
  5 15  4  0
  5 28  1  0
  6 16  4  0
  7 18  4  0
  7 26  4  0
  8 18  1  0
  8 19  4  0
  8 22  4  0
  9 12  4  0
  9 19  4  0
 10 12  4  0
 10 22  4  0
 11 20  4  0
 11 21  4  0
 12 23  1  0
 13 20  4  0
 13 29  4  0
 14 17  4  0
 14 28  4  0
 15 25  2  0
 16 27  4  0
 17 18  4  0
 20 27  1  0
 24 27  4  0
 26 28  4  0
M  END
$$$$

 Created by Python create_sdf_string function

 29 33  0  0  0  0  0  0  0  0999 V2000
    8.8270   -7.0288   18.4251 C   0  0  0  0  0  0  0  0  0  0  0  0
    9.1576   -4.6236   15.8860 O   0  0  0  0  0  0  0  0  0  0  0  0
    9.1509   -5.9108   17.7177 C   0  0  0  0  0  0  0  0  0  0  0  0
    3.6373   -9.5349   16.0582 N   0  0  0  0  0  0  0  0  0  0  0  0
    9.9275   -4.8001   18.0438 N   0  0  0  0  0  0  0  0  0  0  0  0
    8.5908   -5.7425   16.4412 C   0  0  0  0  0  0  0  0  0  0  0  0
   10.5993   -4.8981   21.6068 C   0  0  0  0  0  0  0  0  0  0  0  0
   10.4258   -3.0106   23.0998 C   0  0  0  0  0  0  0  0  0  0  0  0
   10.2148   -3.4364   25.4200 C   0  0  0  0  0  0  0  0  0  0  0  0
    9.7853   -1.1840   24.4927 C   0  0  0  0  0  0  0  0  0  0  0  0
    5.0276   -8.5227   17.5352 C   0  0  0  0  0  0  0  0  0  0  0  0
    9.8187   -2.0895   25.5800 C   0  0  0  0  0  0  0  0  0  0  0  0
    5.6473   -8.7216   15.3158 C   0  0  0  0  0  0  0  0  0  0  0  0
   10.7581   -3.1233   19.4720 N   0  0  0  0  0  0  0  0  0  0  0  0
    9.9571   -4.0573   16.8866 C   0  0  0  0  0  0  0  0  0  0  0  0
    7.6213   -6.5618   16.0087 C   0  0  0  0  0  0  0  0  0  0  0  0
   10.8583   -2.6527   20.7222 C   0  0  0  0  0  0  0  0  0  0  0  0
   10.6412   -3.5089   21.7936 C   0  0  0  0  0  0  0  0  0  0  0  0
   10.4972   -3.8968   24.1589 C   0  0  0  0  0  0  0  0  0  0  0  0
    5.9260   -8.2736   16.5517 C   0  0  0  0  0  0  0  0  0  0  0  0
    3.8816   -9.1166   17.2493 C   0  0  0  0  0  0  0  0  0  0  0  0
   10.1297   -1.6575   23.2324 C   0  0  0  0  0  0  0  0  0  0  0  0
    9.4684   -1.6929   26.7263 F   0  0  0  0  0  0  0  0  0  0  0  0
    7.7963   -7.7906   17.9837 C   0  0  0  0  0  0  0  0  0  0  0  0
   10.5884   -3.0725   16.7902 O   0  0  0  0  0  0  0  0  0  0  0  0
   10.4323   -5.3494   20.3516 C   0  0  0  0  0  0  0  0  0  0  0  0
    7.1156   -7.5454   16.8218 C   0  0  0  0  0  0  0  0  0  0  0  0
   10.3885   -4.4388   19.2773 C   0  0  0  0  0  0  0  0  0  0  0  0
    4.5160   -9.3822   15.0841 C   0  0  0  0  0  0  0  0  0  0  0  0
  1  3  4  0
  1 24  4  0
  2  6  4  0
  2 15  4  0
  3  5  4  0
  3  6  4  0
  4 21  4  0
  4 29  4  0
  5 15  4  0
  5 28  1  0
  6 16  4  0
  7 18  4  0
  7 26  4  0
  8 18  1  0
  8 19  4  0
  8 22  4  0
  9 12  4  0
  9 19  4  0
 10 12  4  0
 10 22  4  0
 11 20  4  0
 11 21  4  0
 12 23  1  0
 13 20  4  0
 13 29  4  0
 14 17  4  0
 14 28  4  0
 15 25  2  0
 16 27  4  0
 17 18  4  0
 20 27  1  0
 24 27  4  0
 26 28  4  0
M  END
$$$$

 Created by Python create_sdf_string function

 29 33  0  0  0  0  0  0  0  0999 V2000
    8.8270   -7.0288   18.4251 C   0  0  0  0  0  0  0  0  0  0  0  0
    9.1576   -4.6236   15.8860 O   0  0  0  0  0  0  0  0  0  0  0  0
    9.1509   -5.9108   17.7177 C   0  0  0  0  0  0  0  0  0  0  0  0
    3.6373   -9.5349   16.0582 N   0  0  0  0  0  0  0  0  0  0  0  0
    9.9275   -4.8001   18.0438 N   0  0  0  0  0  0  0  0  0  0  0  0
    8.5908   -5.7425   16.4412 C   0  0  0  0  0  0  0  0  0  0  0  0
   10.5993   -4.8981   21.6068 C   0  0  0  0  0  0  0  0  0  0  0  0
   10.4258   -3.0106   23.0998 C   0  0  0  0  0  0  0  0  0  0  0  0
   10.2148   -3.4364   25.4200 C   0  0  0  0  0  0  0  0  0  0  0  0
    9.7853   -1.1840   24.4927 C   0  0  0  0  0  0  0  0  0  0  0  0
    5.0276   -8.5227   17.5352 C   0  0  0  0  0  0  0  0  0  0  0  0
    9.8187   -2.0895   25.5800 C   0  0  0  0  0  0  0  0  0  0  0  0
    5.6473   -8.7216   15.3158 C   0  0  0  0  0  0  0  0  0  0  0  0
   10.7581   -3.1233   19.4720 N   0  0  0  0  0  0  0  0  0  0  0  0
    9.9571   -4.0573   16.8866 C   0  0  0  0  0  0  0  0  0  0  0  0
    7.6213   -6.5618   16.0087 C   0  0  0  0  0  0  0  0  0  0  0  0
   10.8583   -2.6527   20.7222 C   0  0  0  0  0  0  0  0  0  0  0  0
   10.6412   -3.5089   21.7936 C   0  0  0  0  0  0  0  0  0  0  0  0
   10.4972   -3.8968   24.1589 C   0  0  0  0  0  0  0  0  0  0  0  0
    5.9260   -8.2736   16.5517 C   0  0  0  0  0  0  0  0  0  0  0  0
    3.8816   -9.1166   17.2493 C   0  0  0  0  0  0  0  0  0  0  0  0
   10.1297   -1.6575   23.2324 C   0  0  0  0  0  0  0  0  0  0  0  0
    9.4684   -1.6929   26.7263 F   0  0  0  0  0  0  0  0  0  0  0  0
    7.7963   -7.7906   17.9837 C   0  0  0  0  0  0  0  0  0  0  0  0
   10.5884   -3.0725   16.7902 O   0  0  0  0  0  0  0  0  0  0  0  0
   10.4323   -5.3494   20.3516 C   0  0  0  0  0  0  0  0  0  0  0  0
    7.1156   -7.5454   16.8218 C   0  0  0  0  0  0  0  0  0  0  0  0
   10.3885   -4.4388   19.2773 C   0  0  0  0  0  0  0  0  0  0  0  0
    4.5160   -9.3822   15.0841 C   0  0  0  0  0  0  0  0  0  0  0  0
  1  3  4  0
  1 24  4  0
  2  6  4  0
  2 15  4  0
  3  5  4  0
  3  6  4  0
  4 21  4  0
  4 29  4  0
  5 15  4  0
  5 28  1  0
  6 16  4  0
  7 18  4  0
  7 26  4  0
  8 18  1  0
  8 19  4  0
  8 22  4  0
  9 12  4  0
  9 19  4  0
 10 12  4  0
 10 22  4  0
 11 20  4  0
 11 21  4  0
 12 23  1  0
 13 20  4  0
 13 29  4  0
 14 17  4  0
 14 28  4  0
 15 25  2  0
 16 27  4  0
 17 18  4  0
 20 27  1  0
 24 27  4  0
 26 28  4  0
M  END
$$$$

 Created by Python create_sdf_string function

 29 33  0  0  0  0  0  0  0  0999 V2000
    8.8270   -7.0288   18.4251 C   0  0  0  0  0  0  0  0  0  0  0  0
    9.1576   -4.6236   15.8860 O   0  0  0  0  0  0  0  0  0  0  0  0
    9.1509   -5.9108   17.7177 C   0  0  0  0  0  0  0  0  0  0  0  0
    3.6373   -9.5349   16.0582 N   0  0  0  0  0  0  0  0  0  0  0  0
    9.9275   -4.8001   18.0438 N   0  0  0  0  0  0  0  0  0  0  0  0
    8.5908   -5.7425   16.4412 C   0  0  0  0  0  0  0  0  0  0  0  0
   10.5993   -4.8981   21.6068 C   0  0  0  0  0  0  0  0  0  0  0  0
   10.4258   -3.0106   23.0998 C   0  0  0  0  0  0  0  0  0  0  0  0
   10.2148   -3.4364   25.4200 C   0  0  0  0  0  0  0  0  0  0  0  0
    9.7853   -1.1840   24.4927 C   0  0  0  0  0  0  0  0  0  0  0  0
    5.0276   -8.5227   17.5352 C   0  0  0  0  0  0  0  0  0  0  0  0
    9.8187   -2.0895   25.5800 C   0  0  0  0  0  0  0  0  0  0  0  0
    5.6473   -8.7216   15.3158 C   0  0  0  0  0  0  0  0  0  0  0  0
   10.7581   -3.1233   19.4720 N   0  0  0  0  0  0  0  0  0  0  0  0
    9.9571   -4.0573   16.8866 C   0  0  0  0  0  0  0  0  0  0  0  0
    7.6213   -6.5618   16.0087 C   0  0  0  0  0  0  0  0  0  0  0  0
   10.8583   -2.6527   20.7222 C   0  0  0  0  0  0  0  0  0  0  0  0
   10.6412   -3.5089   21.7936 C   0  0  0  0  0  0  0  0  0  0  0  0
   10.4972   -3.8968   24.1589 C   0  0  0  0  0  0  0  0  0  0  0  0
    5.9260   -8.2736   16.5517 C   0  0  0  0  0  0  0  0  0  0  0  0
    3.8816   -9.1166   17.2493 C   0  0  0  0  0  0  0  0  0  0  0  0
   10.1297   -1.6575   23.2324 C   0  0  0  0  0  0  0  0  0  0  0  0
    9.4684   -1.6929   26.7263 F   0  0  0  0  0  0  0  0  0  0  0  0
    7.7963   -7.7906   17.9837 C   0  0  0  0  0  0  0  0  0  0  0  0
   10.5884   -3.0725   16.7902 O   0  0  0  0  0  0  0  0  0  0  0  0
   10.4323   -5.3494   20.3516 C   0  0  0  0  0  0  0  0  0  0  0  0
    7.1156   -7.5454   16.8218 C   0  0  0  0  0  0  0  0  0  0  0  0
   10.3885   -4.4388   19.2773 C   0  0  0  0  0  0  0  0  0  0  0  0
    4.5160   -9.3822   15.0841 C   0  0  0  0  0  0  0  0  0  0  0  0
  1  3  4  0
  1 24  4  0
  2  6  4  0
  2 15  4  0
  3  5  4  0
  3  6  4  0
  4 21  4  0
  4 29  4  0
  5 15  4  0
  5 28  1  0
  6 16  4  0
  7 18  4  0
  7 26  4  0
  8 18  1  0
  8 19  4  0
  8 22  4  0
  9 12  4  0
  9 19  4  0
 10 12  4  0
 10 22  4  0
 11 20  4  0
 11 21  4  0
 12 23  1  0
 13 20  4  0
 13 29  4  0
 14 17  4  0
 14 28  4  0
 15 25  2  0
 16 27  4  0
 17 18  4  0
 20 27  1  0
 24 27  4  0
 26 28  4  0
M  END
$$$$

 Created by Python create_sdf_string function

 29 33  0  0  0  0  0  0  0  0999 V2000
    8.8270   -7.0288   18.4251 C   0  0  0  0  0  0  0  0  0  0  0  0
    9.1576   -4.6236   15.8860 O   0  0  0  0  0  0  0  0  0  0  0  0
    9.1509   -5.9108   17.7177 C   0  0  0  0  0  0  0  0  0  0  0  0
    3.6373   -9.5349   16.0582 N   0  0  0  0  0  0  0  0  0  0  0  0
    9.9275   -4.8001   18.0438 N   0  0  0  0  0  0  0  0  0  0  0  0
    8.5908   -5.7425   16.4412 C   0  0  0  0  0  0  0  0  0  0  0  0
   10.5993   -4.8981   21.6068 C   0  0  0  0  0  0  0  0  0  0  0  0
   10.4258   -3.0106   23.0998 C   0  0  0  0  0  0  0  0  0  0  0  0
   10.2148   -3.4364   25.4200 C   0  0  0  0  0  0  0  0  0  0  0  0
    9.7853   -1.1840   24.4927 C   0  0  0  0  0  0  0  0  0  0  0  0
    5.0276   -8.5227   17.5352 C   0  0  0  0  0  0  0  0  0  0  0  0
    9.8187   -2.0895   25.5800 C   0  0  0  0  0  0  0  0  0  0  0  0
    5.6473   -8.7216   15.3158 C   0  0  0  0  0  0  0  0  0  0  0  0
   10.7581   -3.1233   19.4720 N   0  0  0  0  0  0  0  0  0  0  0  0
    9.9571   -4.0573   16.8866 C   0  0  0  0  0  0  0  0  0  0  0  0
    7.6213   -6.5618   16.0087 C   0  0  0  0  0  0  0  0  0  0  0  0
   10.8583   -2.6527   20.7222 C   0  0  0  0  0  0  0  0  0  0  0  0
   10.6412   -3.5089   21.7936 C   0  0  0  0  0  0  0  0  0  0  0  0
   10.4972   -3.8968   24.1589 C   0  0  0  0  0  0  0  0  0  0  0  0
    5.9260   -8.2736   16.5517 C   0  0  0  0  0  0  0  0  0  0  0  0
    3.8816   -9.1166   17.2493 C   0  0  0  0  0  0  0  0  0  0  0  0
   10.1297   -1.6575   23.2324 C   0  0  0  0  0  0  0  0  0  0  0  0
    9.4684   -1.6929   26.7263 F   0  0  0  0  0  0  0  0  0  0  0  0
    7.7963   -7.7906   17.9837 C   0  0  0  0  0  0  0  0  0  0  0  0
   10.5884   -3.0725   16.7902 O   0  0  0  0  0  0  0  0  0  0  0  0
   10.4323   -5.3494   20.3516 C   0  0  0  0  0  0  0  0  0  0  0  0
    7.1156   -7.5454   16.8218 C   0  0  0  0  0  0  0  0  0  0  0  0
   10.3885   -4.4388   19.2773 C   0  0  0  0  0  0  0  0  0  0  0  0
    4.5160   -9.3822   15.0841 C   0  0  0  0  0  0  0  0  0  0  0  0
  1  3  4  0
  1 24  4  0
  2  6  4  0
  2 15  4  0
  3  5  4  0
  3  6  4  0
  4 21  4  0
  4 29  4  0
  5 15  4  0
  5 28  1  0
  6 16  4  0
  7 18  4  0
  7 26  4  0
  8 18  1  0
  8 19  4  0
  8 22  4  0
  9 12  4  0
  9 19  4  0
 10 12  4  0
 10 22  4  0
 11 20  4  0
 11 21  4  0
 12 23  1  0
 13 20  4  0
 13 29  4  0
 14 17  4  0
 14 28  4  0
 15 25  2  0
 16 27  4  0
 17 18  4  0
 20 27  1  0
 24 27  4  0
 26 28  4  0
M  END
$$$$

 Created by Python create_sdf_string function

 29 33  0  0  0  0  0  0  0  0999 V2000
    8.8270   -7.0288   18.4251 C   0  0  0  0  0  0  0  0  0  0  0  0
    9.1576   -4.6236   15.8860 O   0  0  0  0  0  0  0  0  0  0  0  0
    9.1509   -5.9108   17.7177 C   0  0  0  0  0  0  0  0  0  0  0  0
    3.6373   -9.5349   16.0582 N   0  0  0  0  0  0  0  0  0  0  0  0
    9.9275   -4.8001   18.0438 N   0  0  0  0  0  0  0  0  0  0  0  0
    8.5908   -5.7425   16.4412 C   0  0  0  0  0  0  0  0  0  0  0  0
   10.5993   -4.8981   21.6068 C   0  0  0  0  0  0  0  0  0  0  0  0
   10.4258   -3.0106   23.0998 C   0  0  0  0  0  0  0  0  0  0  0  0
   10.2148   -3.4364   25.4200 C   0  0  0  0  0  0  0  0  0  0  0  0
    9.7853   -1.1840   24.4927 C   0  0  0  0  0  0  0  0  0  0  0  0
    5.0276   -8.5227   17.5352 C   0  0  0  0  0  0  0  0  0  0  0  0
    9.8187   -2.0895   25.5800 C   0  0  0  0  0  0  0  0  0  0  0  0
    5.6473   -8.7216   15.3158 C   0  0  0  0  0  0  0  0  0  0  0  0
   10.7581   -3.1233   19.4720 N   0  0  0  0  0  0  0  0  0  0  0  0
    9.9571   -4.0573   16.8866 C   0  0  0  0  0  0  0  0  0  0  0  0
    7.6213   -6.5618   16.0087 C   0  0  0  0  0  0  0  0  0  0  0  0
   10.8583   -2.6527   20.7222 C   0  0  0  0  0  0  0  0  0  0  0  0
   10.6412   -3.5089   21.7936 C   0  0  0  0  0  0  0  0  0  0  0  0
   10.4972   -3.8968   24.1589 C   0  0  0  0  0  0  0  0  0  0  0  0
    5.9260   -8.2736   16.5517 C   0  0  0  0  0  0  0  0  0  0  0  0
    3.8816   -9.1166   17.2493 C   0  0  0  0  0  0  0  0  0  0  0  0
   10.1297   -1.6575   23.2324 C   0  0  0  0  0  0  0  0  0  0  0  0
    9.4684   -1.6929   26.7263 F   0  0  0  0  0  0  0  0  0  0  0  0
    7.7963   -7.7906   17.9837 C   0  0  0  0  0  0  0  0  0  0  0  0
   10.5884   -3.0725   16.7902 O   0  0  0  0  0  0  0  0  0  0  0  0
   10.4323   -5.3494   20.3516 C   0  0  0  0  0  0  0  0  0  0  0  0
    7.1156   -7.5454   16.8218 C   0  0  0  0  0  0  0  0  0  0  0  0
   10.3885   -4.4388   19.2773 C   0  0  0  0  0  0  0  0  0  0  0  0
    4.5160   -9.3822   15.0841 C   0  0  0  0  0  0  0  0  0  0  0  0
  1  3  4  0
  1 24  4  0
  2  6  4  0
  2 15  4  0
  3  5  4  0
  3  6  4  0
  4 21  4  0
  4 29  4  0
  5 15  4  0
  5 28  1  0
  6 16  4  0
  7 18  4  0
  7 26  4  0
  8 18  1  0
  8 19  4  0
  8 22  4  0
  9 12  4  0
  9 19  4  0
 10 12  4  0
 10 22  4  0
 11 20  4  0
 11 21  4  0
 12 23  1  0
 13 20  4  0
 13 29  4  0
 14 17  4  0
 14 28  4  0
 15 25  2  0
 16 27  4  0
 17 18  4  0
 20 27  1  0
 24 27  4  0
 26 28  4  0
M  END
$$$$

 Created by Python create_sdf_string function

 29 33  0  0  0  0  0  0  0  0999 V2000
    8.8270   -7.0288   18.4251 C   0  0  0  0  0  0  0  0  0  0  0  0
    9.1576   -4.6236   15.8860 O   0  0  0  0  0  0  0  0  0  0  0  0
    9.1509   -5.9108   17.7177 C   0  0  0  0  0  0  0  0  0  0  0  0
    3.6373   -9.5349   16.0582 N   0  0  0  0  0  0  0  0  0  0  0  0
    9.9275   -4.8001   18.0438 N   0  0  0  0  0  0  0  0  0  0  0  0
    8.5908   -5.7425   16.4412 C   0  0  0  0  0  0  0  0  0  0  0  0
   10.5993   -4.8981   21.6068 C   0  0  0  0  0  0  0  0  0  0  0  0
   10.4258   -3.0106   23.0998 C   0  0  0  0  0  0  0  0  0  0  0  0
   10.2148   -3.4364   25.4200 C   0  0  0  0  0  0  0  0  0  0  0  0
    9.7853   -1.1840   24.4927 C   0  0  0  0  0  0  0  0  0  0  0  0
    5.0276   -8.5227   17.5352 C   0  0  0  0  0  0  0  0  0  0  0  0
    9.8187   -2.0895   25.5800 C   0  0  0  0  0  0  0  0  0  0  0  0
    5.6473   -8.7216   15.3158 C   0  0  0  0  0  0  0  0  0  0  0  0
   10.7581   -3.1233   19.4720 N   0  0  0  0  0  0  0  0  0  0  0  0
    9.9571   -4.0573   16.8866 C   0  0  0  0  0  0  0  0  0  0  0  0
    7.6213   -6.5618   16.0087 C   0  0  0  0  0  0  0  0  0  0  0  0
   10.8583   -2.6527   20.7222 C   0  0  0  0  0  0  0  0  0  0  0  0
   10.6412   -3.5089   21.7936 C   0  0  0  0  0  0  0  0  0  0  0  0
   10.4972   -3.8968   24.1589 C   0  0  0  0  0  0  0  0  0  0  0  0
    5.9260   -8.2736   16.5517 C   0  0  0  0  0  0  0  0  0  0  0  0
    3.8816   -9.1166   17.2493 C   0  0  0  0  0  0  0  0  0  0  0  0
   10.1297   -1.6575   23.2324 C   0  0  0  0  0  0  0  0  0  0  0  0
    9.4684   -1.6929   26.7263 F   0  0  0  0  0  0  0  0  0  0  0  0
    7.7963   -7.7906   17.9837 C   0  0  0  0  0  0  0  0  0  0  0  0
   10.5884   -3.0725   16.7902 O   0  0  0  0  0  0  0  0  0  0  0  0
   10.4323   -5.3494   20.3516 C   0  0  0  0  0  0  0  0  0  0  0  0
    7.1156   -7.5454   16.8218 C   0  0  0  0  0  0  0  0  0  0  0  0
   10.3885   -4.4388   19.2773 C   0  0  0  0  0  0  0  0  0  0  0  0
    4.5160   -9.3822   15.0841 C   0  0  0  0  0  0  0  0  0  0  0  0
  1  3  4  0
  1 24  4  0
  2  6  4  0
  2 15  4  0
  3  5  4  0
  3  6  4  0
  4 21  4  0
  4 29  4  0
  5 15  4  0
  5 28  1  0
  6 16  4  0
  7 18  4  0
  7 26  4  0
  8 18  1  0
  8 19  4  0
  8 22  4  0
  9 12  4  0
  9 19  4  0
 10 12  4  0
 10 22  4  0
 11 20  4  0
 11 21  4  0
 12 23  1  0
 13 20  4  0
 13 29  4  0
 14 17  4  0
 14 28  4  0
 15 25  2  0
 16 27  4  0
 17 18  4  0
 20 27  1  0
 24 27  4  0
 26 28  4  0
M  END
$$$$

 Created by Python create_sdf_string function

 29 33  0  0  0  0  0  0  0  0999 V2000
    8.8270   -7.0288   18.4251 C   0  0  0  0  0  0  0  0  0  0  0  0
    9.1576   -4.6236   15.8860 O   0  0  0  0  0  0  0  0  0  0  0  0
    9.1509   -5.9108   17.7177 C   0  0  0  0  0  0  0  0  0  0  0  0
    3.6373   -9.5349   16.0582 N   0  0  0  0  0  0  0  0  0  0  0  0
    9.9275   -4.8001   18.0438 N   0  0  0  0  0  0  0  0  0  0  0  0
    8.5908   -5.7425   16.4412 C   0  0  0  0  0  0  0  0  0  0  0  0
   10.5993   -4.8981   21.6068 C   0  0  0  0  0  0  0  0  0  0  0  0
   10.4258   -3.0106   23.0998 C   0  0  0  0  0  0  0  0  0  0  0  0
   10.2148   -3.4364   25.4200 C   0  0  0  0  0  0  0  0  0  0  0  0
    9.7853   -1.1840   24.4927 C   0  0  0  0  0  0  0  0  0  0  0  0
    5.0276   -8.5227   17.5352 C   0  0  0  0  0  0  0  0  0  0  0  0
    9.8187   -2.0895   25.5800 C   0  0  0  0  0  0  0  0  0  0  0  0
    5.6473   -8.7216   15.3158 C   0  0  0  0  0  0  0  0  0  0  0  0
   10.7581   -3.1233   19.4720 N   0  0  0  0  0  0  0  0  0  0  0  0
    9.9571   -4.0573   16.8866 C   0  0  0  0  0  0  0  0  0  0  0  0
    7.6213   -6.5618   16.0087 C   0  0  0  0  0  0  0  0  0  0  0  0
   10.8583   -2.6527   20.7222 C   0  0  0  0  0  0  0  0  0  0  0  0
   10.6412   -3.5089   21.7936 C   0  0  0  0  0  0  0  0  0  0  0  0
   10.4972   -3.8968   24.1589 C   0  0  0  0  0  0  0  0  0  0  0  0
    5.9260   -8.2736   16.5517 C   0  0  0  0  0  0  0  0  0  0  0  0
    3.8816   -9.1166   17.2493 C   0  0  0  0  0  0  0  0  0  0  0  0
   10.1297   -1.6575   23.2324 C   0  0  0  0  0  0  0  0  0  0  0  0
    9.4684   -1.6929   26.7263 F   0  0  0  0  0  0  0  0  0  0  0  0
    7.7963   -7.7906   17.9837 C   0  0  0  0  0  0  0  0  0  0  0  0
   10.5884   -3.0725   16.7902 O   0  0  0  0  0  0  0  0  0  0  0  0
   10.4323   -5.3494   20.3516 C   0  0  0  0  0  0  0  0  0  0  0  0
    7.1156   -7.5454   16.8218 C   0  0  0  0  0  0  0  0  0  0  0  0
   10.3885   -4.4388   19.2773 C   0  0  0  0  0  0  0  0  0  0  0  0
    4.5160   -9.3822   15.0841 C   0  0  0  0  0  0  0  0  0  0  0  0
  1  3  4  0
  1 24  4  0
  2  6  4  0
  2 15  4  0
  3  5  4  0
  3  6  4  0
  4 21  4  0
  4 29  4  0
  5 15  4  0
  5 28  1  0
  6 16  4  0
  7 18  4  0
  7 26  4  0
  8 18  1  0
  8 19  4  0
  8 22  4  0
  9 12  4  0
  9 19  4  0
 10 12  4  0
 10 22  4  0
 11 20  4  0
 11 21  4  0
 12 23  1  0
 13 20  4  0
 13 29  4  0
 14 17  4  0
 14 28  4  0
 15 25  2  0
 16 27  4  0
 17 18  4  0
 20 27  1  0
 24 27  4  0
 26 28  4  0
M  END
$$$$

 Created by Python create_sdf_string function

 29 33  0  0  0  0  0  0  0  0999 V2000
    8.8270   -7.0288   18.4251 C   0  0  0  0  0  0  0  0  0  0  0  0
    9.1576   -4.6236   15.8860 O   0  0  0  0  0  0  0  0  0  0  0  0
    9.1509   -5.9108   17.7177 C   0  0  0  0  0  0  0  0  0  0  0  0
    3.6373   -9.5349   16.0582 N   0  0  0  0  0  0  0  0  0  0  0  0
    9.9275   -4.8001   18.0438 N   0  0  0  0  0  0  0  0  0  0  0  0
    8.5908   -5.7425   16.4412 C   0  0  0  0  0  0  0  0  0  0  0  0
   10.5993   -4.8981   21.6068 C   0  0  0  0  0  0  0  0  0  0  0  0
   10.4258   -3.0106   23.0998 C   0  0  0  0  0  0  0  0  0  0  0  0
   10.2148   -3.4364   25.4200 C   0  0  0  0  0  0  0  0  0  0  0  0
    9.7853   -1.1840   24.4927 C   0  0  0  0  0  0  0  0  0  0  0  0
    5.0276   -8.5227   17.5352 C   0  0  0  0  0  0  0  0  0  0  0  0
    9.8187   -2.0895   25.5800 C   0  0  0  0  0  0  0  0  0  0  0  0
    5.6473   -8.7216   15.3158 C   0  0  0  0  0  0  0  0  0  0  0  0
   10.7581   -3.1233   19.4720 N   0  0  0  0  0  0  0  0  0  0  0  0
    9.9571   -4.0573   16.8866 C   0  0  0  0  0  0  0  0  0  0  0  0
    7.6213   -6.5618   16.0087 C   0  0  0  0  0  0  0  0  0  0  0  0
   10.8583   -2.6527   20.7222 C   0  0  0  0  0  0  0  0  0  0  0  0
   10.6412   -3.5089   21.7936 C   0  0  0  0  0  0  0  0  0  0  0  0
   10.4972   -3.8968   24.1589 C   0  0  0  0  0  0  0  0  0  0  0  0
    5.9260   -8.2736   16.5517 C   0  0  0  0  0  0  0  0  0  0  0  0
    3.8816   -9.1166   17.2493 C   0  0  0  0  0  0  0  0  0  0  0  0
   10.1297   -1.6575   23.2324 C   0  0  0  0  0  0  0  0  0  0  0  0
    9.4684   -1.6929   26.7263 F   0  0  0  0  0  0  0  0  0  0  0  0
    7.7963   -7.7906   17.9837 C   0  0  0  0  0  0  0  0  0  0  0  0
   10.5884   -3.0725   16.7902 O   0  0  0  0  0  0  0  0  0  0  0  0
   10.4323   -5.3494   20.3516 C   0  0  0  0  0  0  0  0  0  0  0  0
    7.1156   -7.5454   16.8218 C   0  0  0  0  0  0  0  0  0  0  0  0
   10.3885   -4.4388   19.2773 C   0  0  0  0  0  0  0  0  0  0  0  0
    4.5160   -9.3822   15.0841 C   0  0  0  0  0  0  0  0  0  0  0  0
  1  3  4  0
  1 24  4  0
  2  6  4  0
  2 15  4  0
  3  5  4  0
  3  6  4  0
  4 21  4  0
  4 29  4  0
  5 15  4  0
  5 28  1  0
  6 16  4  0
  7 18  4  0
  7 26  4  0
  8 18  1  0
  8 19  4  0
  8 22  4  0
  9 12  4  0
  9 19  4  0
 10 12  4  0
 10 22  4  0
 11 20  4  0
 11 21  4  0
 12 23  1  0
 13 20  4  0
 13 29  4  0
 14 17  4  0
 14 28  4  0
 15 25  2  0
 16 27  4  0
 17 18  4  0
 20 27  1  0
 24 27  4  0
 26 28  4  0
M  END
$$$$

 Created by Python create_sdf_string function

 29 33  0  0  0  0  0  0  0  0999 V2000
    8.8270   -7.0288   18.4251 C   0  0  0  0  0  0  0  0  0  0  0  0
    9.1576   -4.6236   15.8860 O   0  0  0  0  0  0  0  0  0  0  0  0
    9.1509   -5.9108   17.7177 C   0  0  0  0  0  0  0  0  0  0  0  0
    3.6373   -9.5349   16.0582 N   0  0  0  0  0  0  0  0  0  0  0  0
    9.9275   -4.8001   18.0438 N   0  0  0  0  0  0  0  0  0  0  0  0
    8.5908   -5.7425   16.4412 C   0  0  0  0  0  0  0  0  0  0  0  0
   10.5993   -4.8981   21.6068 C   0  0  0  0  0  0  0  0  0  0  0  0
   10.4258   -3.0106   23.0998 C   0  0  0  0  0  0  0  0  0  0  0  0
   10.2148   -3.4364   25.4200 C   0  0  0  0  0  0  0  0  0  0  0  0
    9.7853   -1.1840   24.4927 C   0  0  0  0  0  0  0  0  0  0  0  0
    5.0276   -8.5227   17.5352 C   0  0  0  0  0  0  0  0  0  0  0  0
    9.8187   -2.0895   25.5800 C   0  0  0  0  0  0  0  0  0  0  0  0
    5.6473   -8.7216   15.3158 C   0  0  0  0  0  0  0  0  0  0  0  0
   10.7581   -3.1233   19.4720 N   0  0  0  0  0  0  0  0  0  0  0  0
    9.9571   -4.0573   16.8866 C   0  0  0  0  0  0  0  0  0  0  0  0
    7.6213   -6.5618   16.0087 C   0  0  0  0  0  0  0  0  0  0  0  0
   10.8583   -2.6527   20.7222 C   0  0  0  0  0  0  0  0  0  0  0  0
   10.6412   -3.5089   21.7936 C   0  0  0  0  0  0  0  0  0  0  0  0
   10.4972   -3.8968   24.1589 C   0  0  0  0  0  0  0  0  0  0  0  0
    5.9260   -8.2736   16.5517 C   0  0  0  0  0  0  0  0  0  0  0  0
    3.8816   -9.1166   17.2493 C   0  0  0  0  0  0  0  0  0  0  0  0
   10.1297   -1.6575   23.2324 C   0  0  0  0  0  0  0  0  0  0  0  0
    9.4684   -1.6929   26.7263 F   0  0  0  0  0  0  0  0  0  0  0  0
    7.7963   -7.7906   17.9837 C   0  0  0  0  0  0  0  0  0  0  0  0
   10.5884   -3.0725   16.7902 O   0  0  0  0  0  0  0  0  0  0  0  0
   10.4323   -5.3494   20.3516 C   0  0  0  0  0  0  0  0  0  0  0  0
    7.1156   -7.5454   16.8218 C   0  0  0  0  0  0  0  0  0  0  0  0
   10.3885   -4.4388   19.2773 C   0  0  0  0  0  0  0  0  0  0  0  0
    4.5160   -9.3822   15.0841 C   0  0  0  0  0  0  0  0  0  0  0  0
  1  3  4  0
  1 24  4  0
  2  6  4  0
  2 15  4  0
  3  5  4  0
  3  6  4  0
  4 21  4  0
  4 29  4  0
  5 15  4  0
  5 28  1  0
  6 16  4  0
  7 18  4  0
  7 26  4  0
  8 18  1  0
  8 19  4  0
  8 22  4  0
  9 12  4  0
  9 19  4  0
 10 12  4  0
 10 22  4  0
 11 20  4  0
 11 21  4  0
 12 23  1  0
 13 20  4  0
 13 29  4  0
 14 17  4  0
 14 28  4  0
 15 25  2  0
 16 27  4  0
 17 18  4  0
 20 27  1  0
 24 27  4  0
 26 28  4  0
M  END
$$$$

 Created by Python create_sdf_string function

 29 33  0  0  0  0  0  0  0  0999 V2000
    8.8270   -7.0288   18.4251 C   0  0  0  0  0  0  0  0  0  0  0  0
    9.1576   -4.6236   15.8860 O   0  0  0  0  0  0  0  0  0  0  0  0
    9.1509   -5.9108   17.7177 C   0  0  0  0  0  0  0  0  0  0  0  0
    3.6373   -9.5349   16.0582 N   0  0  0  0  0  0  0  0  0  0  0  0
    9.9275   -4.8001   18.0438 N   0  0  0  0  0  0  0  0  0  0  0  0
    8.5908   -5.7425   16.4412 C   0  0  0  0  0  0  0  0  0  0  0  0
   10.5993   -4.8981   21.6068 C   0  0  0  0  0  0  0  0  0  0  0  0
   10.4258   -3.0106   23.0998 C   0  0  0  0  0  0  0  0  0  0  0  0
   10.2148   -3.4364   25.4200 C   0  0  0  0  0  0  0  0  0  0  0  0
    9.7853   -1.1840   24.4927 C   0  0  0  0  0  0  0  0  0  0  0  0
    5.0276   -8.5227   17.5352 C   0  0  0  0  0  0  0  0  0  0  0  0
    9.8187   -2.0895   25.5800 C   0  0  0  0  0  0  0  0  0  0  0  0
    5.6473   -8.7216   15.3158 C   0  0  0  0  0  0  0  0  0  0  0  0
   10.7581   -3.1233   19.4720 N   0  0  0  0  0  0  0  0  0  0  0  0
    9.9571   -4.0573   16.8866 C   0  0  0  0  0  0  0  0  0  0  0  0
    7.6213   -6.5618   16.0087 C   0  0  0  0  0  0  0  0  0  0  0  0
   10.8583   -2.6527   20.7222 C   0  0  0  0  0  0  0  0  0  0  0  0
   10.6412   -3.5089   21.7936 C   0  0  0  0  0  0  0  0  0  0  0  0
   10.4972   -3.8968   24.1589 C   0  0  0  0  0  0  0  0  0  0  0  0
    5.9260   -8.2736   16.5517 C   0  0  0  0  0  0  0  0  0  0  0  0
    3.8816   -9.1166   17.2493 C   0  0  0  0  0  0  0  0  0  0  0  0
   10.1297   -1.6575   23.2324 C   0  0  0  0  0  0  0  0  0  0  0  0
    9.4684   -1.6929   26.7263 F   0  0  0  0  0  0  0  0  0  0  0  0
    7.7963   -7.7906   17.9837 C   0  0  0  0  0  0  0  0  0  0  0  0
   10.5884   -3.0725   16.7902 O   0  0  0  0  0  0  0  0  0  0  0  0
   10.4323   -5.3494   20.3516 C   0  0  0  0  0  0  0  0  0  0  0  0
    7.1156   -7.5454   16.8218 C   0  0  0  0  0  0  0  0  0  0  0  0
   10.3885   -4.4388   19.2773 C   0  0  0  0  0  0  0  0  0  0  0  0
    4.5160   -9.3822   15.0841 C   0  0  0  0  0  0  0  0  0  0  0  0
  1  3  4  0
  1 24  4  0
  2  6  4  0
  2 15  4  0
  3  5  4  0
  3  6  4  0
  4 21  4  0
  4 29  4  0
  5 15  4  0
  5 28  1  0
  6 16  4  0
  7 18  4  0
  7 26  4  0
  8 18  1  0
  8 19  4  0
  8 22  4  0
  9 12  4  0
  9 19  4  0
 10 12  4  0
 10 22  4  0
 11 20  4  0
 11 21  4  0
 12 23  1  0
 13 20  4  0
 13 29  4  0
 14 17  4  0
 14 28  4  0
 15 25  2  0
 16 27  4  0
 17 18  4  0
 20 27  1  0
 24 27  4  0
 26 28  4  0
M  END
$$$$

 Created by Python create_sdf_string function

 29 33  0  0  0  0  0  0  0  0999 V2000
    8.8270   -7.0288   18.4251 C   0  0  0  0  0  0  0  0  0  0  0  0
    9.1576   -4.6236   15.8860 O   0  0  0  0  0  0  0  0  0  0  0  0
    9.1509   -5.9108   17.7177 C   0  0  0  0  0  0  0  0  0  0  0  0
    3.6373   -9.5349   16.0582 N   0  0  0  0  0  0  0  0  0  0  0  0
    9.9275   -4.8001   18.0438 N   0  0  0  0  0  0  0  0  0  0  0  0
    8.5908   -5.7425   16.4412 C   0  0  0  0  0  0  0  0  0  0  0  0
   10.5993   -4.8981   21.6068 C   0  0  0  0  0  0  0  0  0  0  0  0
   10.4258   -3.0106   23.0998 C   0  0  0  0  0  0  0  0  0  0  0  0
   10.2148   -3.4364   25.4200 C   0  0  0  0  0  0  0  0  0  0  0  0
    9.7853   -1.1840   24.4927 C   0  0  0  0  0  0  0  0  0  0  0  0
    5.0276   -8.5227   17.5352 C   0  0  0  0  0  0  0  0  0  0  0  0
    9.8187   -2.0895   25.5800 C   0  0  0  0  0  0  0  0  0  0  0  0
    5.6473   -8.7216   15.3158 C   0  0  0  0  0  0  0  0  0  0  0  0
   10.7581   -3.1233   19.4720 N   0  0  0  0  0  0  0  0  0  0  0  0
    9.9571   -4.0573   16.8866 C   0  0  0  0  0  0  0  0  0  0  0  0
    7.6213   -6.5618   16.0087 C   0  0  0  0  0  0  0  0  0  0  0  0
   10.8583   -2.6527   20.7222 C   0  0  0  0  0  0  0  0  0  0  0  0
   10.6412   -3.5089   21.7936 C   0  0  0  0  0  0  0  0  0  0  0  0
   10.4972   -3.8968   24.1589 C   0  0  0  0  0  0  0  0  0  0  0  0
    5.9260   -8.2736   16.5517 C   0  0  0  0  0  0  0  0  0  0  0  0
    3.8816   -9.1166   17.2493 C   0  0  0  0  0  0  0  0  0  0  0  0
   10.1297   -1.6575   23.2324 C   0  0  0  0  0  0  0  0  0  0  0  0
    9.4684   -1.6929   26.7263 F   0  0  0  0  0  0  0  0  0  0  0  0
    7.7963   -7.7906   17.9837 C   0  0  0  0  0  0  0  0  0  0  0  0
   10.5884   -3.0725   16.7902 O   0  0  0  0  0  0  0  0  0  0  0  0
   10.4323   -5.3494   20.3516 C   0  0  0  0  0  0  0  0  0  0  0  0
    7.1156   -7.5454   16.8218 C   0  0  0  0  0  0  0  0  0  0  0  0
   10.3885   -4.4388   19.2773 C   0  0  0  0  0  0  0  0  0  0  0  0
    4.5160   -9.3822   15.0841 C   0  0  0  0  0  0  0  0  0  0  0  0
  1  3  4  0
  1 24  4  0
  2  6  4  0
  2 15  4  0
  3  5  4  0
  3  6  4  0
  4 21  4  0
  4 29  4  0
  5 15  4  0
  5 28  1  0
  6 16  4  0
  7 18  4  0
  7 26  4  0
  8 18  1  0
  8 19  4  0
  8 22  4  0
  9 12  4  0
  9 19  4  0
 10 12  4  0
 10 22  4  0
 11 20  4  0
 11 21  4  0
 12 23  1  0
 13 20  4  0
 13 29  4  0
 14 17  4  0
 14 28  4  0
 15 25  2  0
 16 27  4  0
 17 18  4  0
 20 27  1  0
 24 27  4  0
 26 28  4  0
M  END
$$$$

 Created by Python create_sdf_string function

 29 33  0  0  0  0  0  0  0  0999 V2000
    8.8270   -7.0288   18.4251 C   0  0  0  0  0  0  0  0  0  0  0  0
    9.1576   -4.6236   15.8860 O   0  0  0  0  0  0  0  0  0  0  0  0
    9.1509   -5.9108   17.7177 C   0  0  0  0  0  0  0  0  0  0  0  0
    3.6373   -9.5349   16.0582 N   0  0  0  0  0  0  0  0  0  0  0  0
    9.9275   -4.8001   18.0438 N   0  0  0  0  0  0  0  0  0  0  0  0
    8.5908   -5.7425   16.4412 C   0  0  0  0  0  0  0  0  0  0  0  0
   10.5993   -4.8981   21.6068 C   0  0  0  0  0  0  0  0  0  0  0  0
   10.4258   -3.0106   23.0998 C   0  0  0  0  0  0  0  0  0  0  0  0
   10.2148   -3.4364   25.4200 C   0  0  0  0  0  0  0  0  0  0  0  0
    9.7853   -1.1840   24.4927 C   0  0  0  0  0  0  0  0  0  0  0  0
    5.0276   -8.5227   17.5352 C   0  0  0  0  0  0  0  0  0  0  0  0
    9.8187   -2.0895   25.5800 C   0  0  0  0  0  0  0  0  0  0  0  0
    5.6473   -8.7216   15.3158 C   0  0  0  0  0  0  0  0  0  0  0  0
   10.7581   -3.1233   19.4720 N   0  0  0  0  0  0  0  0  0  0  0  0
    9.9571   -4.0573   16.8866 C   0  0  0  0  0  0  0  0  0  0  0  0
    7.6213   -6.5618   16.0087 C   0  0  0  0  0  0  0  0  0  0  0  0
   10.8583   -2.6527   20.7222 C   0  0  0  0  0  0  0  0  0  0  0  0
   10.6412   -3.5089   21.7936 C   0  0  0  0  0  0  0  0  0  0  0  0
   10.4972   -3.8968   24.1589 C   0  0  0  0  0  0  0  0  0  0  0  0
    5.9260   -8.2736   16.5517 C   0  0  0  0  0  0  0  0  0  0  0  0
    3.8816   -9.1166   17.2493 C   0  0  0  0  0  0  0  0  0  0  0  0
   10.1297   -1.6575   23.2324 C   0  0  0  0  0  0  0  0  0  0  0  0
    9.4684   -1.6929   26.7263 F   0  0  0  0  0  0  0  0  0  0  0  0
    7.7963   -7.7906   17.9837 C   0  0  0  0  0  0  0  0  0  0  0  0
   10.5884   -3.0725   16.7902 O   0  0  0  0  0  0  0  0  0  0  0  0
   10.4323   -5.3494   20.3516 C   0  0  0  0  0  0  0  0  0  0  0  0
    7.1156   -7.5454   16.8218 C   0  0  0  0  0  0  0  0  0  0  0  0
   10.3885   -4.4388   19.2773 C   0  0  0  0  0  0  0  0  0  0  0  0
    4.5160   -9.3822   15.0841 C   0  0  0  0  0  0  0  0  0  0  0  0
  1  3  4  0
  1 24  4  0
  2  6  4  0
  2 15  4  0
  3  5  4  0
  3  6  4  0
  4 21  4  0
  4 29  4  0
  5 15  4  0
  5 28  1  0
  6 16  4  0
  7 18  4  0
  7 26  4  0
  8 18  1  0
  8 19  4  0
  8 22  4  0
  9 12  4  0
  9 19  4  0
 10 12  4  0
 10 22  4  0
 11 20  4  0
 11 21  4  0
 12 23  1  0
 13 20  4  0
 13 29  4  0
 14 17  4  0
 14 28  4  0
 15 25  2  0
 16 27  4  0
 17 18  4  0
 20 27  1  0
 24 27  4  0
 26 28  4  0
M  END
$$$$

 Created by Python create_sdf_string function

 29 33  0  0  0  0  0  0  0  0999 V2000
    8.8270   -7.0288   18.4251 C   0  0  0  0  0  0  0  0  0  0  0  0
    9.1576   -4.6236   15.8860 O   0  0  0  0  0  0  0  0  0  0  0  0
    9.1509   -5.9108   17.7177 C   0  0  0  0  0  0  0  0  0  0  0  0
    3.6373   -9.5349   16.0582 N   0  0  0  0  0  0  0  0  0  0  0  0
    9.9275   -4.8001   18.0438 N   0  0  0  0  0  0  0  0  0  0  0  0
    8.5908   -5.7425   16.4412 C   0  0  0  0  0  0  0  0  0  0  0  0
   10.5993   -4.8981   21.6068 C   0  0  0  0  0  0  0  0  0  0  0  0
   10.4258   -3.0106   23.0998 C   0  0  0  0  0  0  0  0  0  0  0  0
   10.2148   -3.4364   25.4200 C   0  0  0  0  0  0  0  0  0  0  0  0
    9.7853   -1.1840   24.4927 C   0  0  0  0  0  0  0  0  0  0  0  0
    5.0276   -8.5227   17.5352 C   0  0  0  0  0  0  0  0  0  0  0  0
    9.8187   -2.0895   25.5800 C   0  0  0  0  0  0  0  0  0  0  0  0
    5.6473   -8.7216   15.3158 C   0  0  0  0  0  0  0  0  0  0  0  0
   10.7581   -3.1233   19.4720 N   0  0  0  0  0  0  0  0  0  0  0  0
    9.9571   -4.0573   16.8866 C   0  0  0  0  0  0  0  0  0  0  0  0
    7.6213   -6.5618   16.0087 C   0  0  0  0  0  0  0  0  0  0  0  0
   10.8583   -2.6527   20.7222 C   0  0  0  0  0  0  0  0  0  0  0  0
   10.6412   -3.5089   21.7936 C   0  0  0  0  0  0  0  0  0  0  0  0
   10.4972   -3.8968   24.1589 C   0  0  0  0  0  0  0  0  0  0  0  0
    5.9260   -8.2736   16.5517 C   0  0  0  0  0  0  0  0  0  0  0  0
    3.8816   -9.1166   17.2493 C   0  0  0  0  0  0  0  0  0  0  0  0
   10.1297   -1.6575   23.2324 C   0  0  0  0  0  0  0  0  0  0  0  0
    9.4684   -1.6929   26.7263 F   0  0  0  0  0  0  0  0  0  0  0  0
    7.7963   -7.7906   17.9837 C   0  0  0  0  0  0  0  0  0  0  0  0
   10.5884   -3.0725   16.7902 O   0  0  0  0  0  0  0  0  0  0  0  0
   10.4323   -5.3494   20.3516 C   0  0  0  0  0  0  0  0  0  0  0  0
    7.1156   -7.5454   16.8218 C   0  0  0  0  0  0  0  0  0  0  0  0
   10.3885   -4.4388   19.2773 C   0  0  0  0  0  0  0  0  0  0  0  0
    4.5160   -9.3822   15.0841 C   0  0  0  0  0  0  0  0  0  0  0  0
  1  3  4  0
  1 24  4  0
  2  6  4  0
  2 15  4  0
  3  5  4  0
  3  6  4  0
  4 21  4  0
  4 29  4  0
  5 15  4  0
  5 28  1  0
  6 16  4  0
  7 18  4  0
  7 26  4  0
  8 18  1  0
  8 19  4  0
  8 22  4  0
  9 12  4  0
  9 19  4  0
 10 12  4  0
 10 22  4  0
 11 20  4  0
 11 21  4  0
 12 23  1  0
 13 20  4  0
 13 29  4  0
 14 17  4  0
 14 28  4  0
 15 25  2  0
 16 27  4  0
 17 18  4  0
 20 27  1  0
 24 27  4  0
 26 28  4  0
M  END
$$$$

 Created by Python create_sdf_string function

 29 33  0  0  0  0  0  0  0  0999 V2000
    8.8270   -7.0288   18.4251 C   0  0  0  0  0  0  0  0  0  0  0  0
    9.1576   -4.6236   15.8860 O   0  0  0  0  0  0  0  0  0  0  0  0
    9.1509   -5.9108   17.7177 C   0  0  0  0  0  0  0  0  0  0  0  0
    3.6373   -9.5349   16.0582 N   0  0  0  0  0  0  0  0  0  0  0  0
    9.9275   -4.8001   18.0438 N   0  0  0  0  0  0  0  0  0  0  0  0
    8.5908   -5.7425   16.4412 C   0  0  0  0  0  0  0  0  0  0  0  0
   10.5993   -4.8981   21.6068 C   0  0  0  0  0  0  0  0  0  0  0  0
   10.4258   -3.0106   23.0998 C   0  0  0  0  0  0  0  0  0  0  0  0
   10.2148   -3.4364   25.4200 C   0  0  0  0  0  0  0  0  0  0  0  0
    9.7853   -1.1840   24.4927 C   0  0  0  0  0  0  0  0  0  0  0  0
    5.0276   -8.5227   17.5352 C   0  0  0  0  0  0  0  0  0  0  0  0
    9.8187   -2.0895   25.5800 C   0  0  0  0  0  0  0  0  0  0  0  0
    5.6473   -8.7216   15.3158 C   0  0  0  0  0  0  0  0  0  0  0  0
   10.7581   -3.1233   19.4720 N   0  0  0  0  0  0  0  0  0  0  0  0
    9.9571   -4.0573   16.8866 C   0  0  0  0  0  0  0  0  0  0  0  0
    7.6213   -6.5618   16.0087 C   0  0  0  0  0  0  0  0  0  0  0  0
   10.8583   -2.6527   20.7222 C   0  0  0  0  0  0  0  0  0  0  0  0
   10.6412   -3.5089   21.7936 C   0  0  0  0  0  0  0  0  0  0  0  0
   10.4972   -3.8968   24.1589 C   0  0  0  0  0  0  0  0  0  0  0  0
    5.9260   -8.2736   16.5517 C   0  0  0  0  0  0  0  0  0  0  0  0
    3.8816   -9.1166   17.2493 C   0  0  0  0  0  0  0  0  0  0  0  0
   10.1297   -1.6575   23.2324 C   0  0  0  0  0  0  0  0  0  0  0  0
    9.4684   -1.6929   26.7263 F   0  0  0  0  0  0  0  0  0  0  0  0
    7.7963   -7.7906   17.9837 C   0  0  0  0  0  0  0  0  0  0  0  0
   10.5884   -3.0725   16.7902 O   0  0  0  0  0  0  0  0  0  0  0  0
   10.4323   -5.3494   20.3516 C   0  0  0  0  0  0  0  0  0  0  0  0
    7.1156   -7.5454   16.8218 C   0  0  0  0  0  0  0  0  0  0  0  0
   10.3885   -4.4388   19.2773 C   0  0  0  0  0  0  0  0  0  0  0  0
    4.5160   -9.3822   15.0841 C   0  0  0  0  0  0  0  0  0  0  0  0
  1  3  4  0
  1 24  4  0
  2  6  4  0
  2 15  4  0
  3  5  4  0
  3  6  4  0
  4 21  4  0
  4 29  4  0
  5 15  4  0
  5 28  1  0
  6 16  4  0
  7 18  4  0
  7 26  4  0
  8 18  1  0
  8 19  4  0
  8 22  4  0
  9 12  4  0
  9 19  4  0
 10 12  4  0
 10 22  4  0
 11 20  4  0
 11 21  4  0
 12 23  1  0
 13 20  4  0
 13 29  4  0
 14 17  4  0
 14 28  4  0
 15 25  2  0
 16 27  4  0
 17 18  4  0
 20 27  1  0
 24 27  4  0
 26 28  4  0
M  END
$$$$

 Created by Python create_sdf_string function

 29 33  0  0  0  0  0  0  0  0999 V2000
    8.8270   -7.0288   18.4251 C   0  0  0  0  0  0  0  0  0  0  0  0
    9.1576   -4.6236   15.8860 O   0  0  0  0  0  0  0  0  0  0  0  0
    9.1509   -5.9108   17.7177 C   0  0  0  0  0  0  0  0  0  0  0  0
    3.6373   -9.5349   16.0582 N   0  0  0  0  0  0  0  0  0  0  0  0
    9.9275   -4.8001   18.0438 N   0  0  0  0  0  0  0  0  0  0  0  0
    8.5908   -5.7425   16.4412 C   0  0  0  0  0  0  0  0  0  0  0  0
   10.5993   -4.8981   21.6068 C   0  0  0  0  0  0  0  0  0  0  0  0
   10.4258   -3.0106   23.0998 C   0  0  0  0  0  0  0  0  0  0  0  0
   10.2148   -3.4364   25.4200 C   0  0  0  0  0  0  0  0  0  0  0  0
    9.7853   -1.1840   24.4927 C   0  0  0  0  0  0  0  0  0  0  0  0
    5.0276   -8.5227   17.5352 C   0  0  0  0  0  0  0  0  0  0  0  0
    9.8187   -2.0895   25.5800 C   0  0  0  0  0  0  0  0  0  0  0  0
    5.6473   -8.7216   15.3158 C   0  0  0  0  0  0  0  0  0  0  0  0
   10.7581   -3.1233   19.4720 N   0  0  0  0  0  0  0  0  0  0  0  0
    9.9571   -4.0573   16.8866 C   0  0  0  0  0  0  0  0  0  0  0  0
    7.6213   -6.5618   16.0087 C   0  0  0  0  0  0  0  0  0  0  0  0
   10.8583   -2.6527   20.7222 C   0  0  0  0  0  0  0  0  0  0  0  0
   10.6412   -3.5089   21.7936 C   0  0  0  0  0  0  0  0  0  0  0  0
   10.4972   -3.8968   24.1589 C   0  0  0  0  0  0  0  0  0  0  0  0
    5.9260   -8.2736   16.5517 C   0  0  0  0  0  0  0  0  0  0  0  0
    3.8816   -9.1166   17.2493 C   0  0  0  0  0  0  0  0  0  0  0  0
   10.1297   -1.6575   23.2324 C   0  0  0  0  0  0  0  0  0  0  0  0
    9.4684   -1.6929   26.7263 F   0  0  0  0  0  0  0  0  0  0  0  0
    7.7963   -7.7906   17.9837 C   0  0  0  0  0  0  0  0  0  0  0  0
   10.5884   -3.0725   16.7902 O   0  0  0  0  0  0  0  0  0  0  0  0
   10.4323   -5.3494   20.3516 C   0  0  0  0  0  0  0  0  0  0  0  0
    7.1156   -7.5454   16.8218 C   0  0  0  0  0  0  0  0  0  0  0  0
   10.3885   -4.4388   19.2773 C   0  0  0  0  0  0  0  0  0  0  0  0
    4.5160   -9.3822   15.0841 C   0  0  0  0  0  0  0  0  0  0  0  0
  1  3  4  0
  1 24  4  0
  2  6  4  0
  2 15  4  0
  3  5  4  0
  3  6  4  0
  4 21  4  0
  4 29  4  0
  5 15  4  0
  5 28  1  0
  6 16  4  0
  7 18  4  0
  7 26  4  0
  8 18  1  0
  8 19  4  0
  8 22  4  0
  9 12  4  0
  9 19  4  0
 10 12  4  0
 10 22  4  0
 11 20  4  0
 11 21  4  0
 12 23  1  0
 13 20  4  0
 13 29  4  0
 14 17  4  0
 14 28  4  0
 15 25  2  0
 16 27  4  0
 17 18  4  0
 20 27  1  0
 24 27  4  0
 26 28  4  0
M  END
$$$$

 Created by Python create_sdf_string function

 29 33  0  0  0  0  0  0  0  0999 V2000
    8.8270   -7.0288   18.4251 C   0  0  0  0  0  0  0  0  0  0  0  0
    9.1576   -4.6236   15.8860 O   0  0  0  0  0  0  0  0  0  0  0  0
    9.1509   -5.9108   17.7177 C   0  0  0  0  0  0  0  0  0  0  0  0
    3.6373   -9.5349   16.0582 N   0  0  0  0  0  0  0  0  0  0  0  0
    9.9275   -4.8001   18.0438 N   0  0  0  0  0  0  0  0  0  0  0  0
    8.5908   -5.7425   16.4412 C   0  0  0  0  0  0  0  0  0  0  0  0
   10.5993   -4.8981   21.6068 C   0  0  0  0  0  0  0  0  0  0  0  0
   10.4258   -3.0106   23.0998 C   0  0  0  0  0  0  0  0  0  0  0  0
   10.2148   -3.4364   25.4200 C   0  0  0  0  0  0  0  0  0  0  0  0
    9.7853   -1.1840   24.4927 C   0  0  0  0  0  0  0  0  0  0  0  0
    5.0276   -8.5227   17.5352 C   0  0  0  0  0  0  0  0  0  0  0  0
    9.8187   -2.0895   25.5800 C   0  0  0  0  0  0  0  0  0  0  0  0
    5.6473   -8.7216   15.3158 C   0  0  0  0  0  0  0  0  0  0  0  0
   10.7581   -3.1233   19.4720 N   0  0  0  0  0  0  0  0  0  0  0  0
    9.9571   -4.0573   16.8866 C   0  0  0  0  0  0  0  0  0  0  0  0
    7.6213   -6.5618   16.0087 C   0  0  0  0  0  0  0  0  0  0  0  0
   10.8583   -2.6527   20.7222 C   0  0  0  0  0  0  0  0  0  0  0  0
   10.6412   -3.5089   21.7936 C   0  0  0  0  0  0  0  0  0  0  0  0
   10.4972   -3.8968   24.1589 C   0  0  0  0  0  0  0  0  0  0  0  0
    5.9260   -8.2736   16.5517 C   0  0  0  0  0  0  0  0  0  0  0  0
    3.8816   -9.1166   17.2493 C   0  0  0  0  0  0  0  0  0  0  0  0
   10.1297   -1.6575   23.2324 C   0  0  0  0  0  0  0  0  0  0  0  0
    9.4684   -1.6929   26.7263 F   0  0  0  0  0  0  0  0  0  0  0  0
    7.7963   -7.7906   17.9837 C   0  0  0  0  0  0  0  0  0  0  0  0
   10.5884   -3.0725   16.7902 O   0  0  0  0  0  0  0  0  0  0  0  0
   10.4323   -5.3494   20.3516 C   0  0  0  0  0  0  0  0  0  0  0  0
    7.1156   -7.5454   16.8218 C   0  0  0  0  0  0  0  0  0  0  0  0
   10.3885   -4.4388   19.2773 C   0  0  0  0  0  0  0  0  0  0  0  0
    4.5160   -9.3822   15.0841 C   0  0  0  0  0  0  0  0  0  0  0  0
  1  3  4  0
  1 24  4  0
  2  6  4  0
  2 15  4  0
  3  5  4  0
  3  6  4  0
  4 21  4  0
  4 29  4  0
  5 15  4  0
  5 28  1  0
  6 16  4  0
  7 18  4  0
  7 26  4  0
  8 18  1  0
  8 19  4  0
  8 22  4  0
  9 12  4  0
  9 19  4  0
 10 12  4  0
 10 22  4  0
 11 20  4  0
 11 21  4  0
 12 23  1  0
 13 20  4  0
 13 29  4  0
 14 17  4  0
 14 28  4  0
 15 25  2  0
 16 27  4  0
 17 18  4  0
 20 27  1  0
 24 27  4  0
 26 28  4  0
M  END
$$$$

 Created by Python create_sdf_string function

 29 33  0  0  0  0  0  0  0  0999 V2000
    8.8270   -7.0288   18.4251 C   0  0  0  0  0  0  0  0  0  0  0  0
    9.1576   -4.6236   15.8860 O   0  0  0  0  0  0  0  0  0  0  0  0
    9.1509   -5.9108   17.7177 C   0  0  0  0  0  0  0  0  0  0  0  0
    3.6373   -9.5349   16.0582 N   0  0  0  0  0  0  0  0  0  0  0  0
    9.9275   -4.8001   18.0438 N   0  0  0  0  0  0  0  0  0  0  0  0
    8.5908   -5.7425   16.4412 C   0  0  0  0  0  0  0  0  0  0  0  0
   10.5993   -4.8981   21.6068 C   0  0  0  0  0  0  0  0  0  0  0  0
   10.4258   -3.0106   23.0998 C   0  0  0  0  0  0  0  0  0  0  0  0
   10.2148   -3.4364   25.4200 C   0  0  0  0  0  0  0  0  0  0  0  0
    9.7853   -1.1840   24.4927 C   0  0  0  0  0  0  0  0  0  0  0  0
    5.0276   -8.5227   17.5352 C   0  0  0  0  0  0  0  0  0  0  0  0
    9.8187   -2.0895   25.5800 C   0  0  0  0  0  0  0  0  0  0  0  0
    5.6473   -8.7216   15.3158 C   0  0  0  0  0  0  0  0  0  0  0  0
   10.7581   -3.1233   19.4720 N   0  0  0  0  0  0  0  0  0  0  0  0
    9.9571   -4.0573   16.8866 C   0  0  0  0  0  0  0  0  0  0  0  0
    7.6213   -6.5618   16.0087 C   0  0  0  0  0  0  0  0  0  0  0  0
   10.8583   -2.6527   20.7222 C   0  0  0  0  0  0  0  0  0  0  0  0
   10.6412   -3.5089   21.7936 C   0  0  0  0  0  0  0  0  0  0  0  0
   10.4972   -3.8968   24.1589 C   0  0  0  0  0  0  0  0  0  0  0  0
    5.9260   -8.2736   16.5517 C   0  0  0  0  0  0  0  0  0  0  0  0
    3.8816   -9.1166   17.2493 C   0  0  0  0  0  0  0  0  0  0  0  0
   10.1297   -1.6575   23.2324 C   0  0  0  0  0  0  0  0  0  0  0  0
    9.4684   -1.6929   26.7263 F   0  0  0  0  0  0  0  0  0  0  0  0
    7.7963   -7.7906   17.9837 C   0  0  0  0  0  0  0  0  0  0  0  0
   10.5884   -3.0725   16.7902 O   0  0  0  0  0  0  0  0  0  0  0  0
   10.4323   -5.3494   20.3516 C   0  0  0  0  0  0  0  0  0  0  0  0
    7.1156   -7.5454   16.8218 C   0  0  0  0  0  0  0  0  0  0  0  0
   10.3885   -4.4388   19.2773 C   0  0  0  0  0  0  0  0  0  0  0  0
    4.5160   -9.3822   15.0841 C   0  0  0  0  0  0  0  0  0  0  0  0
  1  3  4  0
  1 24  4  0
  2  6  4  0
  2 15  4  0
  3  5  4  0
  3  6  4  0
  4 21  4  0
  4 29  4  0
  5 15  4  0
  5 28  1  0
  6 16  4  0
  7 18  4  0
  7 26  4  0
  8 18  1  0
  8 19  4  0
  8 22  4  0
  9 12  4  0
  9 19  4  0
 10 12  4  0
 10 22  4  0
 11 20  4  0
 11 21  4  0
 12 23  1  0
 13 20  4  0
 13 29  4  0
 14 17  4  0
 14 28  4  0
 15 25  2  0
 16 27  4  0
 17 18  4  0
 20 27  1  0
 24 27  4  0
 26 28  4  0
M  END
$$$$

 Created by Python create_sdf_string function

 29 33  0  0  0  0  0  0  0  0999 V2000
    8.8270   -7.0288   18.4251 C   0  0  0  0  0  0  0  0  0  0  0  0
    9.1576   -4.6236   15.8860 O   0  0  0  0  0  0  0  0  0  0  0  0
    9.1509   -5.9108   17.7177 C   0  0  0  0  0  0  0  0  0  0  0  0
    3.6373   -9.5349   16.0582 N   0  0  0  0  0  0  0  0  0  0  0  0
    9.9275   -4.8001   18.0438 N   0  0  0  0  0  0  0  0  0  0  0  0
    8.5908   -5.7425   16.4412 C   0  0  0  0  0  0  0  0  0  0  0  0
   10.5993   -4.8981   21.6068 C   0  0  0  0  0  0  0  0  0  0  0  0
   10.4258   -3.0106   23.0998 C   0  0  0  0  0  0  0  0  0  0  0  0
   10.2148   -3.4364   25.4200 C   0  0  0  0  0  0  0  0  0  0  0  0
    9.7853   -1.1840   24.4927 C   0  0  0  0  0  0  0  0  0  0  0  0
    5.0276   -8.5227   17.5352 C   0  0  0  0  0  0  0  0  0  0  0  0
    9.8187   -2.0895   25.5800 C   0  0  0  0  0  0  0  0  0  0  0  0
    5.6473   -8.7216   15.3158 C   0  0  0  0  0  0  0  0  0  0  0  0
   10.7581   -3.1233   19.4720 N   0  0  0  0  0  0  0  0  0  0  0  0
    9.9571   -4.0573   16.8866 C   0  0  0  0  0  0  0  0  0  0  0  0
    7.6213   -6.5618   16.0087 C   0  0  0  0  0  0  0  0  0  0  0  0
   10.8583   -2.6527   20.7222 C   0  0  0  0  0  0  0  0  0  0  0  0
   10.6412   -3.5089   21.7936 C   0  0  0  0  0  0  0  0  0  0  0  0
   10.4972   -3.8968   24.1589 C   0  0  0  0  0  0  0  0  0  0  0  0
    5.9260   -8.2736   16.5517 C   0  0  0  0  0  0  0  0  0  0  0  0
    3.8816   -9.1166   17.2493 C   0  0  0  0  0  0  0  0  0  0  0  0
   10.1297   -1.6575   23.2324 C   0  0  0  0  0  0  0  0  0  0  0  0
    9.4684   -1.6929   26.7263 F   0  0  0  0  0  0  0  0  0  0  0  0
    7.7963   -7.7906   17.9837 C   0  0  0  0  0  0  0  0  0  0  0  0
   10.5884   -3.0725   16.7902 O   0  0  0  0  0  0  0  0  0  0  0  0
   10.4323   -5.3494   20.3516 C   0  0  0  0  0  0  0  0  0  0  0  0
    7.1156   -7.5454   16.8218 C   0  0  0  0  0  0  0  0  0  0  0  0
   10.3885   -4.4388   19.2773 C   0  0  0  0  0  0  0  0  0  0  0  0
    4.5160   -9.3822   15.0841 C   0  0  0  0  0  0  0  0  0  0  0  0
  1  3  4  0
  1 24  4  0
  2  6  4  0
  2 15  4  0
  3  5  4  0
  3  6  4  0
  4 21  4  0
  4 29  4  0
  5 15  4  0
  5 28  1  0
  6 16  4  0
  7 18  4  0
  7 26  4  0
  8 18  1  0
  8 19  4  0
  8 22  4  0
  9 12  4  0
  9 19  4  0
 10 12  4  0
 10 22  4  0
 11 20  4  0
 11 21  4  0
 12 23  1  0
 13 20  4  0
 13 29  4  0
 14 17  4  0
 14 28  4  0
 15 25  2  0
 16 27  4  0
 17 18  4  0
 20 27  1  0
 24 27  4  0
 26 28  4  0
M  END
$$$$

 Created by Python create_sdf_string function

 29 33  0  0  0  0  0  0  0  0999 V2000
    8.8270   -7.0288   18.4251 C   0  0  0  0  0  0  0  0  0  0  0  0
    9.1576   -4.6236   15.8860 O   0  0  0  0  0  0  0  0  0  0  0  0
    9.1509   -5.9108   17.7177 C   0  0  0  0  0  0  0  0  0  0  0  0
    3.6373   -9.5349   16.0582 N   0  0  0  0  0  0  0  0  0  0  0  0
    9.9275   -4.8001   18.0438 N   0  0  0  0  0  0  0  0  0  0  0  0
    8.5908   -5.7425   16.4412 C   0  0  0  0  0  0  0  0  0  0  0  0
   10.5993   -4.8981   21.6068 C   0  0  0  0  0  0  0  0  0  0  0  0
   10.4258   -3.0106   23.0998 C   0  0  0  0  0  0  0  0  0  0  0  0
   10.2148   -3.4364   25.4200 C   0  0  0  0  0  0  0  0  0  0  0  0
    9.7853   -1.1840   24.4927 C   0  0  0  0  0  0  0  0  0  0  0  0
    5.0276   -8.5227   17.5352 C   0  0  0  0  0  0  0  0  0  0  0  0
    9.8187   -2.0895   25.5800 C   0  0  0  0  0  0  0  0  0  0  0  0
    5.6473   -8.7216   15.3158 C   0  0  0  0  0  0  0  0  0  0  0  0
   10.7581   -3.1233   19.4720 N   0  0  0  0  0  0  0  0  0  0  0  0
    9.9571   -4.0573   16.8866 C   0  0  0  0  0  0  0  0  0  0  0  0
    7.6213   -6.5618   16.0087 C   0  0  0  0  0  0  0  0  0  0  0  0
   10.8583   -2.6527   20.7222 C   0  0  0  0  0  0  0  0  0  0  0  0
   10.6412   -3.5089   21.7936 C   0  0  0  0  0  0  0  0  0  0  0  0
   10.4972   -3.8968   24.1589 C   0  0  0  0  0  0  0  0  0  0  0  0
    5.9260   -8.2736   16.5517 C   0  0  0  0  0  0  0  0  0  0  0  0
    3.8816   -9.1166   17.2493 C   0  0  0  0  0  0  0  0  0  0  0  0
   10.1297   -1.6575   23.2324 C   0  0  0  0  0  0  0  0  0  0  0  0
    9.4684   -1.6929   26.7263 F   0  0  0  0  0  0  0  0  0  0  0  0
    7.7963   -7.7906   17.9837 C   0  0  0  0  0  0  0  0  0  0  0  0
   10.5884   -3.0725   16.7902 O   0  0  0  0  0  0  0  0  0  0  0  0
   10.4323   -5.3494   20.3516 C   0  0  0  0  0  0  0  0  0  0  0  0
    7.1156   -7.5454   16.8218 C   0  0  0  0  0  0  0  0  0  0  0  0
   10.3885   -4.4388   19.2773 C   0  0  0  0  0  0  0  0  0  0  0  0
    4.5160   -9.3822   15.0841 C   0  0  0  0  0  0  0  0  0  0  0  0
  1  3  4  0
  1 24  4  0
  2  6  4  0
  2 15  4  0
  3  5  4  0
  3  6  4  0
  4 21  4  0
  4 29  4  0
  5 15  4  0
  5 28  1  0
  6 16  4  0
  7 18  4  0
  7 26  4  0
  8 18  1  0
  8 19  4  0
  8 22  4  0
  9 12  4  0
  9 19  4  0
 10 12  4  0
 10 22  4  0
 11 20  4  0
 11 21  4  0
 12 23  1  0
 13 20  4  0
 13 29  4  0
 14 17  4  0
 14 28  4  0
 15 25  2  0
 16 27  4  0
 17 18  4  0
 20 27  1  0
 24 27  4  0
 26 28  4  0
M  END
$$$$

 Created by Python create_sdf_string function

 29 33  0  0  0  0  0  0  0  0999 V2000
    8.8270   -7.0288   18.4251 C   0  0  0  0  0  0  0  0  0  0  0  0
    9.1576   -4.6236   15.8860 O   0  0  0  0  0  0  0  0  0  0  0  0
    9.1509   -5.9108   17.7177 C   0  0  0  0  0  0  0  0  0  0  0  0
    3.6373   -9.5349   16.0582 N   0  0  0  0  0  0  0  0  0  0  0  0
    9.9275   -4.8001   18.0438 N   0  0  0  0  0  0  0  0  0  0  0  0
    8.5908   -5.7425   16.4412 C   0  0  0  0  0  0  0  0  0  0  0  0
   10.5993   -4.8981   21.6068 C   0  0  0  0  0  0  0  0  0  0  0  0
   10.4258   -3.0106   23.0998 C   0  0  0  0  0  0  0  0  0  0  0  0
   10.2148   -3.4364   25.4200 C   0  0  0  0  0  0  0  0  0  0  0  0
    9.7853   -1.1840   24.4927 C   0  0  0  0  0  0  0  0  0  0  0  0
    5.0276   -8.5227   17.5352 C   0  0  0  0  0  0  0  0  0  0  0  0
    9.8187   -2.0895   25.5800 C   0  0  0  0  0  0  0  0  0  0  0  0
    5.6473   -8.7216   15.3158 C   0  0  0  0  0  0  0  0  0  0  0  0
   10.7581   -3.1233   19.4720 N   0  0  0  0  0  0  0  0  0  0  0  0
    9.9571   -4.0573   16.8866 C   0  0  0  0  0  0  0  0  0  0  0  0
    7.6213   -6.5618   16.0087 C   0  0  0  0  0  0  0  0  0  0  0  0
   10.8583   -2.6527   20.7222 C   0  0  0  0  0  0  0  0  0  0  0  0
   10.6412   -3.5089   21.7936 C   0  0  0  0  0  0  0  0  0  0  0  0
   10.4972   -3.8968   24.1589 C   0  0  0  0  0  0  0  0  0  0  0  0
    5.9260   -8.2736   16.5517 C   0  0  0  0  0  0  0  0  0  0  0  0
    3.8816   -9.1166   17.2493 C   0  0  0  0  0  0  0  0  0  0  0  0
   10.1297   -1.6575   23.2324 C   0  0  0  0  0  0  0  0  0  0  0  0
    9.4684   -1.6929   26.7263 F   0  0  0  0  0  0  0  0  0  0  0  0
    7.7963   -7.7906   17.9837 C   0  0  0  0  0  0  0  0  0  0  0  0
   10.5884   -3.0725   16.7902 O   0  0  0  0  0  0  0  0  0  0  0  0
   10.4323   -5.3494   20.3516 C   0  0  0  0  0  0  0  0  0  0  0  0
    7.1156   -7.5454   16.8218 C   0  0  0  0  0  0  0  0  0  0  0  0
   10.3885   -4.4388   19.2773 C   0  0  0  0  0  0  0  0  0  0  0  0
    4.5160   -9.3822   15.0841 C   0  0  0  0  0  0  0  0  0  0  0  0
  1  3  4  0
  1 24  4  0
  2  6  4  0
  2 15  4  0
  3  5  4  0
  3  6  4  0
  4 21  4  0
  4 29  4  0
  5 15  4  0
  5 28  1  0
  6 16  4  0
  7 18  4  0
  7 26  4  0
  8 18  1  0
  8 19  4  0
  8 22  4  0
  9 12  4  0
  9 19  4  0
 10 12  4  0
 10 22  4  0
 11 20  4  0
 11 21  4  0
 12 23  1  0
 13 20  4  0
 13 29  4  0
 14 17  4  0
 14 28  4  0
 15 25  2  0
 16 27  4  0
 17 18  4  0
 20 27  1  0
 24 27  4  0
 26 28  4  0
M  END
$$$$

 Created by Python create_sdf_string function

 29 33  0  0  0  0  0  0  0  0999 V2000
    8.8270   -7.0288   18.4251 C   0  0  0  0  0  0  0  0  0  0  0  0
    9.1576   -4.6236   15.8860 O   0  0  0  0  0  0  0  0  0  0  0  0
    9.1509   -5.9108   17.7177 C   0  0  0  0  0  0  0  0  0  0  0  0
    3.6373   -9.5349   16.0582 N   0  0  0  0  0  0  0  0  0  0  0  0
    9.9275   -4.8001   18.0438 N   0  0  0  0  0  0  0  0  0  0  0  0
    8.5908   -5.7425   16.4412 C   0  0  0  0  0  0  0  0  0  0  0  0
   10.5993   -4.8981   21.6068 C   0  0  0  0  0  0  0  0  0  0  0  0
   10.4258   -3.0106   23.0998 C   0  0  0  0  0  0  0  0  0  0  0  0
   10.2148   -3.4364   25.4200 C   0  0  0  0  0  0  0  0  0  0  0  0
    9.7853   -1.1840   24.4927 C   0  0  0  0  0  0  0  0  0  0  0  0
    5.0276   -8.5227   17.5352 C   0  0  0  0  0  0  0  0  0  0  0  0
    9.8187   -2.0895   25.5800 C   0  0  0  0  0  0  0  0  0  0  0  0
    5.6473   -8.7216   15.3158 C   0  0  0  0  0  0  0  0  0  0  0  0
   10.7581   -3.1233   19.4720 N   0  0  0  0  0  0  0  0  0  0  0  0
    9.9571   -4.0573   16.8866 C   0  0  0  0  0  0  0  0  0  0  0  0
    7.6213   -6.5618   16.0087 C   0  0  0  0  0  0  0  0  0  0  0  0
   10.8583   -2.6527   20.7222 C   0  0  0  0  0  0  0  0  0  0  0  0
   10.6412   -3.5089   21.7936 C   0  0  0  0  0  0  0  0  0  0  0  0
   10.4972   -3.8968   24.1589 C   0  0  0  0  0  0  0  0  0  0  0  0
    5.9260   -8.2736   16.5517 C   0  0  0  0  0  0  0  0  0  0  0  0
    3.8816   -9.1166   17.2493 C   0  0  0  0  0  0  0  0  0  0  0  0
   10.1297   -1.6575   23.2324 C   0  0  0  0  0  0  0  0  0  0  0  0
    9.4684   -1.6929   26.7263 F   0  0  0  0  0  0  0  0  0  0  0  0
    7.7963   -7.7906   17.9837 C   0  0  0  0  0  0  0  0  0  0  0  0
   10.5884   -3.0725   16.7902 O   0  0  0  0  0  0  0  0  0  0  0  0
   10.4323   -5.3494   20.3516 C   0  0  0  0  0  0  0  0  0  0  0  0
    7.1156   -7.5454   16.8218 C   0  0  0  0  0  0  0  0  0  0  0  0
   10.3885   -4.4388   19.2773 C   0  0  0  0  0  0  0  0  0  0  0  0
    4.5160   -9.3822   15.0841 C   0  0  0  0  0  0  0  0  0  0  0  0
  1  3  4  0
  1 24  4  0
  2  6  4  0
  2 15  4  0
  3  5  4  0
  3  6  4  0
  4 21  4  0
  4 29  4  0
  5 15  4  0
  5 28  1  0
  6 16  4  0
  7 18  4  0
  7 26  4  0
  8 18  1  0
  8 19  4  0
  8 22  4  0
  9 12  4  0
  9 19  4  0
 10 12  4  0
 10 22  4  0
 11 20  4  0
 11 21  4  0
 12 23  1  0
 13 20  4  0
 13 29  4  0
 14 17  4  0
 14 28  4  0
 15 25  2  0
 16 27  4  0
 17 18  4  0
 20 27  1  0
 24 27  4  0
 26 28  4  0
M  END
$$$$

 Created by Python create_sdf_string function

 29 33  0  0  0  0  0  0  0  0999 V2000
    8.8270   -7.0288   18.4251 C   0  0  0  0  0  0  0  0  0  0  0  0
    9.1576   -4.6236   15.8860 O   0  0  0  0  0  0  0  0  0  0  0  0
    9.1509   -5.9108   17.7177 C   0  0  0  0  0  0  0  0  0  0  0  0
    3.6373   -9.5349   16.0582 N   0  0  0  0  0  0  0  0  0  0  0  0
    9.9275   -4.8001   18.0438 N   0  0  0  0  0  0  0  0  0  0  0  0
    8.5908   -5.7425   16.4412 C   0  0  0  0  0  0  0  0  0  0  0  0
   10.5993   -4.8981   21.6068 C   0  0  0  0  0  0  0  0  0  0  0  0
   10.4258   -3.0106   23.0998 C   0  0  0  0  0  0  0  0  0  0  0  0
   10.2148   -3.4364   25.4200 C   0  0  0  0  0  0  0  0  0  0  0  0
    9.7853   -1.1840   24.4927 C   0  0  0  0  0  0  0  0  0  0  0  0
    5.0276   -8.5227   17.5352 C   0  0  0  0  0  0  0  0  0  0  0  0
    9.8187   -2.0895   25.5800 C   0  0  0  0  0  0  0  0  0  0  0  0
    5.6473   -8.7216   15.3158 C   0  0  0  0  0  0  0  0  0  0  0  0
   10.7581   -3.1233   19.4720 N   0  0  0  0  0  0  0  0  0  0  0  0
    9.9571   -4.0573   16.8866 C   0  0  0  0  0  0  0  0  0  0  0  0
    7.6213   -6.5618   16.0087 C   0  0  0  0  0  0  0  0  0  0  0  0
   10.8583   -2.6527   20.7222 C   0  0  0  0  0  0  0  0  0  0  0  0
   10.6412   -3.5089   21.7936 C   0  0  0  0  0  0  0  0  0  0  0  0
   10.4972   -3.8968   24.1589 C   0  0  0  0  0  0  0  0  0  0  0  0
    5.9260   -8.2736   16.5517 C   0  0  0  0  0  0  0  0  0  0  0  0
    3.8816   -9.1166   17.2493 C   0  0  0  0  0  0  0  0  0  0  0  0
   10.1297   -1.6575   23.2324 C   0  0  0  0  0  0  0  0  0  0  0  0
    9.4684   -1.6929   26.7263 F   0  0  0  0  0  0  0  0  0  0  0  0
    7.7963   -7.7906   17.9837 C   0  0  0  0  0  0  0  0  0  0  0  0
   10.5884   -3.0725   16.7902 O   0  0  0  0  0  0  0  0  0  0  0  0
   10.4323   -5.3494   20.3516 C   0  0  0  0  0  0  0  0  0  0  0  0
    7.1156   -7.5454   16.8218 C   0  0  0  0  0  0  0  0  0  0  0  0
   10.3885   -4.4388   19.2773 C   0  0  0  0  0  0  0  0  0  0  0  0
    4.5160   -9.3822   15.0841 C   0  0  0  0  0  0  0  0  0  0  0  0
  1  3  4  0
  1 24  4  0
  2  6  4  0
  2 15  4  0
  3  5  4  0
  3  6  4  0
  4 21  4  0
  4 29  4  0
  5 15  4  0
  5 28  1  0
  6 16  4  0
  7 18  4  0
  7 26  4  0
  8 18  1  0
  8 19  4  0
  8 22  4  0
  9 12  4  0
  9 19  4  0
 10 12  4  0
 10 22  4  0
 11 20  4  0
 11 21  4  0
 12 23  1  0
 13 20  4  0
 13 29  4  0
 14 17  4  0
 14 28  4  0
 15 25  2  0
 16 27  4  0
 17 18  4  0
 20 27  1  0
 24 27  4  0
 26 28  4  0
M  END
$$$$

 Created by Python create_sdf_string function

 29 33  0  0  0  0  0  0  0  0999 V2000
    8.8270   -7.0288   18.4251 C   0  0  0  0  0  0  0  0  0  0  0  0
    9.1576   -4.6236   15.8860 O   0  0  0  0  0  0  0  0  0  0  0  0
    9.1509   -5.9108   17.7177 C   0  0  0  0  0  0  0  0  0  0  0  0
    3.6373   -9.5349   16.0582 N   0  0  0  0  0  0  0  0  0  0  0  0
    9.9275   -4.8001   18.0438 N   0  0  0  0  0  0  0  0  0  0  0  0
    8.5908   -5.7425   16.4412 C   0  0  0  0  0  0  0  0  0  0  0  0
   10.5993   -4.8981   21.6068 C   0  0  0  0  0  0  0  0  0  0  0  0
   10.4258   -3.0106   23.0998 C   0  0  0  0  0  0  0  0  0  0  0  0
   10.2148   -3.4364   25.4200 C   0  0  0  0  0  0  0  0  0  0  0  0
    9.7853   -1.1840   24.4927 C   0  0  0  0  0  0  0  0  0  0  0  0
    5.0276   -8.5227   17.5352 C   0  0  0  0  0  0  0  0  0  0  0  0
    9.8187   -2.0895   25.5800 C   0  0  0  0  0  0  0  0  0  0  0  0
    5.6473   -8.7216   15.3158 C   0  0  0  0  0  0  0  0  0  0  0  0
   10.7581   -3.1233   19.4720 N   0  0  0  0  0  0  0  0  0  0  0  0
    9.9571   -4.0573   16.8866 C   0  0  0  0  0  0  0  0  0  0  0  0
    7.6213   -6.5618   16.0087 C   0  0  0  0  0  0  0  0  0  0  0  0
   10.8583   -2.6527   20.7222 C   0  0  0  0  0  0  0  0  0  0  0  0
   10.6412   -3.5089   21.7936 C   0  0  0  0  0  0  0  0  0  0  0  0
   10.4972   -3.8968   24.1589 C   0  0  0  0  0  0  0  0  0  0  0  0
    5.9260   -8.2736   16.5517 C   0  0  0  0  0  0  0  0  0  0  0  0
    3.8816   -9.1166   17.2493 C   0  0  0  0  0  0  0  0  0  0  0  0
   10.1297   -1.6575   23.2324 C   0  0  0  0  0  0  0  0  0  0  0  0
    9.4684   -1.6929   26.7263 F   0  0  0  0  0  0  0  0  0  0  0  0
    7.7963   -7.7906   17.9837 C   0  0  0  0  0  0  0  0  0  0  0  0
   10.5884   -3.0725   16.7902 O   0  0  0  0  0  0  0  0  0  0  0  0
   10.4323   -5.3494   20.3516 C   0  0  0  0  0  0  0  0  0  0  0  0
    7.1156   -7.5454   16.8218 C   0  0  0  0  0  0  0  0  0  0  0  0
   10.3885   -4.4388   19.2773 C   0  0  0  0  0  0  0  0  0  0  0  0
    4.5160   -9.3822   15.0841 C   0  0  0  0  0  0  0  0  0  0  0  0
  1  3  4  0
  1 24  4  0
  2  6  4  0
  2 15  4  0
  3  5  4  0
  3  6  4  0
  4 21  4  0
  4 29  4  0
  5 15  4  0
  5 28  1  0
  6 16  4  0
  7 18  4  0
  7 26  4  0
  8 18  1  0
  8 19  4  0
  8 22  4  0
  9 12  4  0
  9 19  4  0
 10 12  4  0
 10 22  4  0
 11 20  4  0
 11 21  4  0
 12 23  1  0
 13 20  4  0
 13 29  4  0
 14 17  4  0
 14 28  4  0
 15 25  2  0
 16 27  4  0
 17 18  4  0
 20 27  1  0
 24 27  4  0
 26 28  4  0
M  END
$$$$

 Created by Python create_sdf_string function

 29 33  0  0  0  0  0  0  0  0999 V2000
    8.8270   -7.0288   18.4251 C   0  0  0  0  0  0  0  0  0  0  0  0
    9.1576   -4.6236   15.8860 O   0  0  0  0  0  0  0  0  0  0  0  0
    9.1509   -5.9108   17.7177 C   0  0  0  0  0  0  0  0  0  0  0  0
    3.6373   -9.5349   16.0582 N   0  0  0  0  0  0  0  0  0  0  0  0
    9.9275   -4.8001   18.0438 N   0  0  0  0  0  0  0  0  0  0  0  0
    8.5908   -5.7425   16.4412 C   0  0  0  0  0  0  0  0  0  0  0  0
   10.5993   -4.8981   21.6068 C   0  0  0  0  0  0  0  0  0  0  0  0
   10.4258   -3.0106   23.0998 C   0  0  0  0  0  0  0  0  0  0  0  0
   10.2148   -3.4364   25.4200 C   0  0  0  0  0  0  0  0  0  0  0  0
    9.7853   -1.1840   24.4927 C   0  0  0  0  0  0  0  0  0  0  0  0
    5.0276   -8.5227   17.5352 C   0  0  0  0  0  0  0  0  0  0  0  0
    9.8187   -2.0895   25.5800 C   0  0  0  0  0  0  0  0  0  0  0  0
    5.6473   -8.7216   15.3158 C   0  0  0  0  0  0  0  0  0  0  0  0
   10.7581   -3.1233   19.4720 N   0  0  0  0  0  0  0  0  0  0  0  0
    9.9571   -4.0573   16.8866 C   0  0  0  0  0  0  0  0  0  0  0  0
    7.6213   -6.5618   16.0087 C   0  0  0  0  0  0  0  0  0  0  0  0
   10.8583   -2.6527   20.7222 C   0  0  0  0  0  0  0  0  0  0  0  0
   10.6412   -3.5089   21.7936 C   0  0  0  0  0  0  0  0  0  0  0  0
   10.4972   -3.8968   24.1589 C   0  0  0  0  0  0  0  0  0  0  0  0
    5.9260   -8.2736   16.5517 C   0  0  0  0  0  0  0  0  0  0  0  0
    3.8816   -9.1166   17.2493 C   0  0  0  0  0  0  0  0  0  0  0  0
   10.1297   -1.6575   23.2324 C   0  0  0  0  0  0  0  0  0  0  0  0
    9.4684   -1.6929   26.7263 F   0  0  0  0  0  0  0  0  0  0  0  0
    7.7963   -7.7906   17.9837 C   0  0  0  0  0  0  0  0  0  0  0  0
   10.5884   -3.0725   16.7902 O   0  0  0  0  0  0  0  0  0  0  0  0
   10.4323   -5.3494   20.3516 C   0  0  0  0  0  0  0  0  0  0  0  0
    7.1156   -7.5454   16.8218 C   0  0  0  0  0  0  0  0  0  0  0  0
   10.3885   -4.4388   19.2773 C   0  0  0  0  0  0  0  0  0  0  0  0
    4.5160   -9.3822   15.0841 C   0  0  0  0  0  0  0  0  0  0  0  0
  1  3  4  0
  1 24  4  0
  2  6  4  0
  2 15  4  0
  3  5  4  0
  3  6  4  0
  4 21  4  0
  4 29  4  0
  5 15  4  0
  5 28  1  0
  6 16  4  0
  7 18  4  0
  7 26  4  0
  8 18  1  0
  8 19  4  0
  8 22  4  0
  9 12  4  0
  9 19  4  0
 10 12  4  0
 10 22  4  0
 11 20  4  0
 11 21  4  0
 12 23  1  0
 13 20  4  0
 13 29  4  0
 14 17  4  0
 14 28  4  0
 15 25  2  0
 16 27  4  0
 17 18  4  0
 20 27  1  0
 24 27  4  0
 26 28  4  0
M  END
$$$$

 Created by Python create_sdf_string function

 29 33  0  0  0  0  0  0  0  0999 V2000
    8.8270   -7.0288   18.4251 C   0  0  0  0  0  0  0  0  0  0  0  0
    9.1576   -4.6236   15.8860 O   0  0  0  0  0  0  0  0  0  0  0  0
    9.1509   -5.9108   17.7177 C   0  0  0  0  0  0  0  0  0  0  0  0
    3.6373   -9.5349   16.0582 N   0  0  0  0  0  0  0  0  0  0  0  0
    9.9275   -4.8001   18.0438 N   0  0  0  0  0  0  0  0  0  0  0  0
    8.5908   -5.7425   16.4412 C   0  0  0  0  0  0  0  0  0  0  0  0
   10.5993   -4.8981   21.6068 C   0  0  0  0  0  0  0  0  0  0  0  0
   10.4258   -3.0106   23.0998 C   0  0  0  0  0  0  0  0  0  0  0  0
   10.2148   -3.4364   25.4200 C   0  0  0  0  0  0  0  0  0  0  0  0
    9.7853   -1.1840   24.4927 C   0  0  0  0  0  0  0  0  0  0  0  0
    5.0276   -8.5227   17.5352 C   0  0  0  0  0  0  0  0  0  0  0  0
    9.8187   -2.0895   25.5800 C   0  0  0  0  0  0  0  0  0  0  0  0
    5.6473   -8.7216   15.3158 C   0  0  0  0  0  0  0  0  0  0  0  0
   10.7581   -3.1233   19.4720 N   0  0  0  0  0  0  0  0  0  0  0  0
    9.9571   -4.0573   16.8866 C   0  0  0  0  0  0  0  0  0  0  0  0
    7.6213   -6.5618   16.0087 C   0  0  0  0  0  0  0  0  0  0  0  0
   10.8583   -2.6527   20.7222 C   0  0  0  0  0  0  0  0  0  0  0  0
   10.6412   -3.5089   21.7936 C   0  0  0  0  0  0  0  0  0  0  0  0
   10.4972   -3.8968   24.1589 C   0  0  0  0  0  0  0  0  0  0  0  0
    5.9260   -8.2736   16.5517 C   0  0  0  0  0  0  0  0  0  0  0  0
    3.8816   -9.1166   17.2493 C   0  0  0  0  0  0  0  0  0  0  0  0
   10.1297   -1.6575   23.2324 C   0  0  0  0  0  0  0  0  0  0  0  0
    9.4684   -1.6929   26.7263 F   0  0  0  0  0  0  0  0  0  0  0  0
    7.7963   -7.7906   17.9837 C   0  0  0  0  0  0  0  0  0  0  0  0
   10.5884   -3.0725   16.7902 O   0  0  0  0  0  0  0  0  0  0  0  0
   10.4323   -5.3494   20.3516 C   0  0  0  0  0  0  0  0  0  0  0  0
    7.1156   -7.5454   16.8218 C   0  0  0  0  0  0  0  0  0  0  0  0
   10.3885   -4.4388   19.2773 C   0  0  0  0  0  0  0  0  0  0  0  0
    4.5160   -9.3822   15.0841 C   0  0  0  0  0  0  0  0  0  0  0  0
  1  3  4  0
  1 24  4  0
  2  6  4  0
  2 15  4  0
  3  5  4  0
  3  6  4  0
  4 21  4  0
  4 29  4  0
  5 15  4  0
  5 28  1  0
  6 16  4  0
  7 18  4  0
  7 26  4  0
  8 18  1  0
  8 19  4  0
  8 22  4  0
  9 12  4  0
  9 19  4  0
 10 12  4  0
 10 22  4  0
 11 20  4  0
 11 21  4  0
 12 23  1  0
 13 20  4  0
 13 29  4  0
 14 17  4  0
 14 28  4  0
 15 25  2  0
 16 27  4  0
 17 18  4  0
 20 27  1  0
 24 27  4  0
 26 28  4  0
M  END
$$$$

 Created by Python create_sdf_string function

 29 33  0  0  0  0  0  0  0  0999 V2000
    8.8270   -7.0288   18.4251 C   0  0  0  0  0  0  0  0  0  0  0  0
    9.1576   -4.6236   15.8860 O   0  0  0  0  0  0  0  0  0  0  0  0
    9.1509   -5.9108   17.7177 C   0  0  0  0  0  0  0  0  0  0  0  0
    3.6373   -9.5349   16.0582 N   0  0  0  0  0  0  0  0  0  0  0  0
    9.9275   -4.8001   18.0438 N   0  0  0  0  0  0  0  0  0  0  0  0
    8.5908   -5.7425   16.4412 C   0  0  0  0  0  0  0  0  0  0  0  0
   10.5993   -4.8981   21.6068 C   0  0  0  0  0  0  0  0  0  0  0  0
   10.4258   -3.0106   23.0998 C   0  0  0  0  0  0  0  0  0  0  0  0
   10.2148   -3.4364   25.4200 C   0  0  0  0  0  0  0  0  0  0  0  0
    9.7853   -1.1840   24.4927 C   0  0  0  0  0  0  0  0  0  0  0  0
    5.0276   -8.5227   17.5352 C   0  0  0  0  0  0  0  0  0  0  0  0
    9.8187   -2.0895   25.5800 C   0  0  0  0  0  0  0  0  0  0  0  0
    5.6473   -8.7216   15.3158 C   0  0  0  0  0  0  0  0  0  0  0  0
   10.7581   -3.1233   19.4720 N   0  0  0  0  0  0  0  0  0  0  0  0
    9.9571   -4.0573   16.8866 C   0  0  0  0  0  0  0  0  0  0  0  0
    7.6213   -6.5618   16.0087 C   0  0  0  0  0  0  0  0  0  0  0  0
   10.8583   -2.6527   20.7222 C   0  0  0  0  0  0  0  0  0  0  0  0
   10.6412   -3.5089   21.7936 C   0  0  0  0  0  0  0  0  0  0  0  0
   10.4972   -3.8968   24.1589 C   0  0  0  0  0  0  0  0  0  0  0  0
    5.9260   -8.2736   16.5517 C   0  0  0  0  0  0  0  0  0  0  0  0
    3.8816   -9.1166   17.2493 C   0  0  0  0  0  0  0  0  0  0  0  0
   10.1297   -1.6575   23.2324 C   0  0  0  0  0  0  0  0  0  0  0  0
    9.4684   -1.6929   26.7263 F   0  0  0  0  0  0  0  0  0  0  0  0
    7.7963   -7.7906   17.9837 C   0  0  0  0  0  0  0  0  0  0  0  0
   10.5884   -3.0725   16.7902 O   0  0  0  0  0  0  0  0  0  0  0  0
   10.4323   -5.3494   20.3516 C   0  0  0  0  0  0  0  0  0  0  0  0
    7.1156   -7.5454   16.8218 C   0  0  0  0  0  0  0  0  0  0  0  0
   10.3885   -4.4388   19.2773 C   0  0  0  0  0  0  0  0  0  0  0  0
    4.5160   -9.3822   15.0841 C   0  0  0  0  0  0  0  0  0  0  0  0
  1  3  4  0
  1 24  4  0
  2  6  4  0
  2 15  4  0
  3  5  4  0
  3  6  4  0
  4 21  4  0
  4 29  4  0
  5 15  4  0
  5 28  1  0
  6 16  4  0
  7 18  4  0
  7 26  4  0
  8 18  1  0
  8 19  4  0
  8 22  4  0
  9 12  4  0
  9 19  4  0
 10 12  4  0
 10 22  4  0
 11 20  4  0
 11 21  4  0
 12 23  1  0
 13 20  4  0
 13 29  4  0
 14 17  4  0
 14 28  4  0
 15 25  2  0
 16 27  4  0
 17 18  4  0
 20 27  1  0
 24 27  4  0
 26 28  4  0
M  END
$$$$

 Created by Python create_sdf_string function

 29 33  0  0  0  0  0  0  0  0999 V2000
    8.8270   -7.0288   18.4251 C   0  0  0  0  0  0  0  0  0  0  0  0
    9.1576   -4.6236   15.8860 O   0  0  0  0  0  0  0  0  0  0  0  0
    9.1509   -5.9108   17.7177 C   0  0  0  0  0  0  0  0  0  0  0  0
    3.6373   -9.5349   16.0582 N   0  0  0  0  0  0  0  0  0  0  0  0
    9.9275   -4.8001   18.0438 N   0  0  0  0  0  0  0  0  0  0  0  0
    8.5908   -5.7425   16.4412 C   0  0  0  0  0  0  0  0  0  0  0  0
   10.5993   -4.8981   21.6068 C   0  0  0  0  0  0  0  0  0  0  0  0
   10.4258   -3.0106   23.0998 C   0  0  0  0  0  0  0  0  0  0  0  0
   10.2148   -3.4364   25.4200 C   0  0  0  0  0  0  0  0  0  0  0  0
    9.7853   -1.1840   24.4927 C   0  0  0  0  0  0  0  0  0  0  0  0
    5.0276   -8.5227   17.5352 C   0  0  0  0  0  0  0  0  0  0  0  0
    9.8187   -2.0895   25.5800 C   0  0  0  0  0  0  0  0  0  0  0  0
    5.6473   -8.7216   15.3158 C   0  0  0  0  0  0  0  0  0  0  0  0
   10.7581   -3.1233   19.4720 N   0  0  0  0  0  0  0  0  0  0  0  0
    9.9571   -4.0573   16.8866 C   0  0  0  0  0  0  0  0  0  0  0  0
    7.6213   -6.5618   16.0087 C   0  0  0  0  0  0  0  0  0  0  0  0
   10.8583   -2.6527   20.7222 C   0  0  0  0  0  0  0  0  0  0  0  0
   10.6412   -3.5089   21.7936 C   0  0  0  0  0  0  0  0  0  0  0  0
   10.4972   -3.8968   24.1589 C   0  0  0  0  0  0  0  0  0  0  0  0
    5.9260   -8.2736   16.5517 C   0  0  0  0  0  0  0  0  0  0  0  0
    3.8816   -9.1166   17.2493 C   0  0  0  0  0  0  0  0  0  0  0  0
   10.1297   -1.6575   23.2324 C   0  0  0  0  0  0  0  0  0  0  0  0
    9.4684   -1.6929   26.7263 F   0  0  0  0  0  0  0  0  0  0  0  0
    7.7963   -7.7906   17.9837 C   0  0  0  0  0  0  0  0  0  0  0  0
   10.5884   -3.0725   16.7902 O   0  0  0  0  0  0  0  0  0  0  0  0
   10.4323   -5.3494   20.3516 C   0  0  0  0  0  0  0  0  0  0  0  0
    7.1156   -7.5454   16.8218 C   0  0  0  0  0  0  0  0  0  0  0  0
   10.3885   -4.4388   19.2773 C   0  0  0  0  0  0  0  0  0  0  0  0
    4.5160   -9.3822   15.0841 C   0  0  0  0  0  0  0  0  0  0  0  0
  1  3  4  0
  1 24  4  0
  2  6  4  0
  2 15  4  0
  3  5  4  0
  3  6  4  0
  4 21  4  0
  4 29  4  0
  5 15  4  0
  5 28  1  0
  6 16  4  0
  7 18  4  0
  7 26  4  0
  8 18  1  0
  8 19  4  0
  8 22  4  0
  9 12  4  0
  9 19  4  0
 10 12  4  0
 10 22  4  0
 11 20  4  0
 11 21  4  0
 12 23  1  0
 13 20  4  0
 13 29  4  0
 14 17  4  0
 14 28  4  0
 15 25  2  0
 16 27  4  0
 17 18  4  0
 20 27  1  0
 24 27  4  0
 26 28  4  0
M  END
$$$$

 Created by Python create_sdf_string function

 29 33  0  0  0  0  0  0  0  0999 V2000
    8.8270   -7.0288   18.4251 C   0  0  0  0  0  0  0  0  0  0  0  0
    9.1576   -4.6236   15.8860 O   0  0  0  0  0  0  0  0  0  0  0  0
    9.1509   -5.9108   17.7177 C   0  0  0  0  0  0  0  0  0  0  0  0
    3.6373   -9.5349   16.0582 N   0  0  0  0  0  0  0  0  0  0  0  0
    9.9275   -4.8001   18.0438 N   0  0  0  0  0  0  0  0  0  0  0  0
    8.5908   -5.7425   16.4412 C   0  0  0  0  0  0  0  0  0  0  0  0
   10.5993   -4.8981   21.6068 C   0  0  0  0  0  0  0  0  0  0  0  0
   10.4258   -3.0106   23.0998 C   0  0  0  0  0  0  0  0  0  0  0  0
   10.2148   -3.4364   25.4200 C   0  0  0  0  0  0  0  0  0  0  0  0
    9.7853   -1.1840   24.4927 C   0  0  0  0  0  0  0  0  0  0  0  0
    5.0276   -8.5227   17.5352 C   0  0  0  0  0  0  0  0  0  0  0  0
    9.8187   -2.0895   25.5800 C   0  0  0  0  0  0  0  0  0  0  0  0
    5.6473   -8.7216   15.3158 C   0  0  0  0  0  0  0  0  0  0  0  0
   10.7581   -3.1233   19.4720 N   0  0  0  0  0  0  0  0  0  0  0  0
    9.9571   -4.0573   16.8866 C   0  0  0  0  0  0  0  0  0  0  0  0
    7.6213   -6.5618   16.0087 C   0  0  0  0  0  0  0  0  0  0  0  0
   10.8583   -2.6527   20.7222 C   0  0  0  0  0  0  0  0  0  0  0  0
   10.6412   -3.5089   21.7936 C   0  0  0  0  0  0  0  0  0  0  0  0
   10.4972   -3.8968   24.1589 C   0  0  0  0  0  0  0  0  0  0  0  0
    5.9260   -8.2736   16.5517 C   0  0  0  0  0  0  0  0  0  0  0  0
    3.8816   -9.1166   17.2493 C   0  0  0  0  0  0  0  0  0  0  0  0
   10.1297   -1.6575   23.2324 C   0  0  0  0  0  0  0  0  0  0  0  0
    9.4684   -1.6929   26.7263 F   0  0  0  0  0  0  0  0  0  0  0  0
    7.7963   -7.7906   17.9837 C   0  0  0  0  0  0  0  0  0  0  0  0
   10.5884   -3.0725   16.7902 O   0  0  0  0  0  0  0  0  0  0  0  0
   10.4323   -5.3494   20.3516 C   0  0  0  0  0  0  0  0  0  0  0  0
    7.1156   -7.5454   16.8218 C   0  0  0  0  0  0  0  0  0  0  0  0
   10.3885   -4.4388   19.2773 C   0  0  0  0  0  0  0  0  0  0  0  0
    4.5160   -9.3822   15.0841 C   0  0  0  0  0  0  0  0  0  0  0  0
  1  3  4  0
  1 24  4  0
  2  6  4  0
  2 15  4  0
  3  5  4  0
  3  6  4  0
  4 21  4  0
  4 29  4  0
  5 15  4  0
  5 28  1  0
  6 16  4  0
  7 18  4  0
  7 26  4  0
  8 18  1  0
  8 19  4  0
  8 22  4  0
  9 12  4  0
  9 19  4  0
 10 12  4  0
 10 22  4  0
 11 20  4  0
 11 21  4  0
 12 23  1  0
 13 20  4  0
 13 29  4  0
 14 17  4  0
 14 28  4  0
 15 25  2  0
 16 27  4  0
 17 18  4  0
 20 27  1  0
 24 27  4  0
 26 28  4  0
M  END
$$$$

 Created by Python create_sdf_string function

 29 33  0  0  0  0  0  0  0  0999 V2000
    8.8270   -7.0288   18.4251 C   0  0  0  0  0  0  0  0  0  0  0  0
    9.1576   -4.6236   15.8860 O   0  0  0  0  0  0  0  0  0  0  0  0
    9.1509   -5.9108   17.7177 C   0  0  0  0  0  0  0  0  0  0  0  0
    3.6373   -9.5349   16.0582 N   0  0  0  0  0  0  0  0  0  0  0  0
    9.9275   -4.8001   18.0438 N   0  0  0  0  0  0  0  0  0  0  0  0
    8.5908   -5.7425   16.4412 C   0  0  0  0  0  0  0  0  0  0  0  0
   10.5993   -4.8981   21.6068 C   0  0  0  0  0  0  0  0  0  0  0  0
   10.4258   -3.0106   23.0998 C   0  0  0  0  0  0  0  0  0  0  0  0
   10.2148   -3.4364   25.4200 C   0  0  0  0  0  0  0  0  0  0  0  0
    9.7853   -1.1840   24.4927 C   0  0  0  0  0  0  0  0  0  0  0  0
    5.0276   -8.5227   17.5352 C   0  0  0  0  0  0  0  0  0  0  0  0
    9.8187   -2.0895   25.5800 C   0  0  0  0  0  0  0  0  0  0  0  0
    5.6473   -8.7216   15.3158 C   0  0  0  0  0  0  0  0  0  0  0  0
   10.7581   -3.1233   19.4720 N   0  0  0  0  0  0  0  0  0  0  0  0
    9.9571   -4.0573   16.8866 C   0  0  0  0  0  0  0  0  0  0  0  0
    7.6213   -6.5618   16.0087 C   0  0  0  0  0  0  0  0  0  0  0  0
   10.8583   -2.6527   20.7222 C   0  0  0  0  0  0  0  0  0  0  0  0
   10.6412   -3.5089   21.7936 C   0  0  0  0  0  0  0  0  0  0  0  0
   10.4972   -3.8968   24.1589 C   0  0  0  0  0  0  0  0  0  0  0  0
    5.9260   -8.2736   16.5517 C   0  0  0  0  0  0  0  0  0  0  0  0
    3.8816   -9.1166   17.2493 C   0  0  0  0  0  0  0  0  0  0  0  0
   10.1297   -1.6575   23.2324 C   0  0  0  0  0  0  0  0  0  0  0  0
    9.4684   -1.6929   26.7263 F   0  0  0  0  0  0  0  0  0  0  0  0
    7.7963   -7.7906   17.9837 C   0  0  0  0  0  0  0  0  0  0  0  0
   10.5884   -3.0725   16.7902 O   0  0  0  0  0  0  0  0  0  0  0  0
   10.4323   -5.3494   20.3516 C   0  0  0  0  0  0  0  0  0  0  0  0
    7.1156   -7.5454   16.8218 C   0  0  0  0  0  0  0  0  0  0  0  0
   10.3885   -4.4388   19.2773 C   0  0  0  0  0  0  0  0  0  0  0  0
    4.5160   -9.3822   15.0841 C   0  0  0  0  0  0  0  0  0  0  0  0
  1  3  4  0
  1 24  4  0
  2  6  4  0
  2 15  4  0
  3  5  4  0
  3  6  4  0
  4 21  4  0
  4 29  4  0
  5 15  4  0
  5 28  1  0
  6 16  4  0
  7 18  4  0
  7 26  4  0
  8 18  1  0
  8 19  4  0
  8 22  4  0
  9 12  4  0
  9 19  4  0
 10 12  4  0
 10 22  4  0
 11 20  4  0
 11 21  4  0
 12 23  1  0
 13 20  4  0
 13 29  4  0
 14 17  4  0
 14 28  4  0
 15 25  2  0
 16 27  4  0
 17 18  4  0
 20 27  1  0
 24 27  4  0
 26 28  4  0
M  END
$$$$

 Created by Python create_sdf_string function

 29 33  0  0  0  0  0  0  0  0999 V2000
    8.8270   -7.0288   18.4251 C   0  0  0  0  0  0  0  0  0  0  0  0
    9.1576   -4.6236   15.8860 O   0  0  0  0  0  0  0  0  0  0  0  0
    9.1509   -5.9108   17.7177 C   0  0  0  0  0  0  0  0  0  0  0  0
    3.6373   -9.5349   16.0582 N   0  0  0  0  0  0  0  0  0  0  0  0
    9.9275   -4.8001   18.0438 N   0  0  0  0  0  0  0  0  0  0  0  0
    8.5908   -5.7425   16.4412 C   0  0  0  0  0  0  0  0  0  0  0  0
   10.5993   -4.8981   21.6068 C   0  0  0  0  0  0  0  0  0  0  0  0
   10.4258   -3.0106   23.0998 C   0  0  0  0  0  0  0  0  0  0  0  0
   10.2148   -3.4364   25.4200 C   0  0  0  0  0  0  0  0  0  0  0  0
    9.7853   -1.1840   24.4927 C   0  0  0  0  0  0  0  0  0  0  0  0
    5.0276   -8.5227   17.5352 C   0  0  0  0  0  0  0  0  0  0  0  0
    9.8187   -2.0895   25.5800 C   0  0  0  0  0  0  0  0  0  0  0  0
    5.6473   -8.7216   15.3158 C   0  0  0  0  0  0  0  0  0  0  0  0
   10.7581   -3.1233   19.4720 N   0  0  0  0  0  0  0  0  0  0  0  0
    9.9571   -4.0573   16.8866 C   0  0  0  0  0  0  0  0  0  0  0  0
    7.6213   -6.5618   16.0087 C   0  0  0  0  0  0  0  0  0  0  0  0
   10.8583   -2.6527   20.7222 C   0  0  0  0  0  0  0  0  0  0  0  0
   10.6412   -3.5089   21.7936 C   0  0  0  0  0  0  0  0  0  0  0  0
   10.4972   -3.8968   24.1589 C   0  0  0  0  0  0  0  0  0  0  0  0
    5.9260   -8.2736   16.5517 C   0  0  0  0  0  0  0  0  0  0  0  0
    3.8816   -9.1166   17.2493 C   0  0  0  0  0  0  0  0  0  0  0  0
   10.1297   -1.6575   23.2324 C   0  0  0  0  0  0  0  0  0  0  0  0
    9.4684   -1.6929   26.7263 F   0  0  0  0  0  0  0  0  0  0  0  0
    7.7963   -7.7906   17.9837 C   0  0  0  0  0  0  0  0  0  0  0  0
   10.5884   -3.0725   16.7902 O   0  0  0  0  0  0  0  0  0  0  0  0
   10.4323   -5.3494   20.3516 C   0  0  0  0  0  0  0  0  0  0  0  0
    7.1156   -7.5454   16.8218 C   0  0  0  0  0  0  0  0  0  0  0  0
   10.3885   -4.4388   19.2773 C   0  0  0  0  0  0  0  0  0  0  0  0
    4.5160   -9.3822   15.0841 C   0  0  0  0  0  0  0  0  0  0  0  0
  1  3  4  0
  1 24  4  0
  2  6  4  0
  2 15  4  0
  3  5  4  0
  3  6  4  0
  4 21  4  0
  4 29  4  0
  5 15  4  0
  5 28  1  0
  6 16  4  0
  7 18  4  0
  7 26  4  0
  8 18  1  0
  8 19  4  0
  8 22  4  0
  9 12  4  0
  9 19  4  0
 10 12  4  0
 10 22  4  0
 11 20  4  0
 11 21  4  0
 12 23  1  0
 13 20  4  0
 13 29  4  0
 14 17  4  0
 14 28  4  0
 15 25  2  0
 16 27  4  0
 17 18  4  0
 20 27  1  0
 24 27  4  0
 26 28  4  0
M  END
$$$$

 Created by Python create_sdf_string function

 29 33  0  0  0  0  0  0  0  0999 V2000
    8.8270   -7.0288   18.4251 C   0  0  0  0  0  0  0  0  0  0  0  0
    9.1576   -4.6236   15.8860 O   0  0  0  0  0  0  0  0  0  0  0  0
    9.1509   -5.9108   17.7177 C   0  0  0  0  0  0  0  0  0  0  0  0
    3.6373   -9.5349   16.0582 N   0  0  0  0  0  0  0  0  0  0  0  0
    9.9275   -4.8001   18.0438 N   0  0  0  0  0  0  0  0  0  0  0  0
    8.5908   -5.7425   16.4412 C   0  0  0  0  0  0  0  0  0  0  0  0
   10.5993   -4.8981   21.6068 C   0  0  0  0  0  0  0  0  0  0  0  0
   10.4258   -3.0106   23.0998 C   0  0  0  0  0  0  0  0  0  0  0  0
   10.2148   -3.4364   25.4200 C   0  0  0  0  0  0  0  0  0  0  0  0
    9.7853   -1.1840   24.4927 C   0  0  0  0  0  0  0  0  0  0  0  0
    5.0276   -8.5227   17.5352 C   0  0  0  0  0  0  0  0  0  0  0  0
    9.8187   -2.0895   25.5800 C   0  0  0  0  0  0  0  0  0  0  0  0
    5.6473   -8.7216   15.3158 C   0  0  0  0  0  0  0  0  0  0  0  0
   10.7581   -3.1233   19.4720 N   0  0  0  0  0  0  0  0  0  0  0  0
    9.9571   -4.0573   16.8866 C   0  0  0  0  0  0  0  0  0  0  0  0
    7.6213   -6.5618   16.0087 C   0  0  0  0  0  0  0  0  0  0  0  0
   10.8583   -2.6527   20.7222 C   0  0  0  0  0  0  0  0  0  0  0  0
   10.6412   -3.5089   21.7936 C   0  0  0  0  0  0  0  0  0  0  0  0
   10.4972   -3.8968   24.1589 C   0  0  0  0  0  0  0  0  0  0  0  0
    5.9260   -8.2736   16.5517 C   0  0  0  0  0  0  0  0  0  0  0  0
    3.8816   -9.1166   17.2493 C   0  0  0  0  0  0  0  0  0  0  0  0
   10.1297   -1.6575   23.2324 C   0  0  0  0  0  0  0  0  0  0  0  0
    9.4684   -1.6929   26.7263 F   0  0  0  0  0  0  0  0  0  0  0  0
    7.7963   -7.7906   17.9837 C   0  0  0  0  0  0  0  0  0  0  0  0
   10.5884   -3.0725   16.7902 O   0  0  0  0  0  0  0  0  0  0  0  0
   10.4323   -5.3494   20.3516 C   0  0  0  0  0  0  0  0  0  0  0  0
    7.1156   -7.5454   16.8218 C   0  0  0  0  0  0  0  0  0  0  0  0
   10.3885   -4.4388   19.2773 C   0  0  0  0  0  0  0  0  0  0  0  0
    4.5160   -9.3822   15.0841 C   0  0  0  0  0  0  0  0  0  0  0  0
  1  3  4  0
  1 24  4  0
  2  6  4  0
  2 15  4  0
  3  5  4  0
  3  6  4  0
  4 21  4  0
  4 29  4  0
  5 15  4  0
  5 28  1  0
  6 16  4  0
  7 18  4  0
  7 26  4  0
  8 18  1  0
  8 19  4  0
  8 22  4  0
  9 12  4  0
  9 19  4  0
 10 12  4  0
 10 22  4  0
 11 20  4  0
 11 21  4  0
 12 23  1  0
 13 20  4  0
 13 29  4  0
 14 17  4  0
 14 28  4  0
 15 25  2  0
 16 27  4  0
 17 18  4  0
 20 27  1  0
 24 27  4  0
 26 28  4  0
M  END
$$$$

 Created by Python create_sdf_string function

 29 33  0  0  0  0  0  0  0  0999 V2000
    8.8270   -7.0288   18.4251 C   0  0  0  0  0  0  0  0  0  0  0  0
    9.1576   -4.6236   15.8860 O   0  0  0  0  0  0  0  0  0  0  0  0
    9.1509   -5.9108   17.7177 C   0  0  0  0  0  0  0  0  0  0  0  0
    3.6373   -9.5349   16.0582 N   0  0  0  0  0  0  0  0  0  0  0  0
    9.9275   -4.8001   18.0438 N   0  0  0  0  0  0  0  0  0  0  0  0
    8.5908   -5.7425   16.4412 C   0  0  0  0  0  0  0  0  0  0  0  0
   10.5993   -4.8981   21.6068 C   0  0  0  0  0  0  0  0  0  0  0  0
   10.4258   -3.0106   23.0998 C   0  0  0  0  0  0  0  0  0  0  0  0
   10.2148   -3.4364   25.4200 C   0  0  0  0  0  0  0  0  0  0  0  0
    9.7853   -1.1840   24.4927 C   0  0  0  0  0  0  0  0  0  0  0  0
    5.0276   -8.5227   17.5352 C   0  0  0  0  0  0  0  0  0  0  0  0
    9.8187   -2.0895   25.5800 C   0  0  0  0  0  0  0  0  0  0  0  0
    5.6473   -8.7216   15.3158 C   0  0  0  0  0  0  0  0  0  0  0  0
   10.7581   -3.1233   19.4720 N   0  0  0  0  0  0  0  0  0  0  0  0
    9.9571   -4.0573   16.8866 C   0  0  0  0  0  0  0  0  0  0  0  0
    7.6213   -6.5618   16.0087 C   0  0  0  0  0  0  0  0  0  0  0  0
   10.8583   -2.6527   20.7222 C   0  0  0  0  0  0  0  0  0  0  0  0
   10.6412   -3.5089   21.7936 C   0  0  0  0  0  0  0  0  0  0  0  0
   10.4972   -3.8968   24.1589 C   0  0  0  0  0  0  0  0  0  0  0  0
    5.9260   -8.2736   16.5517 C   0  0  0  0  0  0  0  0  0  0  0  0
    3.8816   -9.1166   17.2493 C   0  0  0  0  0  0  0  0  0  0  0  0
   10.1297   -1.6575   23.2324 C   0  0  0  0  0  0  0  0  0  0  0  0
    9.4684   -1.6929   26.7263 F   0  0  0  0  0  0  0  0  0  0  0  0
    7.7963   -7.7906   17.9837 C   0  0  0  0  0  0  0  0  0  0  0  0
   10.5884   -3.0725   16.7902 O   0  0  0  0  0  0  0  0  0  0  0  0
   10.4323   -5.3494   20.3516 C   0  0  0  0  0  0  0  0  0  0  0  0
    7.1156   -7.5454   16.8218 C   0  0  0  0  0  0  0  0  0  0  0  0
   10.3885   -4.4388   19.2773 C   0  0  0  0  0  0  0  0  0  0  0  0
    4.5160   -9.3822   15.0841 C   0  0  0  0  0  0  0  0  0  0  0  0
  1  3  4  0
  1 24  4  0
  2  6  4  0
  2 15  4  0
  3  5  4  0
  3  6  4  0
  4 21  4  0
  4 29  4  0
  5 15  4  0
  5 28  1  0
  6 16  4  0
  7 18  4  0
  7 26  4  0
  8 18  1  0
  8 19  4  0
  8 22  4  0
  9 12  4  0
  9 19  4  0
 10 12  4  0
 10 22  4  0
 11 20  4  0
 11 21  4  0
 12 23  1  0
 13 20  4  0
 13 29  4  0
 14 17  4  0
 14 28  4  0
 15 25  2  0
 16 27  4  0
 17 18  4  0
 20 27  1  0
 24 27  4  0
 26 28  4  0
M  END
$$$$

 Created by Python create_sdf_string function

 29 33  0  0  0  0  0  0  0  0999 V2000
    8.8270   -7.0288   18.4251 C   0  0  0  0  0  0  0  0  0  0  0  0
    9.1576   -4.6236   15.8860 O   0  0  0  0  0  0  0  0  0  0  0  0
    9.1509   -5.9108   17.7177 C   0  0  0  0  0  0  0  0  0  0  0  0
    3.6373   -9.5349   16.0582 N   0  0  0  0  0  0  0  0  0  0  0  0
    9.9275   -4.8001   18.0438 N   0  0  0  0  0  0  0  0  0  0  0  0
    8.5908   -5.7425   16.4412 C   0  0  0  0  0  0  0  0  0  0  0  0
   10.5993   -4.8981   21.6068 C   0  0  0  0  0  0  0  0  0  0  0  0
   10.4258   -3.0106   23.0998 C   0  0  0  0  0  0  0  0  0  0  0  0
   10.2148   -3.4364   25.4200 C   0  0  0  0  0  0  0  0  0  0  0  0
    9.7853   -1.1840   24.4927 C   0  0  0  0  0  0  0  0  0  0  0  0
    5.0276   -8.5227   17.5352 C   0  0  0  0  0  0  0  0  0  0  0  0
    9.8187   -2.0895   25.5800 C   0  0  0  0  0  0  0  0  0  0  0  0
    5.6473   -8.7216   15.3158 C   0  0  0  0  0  0  0  0  0  0  0  0
   10.7581   -3.1233   19.4720 N   0  0  0  0  0  0  0  0  0  0  0  0
    9.9571   -4.0573   16.8866 C   0  0  0  0  0  0  0  0  0  0  0  0
    7.6213   -6.5618   16.0087 C   0  0  0  0  0  0  0  0  0  0  0  0
   10.8583   -2.6527   20.7222 C   0  0  0  0  0  0  0  0  0  0  0  0
   10.6412   -3.5089   21.7936 C   0  0  0  0  0  0  0  0  0  0  0  0
   10.4972   -3.8968   24.1589 C   0  0  0  0  0  0  0  0  0  0  0  0
    5.9260   -8.2736   16.5517 C   0  0  0  0  0  0  0  0  0  0  0  0
    3.8816   -9.1166   17.2493 C   0  0  0  0  0  0  0  0  0  0  0  0
   10.1297   -1.6575   23.2324 C   0  0  0  0  0  0  0  0  0  0  0  0
    9.4684   -1.6929   26.7263 F   0  0  0  0  0  0  0  0  0  0  0  0
    7.7963   -7.7906   17.9837 C   0  0  0  0  0  0  0  0  0  0  0  0
   10.5884   -3.0725   16.7902 O   0  0  0  0  0  0  0  0  0  0  0  0
   10.4323   -5.3494   20.3516 C   0  0  0  0  0  0  0  0  0  0  0  0
    7.1156   -7.5454   16.8218 C   0  0  0  0  0  0  0  0  0  0  0  0
   10.3885   -4.4388   19.2773 C   0  0  0  0  0  0  0  0  0  0  0  0
    4.5160   -9.3822   15.0841 C   0  0  0  0  0  0  0  0  0  0  0  0
  1  3  4  0
  1 24  4  0
  2  6  4  0
  2 15  4  0
  3  5  4  0
  3  6  4  0
  4 21  4  0
  4 29  4  0
  5 15  4  0
  5 28  1  0
  6 16  4  0
  7 18  4  0
  7 26  4  0
  8 18  1  0
  8 19  4  0
  8 22  4  0
  9 12  4  0
  9 19  4  0
 10 12  4  0
 10 22  4  0
 11 20  4  0
 11 21  4  0
 12 23  1  0
 13 20  4  0
 13 29  4  0
 14 17  4  0
 14 28  4  0
 15 25  2  0
 16 27  4  0
 17 18  4  0
 20 27  1  0
 24 27  4  0
 26 28  4  0
M  END
$$$$

 Created by Python create_sdf_string function

 29 33  0  0  0  0  0  0  0  0999 V2000
    8.8270   -7.0288   18.4251 C   0  0  0  0  0  0  0  0  0  0  0  0
    9.1576   -4.6236   15.8860 O   0  0  0  0  0  0  0  0  0  0  0  0
    9.1509   -5.9108   17.7177 C   0  0  0  0  0  0  0  0  0  0  0  0
    3.6373   -9.5349   16.0582 N   0  0  0  0  0  0  0  0  0  0  0  0
    9.9275   -4.8001   18.0438 N   0  0  0  0  0  0  0  0  0  0  0  0
    8.5908   -5.7425   16.4412 C   0  0  0  0  0  0  0  0  0  0  0  0
   10.5993   -4.8981   21.6068 C   0  0  0  0  0  0  0  0  0  0  0  0
   10.4258   -3.0106   23.0998 C   0  0  0  0  0  0  0  0  0  0  0  0
   10.2148   -3.4364   25.4200 C   0  0  0  0  0  0  0  0  0  0  0  0
    9.7853   -1.1840   24.4927 C   0  0  0  0  0  0  0  0  0  0  0  0
    5.0276   -8.5227   17.5352 C   0  0  0  0  0  0  0  0  0  0  0  0
    9.8187   -2.0895   25.5800 C   0  0  0  0  0  0  0  0  0  0  0  0
    5.6473   -8.7216   15.3158 C   0  0  0  0  0  0  0  0  0  0  0  0
   10.7581   -3.1233   19.4720 N   0  0  0  0  0  0  0  0  0  0  0  0
    9.9571   -4.0573   16.8866 C   0  0  0  0  0  0  0  0  0  0  0  0
    7.6213   -6.5618   16.0087 C   0  0  0  0  0  0  0  0  0  0  0  0
   10.8583   -2.6527   20.7222 C   0  0  0  0  0  0  0  0  0  0  0  0
   10.6412   -3.5089   21.7936 C   0  0  0  0  0  0  0  0  0  0  0  0
   10.4972   -3.8968   24.1589 C   0  0  0  0  0  0  0  0  0  0  0  0
    5.9260   -8.2736   16.5517 C   0  0  0  0  0  0  0  0  0  0  0  0
    3.8816   -9.1166   17.2493 C   0  0  0  0  0  0  0  0  0  0  0  0
   10.1297   -1.6575   23.2324 C   0  0  0  0  0  0  0  0  0  0  0  0
    9.4684   -1.6929   26.7263 F   0  0  0  0  0  0  0  0  0  0  0  0
    7.7963   -7.7906   17.9837 C   0  0  0  0  0  0  0  0  0  0  0  0
   10.5884   -3.0725   16.7902 O   0  0  0  0  0  0  0  0  0  0  0  0
   10.4323   -5.3494   20.3516 C   0  0  0  0  0  0  0  0  0  0  0  0
    7.1156   -7.5454   16.8218 C   0  0  0  0  0  0  0  0  0  0  0  0
   10.3885   -4.4388   19.2773 C   0  0  0  0  0  0  0  0  0  0  0  0
    4.5160   -9.3822   15.0841 C   0  0  0  0  0  0  0  0  0  0  0  0
  1  3  4  0
  1 24  4  0
  2  6  4  0
  2 15  4  0
  3  5  4  0
  3  6  4  0
  4 21  4  0
  4 29  4  0
  5 15  4  0
  5 28  1  0
  6 16  4  0
  7 18  4  0
  7 26  4  0
  8 18  1  0
  8 19  4  0
  8 22  4  0
  9 12  4  0
  9 19  4  0
 10 12  4  0
 10 22  4  0
 11 20  4  0
 11 21  4  0
 12 23  1  0
 13 20  4  0
 13 29  4  0
 14 17  4  0
 14 28  4  0
 15 25  2  0
 16 27  4  0
 17 18  4  0
 20 27  1  0
 24 27  4  0
 26 28  4  0
M  END
$$$$

 Created by Python create_sdf_string function

 29 33  0  0  0  0  0  0  0  0999 V2000
    8.8270   -7.0288   18.4251 C   0  0  0  0  0  0  0  0  0  0  0  0
    9.1576   -4.6236   15.8860 O   0  0  0  0  0  0  0  0  0  0  0  0
    9.1509   -5.9108   17.7177 C   0  0  0  0  0  0  0  0  0  0  0  0
    3.6373   -9.5349   16.0582 N   0  0  0  0  0  0  0  0  0  0  0  0
    9.9275   -4.8001   18.0438 N   0  0  0  0  0  0  0  0  0  0  0  0
    8.5908   -5.7425   16.4412 C   0  0  0  0  0  0  0  0  0  0  0  0
   10.5993   -4.8981   21.6068 C   0  0  0  0  0  0  0  0  0  0  0  0
   10.4258   -3.0106   23.0998 C   0  0  0  0  0  0  0  0  0  0  0  0
   10.2148   -3.4364   25.4200 C   0  0  0  0  0  0  0  0  0  0  0  0
    9.7853   -1.1840   24.4927 C   0  0  0  0  0  0  0  0  0  0  0  0
    5.0276   -8.5227   17.5352 C   0  0  0  0  0  0  0  0  0  0  0  0
    9.8187   -2.0895   25.5800 C   0  0  0  0  0  0  0  0  0  0  0  0
    5.6473   -8.7216   15.3158 C   0  0  0  0  0  0  0  0  0  0  0  0
   10.7581   -3.1233   19.4720 N   0  0  0  0  0  0  0  0  0  0  0  0
    9.9571   -4.0573   16.8866 C   0  0  0  0  0  0  0  0  0  0  0  0
    7.6213   -6.5618   16.0087 C   0  0  0  0  0  0  0  0  0  0  0  0
   10.8583   -2.6527   20.7222 C   0  0  0  0  0  0  0  0  0  0  0  0
   10.6412   -3.5089   21.7936 C   0  0  0  0  0  0  0  0  0  0  0  0
   10.4972   -3.8968   24.1589 C   0  0  0  0  0  0  0  0  0  0  0  0
    5.9260   -8.2736   16.5517 C   0  0  0  0  0  0  0  0  0  0  0  0
    3.8816   -9.1166   17.2493 C   0  0  0  0  0  0  0  0  0  0  0  0
   10.1297   -1.6575   23.2324 C   0  0  0  0  0  0  0  0  0  0  0  0
    9.4684   -1.6929   26.7263 F   0  0  0  0  0  0  0  0  0  0  0  0
    7.7963   -7.7906   17.9837 C   0  0  0  0  0  0  0  0  0  0  0  0
   10.5884   -3.0725   16.7902 O   0  0  0  0  0  0  0  0  0  0  0  0
   10.4323   -5.3494   20.3516 C   0  0  0  0  0  0  0  0  0  0  0  0
    7.1156   -7.5454   16.8218 C   0  0  0  0  0  0  0  0  0  0  0  0
   10.3885   -4.4388   19.2773 C   0  0  0  0  0  0  0  0  0  0  0  0
    4.5160   -9.3822   15.0841 C   0  0  0  0  0  0  0  0  0  0  0  0
  1  3  4  0
  1 24  4  0
  2  6  4  0
  2 15  4  0
  3  5  4  0
  3  6  4  0
  4 21  4  0
  4 29  4  0
  5 15  4  0
  5 28  1  0
  6 16  4  0
  7 18  4  0
  7 26  4  0
  8 18  1  0
  8 19  4  0
  8 22  4  0
  9 12  4  0
  9 19  4  0
 10 12  4  0
 10 22  4  0
 11 20  4  0
 11 21  4  0
 12 23  1  0
 13 20  4  0
 13 29  4  0
 14 17  4  0
 14 28  4  0
 15 25  2  0
 16 27  4  0
 17 18  4  0
 20 27  1  0
 24 27  4  0
 26 28  4  0
M  END
$$$$

 Created by Python create_sdf_string function

 29 33  0  0  0  0  0  0  0  0999 V2000
    8.8270   -7.0288   18.4251 C   0  0  0  0  0  0  0  0  0  0  0  0
    9.1576   -4.6236   15.8860 O   0  0  0  0  0  0  0  0  0  0  0  0
    9.1509   -5.9108   17.7177 C   0  0  0  0  0  0  0  0  0  0  0  0
    3.6373   -9.5349   16.0582 N   0  0  0  0  0  0  0  0  0  0  0  0
    9.9275   -4.8001   18.0438 N   0  0  0  0  0  0  0  0  0  0  0  0
    8.5908   -5.7425   16.4412 C   0  0  0  0  0  0  0  0  0  0  0  0
   10.5993   -4.8981   21.6068 C   0  0  0  0  0  0  0  0  0  0  0  0
   10.4258   -3.0106   23.0998 C   0  0  0  0  0  0  0  0  0  0  0  0
   10.2148   -3.4364   25.4200 C   0  0  0  0  0  0  0  0  0  0  0  0
    9.7853   -1.1840   24.4927 C   0  0  0  0  0  0  0  0  0  0  0  0
    5.0276   -8.5227   17.5352 C   0  0  0  0  0  0  0  0  0  0  0  0
    9.8187   -2.0895   25.5800 C   0  0  0  0  0  0  0  0  0  0  0  0
    5.6473   -8.7216   15.3158 C   0  0  0  0  0  0  0  0  0  0  0  0
   10.7581   -3.1233   19.4720 N   0  0  0  0  0  0  0  0  0  0  0  0
    9.9571   -4.0573   16.8866 C   0  0  0  0  0  0  0  0  0  0  0  0
    7.6213   -6.5618   16.0087 C   0  0  0  0  0  0  0  0  0  0  0  0
   10.8583   -2.6527   20.7222 C   0  0  0  0  0  0  0  0  0  0  0  0
   10.6412   -3.5089   21.7936 C   0  0  0  0  0  0  0  0  0  0  0  0
   10.4972   -3.8968   24.1589 C   0  0  0  0  0  0  0  0  0  0  0  0
    5.9260   -8.2736   16.5517 C   0  0  0  0  0  0  0  0  0  0  0  0
    3.8816   -9.1166   17.2493 C   0  0  0  0  0  0  0  0  0  0  0  0
   10.1297   -1.6575   23.2324 C   0  0  0  0  0  0  0  0  0  0  0  0
    9.4684   -1.6929   26.7263 F   0  0  0  0  0  0  0  0  0  0  0  0
    7.7963   -7.7906   17.9837 C   0  0  0  0  0  0  0  0  0  0  0  0
   10.5884   -3.0725   16.7902 O   0  0  0  0  0  0  0  0  0  0  0  0
   10.4323   -5.3494   20.3516 C   0  0  0  0  0  0  0  0  0  0  0  0
    7.1156   -7.5454   16.8218 C   0  0  0  0  0  0  0  0  0  0  0  0
   10.3885   -4.4388   19.2773 C   0  0  0  0  0  0  0  0  0  0  0  0
    4.5160   -9.3822   15.0841 C   0  0  0  0  0  0  0  0  0  0  0  0
  1  3  4  0
  1 24  4  0
  2  6  4  0
  2 15  4  0
  3  5  4  0
  3  6  4  0
  4 21  4  0
  4 29  4  0
  5 15  4  0
  5 28  1  0
  6 16  4  0
  7 18  4  0
  7 26  4  0
  8 18  1  0
  8 19  4  0
  8 22  4  0
  9 12  4  0
  9 19  4  0
 10 12  4  0
 10 22  4  0
 11 20  4  0
 11 21  4  0
 12 23  1  0
 13 20  4  0
 13 29  4  0
 14 17  4  0
 14 28  4  0
 15 25  2  0
 16 27  4  0
 17 18  4  0
 20 27  1  0
 24 27  4  0
 26 28  4  0
M  END
$$$$

 Created by Python create_sdf_string function

 29 33  0  0  0  0  0  0  0  0999 V2000
    8.8270   -7.0288   18.4251 C   0  0  0  0  0  0  0  0  0  0  0  0
    9.1576   -4.6236   15.8860 O   0  0  0  0  0  0  0  0  0  0  0  0
    9.1509   -5.9108   17.7177 C   0  0  0  0  0  0  0  0  0  0  0  0
    3.6373   -9.5349   16.0582 N   0  0  0  0  0  0  0  0  0  0  0  0
    9.9275   -4.8001   18.0438 N   0  0  0  0  0  0  0  0  0  0  0  0
    8.5908   -5.7425   16.4412 C   0  0  0  0  0  0  0  0  0  0  0  0
   10.5993   -4.8981   21.6068 C   0  0  0  0  0  0  0  0  0  0  0  0
   10.4258   -3.0106   23.0998 C   0  0  0  0  0  0  0  0  0  0  0  0
   10.2148   -3.4364   25.4200 C   0  0  0  0  0  0  0  0  0  0  0  0
    9.7853   -1.1840   24.4927 C   0  0  0  0  0  0  0  0  0  0  0  0
    5.0276   -8.5227   17.5352 C   0  0  0  0  0  0  0  0  0  0  0  0
    9.8187   -2.0895   25.5800 C   0  0  0  0  0  0  0  0  0  0  0  0
    5.6473   -8.7216   15.3158 C   0  0  0  0  0  0  0  0  0  0  0  0
   10.7581   -3.1233   19.4720 N   0  0  0  0  0  0  0  0  0  0  0  0
    9.9571   -4.0573   16.8866 C   0  0  0  0  0  0  0  0  0  0  0  0
    7.6213   -6.5618   16.0087 C   0  0  0  0  0  0  0  0  0  0  0  0
   10.8583   -2.6527   20.7222 C   0  0  0  0  0  0  0  0  0  0  0  0
   10.6412   -3.5089   21.7936 C   0  0  0  0  0  0  0  0  0  0  0  0
   10.4972   -3.8968   24.1589 C   0  0  0  0  0  0  0  0  0  0  0  0
    5.9260   -8.2736   16.5517 C   0  0  0  0  0  0  0  0  0  0  0  0
    3.8816   -9.1166   17.2493 C   0  0  0  0  0  0  0  0  0  0  0  0
   10.1297   -1.6575   23.2324 C   0  0  0  0  0  0  0  0  0  0  0  0
    9.4684   -1.6929   26.7263 F   0  0  0  0  0  0  0  0  0  0  0  0
    7.7963   -7.7906   17.9837 C   0  0  0  0  0  0  0  0  0  0  0  0
   10.5884   -3.0725   16.7902 O   0  0  0  0  0  0  0  0  0  0  0  0
   10.4323   -5.3494   20.3516 C   0  0  0  0  0  0  0  0  0  0  0  0
    7.1156   -7.5454   16.8218 C   0  0  0  0  0  0  0  0  0  0  0  0
   10.3885   -4.4388   19.2773 C   0  0  0  0  0  0  0  0  0  0  0  0
    4.5160   -9.3822   15.0841 C   0  0  0  0  0  0  0  0  0  0  0  0
  1  3  4  0
  1 24  4  0
  2  6  4  0
  2 15  4  0
  3  5  4  0
  3  6  4  0
  4 21  4  0
  4 29  4  0
  5 15  4  0
  5 28  1  0
  6 16  4  0
  7 18  4  0
  7 26  4  0
  8 18  1  0
  8 19  4  0
  8 22  4  0
  9 12  4  0
  9 19  4  0
 10 12  4  0
 10 22  4  0
 11 20  4  0
 11 21  4  0
 12 23  1  0
 13 20  4  0
 13 29  4  0
 14 17  4  0
 14 28  4  0
 15 25  2  0
 16 27  4  0
 17 18  4  0
 20 27  1  0
 24 27  4  0
 26 28  4  0
M  END
$$$$

 Created by Python create_sdf_string function

 29 33  0  0  0  0  0  0  0  0999 V2000
    8.8270   -7.0288   18.4251 C   0  0  0  0  0  0  0  0  0  0  0  0
    9.1576   -4.6236   15.8860 O   0  0  0  0  0  0  0  0  0  0  0  0
    9.1509   -5.9108   17.7177 C   0  0  0  0  0  0  0  0  0  0  0  0
    3.6373   -9.5349   16.0582 N   0  0  0  0  0  0  0  0  0  0  0  0
    9.9275   -4.8001   18.0438 N   0  0  0  0  0  0  0  0  0  0  0  0
    8.5908   -5.7425   16.4412 C   0  0  0  0  0  0  0  0  0  0  0  0
   10.5993   -4.8981   21.6068 C   0  0  0  0  0  0  0  0  0  0  0  0
   10.4258   -3.0106   23.0998 C   0  0  0  0  0  0  0  0  0  0  0  0
   10.2148   -3.4364   25.4200 C   0  0  0  0  0  0  0  0  0  0  0  0
    9.7853   -1.1840   24.4927 C   0  0  0  0  0  0  0  0  0  0  0  0
    5.0276   -8.5227   17.5352 C   0  0  0  0  0  0  0  0  0  0  0  0
    9.8187   -2.0895   25.5800 C   0  0  0  0  0  0  0  0  0  0  0  0
    5.6473   -8.7216   15.3158 C   0  0  0  0  0  0  0  0  0  0  0  0
   10.7581   -3.1233   19.4720 N   0  0  0  0  0  0  0  0  0  0  0  0
    9.9571   -4.0573   16.8866 C   0  0  0  0  0  0  0  0  0  0  0  0
    7.6213   -6.5618   16.0087 C   0  0  0  0  0  0  0  0  0  0  0  0
   10.8583   -2.6527   20.7222 C   0  0  0  0  0  0  0  0  0  0  0  0
   10.6412   -3.5089   21.7936 C   0  0  0  0  0  0  0  0  0  0  0  0
   10.4972   -3.8968   24.1589 C   0  0  0  0  0  0  0  0  0  0  0  0
    5.9260   -8.2736   16.5517 C   0  0  0  0  0  0  0  0  0  0  0  0
    3.8816   -9.1166   17.2493 C   0  0  0  0  0  0  0  0  0  0  0  0
   10.1297   -1.6575   23.2324 C   0  0  0  0  0  0  0  0  0  0  0  0
    9.4684   -1.6929   26.7263 F   0  0  0  0  0  0  0  0  0  0  0  0
    7.7963   -7.7906   17.9837 C   0  0  0  0  0  0  0  0  0  0  0  0
   10.5884   -3.0725   16.7902 O   0  0  0  0  0  0  0  0  0  0  0  0
   10.4323   -5.3494   20.3516 C   0  0  0  0  0  0  0  0  0  0  0  0
    7.1156   -7.5454   16.8218 C   0  0  0  0  0  0  0  0  0  0  0  0
   10.3885   -4.4388   19.2773 C   0  0  0  0  0  0  0  0  0  0  0  0
    4.5160   -9.3822   15.0841 C   0  0  0  0  0  0  0  0  0  0  0  0
  1  3  4  0
  1 24  4  0
  2  6  4  0
  2 15  4  0
  3  5  4  0
  3  6  4  0
  4 21  4  0
  4 29  4  0
  5 15  4  0
  5 28  1  0
  6 16  4  0
  7 18  4  0
  7 26  4  0
  8 18  1  0
  8 19  4  0
  8 22  4  0
  9 12  4  0
  9 19  4  0
 10 12  4  0
 10 22  4  0
 11 20  4  0
 11 21  4  0
 12 23  1  0
 13 20  4  0
 13 29  4  0
 14 17  4  0
 14 28  4  0
 15 25  2  0
 16 27  4  0
 17 18  4  0
 20 27  1  0
 24 27  4  0
 26 28  4  0
M  END
$$$$

 Created by Python create_sdf_string function

 29 33  0  0  0  0  0  0  0  0999 V2000
    8.8270   -7.0288   18.4251 C   0  0  0  0  0  0  0  0  0  0  0  0
    9.1576   -4.6236   15.8860 O   0  0  0  0  0  0  0  0  0  0  0  0
    9.1509   -5.9108   17.7177 C   0  0  0  0  0  0  0  0  0  0  0  0
    3.6373   -9.5349   16.0582 N   0  0  0  0  0  0  0  0  0  0  0  0
    9.9275   -4.8001   18.0438 N   0  0  0  0  0  0  0  0  0  0  0  0
    8.5908   -5.7425   16.4412 C   0  0  0  0  0  0  0  0  0  0  0  0
   10.5993   -4.8981   21.6068 C   0  0  0  0  0  0  0  0  0  0  0  0
   10.4258   -3.0106   23.0998 C   0  0  0  0  0  0  0  0  0  0  0  0
   10.2148   -3.4364   25.4200 C   0  0  0  0  0  0  0  0  0  0  0  0
    9.7853   -1.1840   24.4927 C   0  0  0  0  0  0  0  0  0  0  0  0
    5.0276   -8.5227   17.5352 C   0  0  0  0  0  0  0  0  0  0  0  0
    9.8187   -2.0895   25.5800 C   0  0  0  0  0  0  0  0  0  0  0  0
    5.6473   -8.7216   15.3158 C   0  0  0  0  0  0  0  0  0  0  0  0
   10.7581   -3.1233   19.4720 N   0  0  0  0  0  0  0  0  0  0  0  0
    9.9571   -4.0573   16.8866 C   0  0  0  0  0  0  0  0  0  0  0  0
    7.6213   -6.5618   16.0087 C   0  0  0  0  0  0  0  0  0  0  0  0
   10.8583   -2.6527   20.7222 C   0  0  0  0  0  0  0  0  0  0  0  0
   10.6412   -3.5089   21.7936 C   0  0  0  0  0  0  0  0  0  0  0  0
   10.4972   -3.8968   24.1589 C   0  0  0  0  0  0  0  0  0  0  0  0
    5.9260   -8.2736   16.5517 C   0  0  0  0  0  0  0  0  0  0  0  0
    3.8816   -9.1166   17.2493 C   0  0  0  0  0  0  0  0  0  0  0  0
   10.1297   -1.6575   23.2324 C   0  0  0  0  0  0  0  0  0  0  0  0
    9.4684   -1.6929   26.7263 F   0  0  0  0  0  0  0  0  0  0  0  0
    7.7963   -7.7906   17.9837 C   0  0  0  0  0  0  0  0  0  0  0  0
   10.5884   -3.0725   16.7902 O   0  0  0  0  0  0  0  0  0  0  0  0
   10.4323   -5.3494   20.3516 C   0  0  0  0  0  0  0  0  0  0  0  0
    7.1156   -7.5454   16.8218 C   0  0  0  0  0  0  0  0  0  0  0  0
   10.3885   -4.4388   19.2773 C   0  0  0  0  0  0  0  0  0  0  0  0
    4.5160   -9.3822   15.0841 C   0  0  0  0  0  0  0  0  0  0  0  0
  1  3  4  0
  1 24  4  0
  2  6  4  0
  2 15  4  0
  3  5  4  0
  3  6  4  0
  4 21  4  0
  4 29  4  0
  5 15  4  0
  5 28  1  0
  6 16  4  0
  7 18  4  0
  7 26  4  0
  8 18  1  0
  8 19  4  0
  8 22  4  0
  9 12  4  0
  9 19  4  0
 10 12  4  0
 10 22  4  0
 11 20  4  0
 11 21  4  0
 12 23  1  0
 13 20  4  0
 13 29  4  0
 14 17  4  0
 14 28  4  0
 15 25  2  0
 16 27  4  0
 17 18  4  0
 20 27  1  0
 24 27  4  0
 26 28  4  0
M  END
$$$$

 Created by Python create_sdf_string function

 29 33  0  0  0  0  0  0  0  0999 V2000
    8.8270   -7.0288   18.4251 C   0  0  0  0  0  0  0  0  0  0  0  0
    9.1576   -4.6236   15.8860 O   0  0  0  0  0  0  0  0  0  0  0  0
    9.1509   -5.9108   17.7177 C   0  0  0  0  0  0  0  0  0  0  0  0
    3.6373   -9.5349   16.0582 N   0  0  0  0  0  0  0  0  0  0  0  0
    9.9275   -4.8001   18.0438 N   0  0  0  0  0  0  0  0  0  0  0  0
    8.5908   -5.7425   16.4412 C   0  0  0  0  0  0  0  0  0  0  0  0
   10.5993   -4.8981   21.6068 C   0  0  0  0  0  0  0  0  0  0  0  0
   10.4258   -3.0106   23.0998 C   0  0  0  0  0  0  0  0  0  0  0  0
   10.2148   -3.4364   25.4200 C   0  0  0  0  0  0  0  0  0  0  0  0
    9.7853   -1.1840   24.4927 C   0  0  0  0  0  0  0  0  0  0  0  0
    5.0276   -8.5227   17.5352 C   0  0  0  0  0  0  0  0  0  0  0  0
    9.8187   -2.0895   25.5800 C   0  0  0  0  0  0  0  0  0  0  0  0
    5.6473   -8.7216   15.3158 C   0  0  0  0  0  0  0  0  0  0  0  0
   10.7581   -3.1233   19.4720 N   0  0  0  0  0  0  0  0  0  0  0  0
    9.9571   -4.0573   16.8866 C   0  0  0  0  0  0  0  0  0  0  0  0
    7.6213   -6.5618   16.0087 C   0  0  0  0  0  0  0  0  0  0  0  0
   10.8583   -2.6527   20.7222 C   0  0  0  0  0  0  0  0  0  0  0  0
   10.6412   -3.5089   21.7936 C   0  0  0  0  0  0  0  0  0  0  0  0
   10.4972   -3.8968   24.1589 C   0  0  0  0  0  0  0  0  0  0  0  0
    5.9260   -8.2736   16.5517 C   0  0  0  0  0  0  0  0  0  0  0  0
    3.8816   -9.1166   17.2493 C   0  0  0  0  0  0  0  0  0  0  0  0
   10.1297   -1.6575   23.2324 C   0  0  0  0  0  0  0  0  0  0  0  0
    9.4684   -1.6929   26.7263 F   0  0  0  0  0  0  0  0  0  0  0  0
    7.7963   -7.7906   17.9837 C   0  0  0  0  0  0  0  0  0  0  0  0
   10.5884   -3.0725   16.7902 O   0  0  0  0  0  0  0  0  0  0  0  0
   10.4323   -5.3494   20.3516 C   0  0  0  0  0  0  0  0  0  0  0  0
    7.1156   -7.5454   16.8218 C   0  0  0  0  0  0  0  0  0  0  0  0
   10.3885   -4.4388   19.2773 C   0  0  0  0  0  0  0  0  0  0  0  0
    4.5160   -9.3822   15.0841 C   0  0  0  0  0  0  0  0  0  0  0  0
  1  3  4  0
  1 24  4  0
  2  6  4  0
  2 15  4  0
  3  5  4  0
  3  6  4  0
  4 21  4  0
  4 29  4  0
  5 15  4  0
  5 28  1  0
  6 16  4  0
  7 18  4  0
  7 26  4  0
  8 18  1  0
  8 19  4  0
  8 22  4  0
  9 12  4  0
  9 19  4  0
 10 12  4  0
 10 22  4  0
 11 20  4  0
 11 21  4  0
 12 23  1  0
 13 20  4  0
 13 29  4  0
 14 17  4  0
 14 28  4  0
 15 25  2  0
 16 27  4  0
 17 18  4  0
 20 27  1  0
 24 27  4  0
 26 28  4  0
M  END
$$$$

 Created by Python create_sdf_string function

 29 33  0  0  0  0  0  0  0  0999 V2000
    8.8270   -7.0288   18.4251 C   0  0  0  0  0  0  0  0  0  0  0  0
    9.1576   -4.6236   15.8860 O   0  0  0  0  0  0  0  0  0  0  0  0
    9.1509   -5.9108   17.7177 C   0  0  0  0  0  0  0  0  0  0  0  0
    3.6373   -9.5349   16.0582 N   0  0  0  0  0  0  0  0  0  0  0  0
    9.9275   -4.8001   18.0438 N   0  0  0  0  0  0  0  0  0  0  0  0
    8.5908   -5.7425   16.4412 C   0  0  0  0  0  0  0  0  0  0  0  0
   10.5993   -4.8981   21.6068 C   0  0  0  0  0  0  0  0  0  0  0  0
   10.4258   -3.0106   23.0998 C   0  0  0  0  0  0  0  0  0  0  0  0
   10.2148   -3.4364   25.4200 C   0  0  0  0  0  0  0  0  0  0  0  0
    9.7853   -1.1840   24.4927 C   0  0  0  0  0  0  0  0  0  0  0  0
    5.0276   -8.5227   17.5352 C   0  0  0  0  0  0  0  0  0  0  0  0
    9.8187   -2.0895   25.5800 C   0  0  0  0  0  0  0  0  0  0  0  0
    5.6473   -8.7216   15.3158 C   0  0  0  0  0  0  0  0  0  0  0  0
   10.7581   -3.1233   19.4720 N   0  0  0  0  0  0  0  0  0  0  0  0
    9.9571   -4.0573   16.8866 C   0  0  0  0  0  0  0  0  0  0  0  0
    7.6213   -6.5618   16.0087 C   0  0  0  0  0  0  0  0  0  0  0  0
   10.8583   -2.6527   20.7222 C   0  0  0  0  0  0  0  0  0  0  0  0
   10.6412   -3.5089   21.7936 C   0  0  0  0  0  0  0  0  0  0  0  0
   10.4972   -3.8968   24.1589 C   0  0  0  0  0  0  0  0  0  0  0  0
    5.9260   -8.2736   16.5517 C   0  0  0  0  0  0  0  0  0  0  0  0
    3.8816   -9.1166   17.2493 C   0  0  0  0  0  0  0  0  0  0  0  0
   10.1297   -1.6575   23.2324 C   0  0  0  0  0  0  0  0  0  0  0  0
    9.4684   -1.6929   26.7263 F   0  0  0  0  0  0  0  0  0  0  0  0
    7.7963   -7.7906   17.9837 C   0  0  0  0  0  0  0  0  0  0  0  0
   10.5884   -3.0725   16.7902 O   0  0  0  0  0  0  0  0  0  0  0  0
   10.4323   -5.3494   20.3516 C   0  0  0  0  0  0  0  0  0  0  0  0
    7.1156   -7.5454   16.8218 C   0  0  0  0  0  0  0  0  0  0  0  0
   10.3885   -4.4388   19.2773 C   0  0  0  0  0  0  0  0  0  0  0  0
    4.5160   -9.3822   15.0841 C   0  0  0  0  0  0  0  0  0  0  0  0
  1  3  4  0
  1 24  4  0
  2  6  4  0
  2 15  4  0
  3  5  4  0
  3  6  4  0
  4 21  4  0
  4 29  4  0
  5 15  4  0
  5 28  1  0
  6 16  4  0
  7 18  4  0
  7 26  4  0
  8 18  1  0
  8 19  4  0
  8 22  4  0
  9 12  4  0
  9 19  4  0
 10 12  4  0
 10 22  4  0
 11 20  4  0
 11 21  4  0
 12 23  1  0
 13 20  4  0
 13 29  4  0
 14 17  4  0
 14 28  4  0
 15 25  2  0
 16 27  4  0
 17 18  4  0
 20 27  1  0
 24 27  4  0
 26 28  4  0
M  END
$$$$

 Created by Python create_sdf_string function

 29 33  0  0  0  0  0  0  0  0999 V2000
    8.8270   -7.0288   18.4251 C   0  0  0  0  0  0  0  0  0  0  0  0
    9.1576   -4.6236   15.8860 O   0  0  0  0  0  0  0  0  0  0  0  0
    9.1509   -5.9108   17.7177 C   0  0  0  0  0  0  0  0  0  0  0  0
    3.6373   -9.5349   16.0582 N   0  0  0  0  0  0  0  0  0  0  0  0
    9.9275   -4.8001   18.0438 N   0  0  0  0  0  0  0  0  0  0  0  0
    8.5908   -5.7425   16.4412 C   0  0  0  0  0  0  0  0  0  0  0  0
   10.5993   -4.8981   21.6068 C   0  0  0  0  0  0  0  0  0  0  0  0
   10.4258   -3.0106   23.0998 C   0  0  0  0  0  0  0  0  0  0  0  0
   10.2148   -3.4364   25.4200 C   0  0  0  0  0  0  0  0  0  0  0  0
    9.7853   -1.1840   24.4927 C   0  0  0  0  0  0  0  0  0  0  0  0
    5.0276   -8.5227   17.5352 C   0  0  0  0  0  0  0  0  0  0  0  0
    9.8187   -2.0895   25.5800 C   0  0  0  0  0  0  0  0  0  0  0  0
    5.6473   -8.7216   15.3158 C   0  0  0  0  0  0  0  0  0  0  0  0
   10.7581   -3.1233   19.4720 N   0  0  0  0  0  0  0  0  0  0  0  0
    9.9571   -4.0573   16.8866 C   0  0  0  0  0  0  0  0  0  0  0  0
    7.6213   -6.5618   16.0087 C   0  0  0  0  0  0  0  0  0  0  0  0
   10.8583   -2.6527   20.7222 C   0  0  0  0  0  0  0  0  0  0  0  0
   10.6412   -3.5089   21.7936 C   0  0  0  0  0  0  0  0  0  0  0  0
   10.4972   -3.8968   24.1589 C   0  0  0  0  0  0  0  0  0  0  0  0
    5.9260   -8.2736   16.5517 C   0  0  0  0  0  0  0  0  0  0  0  0
    3.8816   -9.1166   17.2493 C   0  0  0  0  0  0  0  0  0  0  0  0
   10.1297   -1.6575   23.2324 C   0  0  0  0  0  0  0  0  0  0  0  0
    9.4684   -1.6929   26.7263 F   0  0  0  0  0  0  0  0  0  0  0  0
    7.7963   -7.7906   17.9837 C   0  0  0  0  0  0  0  0  0  0  0  0
   10.5884   -3.0725   16.7902 O   0  0  0  0  0  0  0  0  0  0  0  0
   10.4323   -5.3494   20.3516 C   0  0  0  0  0  0  0  0  0  0  0  0
    7.1156   -7.5454   16.8218 C   0  0  0  0  0  0  0  0  0  0  0  0
   10.3885   -4.4388   19.2773 C   0  0  0  0  0  0  0  0  0  0  0  0
    4.5160   -9.3822   15.0841 C   0  0  0  0  0  0  0  0  0  0  0  0
  1  3  4  0
  1 24  4  0
  2  6  4  0
  2 15  4  0
  3  5  4  0
  3  6  4  0
  4 21  4  0
  4 29  4  0
  5 15  4  0
  5 28  1  0
  6 16  4  0
  7 18  4  0
  7 26  4  0
  8 18  1  0
  8 19  4  0
  8 22  4  0
  9 12  4  0
  9 19  4  0
 10 12  4  0
 10 22  4  0
 11 20  4  0
 11 21  4  0
 12 23  1  0
 13 20  4  0
 13 29  4  0
 14 17  4  0
 14 28  4  0
 15 25  2  0
 16 27  4  0
 17 18  4  0
 20 27  1  0
 24 27  4  0
 26 28  4  0
M  END
$$$$

 Created by Python create_sdf_string function

 29 33  0  0  0  0  0  0  0  0999 V2000
    8.8270   -7.0288   18.4251 C   0  0  0  0  0  0  0  0  0  0  0  0
    9.1576   -4.6236   15.8860 O   0  0  0  0  0  0  0  0  0  0  0  0
    9.1509   -5.9108   17.7177 C   0  0  0  0  0  0  0  0  0  0  0  0
    3.6373   -9.5349   16.0582 N   0  0  0  0  0  0  0  0  0  0  0  0
    9.9275   -4.8001   18.0438 N   0  0  0  0  0  0  0  0  0  0  0  0
    8.5908   -5.7425   16.4412 C   0  0  0  0  0  0  0  0  0  0  0  0
   10.5993   -4.8981   21.6068 C   0  0  0  0  0  0  0  0  0  0  0  0
   10.4258   -3.0106   23.0998 C   0  0  0  0  0  0  0  0  0  0  0  0
   10.2148   -3.4364   25.4200 C   0  0  0  0  0  0  0  0  0  0  0  0
    9.7853   -1.1840   24.4927 C   0  0  0  0  0  0  0  0  0  0  0  0
    5.0276   -8.5227   17.5352 C   0  0  0  0  0  0  0  0  0  0  0  0
    9.8187   -2.0895   25.5800 C   0  0  0  0  0  0  0  0  0  0  0  0
    5.6473   -8.7216   15.3158 C   0  0  0  0  0  0  0  0  0  0  0  0
   10.7581   -3.1233   19.4720 N   0  0  0  0  0  0  0  0  0  0  0  0
    9.9571   -4.0573   16.8866 C   0  0  0  0  0  0  0  0  0  0  0  0
    7.6213   -6.5618   16.0087 C   0  0  0  0  0  0  0  0  0  0  0  0
   10.8583   -2.6527   20.7222 C   0  0  0  0  0  0  0  0  0  0  0  0
   10.6412   -3.5089   21.7936 C   0  0  0  0  0  0  0  0  0  0  0  0
   10.4972   -3.8968   24.1589 C   0  0  0  0  0  0  0  0  0  0  0  0
    5.9260   -8.2736   16.5517 C   0  0  0  0  0  0  0  0  0  0  0  0
    3.8816   -9.1166   17.2493 C   0  0  0  0  0  0  0  0  0  0  0  0
   10.1297   -1.6575   23.2324 C   0  0  0  0  0  0  0  0  0  0  0  0
    9.4684   -1.6929   26.7263 F   0  0  0  0  0  0  0  0  0  0  0  0
    7.7963   -7.7906   17.9837 C   0  0  0  0  0  0  0  0  0  0  0  0
   10.5884   -3.0725   16.7902 O   0  0  0  0  0  0  0  0  0  0  0  0
   10.4323   -5.3494   20.3516 C   0  0  0  0  0  0  0  0  0  0  0  0
    7.1156   -7.5454   16.8218 C   0  0  0  0  0  0  0  0  0  0  0  0
   10.3885   -4.4388   19.2773 C   0  0  0  0  0  0  0  0  0  0  0  0
    4.5160   -9.3822   15.0841 C   0  0  0  0  0  0  0  0  0  0  0  0
  1  3  4  0
  1 24  4  0
  2  6  4  0
  2 15  4  0
  3  5  4  0
  3  6  4  0
  4 21  4  0
  4 29  4  0
  5 15  4  0
  5 28  1  0
  6 16  4  0
  7 18  4  0
  7 26  4  0
  8 18  1  0
  8 19  4  0
  8 22  4  0
  9 12  4  0
  9 19  4  0
 10 12  4  0
 10 22  4  0
 11 20  4  0
 11 21  4  0
 12 23  1  0
 13 20  4  0
 13 29  4  0
 14 17  4  0
 14 28  4  0
 15 25  2  0
 16 27  4  0
 17 18  4  0
 20 27  1  0
 24 27  4  0
 26 28  4  0
M  END
$$$$

 Created by Python create_sdf_string function

 29 33  0  0  0  0  0  0  0  0999 V2000
    8.8270   -7.0288   18.4251 C   0  0  0  0  0  0  0  0  0  0  0  0
    9.1576   -4.6236   15.8860 O   0  0  0  0  0  0  0  0  0  0  0  0
    9.1509   -5.9108   17.7177 C   0  0  0  0  0  0  0  0  0  0  0  0
    3.6373   -9.5349   16.0582 N   0  0  0  0  0  0  0  0  0  0  0  0
    9.9275   -4.8001   18.0438 N   0  0  0  0  0  0  0  0  0  0  0  0
    8.5908   -5.7425   16.4412 C   0  0  0  0  0  0  0  0  0  0  0  0
   10.5993   -4.8981   21.6068 C   0  0  0  0  0  0  0  0  0  0  0  0
   10.4258   -3.0106   23.0998 C   0  0  0  0  0  0  0  0  0  0  0  0
   10.2148   -3.4364   25.4200 C   0  0  0  0  0  0  0  0  0  0  0  0
    9.7853   -1.1840   24.4927 C   0  0  0  0  0  0  0  0  0  0  0  0
    5.0276   -8.5227   17.5352 C   0  0  0  0  0  0  0  0  0  0  0  0
    9.8187   -2.0895   25.5800 C   0  0  0  0  0  0  0  0  0  0  0  0
    5.6473   -8.7216   15.3158 C   0  0  0  0  0  0  0  0  0  0  0  0
   10.7581   -3.1233   19.4720 N   0  0  0  0  0  0  0  0  0  0  0  0
    9.9571   -4.0573   16.8866 C   0  0  0  0  0  0  0  0  0  0  0  0
    7.6213   -6.5618   16.0087 C   0  0  0  0  0  0  0  0  0  0  0  0
   10.8583   -2.6527   20.7222 C   0  0  0  0  0  0  0  0  0  0  0  0
   10.6412   -3.5089   21.7936 C   0  0  0  0  0  0  0  0  0  0  0  0
   10.4972   -3.8968   24.1589 C   0  0  0  0  0  0  0  0  0  0  0  0
    5.9260   -8.2736   16.5517 C   0  0  0  0  0  0  0  0  0  0  0  0
    3.8816   -9.1166   17.2493 C   0  0  0  0  0  0  0  0  0  0  0  0
   10.1297   -1.6575   23.2324 C   0  0  0  0  0  0  0  0  0  0  0  0
    9.4684   -1.6929   26.7263 F   0  0  0  0  0  0  0  0  0  0  0  0
    7.7963   -7.7906   17.9837 C   0  0  0  0  0  0  0  0  0  0  0  0
   10.5884   -3.0725   16.7902 O   0  0  0  0  0  0  0  0  0  0  0  0
   10.4323   -5.3494   20.3516 C   0  0  0  0  0  0  0  0  0  0  0  0
    7.1156   -7.5454   16.8218 C   0  0  0  0  0  0  0  0  0  0  0  0
   10.3885   -4.4388   19.2773 C   0  0  0  0  0  0  0  0  0  0  0  0
    4.5160   -9.3822   15.0841 C   0  0  0  0  0  0  0  0  0  0  0  0
  1  3  4  0
  1 24  4  0
  2  6  4  0
  2 15  4  0
  3  5  4  0
  3  6  4  0
  4 21  4  0
  4 29  4  0
  5 15  4  0
  5 28  1  0
  6 16  4  0
  7 18  4  0
  7 26  4  0
  8 18  1  0
  8 19  4  0
  8 22  4  0
  9 12  4  0
  9 19  4  0
 10 12  4  0
 10 22  4  0
 11 20  4  0
 11 21  4  0
 12 23  1  0
 13 20  4  0
 13 29  4  0
 14 17  4  0
 14 28  4  0
 15 25  2  0
 16 27  4  0
 17 18  4  0
 20 27  1  0
 24 27  4  0
 26 28  4  0
M  END
$$$$

 Created by Python create_sdf_string function

 29 33  0  0  0  0  0  0  0  0999 V2000
    8.8270   -7.0288   18.4251 C   0  0  0  0  0  0  0  0  0  0  0  0
    9.1576   -4.6236   15.8860 O   0  0  0  0  0  0  0  0  0  0  0  0
    9.1509   -5.9108   17.7177 C   0  0  0  0  0  0  0  0  0  0  0  0
    3.6373   -9.5349   16.0582 N   0  0  0  0  0  0  0  0  0  0  0  0
    9.9275   -4.8001   18.0438 N   0  0  0  0  0  0  0  0  0  0  0  0
    8.5908   -5.7425   16.4412 C   0  0  0  0  0  0  0  0  0  0  0  0
   10.5993   -4.8981   21.6068 C   0  0  0  0  0  0  0  0  0  0  0  0
   10.4258   -3.0106   23.0998 C   0  0  0  0  0  0  0  0  0  0  0  0
   10.2148   -3.4364   25.4200 C   0  0  0  0  0  0  0  0  0  0  0  0
    9.7853   -1.1840   24.4927 C   0  0  0  0  0  0  0  0  0  0  0  0
    5.0276   -8.5227   17.5352 C   0  0  0  0  0  0  0  0  0  0  0  0
    9.8187   -2.0895   25.5800 C   0  0  0  0  0  0  0  0  0  0  0  0
    5.6473   -8.7216   15.3158 C   0  0  0  0  0  0  0  0  0  0  0  0
   10.7581   -3.1233   19.4720 N   0  0  0  0  0  0  0  0  0  0  0  0
    9.9571   -4.0573   16.8866 C   0  0  0  0  0  0  0  0  0  0  0  0
    7.6213   -6.5618   16.0087 C   0  0  0  0  0  0  0  0  0  0  0  0
   10.8583   -2.6527   20.7222 C   0  0  0  0  0  0  0  0  0  0  0  0
   10.6412   -3.5089   21.7936 C   0  0  0  0  0  0  0  0  0  0  0  0
   10.4972   -3.8968   24.1589 C   0  0  0  0  0  0  0  0  0  0  0  0
    5.9260   -8.2736   16.5517 C   0  0  0  0  0  0  0  0  0  0  0  0
    3.8816   -9.1166   17.2493 C   0  0  0  0  0  0  0  0  0  0  0  0
   10.1297   -1.6575   23.2324 C   0  0  0  0  0  0  0  0  0  0  0  0
    9.4684   -1.6929   26.7263 F   0  0  0  0  0  0  0  0  0  0  0  0
    7.7963   -7.7906   17.9837 C   0  0  0  0  0  0  0  0  0  0  0  0
   10.5884   -3.0725   16.7902 O   0  0  0  0  0  0  0  0  0  0  0  0
   10.4323   -5.3494   20.3516 C   0  0  0  0  0  0  0  0  0  0  0  0
    7.1156   -7.5454   16.8218 C   0  0  0  0  0  0  0  0  0  0  0  0
   10.3885   -4.4388   19.2773 C   0  0  0  0  0  0  0  0  0  0  0  0
    4.5160   -9.3822   15.0841 C   0  0  0  0  0  0  0  0  0  0  0  0
  1  3  4  0
  1 24  4  0
  2  6  4  0
  2 15  4  0
  3  5  4  0
  3  6  4  0
  4 21  4  0
  4 29  4  0
  5 15  4  0
  5 28  1  0
  6 16  4  0
  7 18  4  0
  7 26  4  0
  8 18  1  0
  8 19  4  0
  8 22  4  0
  9 12  4  0
  9 19  4  0
 10 12  4  0
 10 22  4  0
 11 20  4  0
 11 21  4  0
 12 23  1  0
 13 20  4  0
 13 29  4  0
 14 17  4  0
 14 28  4  0
 15 25  2  0
 16 27  4  0
 17 18  4  0
 20 27  1  0
 24 27  4  0
 26 28  4  0
M  END
$$$$

 Created by Python create_sdf_string function

 29 33  0  0  0  0  0  0  0  0999 V2000
    8.8270   -7.0288   18.4251 C   0  0  0  0  0  0  0  0  0  0  0  0
    9.1576   -4.6236   15.8860 O   0  0  0  0  0  0  0  0  0  0  0  0
    9.1509   -5.9108   17.7177 C   0  0  0  0  0  0  0  0  0  0  0  0
    3.6373   -9.5349   16.0582 N   0  0  0  0  0  0  0  0  0  0  0  0
    9.9275   -4.8001   18.0438 N   0  0  0  0  0  0  0  0  0  0  0  0
    8.5908   -5.7425   16.4412 C   0  0  0  0  0  0  0  0  0  0  0  0
   10.5993   -4.8981   21.6068 C   0  0  0  0  0  0  0  0  0  0  0  0
   10.4258   -3.0106   23.0998 C   0  0  0  0  0  0  0  0  0  0  0  0
   10.2148   -3.4364   25.4200 C   0  0  0  0  0  0  0  0  0  0  0  0
    9.7853   -1.1840   24.4927 C   0  0  0  0  0  0  0  0  0  0  0  0
    5.0276   -8.5227   17.5352 C   0  0  0  0  0  0  0  0  0  0  0  0
    9.8187   -2.0895   25.5800 C   0  0  0  0  0  0  0  0  0  0  0  0
    5.6473   -8.7216   15.3158 C   0  0  0  0  0  0  0  0  0  0  0  0
   10.7581   -3.1233   19.4720 N   0  0  0  0  0  0  0  0  0  0  0  0
    9.9571   -4.0573   16.8866 C   0  0  0  0  0  0  0  0  0  0  0  0
    7.6213   -6.5618   16.0087 C   0  0  0  0  0  0  0  0  0  0  0  0
   10.8583   -2.6527   20.7222 C   0  0  0  0  0  0  0  0  0  0  0  0
   10.6412   -3.5089   21.7936 C   0  0  0  0  0  0  0  0  0  0  0  0
   10.4972   -3.8968   24.1589 C   0  0  0  0  0  0  0  0  0  0  0  0
    5.9260   -8.2736   16.5517 C   0  0  0  0  0  0  0  0  0  0  0  0
    3.8816   -9.1166   17.2493 C   0  0  0  0  0  0  0  0  0  0  0  0
   10.1297   -1.6575   23.2324 C   0  0  0  0  0  0  0  0  0  0  0  0
    9.4684   -1.6929   26.7263 F   0  0  0  0  0  0  0  0  0  0  0  0
    7.7963   -7.7906   17.9837 C   0  0  0  0  0  0  0  0  0  0  0  0
   10.5884   -3.0725   16.7902 O   0  0  0  0  0  0  0  0  0  0  0  0
   10.4323   -5.3494   20.3516 C   0  0  0  0  0  0  0  0  0  0  0  0
    7.1156   -7.5454   16.8218 C   0  0  0  0  0  0  0  0  0  0  0  0
   10.3885   -4.4388   19.2773 C   0  0  0  0  0  0  0  0  0  0  0  0
    4.5160   -9.3822   15.0841 C   0  0  0  0  0  0  0  0  0  0  0  0
  1  3  4  0
  1 24  4  0
  2  6  4  0
  2 15  4  0
  3  5  4  0
  3  6  4  0
  4 21  4  0
  4 29  4  0
  5 15  4  0
  5 28  1  0
  6 16  4  0
  7 18  4  0
  7 26  4  0
  8 18  1  0
  8 19  4  0
  8 22  4  0
  9 12  4  0
  9 19  4  0
 10 12  4  0
 10 22  4  0
 11 20  4  0
 11 21  4  0
 12 23  1  0
 13 20  4  0
 13 29  4  0
 14 17  4  0
 14 28  4  0
 15 25  2  0
 16 27  4  0
 17 18  4  0
 20 27  1  0
 24 27  4  0
 26 28  4  0
M  END
$$$$

 Created by Python create_sdf_string function

 29 33  0  0  0  0  0  0  0  0999 V2000
    8.8270   -7.0288   18.4251 C   0  0  0  0  0  0  0  0  0  0  0  0
    9.1576   -4.6236   15.8860 O   0  0  0  0  0  0  0  0  0  0  0  0
    9.1509   -5.9108   17.7177 C   0  0  0  0  0  0  0  0  0  0  0  0
    3.6373   -9.5349   16.0582 N   0  0  0  0  0  0  0  0  0  0  0  0
    9.9275   -4.8001   18.0438 N   0  0  0  0  0  0  0  0  0  0  0  0
    8.5908   -5.7425   16.4412 C   0  0  0  0  0  0  0  0  0  0  0  0
   10.5993   -4.8981   21.6068 C   0  0  0  0  0  0  0  0  0  0  0  0
   10.4258   -3.0106   23.0998 C   0  0  0  0  0  0  0  0  0  0  0  0
   10.2148   -3.4364   25.4200 C   0  0  0  0  0  0  0  0  0  0  0  0
    9.7853   -1.1840   24.4927 C   0  0  0  0  0  0  0  0  0  0  0  0
    5.0276   -8.5227   17.5352 C   0  0  0  0  0  0  0  0  0  0  0  0
    9.8187   -2.0895   25.5800 C   0  0  0  0  0  0  0  0  0  0  0  0
    5.6473   -8.7216   15.3158 C   0  0  0  0  0  0  0  0  0  0  0  0
   10.7581   -3.1233   19.4720 N   0  0  0  0  0  0  0  0  0  0  0  0
    9.9571   -4.0573   16.8866 C   0  0  0  0  0  0  0  0  0  0  0  0
    7.6213   -6.5618   16.0087 C   0  0  0  0  0  0  0  0  0  0  0  0
   10.8583   -2.6527   20.7222 C   0  0  0  0  0  0  0  0  0  0  0  0
   10.6412   -3.5089   21.7936 C   0  0  0  0  0  0  0  0  0  0  0  0
   10.4972   -3.8968   24.1589 C   0  0  0  0  0  0  0  0  0  0  0  0
    5.9260   -8.2736   16.5517 C   0  0  0  0  0  0  0  0  0  0  0  0
    3.8816   -9.1166   17.2493 C   0  0  0  0  0  0  0  0  0  0  0  0
   10.1297   -1.6575   23.2324 C   0  0  0  0  0  0  0  0  0  0  0  0
    9.4684   -1.6929   26.7263 F   0  0  0  0  0  0  0  0  0  0  0  0
    7.7963   -7.7906   17.9837 C   0  0  0  0  0  0  0  0  0  0  0  0
   10.5884   -3.0725   16.7902 O   0  0  0  0  0  0  0  0  0  0  0  0
   10.4323   -5.3494   20.3516 C   0  0  0  0  0  0  0  0  0  0  0  0
    7.1156   -7.5454   16.8218 C   0  0  0  0  0  0  0  0  0  0  0  0
   10.3885   -4.4388   19.2773 C   0  0  0  0  0  0  0  0  0  0  0  0
    4.5160   -9.3822   15.0841 C   0  0  0  0  0  0  0  0  0  0  0  0
  1  3  4  0
  1 24  4  0
  2  6  4  0
  2 15  4  0
  3  5  4  0
  3  6  4  0
  4 21  4  0
  4 29  4  0
  5 15  4  0
  5 28  1  0
  6 16  4  0
  7 18  4  0
  7 26  4  0
  8 18  1  0
  8 19  4  0
  8 22  4  0
  9 12  4  0
  9 19  4  0
 10 12  4  0
 10 22  4  0
 11 20  4  0
 11 21  4  0
 12 23  1  0
 13 20  4  0
 13 29  4  0
 14 17  4  0
 14 28  4  0
 15 25  2  0
 16 27  4  0
 17 18  4  0
 20 27  1  0
 24 27  4  0
 26 28  4  0
M  END
$$$$

 Created by Python create_sdf_string function

 29 33  0  0  0  0  0  0  0  0999 V2000
    8.8270   -7.0288   18.4251 C   0  0  0  0  0  0  0  0  0  0  0  0
    9.1576   -4.6236   15.8860 O   0  0  0  0  0  0  0  0  0  0  0  0
    9.1509   -5.9108   17.7177 C   0  0  0  0  0  0  0  0  0  0  0  0
    3.6373   -9.5349   16.0582 N   0  0  0  0  0  0  0  0  0  0  0  0
    9.9275   -4.8001   18.0438 N   0  0  0  0  0  0  0  0  0  0  0  0
    8.5908   -5.7425   16.4412 C   0  0  0  0  0  0  0  0  0  0  0  0
   10.5993   -4.8981   21.6068 C   0  0  0  0  0  0  0  0  0  0  0  0
   10.4258   -3.0106   23.0998 C   0  0  0  0  0  0  0  0  0  0  0  0
   10.2148   -3.4364   25.4200 C   0  0  0  0  0  0  0  0  0  0  0  0
    9.7853   -1.1840   24.4927 C   0  0  0  0  0  0  0  0  0  0  0  0
    5.0276   -8.5227   17.5352 C   0  0  0  0  0  0  0  0  0  0  0  0
    9.8187   -2.0895   25.5800 C   0  0  0  0  0  0  0  0  0  0  0  0
    5.6473   -8.7216   15.3158 C   0  0  0  0  0  0  0  0  0  0  0  0
   10.7581   -3.1233   19.4720 N   0  0  0  0  0  0  0  0  0  0  0  0
    9.9571   -4.0573   16.8866 C   0  0  0  0  0  0  0  0  0  0  0  0
    7.6213   -6.5618   16.0087 C   0  0  0  0  0  0  0  0  0  0  0  0
   10.8583   -2.6527   20.7222 C   0  0  0  0  0  0  0  0  0  0  0  0
   10.6412   -3.5089   21.7936 C   0  0  0  0  0  0  0  0  0  0  0  0
   10.4972   -3.8968   24.1589 C   0  0  0  0  0  0  0  0  0  0  0  0
    5.9260   -8.2736   16.5517 C   0  0  0  0  0  0  0  0  0  0  0  0
    3.8816   -9.1166   17.2493 C   0  0  0  0  0  0  0  0  0  0  0  0
   10.1297   -1.6575   23.2324 C   0  0  0  0  0  0  0  0  0  0  0  0
    9.4684   -1.6929   26.7263 F   0  0  0  0  0  0  0  0  0  0  0  0
    7.7963   -7.7906   17.9837 C   0  0  0  0  0  0  0  0  0  0  0  0
   10.5884   -3.0725   16.7902 O   0  0  0  0  0  0  0  0  0  0  0  0
   10.4323   -5.3494   20.3516 C   0  0  0  0  0  0  0  0  0  0  0  0
    7.1156   -7.5454   16.8218 C   0  0  0  0  0  0  0  0  0  0  0  0
   10.3885   -4.4388   19.2773 C   0  0  0  0  0  0  0  0  0  0  0  0
    4.5160   -9.3822   15.0841 C   0  0  0  0  0  0  0  0  0  0  0  0
  1  3  4  0
  1 24  4  0
  2  6  4  0
  2 15  4  0
  3  5  4  0
  3  6  4  0
  4 21  4  0
  4 29  4  0
  5 15  4  0
  5 28  1  0
  6 16  4  0
  7 18  4  0
  7 26  4  0
  8 18  1  0
  8 19  4  0
  8 22  4  0
  9 12  4  0
  9 19  4  0
 10 12  4  0
 10 22  4  0
 11 20  4  0
 11 21  4  0
 12 23  1  0
 13 20  4  0
 13 29  4  0
 14 17  4  0
 14 28  4  0
 15 25  2  0
 16 27  4  0
 17 18  4  0
 20 27  1  0
 24 27  4  0
 26 28  4  0
M  END
$$$$

 Created by Python create_sdf_string function

 29 33  0  0  0  0  0  0  0  0999 V2000
    8.8270   -7.0288   18.4251 C   0  0  0  0  0  0  0  0  0  0  0  0
    9.1576   -4.6236   15.8860 O   0  0  0  0  0  0  0  0  0  0  0  0
    9.1509   -5.9108   17.7177 C   0  0  0  0  0  0  0  0  0  0  0  0
    3.6373   -9.5349   16.0582 N   0  0  0  0  0  0  0  0  0  0  0  0
    9.9275   -4.8001   18.0438 N   0  0  0  0  0  0  0  0  0  0  0  0
    8.5908   -5.7425   16.4412 C   0  0  0  0  0  0  0  0  0  0  0  0
   10.5993   -4.8981   21.6068 C   0  0  0  0  0  0  0  0  0  0  0  0
   10.4258   -3.0106   23.0998 C   0  0  0  0  0  0  0  0  0  0  0  0
   10.2148   -3.4364   25.4200 C   0  0  0  0  0  0  0  0  0  0  0  0
    9.7853   -1.1840   24.4927 C   0  0  0  0  0  0  0  0  0  0  0  0
    5.0276   -8.5227   17.5352 C   0  0  0  0  0  0  0  0  0  0  0  0
    9.8187   -2.0895   25.5800 C   0  0  0  0  0  0  0  0  0  0  0  0
    5.6473   -8.7216   15.3158 C   0  0  0  0  0  0  0  0  0  0  0  0
   10.7581   -3.1233   19.4720 N   0  0  0  0  0  0  0  0  0  0  0  0
    9.9571   -4.0573   16.8866 C   0  0  0  0  0  0  0  0  0  0  0  0
    7.6213   -6.5618   16.0087 C   0  0  0  0  0  0  0  0  0  0  0  0
   10.8583   -2.6527   20.7222 C   0  0  0  0  0  0  0  0  0  0  0  0
   10.6412   -3.5089   21.7936 C   0  0  0  0  0  0  0  0  0  0  0  0
   10.4972   -3.8968   24.1589 C   0  0  0  0  0  0  0  0  0  0  0  0
    5.9260   -8.2736   16.5517 C   0  0  0  0  0  0  0  0  0  0  0  0
    3.8816   -9.1166   17.2493 C   0  0  0  0  0  0  0  0  0  0  0  0
   10.1297   -1.6575   23.2324 C   0  0  0  0  0  0  0  0  0  0  0  0
    9.4684   -1.6929   26.7263 F   0  0  0  0  0  0  0  0  0  0  0  0
    7.7963   -7.7906   17.9837 C   0  0  0  0  0  0  0  0  0  0  0  0
   10.5884   -3.0725   16.7902 O   0  0  0  0  0  0  0  0  0  0  0  0
   10.4323   -5.3494   20.3516 C   0  0  0  0  0  0  0  0  0  0  0  0
    7.1156   -7.5454   16.8218 C   0  0  0  0  0  0  0  0  0  0  0  0
   10.3885   -4.4388   19.2773 C   0  0  0  0  0  0  0  0  0  0  0  0
    4.5160   -9.3822   15.0841 C   0  0  0  0  0  0  0  0  0  0  0  0
  1  3  4  0
  1 24  4  0
  2  6  4  0
  2 15  4  0
  3  5  4  0
  3  6  4  0
  4 21  4  0
  4 29  4  0
  5 15  4  0
  5 28  1  0
  6 16  4  0
  7 18  4  0
  7 26  4  0
  8 18  1  0
  8 19  4  0
  8 22  4  0
  9 12  4  0
  9 19  4  0
 10 12  4  0
 10 22  4  0
 11 20  4  0
 11 21  4  0
 12 23  1  0
 13 20  4  0
 13 29  4  0
 14 17  4  0
 14 28  4  0
 15 25  2  0
 16 27  4  0
 17 18  4  0
 20 27  1  0
 24 27  4  0
 26 28  4  0
M  END
$$$$

 Created by Python create_sdf_string function

 29 33  0  0  0  0  0  0  0  0999 V2000
    8.8270   -7.0288   18.4251 C   0  0  0  0  0  0  0  0  0  0  0  0
    9.1576   -4.6236   15.8860 O   0  0  0  0  0  0  0  0  0  0  0  0
    9.1509   -5.9108   17.7177 C   0  0  0  0  0  0  0  0  0  0  0  0
    3.6373   -9.5349   16.0582 N   0  0  0  0  0  0  0  0  0  0  0  0
    9.9275   -4.8001   18.0438 N   0  0  0  0  0  0  0  0  0  0  0  0
    8.5908   -5.7425   16.4412 C   0  0  0  0  0  0  0  0  0  0  0  0
   10.5993   -4.8981   21.6068 C   0  0  0  0  0  0  0  0  0  0  0  0
   10.4258   -3.0106   23.0998 C   0  0  0  0  0  0  0  0  0  0  0  0
   10.2148   -3.4364   25.4200 C   0  0  0  0  0  0  0  0  0  0  0  0
    9.7853   -1.1840   24.4927 C   0  0  0  0  0  0  0  0  0  0  0  0
    5.0276   -8.5227   17.5352 C   0  0  0  0  0  0  0  0  0  0  0  0
    9.8187   -2.0895   25.5800 C   0  0  0  0  0  0  0  0  0  0  0  0
    5.6473   -8.7216   15.3158 C   0  0  0  0  0  0  0  0  0  0  0  0
   10.7581   -3.1233   19.4720 N   0  0  0  0  0  0  0  0  0  0  0  0
    9.9571   -4.0573   16.8866 C   0  0  0  0  0  0  0  0  0  0  0  0
    7.6213   -6.5618   16.0087 C   0  0  0  0  0  0  0  0  0  0  0  0
   10.8583   -2.6527   20.7222 C   0  0  0  0  0  0  0  0  0  0  0  0
   10.6412   -3.5089   21.7936 C   0  0  0  0  0  0  0  0  0  0  0  0
   10.4972   -3.8968   24.1589 C   0  0  0  0  0  0  0  0  0  0  0  0
    5.9260   -8.2736   16.5517 C   0  0  0  0  0  0  0  0  0  0  0  0
    3.8816   -9.1166   17.2493 C   0  0  0  0  0  0  0  0  0  0  0  0
   10.1297   -1.6575   23.2324 C   0  0  0  0  0  0  0  0  0  0  0  0
    9.4684   -1.6929   26.7263 F   0  0  0  0  0  0  0  0  0  0  0  0
    7.7963   -7.7906   17.9837 C   0  0  0  0  0  0  0  0  0  0  0  0
   10.5884   -3.0725   16.7902 O   0  0  0  0  0  0  0  0  0  0  0  0
   10.4323   -5.3494   20.3516 C   0  0  0  0  0  0  0  0  0  0  0  0
    7.1156   -7.5454   16.8218 C   0  0  0  0  0  0  0  0  0  0  0  0
   10.3885   -4.4388   19.2773 C   0  0  0  0  0  0  0  0  0  0  0  0
    4.5160   -9.3822   15.0841 C   0  0  0  0  0  0  0  0  0  0  0  0
  1  3  4  0
  1 24  4  0
  2  6  4  0
  2 15  4  0
  3  5  4  0
  3  6  4  0
  4 21  4  0
  4 29  4  0
  5 15  4  0
  5 28  1  0
  6 16  4  0
  7 18  4  0
  7 26  4  0
  8 18  1  0
  8 19  4  0
  8 22  4  0
  9 12  4  0
  9 19  4  0
 10 12  4  0
 10 22  4  0
 11 20  4  0
 11 21  4  0
 12 23  1  0
 13 20  4  0
 13 29  4  0
 14 17  4  0
 14 28  4  0
 15 25  2  0
 16 27  4  0
 17 18  4  0
 20 27  1  0
 24 27  4  0
 26 28  4  0
M  END
$$$$

 Created by Python create_sdf_string function

 29 33  0  0  0  0  0  0  0  0999 V2000
    8.8270   -7.0288   18.4251 C   0  0  0  0  0  0  0  0  0  0  0  0
    9.1576   -4.6236   15.8860 O   0  0  0  0  0  0  0  0  0  0  0  0
    9.1509   -5.9108   17.7177 C   0  0  0  0  0  0  0  0  0  0  0  0
    3.6373   -9.5349   16.0582 N   0  0  0  0  0  0  0  0  0  0  0  0
    9.9275   -4.8001   18.0438 N   0  0  0  0  0  0  0  0  0  0  0  0
    8.5908   -5.7425   16.4412 C   0  0  0  0  0  0  0  0  0  0  0  0
   10.5993   -4.8981   21.6068 C   0  0  0  0  0  0  0  0  0  0  0  0
   10.4258   -3.0106   23.0998 C   0  0  0  0  0  0  0  0  0  0  0  0
   10.2148   -3.4364   25.4200 C   0  0  0  0  0  0  0  0  0  0  0  0
    9.7853   -1.1840   24.4927 C   0  0  0  0  0  0  0  0  0  0  0  0
    5.0276   -8.5227   17.5352 C   0  0  0  0  0  0  0  0  0  0  0  0
    9.8187   -2.0895   25.5800 C   0  0  0  0  0  0  0  0  0  0  0  0
    5.6473   -8.7216   15.3158 C   0  0  0  0  0  0  0  0  0  0  0  0
   10.7581   -3.1233   19.4720 N   0  0  0  0  0  0  0  0  0  0  0  0
    9.9571   -4.0573   16.8866 C   0  0  0  0  0  0  0  0  0  0  0  0
    7.6213   -6.5618   16.0087 C   0  0  0  0  0  0  0  0  0  0  0  0
   10.8583   -2.6527   20.7222 C   0  0  0  0  0  0  0  0  0  0  0  0
   10.6412   -3.5089   21.7936 C   0  0  0  0  0  0  0  0  0  0  0  0
   10.4972   -3.8968   24.1589 C   0  0  0  0  0  0  0  0  0  0  0  0
    5.9260   -8.2736   16.5517 C   0  0  0  0  0  0  0  0  0  0  0  0
    3.8816   -9.1166   17.2493 C   0  0  0  0  0  0  0  0  0  0  0  0
   10.1297   -1.6575   23.2324 C   0  0  0  0  0  0  0  0  0  0  0  0
    9.4684   -1.6929   26.7263 F   0  0  0  0  0  0  0  0  0  0  0  0
    7.7963   -7.7906   17.9837 C   0  0  0  0  0  0  0  0  0  0  0  0
   10.5884   -3.0725   16.7902 O   0  0  0  0  0  0  0  0  0  0  0  0
   10.4323   -5.3494   20.3516 C   0  0  0  0  0  0  0  0  0  0  0  0
    7.1156   -7.5454   16.8218 C   0  0  0  0  0  0  0  0  0  0  0  0
   10.3885   -4.4388   19.2773 C   0  0  0  0  0  0  0  0  0  0  0  0
    4.5160   -9.3822   15.0841 C   0  0  0  0  0  0  0  0  0  0  0  0
  1  3  4  0
  1 24  4  0
  2  6  4  0
  2 15  4  0
  3  5  4  0
  3  6  4  0
  4 21  4  0
  4 29  4  0
  5 15  4  0
  5 28  1  0
  6 16  4  0
  7 18  4  0
  7 26  4  0
  8 18  1  0
  8 19  4  0
  8 22  4  0
  9 12  4  0
  9 19  4  0
 10 12  4  0
 10 22  4  0
 11 20  4  0
 11 21  4  0
 12 23  1  0
 13 20  4  0
 13 29  4  0
 14 17  4  0
 14 28  4  0
 15 25  2  0
 16 27  4  0
 17 18  4  0
 20 27  1  0
 24 27  4  0
 26 28  4  0
M  END
$$$$

 Created by Python create_sdf_string function

 29 33  0  0  0  0  0  0  0  0999 V2000
    8.8270   -7.0288   18.4251 C   0  0  0  0  0  0  0  0  0  0  0  0
    9.1576   -4.6236   15.8860 O   0  0  0  0  0  0  0  0  0  0  0  0
    9.1509   -5.9108   17.7177 C   0  0  0  0  0  0  0  0  0  0  0  0
    3.6373   -9.5349   16.0582 N   0  0  0  0  0  0  0  0  0  0  0  0
    9.9275   -4.8001   18.0438 N   0  0  0  0  0  0  0  0  0  0  0  0
    8.5908   -5.7425   16.4412 C   0  0  0  0  0  0  0  0  0  0  0  0
   10.5993   -4.8981   21.6068 C   0  0  0  0  0  0  0  0  0  0  0  0
   10.4258   -3.0106   23.0998 C   0  0  0  0  0  0  0  0  0  0  0  0
   10.2148   -3.4364   25.4200 C   0  0  0  0  0  0  0  0  0  0  0  0
    9.7853   -1.1840   24.4927 C   0  0  0  0  0  0  0  0  0  0  0  0
    5.0276   -8.5227   17.5352 C   0  0  0  0  0  0  0  0  0  0  0  0
    9.8187   -2.0895   25.5800 C   0  0  0  0  0  0  0  0  0  0  0  0
    5.6473   -8.7216   15.3158 C   0  0  0  0  0  0  0  0  0  0  0  0
   10.7581   -3.1233   19.4720 N   0  0  0  0  0  0  0  0  0  0  0  0
    9.9571   -4.0573   16.8866 C   0  0  0  0  0  0  0  0  0  0  0  0
    7.6213   -6.5618   16.0087 C   0  0  0  0  0  0  0  0  0  0  0  0
   10.8583   -2.6527   20.7222 C   0  0  0  0  0  0  0  0  0  0  0  0
   10.6412   -3.5089   21.7936 C   0  0  0  0  0  0  0  0  0  0  0  0
   10.4972   -3.8968   24.1589 C   0  0  0  0  0  0  0  0  0  0  0  0
    5.9260   -8.2736   16.5517 C   0  0  0  0  0  0  0  0  0  0  0  0
    3.8816   -9.1166   17.2493 C   0  0  0  0  0  0  0  0  0  0  0  0
   10.1297   -1.6575   23.2324 C   0  0  0  0  0  0  0  0  0  0  0  0
    9.4684   -1.6929   26.7263 F   0  0  0  0  0  0  0  0  0  0  0  0
    7.7963   -7.7906   17.9837 C   0  0  0  0  0  0  0  0  0  0  0  0
   10.5884   -3.0725   16.7902 O   0  0  0  0  0  0  0  0  0  0  0  0
   10.4323   -5.3494   20.3516 C   0  0  0  0  0  0  0  0  0  0  0  0
    7.1156   -7.5454   16.8218 C   0  0  0  0  0  0  0  0  0  0  0  0
   10.3885   -4.4388   19.2773 C   0  0  0  0  0  0  0  0  0  0  0  0
    4.5160   -9.3822   15.0841 C   0  0  0  0  0  0  0  0  0  0  0  0
  1  3  4  0
  1 24  4  0
  2  6  4  0
  2 15  4  0
  3  5  4  0
  3  6  4  0
  4 21  4  0
  4 29  4  0
  5 15  4  0
  5 28  1  0
  6 16  4  0
  7 18  4  0
  7 26  4  0
  8 18  1  0
  8 19  4  0
  8 22  4  0
  9 12  4  0
  9 19  4  0
 10 12  4  0
 10 22  4  0
 11 20  4  0
 11 21  4  0
 12 23  1  0
 13 20  4  0
 13 29  4  0
 14 17  4  0
 14 28  4  0
 15 25  2  0
 16 27  4  0
 17 18  4  0
 20 27  1  0
 24 27  4  0
 26 28  4  0
M  END
$$$$

 Created by Python create_sdf_string function

 29 33  0  0  0  0  0  0  0  0999 V2000
    8.8270   -7.0288   18.4251 C   0  0  0  0  0  0  0  0  0  0  0  0
    9.1576   -4.6236   15.8860 O   0  0  0  0  0  0  0  0  0  0  0  0
    9.1509   -5.9108   17.7177 C   0  0  0  0  0  0  0  0  0  0  0  0
    3.6373   -9.5349   16.0582 N   0  0  0  0  0  0  0  0  0  0  0  0
    9.9275   -4.8001   18.0438 N   0  0  0  0  0  0  0  0  0  0  0  0
    8.5908   -5.7425   16.4412 C   0  0  0  0  0  0  0  0  0  0  0  0
   10.5993   -4.8981   21.6068 C   0  0  0  0  0  0  0  0  0  0  0  0
   10.4258   -3.0106   23.0998 C   0  0  0  0  0  0  0  0  0  0  0  0
   10.2148   -3.4364   25.4200 C   0  0  0  0  0  0  0  0  0  0  0  0
    9.7853   -1.1840   24.4927 C   0  0  0  0  0  0  0  0  0  0  0  0
    5.0276   -8.5227   17.5352 C   0  0  0  0  0  0  0  0  0  0  0  0
    9.8187   -2.0895   25.5800 C   0  0  0  0  0  0  0  0  0  0  0  0
    5.6473   -8.7216   15.3158 C   0  0  0  0  0  0  0  0  0  0  0  0
   10.7581   -3.1233   19.4720 N   0  0  0  0  0  0  0  0  0  0  0  0
    9.9571   -4.0573   16.8866 C   0  0  0  0  0  0  0  0  0  0  0  0
    7.6213   -6.5618   16.0087 C   0  0  0  0  0  0  0  0  0  0  0  0
   10.8583   -2.6527   20.7222 C   0  0  0  0  0  0  0  0  0  0  0  0
   10.6412   -3.5089   21.7936 C   0  0  0  0  0  0  0  0  0  0  0  0
   10.4972   -3.8968   24.1589 C   0  0  0  0  0  0  0  0  0  0  0  0
    5.9260   -8.2736   16.5517 C   0  0  0  0  0  0  0  0  0  0  0  0
    3.8816   -9.1166   17.2493 C   0  0  0  0  0  0  0  0  0  0  0  0
   10.1297   -1.6575   23.2324 C   0  0  0  0  0  0  0  0  0  0  0  0
    9.4684   -1.6929   26.7263 F   0  0  0  0  0  0  0  0  0  0  0  0
    7.7963   -7.7906   17.9837 C   0  0  0  0  0  0  0  0  0  0  0  0
   10.5884   -3.0725   16.7902 O   0  0  0  0  0  0  0  0  0  0  0  0
   10.4323   -5.3494   20.3516 C   0  0  0  0  0  0  0  0  0  0  0  0
    7.1156   -7.5454   16.8218 C   0  0  0  0  0  0  0  0  0  0  0  0
   10.3885   -4.4388   19.2773 C   0  0  0  0  0  0  0  0  0  0  0  0
    4.5160   -9.3822   15.0841 C   0  0  0  0  0  0  0  0  0  0  0  0
  1  3  4  0
  1 24  4  0
  2  6  4  0
  2 15  4  0
  3  5  4  0
  3  6  4  0
  4 21  4  0
  4 29  4  0
  5 15  4  0
  5 28  1  0
  6 16  4  0
  7 18  4  0
  7 26  4  0
  8 18  1  0
  8 19  4  0
  8 22  4  0
  9 12  4  0
  9 19  4  0
 10 12  4  0
 10 22  4  0
 11 20  4  0
 11 21  4  0
 12 23  1  0
 13 20  4  0
 13 29  4  0
 14 17  4  0
 14 28  4  0
 15 25  2  0
 16 27  4  0
 17 18  4  0
 20 27  1  0
 24 27  4  0
 26 28  4  0
M  END
$$$$

 Created by Python create_sdf_string function

 29 33  0  0  0  0  0  0  0  0999 V2000
    8.8270   -7.0288   18.4251 C   0  0  0  0  0  0  0  0  0  0  0  0
    9.1576   -4.6236   15.8860 O   0  0  0  0  0  0  0  0  0  0  0  0
    9.1509   -5.9108   17.7177 C   0  0  0  0  0  0  0  0  0  0  0  0
    3.6373   -9.5349   16.0582 N   0  0  0  0  0  0  0  0  0  0  0  0
    9.9275   -4.8001   18.0438 N   0  0  0  0  0  0  0  0  0  0  0  0
    8.5908   -5.7425   16.4412 C   0  0  0  0  0  0  0  0  0  0  0  0
   10.5993   -4.8981   21.6068 C   0  0  0  0  0  0  0  0  0  0  0  0
   10.4258   -3.0106   23.0998 C   0  0  0  0  0  0  0  0  0  0  0  0
   10.2148   -3.4364   25.4200 C   0  0  0  0  0  0  0  0  0  0  0  0
    9.7853   -1.1840   24.4927 C   0  0  0  0  0  0  0  0  0  0  0  0
    5.0276   -8.5227   17.5352 C   0  0  0  0  0  0  0  0  0  0  0  0
    9.8187   -2.0895   25.5800 C   0  0  0  0  0  0  0  0  0  0  0  0
    5.6473   -8.7216   15.3158 C   0  0  0  0  0  0  0  0  0  0  0  0
   10.7581   -3.1233   19.4720 N   0  0  0  0  0  0  0  0  0  0  0  0
    9.9571   -4.0573   16.8866 C   0  0  0  0  0  0  0  0  0  0  0  0
    7.6213   -6.5618   16.0087 C   0  0  0  0  0  0  0  0  0  0  0  0
   10.8583   -2.6527   20.7222 C   0  0  0  0  0  0  0  0  0  0  0  0
   10.6412   -3.5089   21.7936 C   0  0  0  0  0  0  0  0  0  0  0  0
   10.4972   -3.8968   24.1589 C   0  0  0  0  0  0  0  0  0  0  0  0
    5.9260   -8.2736   16.5517 C   0  0  0  0  0  0  0  0  0  0  0  0
    3.8816   -9.1166   17.2493 C   0  0  0  0  0  0  0  0  0  0  0  0
   10.1297   -1.6575   23.2324 C   0  0  0  0  0  0  0  0  0  0  0  0
    9.4684   -1.6929   26.7263 F   0  0  0  0  0  0  0  0  0  0  0  0
    7.7963   -7.7906   17.9837 C   0  0  0  0  0  0  0  0  0  0  0  0
   10.5884   -3.0725   16.7902 O   0  0  0  0  0  0  0  0  0  0  0  0
   10.4323   -5.3494   20.3516 C   0  0  0  0  0  0  0  0  0  0  0  0
    7.1156   -7.5454   16.8218 C   0  0  0  0  0  0  0  0  0  0  0  0
   10.3885   -4.4388   19.2773 C   0  0  0  0  0  0  0  0  0  0  0  0
    4.5160   -9.3822   15.0841 C   0  0  0  0  0  0  0  0  0  0  0  0
  1  3  4  0
  1 24  4  0
  2  6  4  0
  2 15  4  0
  3  5  4  0
  3  6  4  0
  4 21  4  0
  4 29  4  0
  5 15  4  0
  5 28  1  0
  6 16  4  0
  7 18  4  0
  7 26  4  0
  8 18  1  0
  8 19  4  0
  8 22  4  0
  9 12  4  0
  9 19  4  0
 10 12  4  0
 10 22  4  0
 11 20  4  0
 11 21  4  0
 12 23  1  0
 13 20  4  0
 13 29  4  0
 14 17  4  0
 14 28  4  0
 15 25  2  0
 16 27  4  0
 17 18  4  0
 20 27  1  0
 24 27  4  0
 26 28  4  0
M  END
$$$$

 Created by Python create_sdf_string function

 29 33  0  0  0  0  0  0  0  0999 V2000
    8.8270   -7.0288   18.4251 C   0  0  0  0  0  0  0  0  0  0  0  0
    9.1576   -4.6236   15.8860 O   0  0  0  0  0  0  0  0  0  0  0  0
    9.1509   -5.9108   17.7177 C   0  0  0  0  0  0  0  0  0  0  0  0
    3.6373   -9.5349   16.0582 N   0  0  0  0  0  0  0  0  0  0  0  0
    9.9275   -4.8001   18.0438 N   0  0  0  0  0  0  0  0  0  0  0  0
    8.5908   -5.7425   16.4412 C   0  0  0  0  0  0  0  0  0  0  0  0
   10.5993   -4.8981   21.6068 C   0  0  0  0  0  0  0  0  0  0  0  0
   10.4258   -3.0106   23.0998 C   0  0  0  0  0  0  0  0  0  0  0  0
   10.2148   -3.4364   25.4200 C   0  0  0  0  0  0  0  0  0  0  0  0
    9.7853   -1.1840   24.4927 C   0  0  0  0  0  0  0  0  0  0  0  0
    5.0276   -8.5227   17.5352 C   0  0  0  0  0  0  0  0  0  0  0  0
    9.8187   -2.0895   25.5800 C   0  0  0  0  0  0  0  0  0  0  0  0
    5.6473   -8.7216   15.3158 C   0  0  0  0  0  0  0  0  0  0  0  0
   10.7581   -3.1233   19.4720 N   0  0  0  0  0  0  0  0  0  0  0  0
    9.9571   -4.0573   16.8866 C   0  0  0  0  0  0  0  0  0  0  0  0
    7.6213   -6.5618   16.0087 C   0  0  0  0  0  0  0  0  0  0  0  0
   10.8583   -2.6527   20.7222 C   0  0  0  0  0  0  0  0  0  0  0  0
   10.6412   -3.5089   21.7936 C   0  0  0  0  0  0  0  0  0  0  0  0
   10.4972   -3.8968   24.1589 C   0  0  0  0  0  0  0  0  0  0  0  0
    5.9260   -8.2736   16.5517 C   0  0  0  0  0  0  0  0  0  0  0  0
    3.8816   -9.1166   17.2493 C   0  0  0  0  0  0  0  0  0  0  0  0
   10.1297   -1.6575   23.2324 C   0  0  0  0  0  0  0  0  0  0  0  0
    9.4684   -1.6929   26.7263 F   0  0  0  0  0  0  0  0  0  0  0  0
    7.7963   -7.7906   17.9837 C   0  0  0  0  0  0  0  0  0  0  0  0
   10.5884   -3.0725   16.7902 O   0  0  0  0  0  0  0  0  0  0  0  0
   10.4323   -5.3494   20.3516 C   0  0  0  0  0  0  0  0  0  0  0  0
    7.1156   -7.5454   16.8218 C   0  0  0  0  0  0  0  0  0  0  0  0
   10.3885   -4.4388   19.2773 C   0  0  0  0  0  0  0  0  0  0  0  0
    4.5160   -9.3822   15.0841 C   0  0  0  0  0  0  0  0  0  0  0  0
  1  3  4  0
  1 24  4  0
  2  6  4  0
  2 15  4  0
  3  5  4  0
  3  6  4  0
  4 21  4  0
  4 29  4  0
  5 15  4  0
  5 28  1  0
  6 16  4  0
  7 18  4  0
  7 26  4  0
  8 18  1  0
  8 19  4  0
  8 22  4  0
  9 12  4  0
  9 19  4  0
 10 12  4  0
 10 22  4  0
 11 20  4  0
 11 21  4  0
 12 23  1  0
 13 20  4  0
 13 29  4  0
 14 17  4  0
 14 28  4  0
 15 25  2  0
 16 27  4  0
 17 18  4  0
 20 27  1  0
 24 27  4  0
 26 28  4  0
M  END
$$$$

 Created by Python create_sdf_string function

 29 33  0  0  0  0  0  0  0  0999 V2000
    8.8270   -7.0288   18.4251 C   0  0  0  0  0  0  0  0  0  0  0  0
    9.1576   -4.6236   15.8860 O   0  0  0  0  0  0  0  0  0  0  0  0
    9.1509   -5.9108   17.7177 C   0  0  0  0  0  0  0  0  0  0  0  0
    3.6373   -9.5349   16.0582 N   0  0  0  0  0  0  0  0  0  0  0  0
    9.9275   -4.8001   18.0438 N   0  0  0  0  0  0  0  0  0  0  0  0
    8.5908   -5.7425   16.4412 C   0  0  0  0  0  0  0  0  0  0  0  0
   10.5993   -4.8981   21.6068 C   0  0  0  0  0  0  0  0  0  0  0  0
   10.4258   -3.0106   23.0998 C   0  0  0  0  0  0  0  0  0  0  0  0
   10.2148   -3.4364   25.4200 C   0  0  0  0  0  0  0  0  0  0  0  0
    9.7853   -1.1840   24.4927 C   0  0  0  0  0  0  0  0  0  0  0  0
    5.0276   -8.5227   17.5352 C   0  0  0  0  0  0  0  0  0  0  0  0
    9.8187   -2.0895   25.5800 C   0  0  0  0  0  0  0  0  0  0  0  0
    5.6473   -8.7216   15.3158 C   0  0  0  0  0  0  0  0  0  0  0  0
   10.7581   -3.1233   19.4720 N   0  0  0  0  0  0  0  0  0  0  0  0
    9.9571   -4.0573   16.8866 C   0  0  0  0  0  0  0  0  0  0  0  0
    7.6213   -6.5618   16.0087 C   0  0  0  0  0  0  0  0  0  0  0  0
   10.8583   -2.6527   20.7222 C   0  0  0  0  0  0  0  0  0  0  0  0
   10.6412   -3.5089   21.7936 C   0  0  0  0  0  0  0  0  0  0  0  0
   10.4972   -3.8968   24.1589 C   0  0  0  0  0  0  0  0  0  0  0  0
    5.9260   -8.2736   16.5517 C   0  0  0  0  0  0  0  0  0  0  0  0
    3.8816   -9.1166   17.2493 C   0  0  0  0  0  0  0  0  0  0  0  0
   10.1297   -1.6575   23.2324 C   0  0  0  0  0  0  0  0  0  0  0  0
    9.4684   -1.6929   26.7263 F   0  0  0  0  0  0  0  0  0  0  0  0
    7.7963   -7.7906   17.9837 C   0  0  0  0  0  0  0  0  0  0  0  0
   10.5884   -3.0725   16.7902 O   0  0  0  0  0  0  0  0  0  0  0  0
   10.4323   -5.3494   20.3516 C   0  0  0  0  0  0  0  0  0  0  0  0
    7.1156   -7.5454   16.8218 C   0  0  0  0  0  0  0  0  0  0  0  0
   10.3885   -4.4388   19.2773 C   0  0  0  0  0  0  0  0  0  0  0  0
    4.5160   -9.3822   15.0841 C   0  0  0  0  0  0  0  0  0  0  0  0
  1  3  4  0
  1 24  4  0
  2  6  4  0
  2 15  4  0
  3  5  4  0
  3  6  4  0
  4 21  4  0
  4 29  4  0
  5 15  4  0
  5 28  1  0
  6 16  4  0
  7 18  4  0
  7 26  4  0
  8 18  1  0
  8 19  4  0
  8 22  4  0
  9 12  4  0
  9 19  4  0
 10 12  4  0
 10 22  4  0
 11 20  4  0
 11 21  4  0
 12 23  1  0
 13 20  4  0
 13 29  4  0
 14 17  4  0
 14 28  4  0
 15 25  2  0
 16 27  4  0
 17 18  4  0
 20 27  1  0
 24 27  4  0
 26 28  4  0
M  END
$$$$

 Created by Python create_sdf_string function

 29 33  0  0  0  0  0  0  0  0999 V2000
    8.8270   -7.0288   18.4251 C   0  0  0  0  0  0  0  0  0  0  0  0
    9.1576   -4.6236   15.8860 O   0  0  0  0  0  0  0  0  0  0  0  0
    9.1509   -5.9108   17.7177 C   0  0  0  0  0  0  0  0  0  0  0  0
    3.6373   -9.5349   16.0582 N   0  0  0  0  0  0  0  0  0  0  0  0
    9.9275   -4.8001   18.0438 N   0  0  0  0  0  0  0  0  0  0  0  0
    8.5908   -5.7425   16.4412 C   0  0  0  0  0  0  0  0  0  0  0  0
   10.5993   -4.8981   21.6068 C   0  0  0  0  0  0  0  0  0  0  0  0
   10.4258   -3.0106   23.0998 C   0  0  0  0  0  0  0  0  0  0  0  0
   10.2148   -3.4364   25.4200 C   0  0  0  0  0  0  0  0  0  0  0  0
    9.7853   -1.1840   24.4927 C   0  0  0  0  0  0  0  0  0  0  0  0
    5.0276   -8.5227   17.5352 C   0  0  0  0  0  0  0  0  0  0  0  0
    9.8187   -2.0895   25.5800 C   0  0  0  0  0  0  0  0  0  0  0  0
    5.6473   -8.7216   15.3158 C   0  0  0  0  0  0  0  0  0  0  0  0
   10.7581   -3.1233   19.4720 N   0  0  0  0  0  0  0  0  0  0  0  0
    9.9571   -4.0573   16.8866 C   0  0  0  0  0  0  0  0  0  0  0  0
    7.6213   -6.5618   16.0087 C   0  0  0  0  0  0  0  0  0  0  0  0
   10.8583   -2.6527   20.7222 C   0  0  0  0  0  0  0  0  0  0  0  0
   10.6412   -3.5089   21.7936 C   0  0  0  0  0  0  0  0  0  0  0  0
   10.4972   -3.8968   24.1589 C   0  0  0  0  0  0  0  0  0  0  0  0
    5.9260   -8.2736   16.5517 C   0  0  0  0  0  0  0  0  0  0  0  0
    3.8816   -9.1166   17.2493 C   0  0  0  0  0  0  0  0  0  0  0  0
   10.1297   -1.6575   23.2324 C   0  0  0  0  0  0  0  0  0  0  0  0
    9.4684   -1.6929   26.7263 F   0  0  0  0  0  0  0  0  0  0  0  0
    7.7963   -7.7906   17.9837 C   0  0  0  0  0  0  0  0  0  0  0  0
   10.5884   -3.0725   16.7902 O   0  0  0  0  0  0  0  0  0  0  0  0
   10.4323   -5.3494   20.3516 C   0  0  0  0  0  0  0  0  0  0  0  0
    7.1156   -7.5454   16.8218 C   0  0  0  0  0  0  0  0  0  0  0  0
   10.3885   -4.4388   19.2773 C   0  0  0  0  0  0  0  0  0  0  0  0
    4.5160   -9.3822   15.0841 C   0  0  0  0  0  0  0  0  0  0  0  0
  1  3  4  0
  1 24  4  0
  2  6  4  0
  2 15  4  0
  3  5  4  0
  3  6  4  0
  4 21  4  0
  4 29  4  0
  5 15  4  0
  5 28  1  0
  6 16  4  0
  7 18  4  0
  7 26  4  0
  8 18  1  0
  8 19  4  0
  8 22  4  0
  9 12  4  0
  9 19  4  0
 10 12  4  0
 10 22  4  0
 11 20  4  0
 11 21  4  0
 12 23  1  0
 13 20  4  0
 13 29  4  0
 14 17  4  0
 14 28  4  0
 15 25  2  0
 16 27  4  0
 17 18  4  0
 20 27  1  0
 24 27  4  0
 26 28  4  0
M  END
$$$$

 Created by Python create_sdf_string function

 29 33  0  0  0  0  0  0  0  0999 V2000
    8.8270   -7.0288   18.4251 C   0  0  0  0  0  0  0  0  0  0  0  0
    9.1576   -4.6236   15.8860 O   0  0  0  0  0  0  0  0  0  0  0  0
    9.1509   -5.9108   17.7177 C   0  0  0  0  0  0  0  0  0  0  0  0
    3.6373   -9.5349   16.0582 N   0  0  0  0  0  0  0  0  0  0  0  0
    9.9275   -4.8001   18.0438 N   0  0  0  0  0  0  0  0  0  0  0  0
    8.5908   -5.7425   16.4412 C   0  0  0  0  0  0  0  0  0  0  0  0
   10.5993   -4.8981   21.6068 C   0  0  0  0  0  0  0  0  0  0  0  0
   10.4258   -3.0106   23.0998 C   0  0  0  0  0  0  0  0  0  0  0  0
   10.2148   -3.4364   25.4200 C   0  0  0  0  0  0  0  0  0  0  0  0
    9.7853   -1.1840   24.4927 C   0  0  0  0  0  0  0  0  0  0  0  0
    5.0276   -8.5227   17.5352 C   0  0  0  0  0  0  0  0  0  0  0  0
    9.8187   -2.0895   25.5800 C   0  0  0  0  0  0  0  0  0  0  0  0
    5.6473   -8.7216   15.3158 C   0  0  0  0  0  0  0  0  0  0  0  0
   10.7581   -3.1233   19.4720 N   0  0  0  0  0  0  0  0  0  0  0  0
    9.9571   -4.0573   16.8866 C   0  0  0  0  0  0  0  0  0  0  0  0
    7.6213   -6.5618   16.0087 C   0  0  0  0  0  0  0  0  0  0  0  0
   10.8583   -2.6527   20.7222 C   0  0  0  0  0  0  0  0  0  0  0  0
   10.6412   -3.5089   21.7936 C   0  0  0  0  0  0  0  0  0  0  0  0
   10.4972   -3.8968   24.1589 C   0  0  0  0  0  0  0  0  0  0  0  0
    5.9260   -8.2736   16.5517 C   0  0  0  0  0  0  0  0  0  0  0  0
    3.8816   -9.1166   17.2493 C   0  0  0  0  0  0  0  0  0  0  0  0
   10.1297   -1.6575   23.2324 C   0  0  0  0  0  0  0  0  0  0  0  0
    9.4684   -1.6929   26.7263 F   0  0  0  0  0  0  0  0  0  0  0  0
    7.7963   -7.7906   17.9837 C   0  0  0  0  0  0  0  0  0  0  0  0
   10.5884   -3.0725   16.7902 O   0  0  0  0  0  0  0  0  0  0  0  0
   10.4323   -5.3494   20.3516 C   0  0  0  0  0  0  0  0  0  0  0  0
    7.1156   -7.5454   16.8218 C   0  0  0  0  0  0  0  0  0  0  0  0
   10.3885   -4.4388   19.2773 C   0  0  0  0  0  0  0  0  0  0  0  0
    4.5160   -9.3822   15.0841 C   0  0  0  0  0  0  0  0  0  0  0  0
  1  3  4  0
  1 24  4  0
  2  6  4  0
  2 15  4  0
  3  5  4  0
  3  6  4  0
  4 21  4  0
  4 29  4  0
  5 15  4  0
  5 28  1  0
  6 16  4  0
  7 18  4  0
  7 26  4  0
  8 18  1  0
  8 19  4  0
  8 22  4  0
  9 12  4  0
  9 19  4  0
 10 12  4  0
 10 22  4  0
 11 20  4  0
 11 21  4  0
 12 23  1  0
 13 20  4  0
 13 29  4  0
 14 17  4  0
 14 28  4  0
 15 25  2  0
 16 27  4  0
 17 18  4  0
 20 27  1  0
 24 27  4  0
 26 28  4  0
M  END
$$$$

 Created by Python create_sdf_string function

 29 33  0  0  0  0  0  0  0  0999 V2000
    8.8270   -7.0288   18.4251 C   0  0  0  0  0  0  0  0  0  0  0  0
    9.1576   -4.6236   15.8860 O   0  0  0  0  0  0  0  0  0  0  0  0
    9.1509   -5.9108   17.7177 C   0  0  0  0  0  0  0  0  0  0  0  0
    3.6373   -9.5349   16.0582 N   0  0  0  0  0  0  0  0  0  0  0  0
    9.9275   -4.8001   18.0438 N   0  0  0  0  0  0  0  0  0  0  0  0
    8.5908   -5.7425   16.4412 C   0  0  0  0  0  0  0  0  0  0  0  0
   10.5993   -4.8981   21.6068 C   0  0  0  0  0  0  0  0  0  0  0  0
   10.4258   -3.0106   23.0998 C   0  0  0  0  0  0  0  0  0  0  0  0
   10.2148   -3.4364   25.4200 C   0  0  0  0  0  0  0  0  0  0  0  0
    9.7853   -1.1840   24.4927 C   0  0  0  0  0  0  0  0  0  0  0  0
    5.0276   -8.5227   17.5352 C   0  0  0  0  0  0  0  0  0  0  0  0
    9.8187   -2.0895   25.5800 C   0  0  0  0  0  0  0  0  0  0  0  0
    5.6473   -8.7216   15.3158 C   0  0  0  0  0  0  0  0  0  0  0  0
   10.7581   -3.1233   19.4720 N   0  0  0  0  0  0  0  0  0  0  0  0
    9.9571   -4.0573   16.8866 C   0  0  0  0  0  0  0  0  0  0  0  0
    7.6213   -6.5618   16.0087 C   0  0  0  0  0  0  0  0  0  0  0  0
   10.8583   -2.6527   20.7222 C   0  0  0  0  0  0  0  0  0  0  0  0
   10.6412   -3.5089   21.7936 C   0  0  0  0  0  0  0  0  0  0  0  0
   10.4972   -3.8968   24.1589 C   0  0  0  0  0  0  0  0  0  0  0  0
    5.9260   -8.2736   16.5517 C   0  0  0  0  0  0  0  0  0  0  0  0
    3.8816   -9.1166   17.2493 C   0  0  0  0  0  0  0  0  0  0  0  0
   10.1297   -1.6575   23.2324 C   0  0  0  0  0  0  0  0  0  0  0  0
    9.4684   -1.6929   26.7263 F   0  0  0  0  0  0  0  0  0  0  0  0
    7.7963   -7.7906   17.9837 C   0  0  0  0  0  0  0  0  0  0  0  0
   10.5884   -3.0725   16.7902 O   0  0  0  0  0  0  0  0  0  0  0  0
   10.4323   -5.3494   20.3516 C   0  0  0  0  0  0  0  0  0  0  0  0
    7.1156   -7.5454   16.8218 C   0  0  0  0  0  0  0  0  0  0  0  0
   10.3885   -4.4388   19.2773 C   0  0  0  0  0  0  0  0  0  0  0  0
    4.5160   -9.3822   15.0841 C   0  0  0  0  0  0  0  0  0  0  0  0
  1  3  4  0
  1 24  4  0
  2  6  4  0
  2 15  4  0
  3  5  4  0
  3  6  4  0
  4 21  4  0
  4 29  4  0
  5 15  4  0
  5 28  1  0
  6 16  4  0
  7 18  4  0
  7 26  4  0
  8 18  1  0
  8 19  4  0
  8 22  4  0
  9 12  4  0
  9 19  4  0
 10 12  4  0
 10 22  4  0
 11 20  4  0
 11 21  4  0
 12 23  1  0
 13 20  4  0
 13 29  4  0
 14 17  4  0
 14 28  4  0
 15 25  2  0
 16 27  4  0
 17 18  4  0
 20 27  1  0
 24 27  4  0
 26 28  4  0
M  END
$$$$

 Created by Python create_sdf_string function

 29 33  0  0  0  0  0  0  0  0999 V2000
    8.8270   -7.0288   18.4251 C   0  0  0  0  0  0  0  0  0  0  0  0
    9.1576   -4.6236   15.8860 O   0  0  0  0  0  0  0  0  0  0  0  0
    9.1509   -5.9108   17.7177 C   0  0  0  0  0  0  0  0  0  0  0  0
    3.6373   -9.5349   16.0582 N   0  0  0  0  0  0  0  0  0  0  0  0
    9.9275   -4.8001   18.0438 N   0  0  0  0  0  0  0  0  0  0  0  0
    8.5908   -5.7425   16.4412 C   0  0  0  0  0  0  0  0  0  0  0  0
   10.5993   -4.8981   21.6068 C   0  0  0  0  0  0  0  0  0  0  0  0
   10.4258   -3.0106   23.0998 C   0  0  0  0  0  0  0  0  0  0  0  0
   10.2148   -3.4364   25.4200 C   0  0  0  0  0  0  0  0  0  0  0  0
    9.7853   -1.1840   24.4927 C   0  0  0  0  0  0  0  0  0  0  0  0
    5.0276   -8.5227   17.5352 C   0  0  0  0  0  0  0  0  0  0  0  0
    9.8187   -2.0895   25.5800 C   0  0  0  0  0  0  0  0  0  0  0  0
    5.6473   -8.7216   15.3158 C   0  0  0  0  0  0  0  0  0  0  0  0
   10.7581   -3.1233   19.4720 N   0  0  0  0  0  0  0  0  0  0  0  0
    9.9571   -4.0573   16.8866 C   0  0  0  0  0  0  0  0  0  0  0  0
    7.6213   -6.5618   16.0087 C   0  0  0  0  0  0  0  0  0  0  0  0
   10.8583   -2.6527   20.7222 C   0  0  0  0  0  0  0  0  0  0  0  0
   10.6412   -3.5089   21.7936 C   0  0  0  0  0  0  0  0  0  0  0  0
   10.4972   -3.8968   24.1589 C   0  0  0  0  0  0  0  0  0  0  0  0
    5.9260   -8.2736   16.5517 C   0  0  0  0  0  0  0  0  0  0  0  0
    3.8816   -9.1166   17.2493 C   0  0  0  0  0  0  0  0  0  0  0  0
   10.1297   -1.6575   23.2324 C   0  0  0  0  0  0  0  0  0  0  0  0
    9.4684   -1.6929   26.7263 F   0  0  0  0  0  0  0  0  0  0  0  0
    7.7963   -7.7906   17.9837 C   0  0  0  0  0  0  0  0  0  0  0  0
   10.5884   -3.0725   16.7902 O   0  0  0  0  0  0  0  0  0  0  0  0
   10.4323   -5.3494   20.3516 C   0  0  0  0  0  0  0  0  0  0  0  0
    7.1156   -7.5454   16.8218 C   0  0  0  0  0  0  0  0  0  0  0  0
   10.3885   -4.4388   19.2773 C   0  0  0  0  0  0  0  0  0  0  0  0
    4.5160   -9.3822   15.0841 C   0  0  0  0  0  0  0  0  0  0  0  0
  1  3  4  0
  1 24  4  0
  2  6  4  0
  2 15  4  0
  3  5  4  0
  3  6  4  0
  4 21  4  0
  4 29  4  0
  5 15  4  0
  5 28  1  0
  6 16  4  0
  7 18  4  0
  7 26  4  0
  8 18  1  0
  8 19  4  0
  8 22  4  0
  9 12  4  0
  9 19  4  0
 10 12  4  0
 10 22  4  0
 11 20  4  0
 11 21  4  0
 12 23  1  0
 13 20  4  0
 13 29  4  0
 14 17  4  0
 14 28  4  0
 15 25  2  0
 16 27  4  0
 17 18  4  0
 20 27  1  0
 24 27  4  0
 26 28  4  0
M  END
$$$$

 Created by Python create_sdf_string function

 29 33  0  0  0  0  0  0  0  0999 V2000
    8.8270   -7.0288   18.4251 C   0  0  0  0  0  0  0  0  0  0  0  0
    9.1576   -4.6236   15.8860 O   0  0  0  0  0  0  0  0  0  0  0  0
    9.1509   -5.9108   17.7177 C   0  0  0  0  0  0  0  0  0  0  0  0
    3.6373   -9.5349   16.0582 N   0  0  0  0  0  0  0  0  0  0  0  0
    9.9275   -4.8001   18.0438 N   0  0  0  0  0  0  0  0  0  0  0  0
    8.5908   -5.7425   16.4412 C   0  0  0  0  0  0  0  0  0  0  0  0
   10.5993   -4.8981   21.6068 C   0  0  0  0  0  0  0  0  0  0  0  0
   10.4258   -3.0106   23.0998 C   0  0  0  0  0  0  0  0  0  0  0  0
   10.2148   -3.4364   25.4200 C   0  0  0  0  0  0  0  0  0  0  0  0
    9.7853   -1.1840   24.4927 C   0  0  0  0  0  0  0  0  0  0  0  0
    5.0276   -8.5227   17.5352 C   0  0  0  0  0  0  0  0  0  0  0  0
    9.8187   -2.0895   25.5800 C   0  0  0  0  0  0  0  0  0  0  0  0
    5.6473   -8.7216   15.3158 C   0  0  0  0  0  0  0  0  0  0  0  0
   10.7581   -3.1233   19.4720 N   0  0  0  0  0  0  0  0  0  0  0  0
    9.9571   -4.0573   16.8866 C   0  0  0  0  0  0  0  0  0  0  0  0
    7.6213   -6.5618   16.0087 C   0  0  0  0  0  0  0  0  0  0  0  0
   10.8583   -2.6527   20.7222 C   0  0  0  0  0  0  0  0  0  0  0  0
   10.6412   -3.5089   21.7936 C   0  0  0  0  0  0  0  0  0  0  0  0
   10.4972   -3.8968   24.1589 C   0  0  0  0  0  0  0  0  0  0  0  0
    5.9260   -8.2736   16.5517 C   0  0  0  0  0  0  0  0  0  0  0  0
    3.8816   -9.1166   17.2493 C   0  0  0  0  0  0  0  0  0  0  0  0
   10.1297   -1.6575   23.2324 C   0  0  0  0  0  0  0  0  0  0  0  0
    9.4684   -1.6929   26.7263 F   0  0  0  0  0  0  0  0  0  0  0  0
    7.7963   -7.7906   17.9837 C   0  0  0  0  0  0  0  0  0  0  0  0
   10.5884   -3.0725   16.7902 O   0  0  0  0  0  0  0  0  0  0  0  0
   10.4323   -5.3494   20.3516 C   0  0  0  0  0  0  0  0  0  0  0  0
    7.1156   -7.5454   16.8218 C   0  0  0  0  0  0  0  0  0  0  0  0
   10.3885   -4.4388   19.2773 C   0  0  0  0  0  0  0  0  0  0  0  0
    4.5160   -9.3822   15.0841 C   0  0  0  0  0  0  0  0  0  0  0  0
  1  3  4  0
  1 24  4  0
  2  6  4  0
  2 15  4  0
  3  5  4  0
  3  6  4  0
  4 21  4  0
  4 29  4  0
  5 15  4  0
  5 28  1  0
  6 16  4  0
  7 18  4  0
  7 26  4  0
  8 18  1  0
  8 19  4  0
  8 22  4  0
  9 12  4  0
  9 19  4  0
 10 12  4  0
 10 22  4  0
 11 20  4  0
 11 21  4  0
 12 23  1  0
 13 20  4  0
 13 29  4  0
 14 17  4  0
 14 28  4  0
 15 25  2  0
 16 27  4  0
 17 18  4  0
 20 27  1  0
 24 27  4  0
 26 28  4  0
M  END
$$$$

 Created by Python create_sdf_string function

 29 33  0  0  0  0  0  0  0  0999 V2000
    8.8270   -7.0288   18.4251 C   0  0  0  0  0  0  0  0  0  0  0  0
    9.1576   -4.6236   15.8860 O   0  0  0  0  0  0  0  0  0  0  0  0
    9.1509   -5.9108   17.7177 C   0  0  0  0  0  0  0  0  0  0  0  0
    3.6373   -9.5349   16.0582 N   0  0  0  0  0  0  0  0  0  0  0  0
    9.9275   -4.8001   18.0438 N   0  0  0  0  0  0  0  0  0  0  0  0
    8.5908   -5.7425   16.4412 C   0  0  0  0  0  0  0  0  0  0  0  0
   10.5993   -4.8981   21.6068 C   0  0  0  0  0  0  0  0  0  0  0  0
   10.4258   -3.0106   23.0998 C   0  0  0  0  0  0  0  0  0  0  0  0
   10.2148   -3.4364   25.4200 C   0  0  0  0  0  0  0  0  0  0  0  0
    9.7853   -1.1840   24.4927 C   0  0  0  0  0  0  0  0  0  0  0  0
    5.0276   -8.5227   17.5352 C   0  0  0  0  0  0  0  0  0  0  0  0
    9.8187   -2.0895   25.5800 C   0  0  0  0  0  0  0  0  0  0  0  0
    5.6473   -8.7216   15.3158 C   0  0  0  0  0  0  0  0  0  0  0  0
   10.7581   -3.1233   19.4720 N   0  0  0  0  0  0  0  0  0  0  0  0
    9.9571   -4.0573   16.8866 C   0  0  0  0  0  0  0  0  0  0  0  0
    7.6213   -6.5618   16.0087 C   0  0  0  0  0  0  0  0  0  0  0  0
   10.8583   -2.6527   20.7222 C   0  0  0  0  0  0  0  0  0  0  0  0
   10.6412   -3.5089   21.7936 C   0  0  0  0  0  0  0  0  0  0  0  0
   10.4972   -3.8968   24.1589 C   0  0  0  0  0  0  0  0  0  0  0  0
    5.9260   -8.2736   16.5517 C   0  0  0  0  0  0  0  0  0  0  0  0
    3.8816   -9.1166   17.2493 C   0  0  0  0  0  0  0  0  0  0  0  0
   10.1297   -1.6575   23.2324 C   0  0  0  0  0  0  0  0  0  0  0  0
    9.4684   -1.6929   26.7263 F   0  0  0  0  0  0  0  0  0  0  0  0
    7.7963   -7.7906   17.9837 C   0  0  0  0  0  0  0  0  0  0  0  0
   10.5884   -3.0725   16.7902 O   0  0  0  0  0  0  0  0  0  0  0  0
   10.4323   -5.3494   20.3516 C   0  0  0  0  0  0  0  0  0  0  0  0
    7.1156   -7.5454   16.8218 C   0  0  0  0  0  0  0  0  0  0  0  0
   10.3885   -4.4388   19.2773 C   0  0  0  0  0  0  0  0  0  0  0  0
    4.5160   -9.3822   15.0841 C   0  0  0  0  0  0  0  0  0  0  0  0
  1  3  4  0
  1 24  4  0
  2  6  4  0
  2 15  4  0
  3  5  4  0
  3  6  4  0
  4 21  4  0
  4 29  4  0
  5 15  4  0
  5 28  1  0
  6 16  4  0
  7 18  4  0
  7 26  4  0
  8 18  1  0
  8 19  4  0
  8 22  4  0
  9 12  4  0
  9 19  4  0
 10 12  4  0
 10 22  4  0
 11 20  4  0
 11 21  4  0
 12 23  1  0
 13 20  4  0
 13 29  4  0
 14 17  4  0
 14 28  4  0
 15 25  2  0
 16 27  4  0
 17 18  4  0
 20 27  1  0
 24 27  4  0
 26 28  4  0
M  END
$$$$

 Created by Python create_sdf_string function

 29 33  0  0  0  0  0  0  0  0999 V2000
    8.8270   -7.0288   18.4251 C   0  0  0  0  0  0  0  0  0  0  0  0
    9.1576   -4.6236   15.8860 O   0  0  0  0  0  0  0  0  0  0  0  0
    9.1509   -5.9108   17.7177 C   0  0  0  0  0  0  0  0  0  0  0  0
    3.6373   -9.5349   16.0582 N   0  0  0  0  0  0  0  0  0  0  0  0
    9.9275   -4.8001   18.0438 N   0  0  0  0  0  0  0  0  0  0  0  0
    8.5908   -5.7425   16.4412 C   0  0  0  0  0  0  0  0  0  0  0  0
   10.5993   -4.8981   21.6068 C   0  0  0  0  0  0  0  0  0  0  0  0
   10.4258   -3.0106   23.0998 C   0  0  0  0  0  0  0  0  0  0  0  0
   10.2148   -3.4364   25.4200 C   0  0  0  0  0  0  0  0  0  0  0  0
    9.7853   -1.1840   24.4927 C   0  0  0  0  0  0  0  0  0  0  0  0
    5.0276   -8.5227   17.5352 C   0  0  0  0  0  0  0  0  0  0  0  0
    9.8187   -2.0895   25.5800 C   0  0  0  0  0  0  0  0  0  0  0  0
    5.6473   -8.7216   15.3158 C   0  0  0  0  0  0  0  0  0  0  0  0
   10.7581   -3.1233   19.4720 N   0  0  0  0  0  0  0  0  0  0  0  0
    9.9571   -4.0573   16.8866 C   0  0  0  0  0  0  0  0  0  0  0  0
    7.6213   -6.5618   16.0087 C   0  0  0  0  0  0  0  0  0  0  0  0
   10.8583   -2.6527   20.7222 C   0  0  0  0  0  0  0  0  0  0  0  0
   10.6412   -3.5089   21.7936 C   0  0  0  0  0  0  0  0  0  0  0  0
   10.4972   -3.8968   24.1589 C   0  0  0  0  0  0  0  0  0  0  0  0
    5.9260   -8.2736   16.5517 C   0  0  0  0  0  0  0  0  0  0  0  0
    3.8816   -9.1166   17.2493 C   0  0  0  0  0  0  0  0  0  0  0  0
   10.1297   -1.6575   23.2324 C   0  0  0  0  0  0  0  0  0  0  0  0
    9.4684   -1.6929   26.7263 F   0  0  0  0  0  0  0  0  0  0  0  0
    7.7963   -7.7906   17.9837 C   0  0  0  0  0  0  0  0  0  0  0  0
   10.5884   -3.0725   16.7902 O   0  0  0  0  0  0  0  0  0  0  0  0
   10.4323   -5.3494   20.3516 C   0  0  0  0  0  0  0  0  0  0  0  0
    7.1156   -7.5454   16.8218 C   0  0  0  0  0  0  0  0  0  0  0  0
   10.3885   -4.4388   19.2773 C   0  0  0  0  0  0  0  0  0  0  0  0
    4.5160   -9.3822   15.0841 C   0  0  0  0  0  0  0  0  0  0  0  0
  1  3  4  0
  1 24  4  0
  2  6  4  0
  2 15  4  0
  3  5  4  0
  3  6  4  0
  4 21  4  0
  4 29  4  0
  5 15  4  0
  5 28  1  0
  6 16  4  0
  7 18  4  0
  7 26  4  0
  8 18  1  0
  8 19  4  0
  8 22  4  0
  9 12  4  0
  9 19  4  0
 10 12  4  0
 10 22  4  0
 11 20  4  0
 11 21  4  0
 12 23  1  0
 13 20  4  0
 13 29  4  0
 14 17  4  0
 14 28  4  0
 15 25  2  0
 16 27  4  0
 17 18  4  0
 20 27  1  0
 24 27  4  0
 26 28  4  0
M  END
$$$$

 Created by Python create_sdf_string function

 29 33  0  0  0  0  0  0  0  0999 V2000
    8.8270   -7.0288   18.4251 C   0  0  0  0  0  0  0  0  0  0  0  0
    9.1576   -4.6236   15.8860 O   0  0  0  0  0  0  0  0  0  0  0  0
    9.1509   -5.9108   17.7177 C   0  0  0  0  0  0  0  0  0  0  0  0
    3.6373   -9.5349   16.0582 N   0  0  0  0  0  0  0  0  0  0  0  0
    9.9275   -4.8001   18.0438 N   0  0  0  0  0  0  0  0  0  0  0  0
    8.5908   -5.7425   16.4412 C   0  0  0  0  0  0  0  0  0  0  0  0
   10.5993   -4.8981   21.6068 C   0  0  0  0  0  0  0  0  0  0  0  0
   10.4258   -3.0106   23.0998 C   0  0  0  0  0  0  0  0  0  0  0  0
   10.2148   -3.4364   25.4200 C   0  0  0  0  0  0  0  0  0  0  0  0
    9.7853   -1.1840   24.4927 C   0  0  0  0  0  0  0  0  0  0  0  0
    5.0276   -8.5227   17.5352 C   0  0  0  0  0  0  0  0  0  0  0  0
    9.8187   -2.0895   25.5800 C   0  0  0  0  0  0  0  0  0  0  0  0
    5.6473   -8.7216   15.3158 C   0  0  0  0  0  0  0  0  0  0  0  0
   10.7581   -3.1233   19.4720 N   0  0  0  0  0  0  0  0  0  0  0  0
    9.9571   -4.0573   16.8866 C   0  0  0  0  0  0  0  0  0  0  0  0
    7.6213   -6.5618   16.0087 C   0  0  0  0  0  0  0  0  0  0  0  0
   10.8583   -2.6527   20.7222 C   0  0  0  0  0  0  0  0  0  0  0  0
   10.6412   -3.5089   21.7936 C   0  0  0  0  0  0  0  0  0  0  0  0
   10.4972   -3.8968   24.1589 C   0  0  0  0  0  0  0  0  0  0  0  0
    5.9260   -8.2736   16.5517 C   0  0  0  0  0  0  0  0  0  0  0  0
    3.8816   -9.1166   17.2493 C   0  0  0  0  0  0  0  0  0  0  0  0
   10.1297   -1.6575   23.2324 C   0  0  0  0  0  0  0  0  0  0  0  0
    9.4684   -1.6929   26.7263 F   0  0  0  0  0  0  0  0  0  0  0  0
    7.7963   -7.7906   17.9837 C   0  0  0  0  0  0  0  0  0  0  0  0
   10.5884   -3.0725   16.7902 O   0  0  0  0  0  0  0  0  0  0  0  0
   10.4323   -5.3494   20.3516 C   0  0  0  0  0  0  0  0  0  0  0  0
    7.1156   -7.5454   16.8218 C   0  0  0  0  0  0  0  0  0  0  0  0
   10.3885   -4.4388   19.2773 C   0  0  0  0  0  0  0  0  0  0  0  0
    4.5160   -9.3822   15.0841 C   0  0  0  0  0  0  0  0  0  0  0  0
  1  3  4  0
  1 24  4  0
  2  6  4  0
  2 15  4  0
  3  5  4  0
  3  6  4  0
  4 21  4  0
  4 29  4  0
  5 15  4  0
  5 28  1  0
  6 16  4  0
  7 18  4  0
  7 26  4  0
  8 18  1  0
  8 19  4  0
  8 22  4  0
  9 12  4  0
  9 19  4  0
 10 12  4  0
 10 22  4  0
 11 20  4  0
 11 21  4  0
 12 23  1  0
 13 20  4  0
 13 29  4  0
 14 17  4  0
 14 28  4  0
 15 25  2  0
 16 27  4  0
 17 18  4  0
 20 27  1  0
 24 27  4  0
 26 28  4  0
M  END
$$$$

 Created by Python create_sdf_string function

 29 33  0  0  0  0  0  0  0  0999 V2000
    8.8270   -7.0288   18.4251 C   0  0  0  0  0  0  0  0  0  0  0  0
    9.1576   -4.6236   15.8860 O   0  0  0  0  0  0  0  0  0  0  0  0
    9.1509   -5.9108   17.7177 C   0  0  0  0  0  0  0  0  0  0  0  0
    3.6373   -9.5349   16.0582 N   0  0  0  0  0  0  0  0  0  0  0  0
    9.9275   -4.8001   18.0438 N   0  0  0  0  0  0  0  0  0  0  0  0
    8.5908   -5.7425   16.4412 C   0  0  0  0  0  0  0  0  0  0  0  0
   10.5993   -4.8981   21.6068 C   0  0  0  0  0  0  0  0  0  0  0  0
   10.4258   -3.0106   23.0998 C   0  0  0  0  0  0  0  0  0  0  0  0
   10.2148   -3.4364   25.4200 C   0  0  0  0  0  0  0  0  0  0  0  0
    9.7853   -1.1840   24.4927 C   0  0  0  0  0  0  0  0  0  0  0  0
    5.0276   -8.5227   17.5352 C   0  0  0  0  0  0  0  0  0  0  0  0
    9.8187   -2.0895   25.5800 C   0  0  0  0  0  0  0  0  0  0  0  0
    5.6473   -8.7216   15.3158 C   0  0  0  0  0  0  0  0  0  0  0  0
   10.7581   -3.1233   19.4720 N   0  0  0  0  0  0  0  0  0  0  0  0
    9.9571   -4.0573   16.8866 C   0  0  0  0  0  0  0  0  0  0  0  0
    7.6213   -6.5618   16.0087 C   0  0  0  0  0  0  0  0  0  0  0  0
   10.8583   -2.6527   20.7222 C   0  0  0  0  0  0  0  0  0  0  0  0
   10.6412   -3.5089   21.7936 C   0  0  0  0  0  0  0  0  0  0  0  0
   10.4972   -3.8968   24.1589 C   0  0  0  0  0  0  0  0  0  0  0  0
    5.9260   -8.2736   16.5517 C   0  0  0  0  0  0  0  0  0  0  0  0
    3.8816   -9.1166   17.2493 C   0  0  0  0  0  0  0  0  0  0  0  0
   10.1297   -1.6575   23.2324 C   0  0  0  0  0  0  0  0  0  0  0  0
    9.4684   -1.6929   26.7263 F   0  0  0  0  0  0  0  0  0  0  0  0
    7.7963   -7.7906   17.9837 C   0  0  0  0  0  0  0  0  0  0  0  0
   10.5884   -3.0725   16.7902 O   0  0  0  0  0  0  0  0  0  0  0  0
   10.4323   -5.3494   20.3516 C   0  0  0  0  0  0  0  0  0  0  0  0
    7.1156   -7.5454   16.8218 C   0  0  0  0  0  0  0  0  0  0  0  0
   10.3885   -4.4388   19.2773 C   0  0  0  0  0  0  0  0  0  0  0  0
    4.5160   -9.3822   15.0841 C   0  0  0  0  0  0  0  0  0  0  0  0
  1  3  4  0
  1 24  4  0
  2  6  4  0
  2 15  4  0
  3  5  4  0
  3  6  4  0
  4 21  4  0
  4 29  4  0
  5 15  4  0
  5 28  1  0
  6 16  4  0
  7 18  4  0
  7 26  4  0
  8 18  1  0
  8 19  4  0
  8 22  4  0
  9 12  4  0
  9 19  4  0
 10 12  4  0
 10 22  4  0
 11 20  4  0
 11 21  4  0
 12 23  1  0
 13 20  4  0
 13 29  4  0
 14 17  4  0
 14 28  4  0
 15 25  2  0
 16 27  4  0
 17 18  4  0
 20 27  1  0
 24 27  4  0
 26 28  4  0
M  END
$$$$

 Created by Python create_sdf_string function

 29 33  0  0  0  0  0  0  0  0999 V2000
    8.8270   -7.0288   18.4251 C   0  0  0  0  0  0  0  0  0  0  0  0
    9.1576   -4.6236   15.8860 O   0  0  0  0  0  0  0  0  0  0  0  0
    9.1509   -5.9108   17.7177 C   0  0  0  0  0  0  0  0  0  0  0  0
    3.6373   -9.5349   16.0582 N   0  0  0  0  0  0  0  0  0  0  0  0
    9.9275   -4.8001   18.0438 N   0  0  0  0  0  0  0  0  0  0  0  0
    8.5908   -5.7425   16.4412 C   0  0  0  0  0  0  0  0  0  0  0  0
   10.5993   -4.8981   21.6068 C   0  0  0  0  0  0  0  0  0  0  0  0
   10.4258   -3.0106   23.0998 C   0  0  0  0  0  0  0  0  0  0  0  0
   10.2148   -3.4364   25.4200 C   0  0  0  0  0  0  0  0  0  0  0  0
    9.7853   -1.1840   24.4927 C   0  0  0  0  0  0  0  0  0  0  0  0
    5.0276   -8.5227   17.5352 C   0  0  0  0  0  0  0  0  0  0  0  0
    9.8187   -2.0895   25.5800 C   0  0  0  0  0  0  0  0  0  0  0  0
    5.6473   -8.7216   15.3158 C   0  0  0  0  0  0  0  0  0  0  0  0
   10.7581   -3.1233   19.4720 N   0  0  0  0  0  0  0  0  0  0  0  0
    9.9571   -4.0573   16.8866 C   0  0  0  0  0  0  0  0  0  0  0  0
    7.6213   -6.5618   16.0087 C   0  0  0  0  0  0  0  0  0  0  0  0
   10.8583   -2.6527   20.7222 C   0  0  0  0  0  0  0  0  0  0  0  0
   10.6412   -3.5089   21.7936 C   0  0  0  0  0  0  0  0  0  0  0  0
   10.4972   -3.8968   24.1589 C   0  0  0  0  0  0  0  0  0  0  0  0
    5.9260   -8.2736   16.5517 C   0  0  0  0  0  0  0  0  0  0  0  0
    3.8816   -9.1166   17.2493 C   0  0  0  0  0  0  0  0  0  0  0  0
   10.1297   -1.6575   23.2324 C   0  0  0  0  0  0  0  0  0  0  0  0
    9.4684   -1.6929   26.7263 F   0  0  0  0  0  0  0  0  0  0  0  0
    7.7963   -7.7906   17.9837 C   0  0  0  0  0  0  0  0  0  0  0  0
   10.5884   -3.0725   16.7902 O   0  0  0  0  0  0  0  0  0  0  0  0
   10.4323   -5.3494   20.3516 C   0  0  0  0  0  0  0  0  0  0  0  0
    7.1156   -7.5454   16.8218 C   0  0  0  0  0  0  0  0  0  0  0  0
   10.3885   -4.4388   19.2773 C   0  0  0  0  0  0  0  0  0  0  0  0
    4.5160   -9.3822   15.0841 C   0  0  0  0  0  0  0  0  0  0  0  0
  1  3  4  0
  1 24  4  0
  2  6  4  0
  2 15  4  0
  3  5  4  0
  3  6  4  0
  4 21  4  0
  4 29  4  0
  5 15  4  0
  5 28  1  0
  6 16  4  0
  7 18  4  0
  7 26  4  0
  8 18  1  0
  8 19  4  0
  8 22  4  0
  9 12  4  0
  9 19  4  0
 10 12  4  0
 10 22  4  0
 11 20  4  0
 11 21  4  0
 12 23  1  0
 13 20  4  0
 13 29  4  0
 14 17  4  0
 14 28  4  0
 15 25  2  0
 16 27  4  0
 17 18  4  0
 20 27  1  0
 24 27  4  0
 26 28  4  0
M  END
$$$$

 Created by Python create_sdf_string function

 29 33  0  0  0  0  0  0  0  0999 V2000
    8.8270   -7.0288   18.4251 C   0  0  0  0  0  0  0  0  0  0  0  0
    9.1576   -4.6236   15.8860 O   0  0  0  0  0  0  0  0  0  0  0  0
    9.1509   -5.9108   17.7177 C   0  0  0  0  0  0  0  0  0  0  0  0
    3.6373   -9.5349   16.0582 N   0  0  0  0  0  0  0  0  0  0  0  0
    9.9275   -4.8001   18.0438 N   0  0  0  0  0  0  0  0  0  0  0  0
    8.5908   -5.7425   16.4412 C   0  0  0  0  0  0  0  0  0  0  0  0
   10.5993   -4.8981   21.6068 C   0  0  0  0  0  0  0  0  0  0  0  0
   10.4258   -3.0106   23.0998 C   0  0  0  0  0  0  0  0  0  0  0  0
   10.2148   -3.4364   25.4200 C   0  0  0  0  0  0  0  0  0  0  0  0
    9.7853   -1.1840   24.4927 C   0  0  0  0  0  0  0  0  0  0  0  0
    5.0276   -8.5227   17.5352 C   0  0  0  0  0  0  0  0  0  0  0  0
    9.8187   -2.0895   25.5800 C   0  0  0  0  0  0  0  0  0  0  0  0
    5.6473   -8.7216   15.3158 C   0  0  0  0  0  0  0  0  0  0  0  0
   10.7581   -3.1233   19.4720 N   0  0  0  0  0  0  0  0  0  0  0  0
    9.9571   -4.0573   16.8866 C   0  0  0  0  0  0  0  0  0  0  0  0
    7.6213   -6.5618   16.0087 C   0  0  0  0  0  0  0  0  0  0  0  0
   10.8583   -2.6527   20.7222 C   0  0  0  0  0  0  0  0  0  0  0  0
   10.6412   -3.5089   21.7936 C   0  0  0  0  0  0  0  0  0  0  0  0
   10.4972   -3.8968   24.1589 C   0  0  0  0  0  0  0  0  0  0  0  0
    5.9260   -8.2736   16.5517 C   0  0  0  0  0  0  0  0  0  0  0  0
    3.8816   -9.1166   17.2493 C   0  0  0  0  0  0  0  0  0  0  0  0
   10.1297   -1.6575   23.2324 C   0  0  0  0  0  0  0  0  0  0  0  0
    9.4684   -1.6929   26.7263 F   0  0  0  0  0  0  0  0  0  0  0  0
    7.7963   -7.7906   17.9837 C   0  0  0  0  0  0  0  0  0  0  0  0
   10.5884   -3.0725   16.7902 O   0  0  0  0  0  0  0  0  0  0  0  0
   10.4323   -5.3494   20.3516 C   0  0  0  0  0  0  0  0  0  0  0  0
    7.1156   -7.5454   16.8218 C   0  0  0  0  0  0  0  0  0  0  0  0
   10.3885   -4.4388   19.2773 C   0  0  0  0  0  0  0  0  0  0  0  0
    4.5160   -9.3822   15.0841 C   0  0  0  0  0  0  0  0  0  0  0  0
  1  3  4  0
  1 24  4  0
  2  6  4  0
  2 15  4  0
  3  5  4  0
  3  6  4  0
  4 21  4  0
  4 29  4  0
  5 15  4  0
  5 28  1  0
  6 16  4  0
  7 18  4  0
  7 26  4  0
  8 18  1  0
  8 19  4  0
  8 22  4  0
  9 12  4  0
  9 19  4  0
 10 12  4  0
 10 22  4  0
 11 20  4  0
 11 21  4  0
 12 23  1  0
 13 20  4  0
 13 29  4  0
 14 17  4  0
 14 28  4  0
 15 25  2  0
 16 27  4  0
 17 18  4  0
 20 27  1  0
 24 27  4  0
 26 28  4  0
M  END
$$$$

 Created by Python create_sdf_string function

 29 33  0  0  0  0  0  0  0  0999 V2000
    8.8270   -7.0288   18.4251 C   0  0  0  0  0  0  0  0  0  0  0  0
    9.1576   -4.6236   15.8860 O   0  0  0  0  0  0  0  0  0  0  0  0
    9.1509   -5.9108   17.7177 C   0  0  0  0  0  0  0  0  0  0  0  0
    3.6373   -9.5349   16.0582 N   0  0  0  0  0  0  0  0  0  0  0  0
    9.9275   -4.8001   18.0438 N   0  0  0  0  0  0  0  0  0  0  0  0
    8.5908   -5.7425   16.4412 C   0  0  0  0  0  0  0  0  0  0  0  0
   10.5993   -4.8981   21.6068 C   0  0  0  0  0  0  0  0  0  0  0  0
   10.4258   -3.0106   23.0998 C   0  0  0  0  0  0  0  0  0  0  0  0
   10.2148   -3.4364   25.4200 C   0  0  0  0  0  0  0  0  0  0  0  0
    9.7853   -1.1840   24.4927 C   0  0  0  0  0  0  0  0  0  0  0  0
    5.0276   -8.5227   17.5352 C   0  0  0  0  0  0  0  0  0  0  0  0
    9.8187   -2.0895   25.5800 C   0  0  0  0  0  0  0  0  0  0  0  0
    5.6473   -8.7216   15.3158 C   0  0  0  0  0  0  0  0  0  0  0  0
   10.7581   -3.1233   19.4720 N   0  0  0  0  0  0  0  0  0  0  0  0
    9.9571   -4.0573   16.8866 C   0  0  0  0  0  0  0  0  0  0  0  0
    7.6213   -6.5618   16.0087 C   0  0  0  0  0  0  0  0  0  0  0  0
   10.8583   -2.6527   20.7222 C   0  0  0  0  0  0  0  0  0  0  0  0
   10.6412   -3.5089   21.7936 C   0  0  0  0  0  0  0  0  0  0  0  0
   10.4972   -3.8968   24.1589 C   0  0  0  0  0  0  0  0  0  0  0  0
    5.9260   -8.2736   16.5517 C   0  0  0  0  0  0  0  0  0  0  0  0
    3.8816   -9.1166   17.2493 C   0  0  0  0  0  0  0  0  0  0  0  0
   10.1297   -1.6575   23.2324 C   0  0  0  0  0  0  0  0  0  0  0  0
    9.4684   -1.6929   26.7263 F   0  0  0  0  0  0  0  0  0  0  0  0
    7.7963   -7.7906   17.9837 C   0  0  0  0  0  0  0  0  0  0  0  0
   10.5884   -3.0725   16.7902 O   0  0  0  0  0  0  0  0  0  0  0  0
   10.4323   -5.3494   20.3516 C   0  0  0  0  0  0  0  0  0  0  0  0
    7.1156   -7.5454   16.8218 C   0  0  0  0  0  0  0  0  0  0  0  0
   10.3885   -4.4388   19.2773 C   0  0  0  0  0  0  0  0  0  0  0  0
    4.5160   -9.3822   15.0841 C   0  0  0  0  0  0  0  0  0  0  0  0
  1  3  4  0
  1 24  4  0
  2  6  4  0
  2 15  4  0
  3  5  4  0
  3  6  4  0
  4 21  4  0
  4 29  4  0
  5 15  4  0
  5 28  1  0
  6 16  4  0
  7 18  4  0
  7 26  4  0
  8 18  1  0
  8 19  4  0
  8 22  4  0
  9 12  4  0
  9 19  4  0
 10 12  4  0
 10 22  4  0
 11 20  4  0
 11 21  4  0
 12 23  1  0
 13 20  4  0
 13 29  4  0
 14 17  4  0
 14 28  4  0
 15 25  2  0
 16 27  4  0
 17 18  4  0
 20 27  1  0
 24 27  4  0
 26 28  4  0
M  END
$$$$

 Created by Python create_sdf_string function

 29 33  0  0  0  0  0  0  0  0999 V2000
    8.8270   -7.0288   18.4251 C   0  0  0  0  0  0  0  0  0  0  0  0
    9.1576   -4.6236   15.8860 O   0  0  0  0  0  0  0  0  0  0  0  0
    9.1509   -5.9108   17.7177 C   0  0  0  0  0  0  0  0  0  0  0  0
    3.6373   -9.5349   16.0582 N   0  0  0  0  0  0  0  0  0  0  0  0
    9.9275   -4.8001   18.0438 N   0  0  0  0  0  0  0  0  0  0  0  0
    8.5908   -5.7425   16.4412 C   0  0  0  0  0  0  0  0  0  0  0  0
   10.5993   -4.8981   21.6068 C   0  0  0  0  0  0  0  0  0  0  0  0
   10.4258   -3.0106   23.0998 C   0  0  0  0  0  0  0  0  0  0  0  0
   10.2148   -3.4364   25.4200 C   0  0  0  0  0  0  0  0  0  0  0  0
    9.7853   -1.1840   24.4927 C   0  0  0  0  0  0  0  0  0  0  0  0
    5.0276   -8.5227   17.5352 C   0  0  0  0  0  0  0  0  0  0  0  0
    9.8187   -2.0895   25.5800 C   0  0  0  0  0  0  0  0  0  0  0  0
    5.6473   -8.7216   15.3158 C   0  0  0  0  0  0  0  0  0  0  0  0
   10.7581   -3.1233   19.4720 N   0  0  0  0  0  0  0  0  0  0  0  0
    9.9571   -4.0573   16.8866 C   0  0  0  0  0  0  0  0  0  0  0  0
    7.6213   -6.5618   16.0087 C   0  0  0  0  0  0  0  0  0  0  0  0
   10.8583   -2.6527   20.7222 C   0  0  0  0  0  0  0  0  0  0  0  0
   10.6412   -3.5089   21.7936 C   0  0  0  0  0  0  0  0  0  0  0  0
   10.4972   -3.8968   24.1589 C   0  0  0  0  0  0  0  0  0  0  0  0
    5.9260   -8.2736   16.5517 C   0  0  0  0  0  0  0  0  0  0  0  0
    3.8816   -9.1166   17.2493 C   0  0  0  0  0  0  0  0  0  0  0  0
   10.1297   -1.6575   23.2324 C   0  0  0  0  0  0  0  0  0  0  0  0
    9.4684   -1.6929   26.7263 F   0  0  0  0  0  0  0  0  0  0  0  0
    7.7963   -7.7906   17.9837 C   0  0  0  0  0  0  0  0  0  0  0  0
   10.5884   -3.0725   16.7902 O   0  0  0  0  0  0  0  0  0  0  0  0
   10.4323   -5.3494   20.3516 C   0  0  0  0  0  0  0  0  0  0  0  0
    7.1156   -7.5454   16.8218 C   0  0  0  0  0  0  0  0  0  0  0  0
   10.3885   -4.4388   19.2773 C   0  0  0  0  0  0  0  0  0  0  0  0
    4.5160   -9.3822   15.0841 C   0  0  0  0  0  0  0  0  0  0  0  0
  1  3  4  0
  1 24  4  0
  2  6  4  0
  2 15  4  0
  3  5  4  0
  3  6  4  0
  4 21  4  0
  4 29  4  0
  5 15  4  0
  5 28  1  0
  6 16  4  0
  7 18  4  0
  7 26  4  0
  8 18  1  0
  8 19  4  0
  8 22  4  0
  9 12  4  0
  9 19  4  0
 10 12  4  0
 10 22  4  0
 11 20  4  0
 11 21  4  0
 12 23  1  0
 13 20  4  0
 13 29  4  0
 14 17  4  0
 14 28  4  0
 15 25  2  0
 16 27  4  0
 17 18  4  0
 20 27  1  0
 24 27  4  0
 26 28  4  0
M  END
$$$$

 Created by Python create_sdf_string function

 29 33  0  0  0  0  0  0  0  0999 V2000
    8.8270   -7.0288   18.4251 C   0  0  0  0  0  0  0  0  0  0  0  0
    9.1576   -4.6236   15.8860 O   0  0  0  0  0  0  0  0  0  0  0  0
    9.1509   -5.9108   17.7177 C   0  0  0  0  0  0  0  0  0  0  0  0
    3.6373   -9.5349   16.0582 N   0  0  0  0  0  0  0  0  0  0  0  0
    9.9275   -4.8001   18.0438 N   0  0  0  0  0  0  0  0  0  0  0  0
    8.5908   -5.7425   16.4412 C   0  0  0  0  0  0  0  0  0  0  0  0
   10.5993   -4.8981   21.6068 C   0  0  0  0  0  0  0  0  0  0  0  0
   10.4258   -3.0106   23.0998 C   0  0  0  0  0  0  0  0  0  0  0  0
   10.2148   -3.4364   25.4200 C   0  0  0  0  0  0  0  0  0  0  0  0
    9.7853   -1.1840   24.4927 C   0  0  0  0  0  0  0  0  0  0  0  0
    5.0276   -8.5227   17.5352 C   0  0  0  0  0  0  0  0  0  0  0  0
    9.8187   -2.0895   25.5800 C   0  0  0  0  0  0  0  0  0  0  0  0
    5.6473   -8.7216   15.3158 C   0  0  0  0  0  0  0  0  0  0  0  0
   10.7581   -3.1233   19.4720 N   0  0  0  0  0  0  0  0  0  0  0  0
    9.9571   -4.0573   16.8866 C   0  0  0  0  0  0  0  0  0  0  0  0
    7.6213   -6.5618   16.0087 C   0  0  0  0  0  0  0  0  0  0  0  0
   10.8583   -2.6527   20.7222 C   0  0  0  0  0  0  0  0  0  0  0  0
   10.6412   -3.5089   21.7936 C   0  0  0  0  0  0  0  0  0  0  0  0
   10.4972   -3.8968   24.1589 C   0  0  0  0  0  0  0  0  0  0  0  0
    5.9260   -8.2736   16.5517 C   0  0  0  0  0  0  0  0  0  0  0  0
    3.8816   -9.1166   17.2493 C   0  0  0  0  0  0  0  0  0  0  0  0
   10.1297   -1.6575   23.2324 C   0  0  0  0  0  0  0  0  0  0  0  0
    9.4684   -1.6929   26.7263 F   0  0  0  0  0  0  0  0  0  0  0  0
    7.7963   -7.7906   17.9837 C   0  0  0  0  0  0  0  0  0  0  0  0
   10.5884   -3.0725   16.7902 O   0  0  0  0  0  0  0  0  0  0  0  0
   10.4323   -5.3494   20.3516 C   0  0  0  0  0  0  0  0  0  0  0  0
    7.1156   -7.5454   16.8218 C   0  0  0  0  0  0  0  0  0  0  0  0
   10.3885   -4.4388   19.2773 C   0  0  0  0  0  0  0  0  0  0  0  0
    4.5160   -9.3822   15.0841 C   0  0  0  0  0  0  0  0  0  0  0  0
  1  3  4  0
  1 24  4  0
  2  6  4  0
  2 15  4  0
  3  5  4  0
  3  6  4  0
  4 21  4  0
  4 29  4  0
  5 15  4  0
  5 28  1  0
  6 16  4  0
  7 18  4  0
  7 26  4  0
  8 18  1  0
  8 19  4  0
  8 22  4  0
  9 12  4  0
  9 19  4  0
 10 12  4  0
 10 22  4  0
 11 20  4  0
 11 21  4  0
 12 23  1  0
 13 20  4  0
 13 29  4  0
 14 17  4  0
 14 28  4  0
 15 25  2  0
 16 27  4  0
 17 18  4  0
 20 27  1  0
 24 27  4  0
 26 28  4  0
M  END
$$$$

 Created by Python create_sdf_string function

 29 33  0  0  0  0  0  0  0  0999 V2000
    8.8270   -7.0288   18.4251 C   0  0  0  0  0  0  0  0  0  0  0  0
    9.1576   -4.6236   15.8860 O   0  0  0  0  0  0  0  0  0  0  0  0
    9.1509   -5.9108   17.7177 C   0  0  0  0  0  0  0  0  0  0  0  0
    3.6373   -9.5349   16.0582 N   0  0  0  0  0  0  0  0  0  0  0  0
    9.9275   -4.8001   18.0438 N   0  0  0  0  0  0  0  0  0  0  0  0
    8.5908   -5.7425   16.4412 C   0  0  0  0  0  0  0  0  0  0  0  0
   10.5993   -4.8981   21.6068 C   0  0  0  0  0  0  0  0  0  0  0  0
   10.4258   -3.0106   23.0998 C   0  0  0  0  0  0  0  0  0  0  0  0
   10.2148   -3.4364   25.4200 C   0  0  0  0  0  0  0  0  0  0  0  0
    9.7853   -1.1840   24.4927 C   0  0  0  0  0  0  0  0  0  0  0  0
    5.0276   -8.5227   17.5352 C   0  0  0  0  0  0  0  0  0  0  0  0
    9.8187   -2.0895   25.5800 C   0  0  0  0  0  0  0  0  0  0  0  0
    5.6473   -8.7216   15.3158 C   0  0  0  0  0  0  0  0  0  0  0  0
   10.7581   -3.1233   19.4720 N   0  0  0  0  0  0  0  0  0  0  0  0
    9.9571   -4.0573   16.8866 C   0  0  0  0  0  0  0  0  0  0  0  0
    7.6213   -6.5618   16.0087 C   0  0  0  0  0  0  0  0  0  0  0  0
   10.8583   -2.6527   20.7222 C   0  0  0  0  0  0  0  0  0  0  0  0
   10.6412   -3.5089   21.7936 C   0  0  0  0  0  0  0  0  0  0  0  0
   10.4972   -3.8968   24.1589 C   0  0  0  0  0  0  0  0  0  0  0  0
    5.9260   -8.2736   16.5517 C   0  0  0  0  0  0  0  0  0  0  0  0
    3.8816   -9.1166   17.2493 C   0  0  0  0  0  0  0  0  0  0  0  0
   10.1297   -1.6575   23.2324 C   0  0  0  0  0  0  0  0  0  0  0  0
    9.4684   -1.6929   26.7263 F   0  0  0  0  0  0  0  0  0  0  0  0
    7.7963   -7.7906   17.9837 C   0  0  0  0  0  0  0  0  0  0  0  0
   10.5884   -3.0725   16.7902 O   0  0  0  0  0  0  0  0  0  0  0  0
   10.4323   -5.3494   20.3516 C   0  0  0  0  0  0  0  0  0  0  0  0
    7.1156   -7.5454   16.8218 C   0  0  0  0  0  0  0  0  0  0  0  0
   10.3885   -4.4388   19.2773 C   0  0  0  0  0  0  0  0  0  0  0  0
    4.5160   -9.3822   15.0841 C   0  0  0  0  0  0  0  0  0  0  0  0
  1  3  4  0
  1 24  4  0
  2  6  4  0
  2 15  4  0
  3  5  4  0
  3  6  4  0
  4 21  4  0
  4 29  4  0
  5 15  4  0
  5 28  1  0
  6 16  4  0
  7 18  4  0
  7 26  4  0
  8 18  1  0
  8 19  4  0
  8 22  4  0
  9 12  4  0
  9 19  4  0
 10 12  4  0
 10 22  4  0
 11 20  4  0
 11 21  4  0
 12 23  1  0
 13 20  4  0
 13 29  4  0
 14 17  4  0
 14 28  4  0
 15 25  2  0
 16 27  4  0
 17 18  4  0
 20 27  1  0
 24 27  4  0
 26 28  4  0
M  END
$$$$

 Created by Python create_sdf_string function

 29 33  0  0  0  0  0  0  0  0999 V2000
    8.8270   -7.0288   18.4251 C   0  0  0  0  0  0  0  0  0  0  0  0
    9.1576   -4.6236   15.8860 O   0  0  0  0  0  0  0  0  0  0  0  0
    9.1509   -5.9108   17.7177 C   0  0  0  0  0  0  0  0  0  0  0  0
    3.6373   -9.5349   16.0582 N   0  0  0  0  0  0  0  0  0  0  0  0
    9.9275   -4.8001   18.0438 N   0  0  0  0  0  0  0  0  0  0  0  0
    8.5908   -5.7425   16.4412 C   0  0  0  0  0  0  0  0  0  0  0  0
   10.5993   -4.8981   21.6068 C   0  0  0  0  0  0  0  0  0  0  0  0
   10.4258   -3.0106   23.0998 C   0  0  0  0  0  0  0  0  0  0  0  0
   10.2148   -3.4364   25.4200 C   0  0  0  0  0  0  0  0  0  0  0  0
    9.7853   -1.1840   24.4927 C   0  0  0  0  0  0  0  0  0  0  0  0
    5.0276   -8.5227   17.5352 C   0  0  0  0  0  0  0  0  0  0  0  0
    9.8187   -2.0895   25.5800 C   0  0  0  0  0  0  0  0  0  0  0  0
    5.6473   -8.7216   15.3158 C   0  0  0  0  0  0  0  0  0  0  0  0
   10.7581   -3.1233   19.4720 N   0  0  0  0  0  0  0  0  0  0  0  0
    9.9571   -4.0573   16.8866 C   0  0  0  0  0  0  0  0  0  0  0  0
    7.6213   -6.5618   16.0087 C   0  0  0  0  0  0  0  0  0  0  0  0
   10.8583   -2.6527   20.7222 C   0  0  0  0  0  0  0  0  0  0  0  0
   10.6412   -3.5089   21.7936 C   0  0  0  0  0  0  0  0  0  0  0  0
   10.4972   -3.8968   24.1589 C   0  0  0  0  0  0  0  0  0  0  0  0
    5.9260   -8.2736   16.5517 C   0  0  0  0  0  0  0  0  0  0  0  0
    3.8816   -9.1166   17.2493 C   0  0  0  0  0  0  0  0  0  0  0  0
   10.1297   -1.6575   23.2324 C   0  0  0  0  0  0  0  0  0  0  0  0
    9.4684   -1.6929   26.7263 F   0  0  0  0  0  0  0  0  0  0  0  0
    7.7963   -7.7906   17.9837 C   0  0  0  0  0  0  0  0  0  0  0  0
   10.5884   -3.0725   16.7902 O   0  0  0  0  0  0  0  0  0  0  0  0
   10.4323   -5.3494   20.3516 C   0  0  0  0  0  0  0  0  0  0  0  0
    7.1156   -7.5454   16.8218 C   0  0  0  0  0  0  0  0  0  0  0  0
   10.3885   -4.4388   19.2773 C   0  0  0  0  0  0  0  0  0  0  0  0
    4.5160   -9.3822   15.0841 C   0  0  0  0  0  0  0  0  0  0  0  0
  1  3  4  0
  1 24  4  0
  2  6  4  0
  2 15  4  0
  3  5  4  0
  3  6  4  0
  4 21  4  0
  4 29  4  0
  5 15  4  0
  5 28  1  0
  6 16  4  0
  7 18  4  0
  7 26  4  0
  8 18  1  0
  8 19  4  0
  8 22  4  0
  9 12  4  0
  9 19  4  0
 10 12  4  0
 10 22  4  0
 11 20  4  0
 11 21  4  0
 12 23  1  0
 13 20  4  0
 13 29  4  0
 14 17  4  0
 14 28  4  0
 15 25  2  0
 16 27  4  0
 17 18  4  0
 20 27  1  0
 24 27  4  0
 26 28  4  0
M  END
$$$$

 Created by Python create_sdf_string function

 29 33  0  0  0  0  0  0  0  0999 V2000
    8.8270   -7.0288   18.4251 C   0  0  0  0  0  0  0  0  0  0  0  0
    9.1576   -4.6236   15.8860 O   0  0  0  0  0  0  0  0  0  0  0  0
    9.1509   -5.9108   17.7177 C   0  0  0  0  0  0  0  0  0  0  0  0
    3.6373   -9.5349   16.0582 N   0  0  0  0  0  0  0  0  0  0  0  0
    9.9275   -4.8001   18.0438 N   0  0  0  0  0  0  0  0  0  0  0  0
    8.5908   -5.7425   16.4412 C   0  0  0  0  0  0  0  0  0  0  0  0
   10.5993   -4.8981   21.6068 C   0  0  0  0  0  0  0  0  0  0  0  0
   10.4258   -3.0106   23.0998 C   0  0  0  0  0  0  0  0  0  0  0  0
   10.2148   -3.4364   25.4200 C   0  0  0  0  0  0  0  0  0  0  0  0
    9.7853   -1.1840   24.4927 C   0  0  0  0  0  0  0  0  0  0  0  0
    5.0276   -8.5227   17.5352 C   0  0  0  0  0  0  0  0  0  0  0  0
    9.8187   -2.0895   25.5800 C   0  0  0  0  0  0  0  0  0  0  0  0
    5.6473   -8.7216   15.3158 C   0  0  0  0  0  0  0  0  0  0  0  0
   10.7581   -3.1233   19.4720 N   0  0  0  0  0  0  0  0  0  0  0  0
    9.9571   -4.0573   16.8866 C   0  0  0  0  0  0  0  0  0  0  0  0
    7.6213   -6.5618   16.0087 C   0  0  0  0  0  0  0  0  0  0  0  0
   10.8583   -2.6527   20.7222 C   0  0  0  0  0  0  0  0  0  0  0  0
   10.6412   -3.5089   21.7936 C   0  0  0  0  0  0  0  0  0  0  0  0
   10.4972   -3.8968   24.1589 C   0  0  0  0  0  0  0  0  0  0  0  0
    5.9260   -8.2736   16.5517 C   0  0  0  0  0  0  0  0  0  0  0  0
    3.8816   -9.1166   17.2493 C   0  0  0  0  0  0  0  0  0  0  0  0
   10.1297   -1.6575   23.2324 C   0  0  0  0  0  0  0  0  0  0  0  0
    9.4684   -1.6929   26.7263 F   0  0  0  0  0  0  0  0  0  0  0  0
    7.7963   -7.7906   17.9837 C   0  0  0  0  0  0  0  0  0  0  0  0
   10.5884   -3.0725   16.7902 O   0  0  0  0  0  0  0  0  0  0  0  0
   10.4323   -5.3494   20.3516 C   0  0  0  0  0  0  0  0  0  0  0  0
    7.1156   -7.5454   16.8218 C   0  0  0  0  0  0  0  0  0  0  0  0
   10.3885   -4.4388   19.2773 C   0  0  0  0  0  0  0  0  0  0  0  0
    4.5160   -9.3822   15.0841 C   0  0  0  0  0  0  0  0  0  0  0  0
  1  3  4  0
  1 24  4  0
  2  6  4  0
  2 15  4  0
  3  5  4  0
  3  6  4  0
  4 21  4  0
  4 29  4  0
  5 15  4  0
  5 28  1  0
  6 16  4  0
  7 18  4  0
  7 26  4  0
  8 18  1  0
  8 19  4  0
  8 22  4  0
  9 12  4  0
  9 19  4  0
 10 12  4  0
 10 22  4  0
 11 20  4  0
 11 21  4  0
 12 23  1  0
 13 20  4  0
 13 29  4  0
 14 17  4  0
 14 28  4  0
 15 25  2  0
 16 27  4  0
 17 18  4  0
 20 27  1  0
 24 27  4  0
 26 28  4  0
M  END
$$$$

 Created by Python create_sdf_string function

 29 33  0  0  0  0  0  0  0  0999 V2000
    8.8270   -7.0288   18.4251 C   0  0  0  0  0  0  0  0  0  0  0  0
    9.1576   -4.6236   15.8860 O   0  0  0  0  0  0  0  0  0  0  0  0
    9.1509   -5.9108   17.7177 C   0  0  0  0  0  0  0  0  0  0  0  0
    3.6373   -9.5349   16.0582 N   0  0  0  0  0  0  0  0  0  0  0  0
    9.9275   -4.8001   18.0438 N   0  0  0  0  0  0  0  0  0  0  0  0
    8.5908   -5.7425   16.4412 C   0  0  0  0  0  0  0  0  0  0  0  0
   10.5993   -4.8981   21.6068 C   0  0  0  0  0  0  0  0  0  0  0  0
   10.4258   -3.0106   23.0998 C   0  0  0  0  0  0  0  0  0  0  0  0
   10.2148   -3.4364   25.4200 C   0  0  0  0  0  0  0  0  0  0  0  0
    9.7853   -1.1840   24.4927 C   0  0  0  0  0  0  0  0  0  0  0  0
    5.0276   -8.5227   17.5352 C   0  0  0  0  0  0  0  0  0  0  0  0
    9.8187   -2.0895   25.5800 C   0  0  0  0  0  0  0  0  0  0  0  0
    5.6473   -8.7216   15.3158 C   0  0  0  0  0  0  0  0  0  0  0  0
   10.7581   -3.1233   19.4720 N   0  0  0  0  0  0  0  0  0  0  0  0
    9.9571   -4.0573   16.8866 C   0  0  0  0  0  0  0  0  0  0  0  0
    7.6213   -6.5618   16.0087 C   0  0  0  0  0  0  0  0  0  0  0  0
   10.8583   -2.6527   20.7222 C   0  0  0  0  0  0  0  0  0  0  0  0
   10.6412   -3.5089   21.7936 C   0  0  0  0  0  0  0  0  0  0  0  0
   10.4972   -3.8968   24.1589 C   0  0  0  0  0  0  0  0  0  0  0  0
    5.9260   -8.2736   16.5517 C   0  0  0  0  0  0  0  0  0  0  0  0
    3.8816   -9.1166   17.2493 C   0  0  0  0  0  0  0  0  0  0  0  0
   10.1297   -1.6575   23.2324 C   0  0  0  0  0  0  0  0  0  0  0  0
    9.4684   -1.6929   26.7263 F   0  0  0  0  0  0  0  0  0  0  0  0
    7.7963   -7.7906   17.9837 C   0  0  0  0  0  0  0  0  0  0  0  0
   10.5884   -3.0725   16.7902 O   0  0  0  0  0  0  0  0  0  0  0  0
   10.4323   -5.3494   20.3516 C   0  0  0  0  0  0  0  0  0  0  0  0
    7.1156   -7.5454   16.8218 C   0  0  0  0  0  0  0  0  0  0  0  0
   10.3885   -4.4388   19.2773 C   0  0  0  0  0  0  0  0  0  0  0  0
    4.5160   -9.3822   15.0841 C   0  0  0  0  0  0  0  0  0  0  0  0
  1  3  4  0
  1 24  4  0
  2  6  4  0
  2 15  4  0
  3  5  4  0
  3  6  4  0
  4 21  4  0
  4 29  4  0
  5 15  4  0
  5 28  1  0
  6 16  4  0
  7 18  4  0
  7 26  4  0
  8 18  1  0
  8 19  4  0
  8 22  4  0
  9 12  4  0
  9 19  4  0
 10 12  4  0
 10 22  4  0
 11 20  4  0
 11 21  4  0
 12 23  1  0
 13 20  4  0
 13 29  4  0
 14 17  4  0
 14 28  4  0
 15 25  2  0
 16 27  4  0
 17 18  4  0
 20 27  1  0
 24 27  4  0
 26 28  4  0
M  END
$$$$

 Created by Python create_sdf_string function

 29 33  0  0  0  0  0  0  0  0999 V2000
    8.8270   -7.0288   18.4251 C   0  0  0  0  0  0  0  0  0  0  0  0
    9.1576   -4.6236   15.8860 O   0  0  0  0  0  0  0  0  0  0  0  0
    9.1509   -5.9108   17.7177 C   0  0  0  0  0  0  0  0  0  0  0  0
    3.6373   -9.5349   16.0582 N   0  0  0  0  0  0  0  0  0  0  0  0
    9.9275   -4.8001   18.0438 N   0  0  0  0  0  0  0  0  0  0  0  0
    8.5908   -5.7425   16.4412 C   0  0  0  0  0  0  0  0  0  0  0  0
   10.5993   -4.8981   21.6068 C   0  0  0  0  0  0  0  0  0  0  0  0
   10.4258   -3.0106   23.0998 C   0  0  0  0  0  0  0  0  0  0  0  0
   10.2148   -3.4364   25.4200 C   0  0  0  0  0  0  0  0  0  0  0  0
    9.7853   -1.1840   24.4927 C   0  0  0  0  0  0  0  0  0  0  0  0
    5.0276   -8.5227   17.5352 C   0  0  0  0  0  0  0  0  0  0  0  0
    9.8187   -2.0895   25.5800 C   0  0  0  0  0  0  0  0  0  0  0  0
    5.6473   -8.7216   15.3158 C   0  0  0  0  0  0  0  0  0  0  0  0
   10.7581   -3.1233   19.4720 N   0  0  0  0  0  0  0  0  0  0  0  0
    9.9571   -4.0573   16.8866 C   0  0  0  0  0  0  0  0  0  0  0  0
    7.6213   -6.5618   16.0087 C   0  0  0  0  0  0  0  0  0  0  0  0
   10.8583   -2.6527   20.7222 C   0  0  0  0  0  0  0  0  0  0  0  0
   10.6412   -3.5089   21.7936 C   0  0  0  0  0  0  0  0  0  0  0  0
   10.4972   -3.8968   24.1589 C   0  0  0  0  0  0  0  0  0  0  0  0
    5.9260   -8.2736   16.5517 C   0  0  0  0  0  0  0  0  0  0  0  0
    3.8816   -9.1166   17.2493 C   0  0  0  0  0  0  0  0  0  0  0  0
   10.1297   -1.6575   23.2324 C   0  0  0  0  0  0  0  0  0  0  0  0
    9.4684   -1.6929   26.7263 F   0  0  0  0  0  0  0  0  0  0  0  0
    7.7963   -7.7906   17.9837 C   0  0  0  0  0  0  0  0  0  0  0  0
   10.5884   -3.0725   16.7902 O   0  0  0  0  0  0  0  0  0  0  0  0
   10.4323   -5.3494   20.3516 C   0  0  0  0  0  0  0  0  0  0  0  0
    7.1156   -7.5454   16.8218 C   0  0  0  0  0  0  0  0  0  0  0  0
   10.3885   -4.4388   19.2773 C   0  0  0  0  0  0  0  0  0  0  0  0
    4.5160   -9.3822   15.0841 C   0  0  0  0  0  0  0  0  0  0  0  0
  1  3  4  0
  1 24  4  0
  2  6  4  0
  2 15  4  0
  3  5  4  0
  3  6  4  0
  4 21  4  0
  4 29  4  0
  5 15  4  0
  5 28  1  0
  6 16  4  0
  7 18  4  0
  7 26  4  0
  8 18  1  0
  8 19  4  0
  8 22  4  0
  9 12  4  0
  9 19  4  0
 10 12  4  0
 10 22  4  0
 11 20  4  0
 11 21  4  0
 12 23  1  0
 13 20  4  0
 13 29  4  0
 14 17  4  0
 14 28  4  0
 15 25  2  0
 16 27  4  0
 17 18  4  0
 20 27  1  0
 24 27  4  0
 26 28  4  0
M  END
$$$$

 Created by Python create_sdf_string function

 29 33  0  0  0  0  0  0  0  0999 V2000
    8.8270   -7.0288   18.4251 C   0  0  0  0  0  0  0  0  0  0  0  0
    9.1576   -4.6236   15.8860 O   0  0  0  0  0  0  0  0  0  0  0  0
    9.1509   -5.9108   17.7177 C   0  0  0  0  0  0  0  0  0  0  0  0
    3.6373   -9.5349   16.0582 N   0  0  0  0  0  0  0  0  0  0  0  0
    9.9275   -4.8001   18.0438 N   0  0  0  0  0  0  0  0  0  0  0  0
    8.5908   -5.7425   16.4412 C   0  0  0  0  0  0  0  0  0  0  0  0
   10.5993   -4.8981   21.6068 C   0  0  0  0  0  0  0  0  0  0  0  0
   10.4258   -3.0106   23.0998 C   0  0  0  0  0  0  0  0  0  0  0  0
   10.2148   -3.4364   25.4200 C   0  0  0  0  0  0  0  0  0  0  0  0
    9.7853   -1.1840   24.4927 C   0  0  0  0  0  0  0  0  0  0  0  0
    5.0276   -8.5227   17.5352 C   0  0  0  0  0  0  0  0  0  0  0  0
    9.8187   -2.0895   25.5800 C   0  0  0  0  0  0  0  0  0  0  0  0
    5.6473   -8.7216   15.3158 C   0  0  0  0  0  0  0  0  0  0  0  0
   10.7581   -3.1233   19.4720 N   0  0  0  0  0  0  0  0  0  0  0  0
    9.9571   -4.0573   16.8866 C   0  0  0  0  0  0  0  0  0  0  0  0
    7.6213   -6.5618   16.0087 C   0  0  0  0  0  0  0  0  0  0  0  0
   10.8583   -2.6527   20.7222 C   0  0  0  0  0  0  0  0  0  0  0  0
   10.6412   -3.5089   21.7936 C   0  0  0  0  0  0  0  0  0  0  0  0
   10.4972   -3.8968   24.1589 C   0  0  0  0  0  0  0  0  0  0  0  0
    5.9260   -8.2736   16.5517 C   0  0  0  0  0  0  0  0  0  0  0  0
    3.8816   -9.1166   17.2493 C   0  0  0  0  0  0  0  0  0  0  0  0
   10.1297   -1.6575   23.2324 C   0  0  0  0  0  0  0  0  0  0  0  0
    9.4684   -1.6929   26.7263 F   0  0  0  0  0  0  0  0  0  0  0  0
    7.7963   -7.7906   17.9837 C   0  0  0  0  0  0  0  0  0  0  0  0
   10.5884   -3.0725   16.7902 O   0  0  0  0  0  0  0  0  0  0  0  0
   10.4323   -5.3494   20.3516 C   0  0  0  0  0  0  0  0  0  0  0  0
    7.1156   -7.5454   16.8218 C   0  0  0  0  0  0  0  0  0  0  0  0
   10.3885   -4.4388   19.2773 C   0  0  0  0  0  0  0  0  0  0  0  0
    4.5160   -9.3822   15.0841 C   0  0  0  0  0  0  0  0  0  0  0  0
  1  3  4  0
  1 24  4  0
  2  6  4  0
  2 15  4  0
  3  5  4  0
  3  6  4  0
  4 21  4  0
  4 29  4  0
  5 15  4  0
  5 28  1  0
  6 16  4  0
  7 18  4  0
  7 26  4  0
  8 18  1  0
  8 19  4  0
  8 22  4  0
  9 12  4  0
  9 19  4  0
 10 12  4  0
 10 22  4  0
 11 20  4  0
 11 21  4  0
 12 23  1  0
 13 20  4  0
 13 29  4  0
 14 17  4  0
 14 28  4  0
 15 25  2  0
 16 27  4  0
 17 18  4  0
 20 27  1  0
 24 27  4  0
 26 28  4  0
M  END
$$$$

 Created by Python create_sdf_string function

 29 33  0  0  0  0  0  0  0  0999 V2000
    8.8270   -7.0288   18.4251 C   0  0  0  0  0  0  0  0  0  0  0  0
    9.1576   -4.6236   15.8860 O   0  0  0  0  0  0  0  0  0  0  0  0
    9.1509   -5.9108   17.7177 C   0  0  0  0  0  0  0  0  0  0  0  0
    3.6373   -9.5349   16.0582 N   0  0  0  0  0  0  0  0  0  0  0  0
    9.9275   -4.8001   18.0438 N   0  0  0  0  0  0  0  0  0  0  0  0
    8.5908   -5.7425   16.4412 C   0  0  0  0  0  0  0  0  0  0  0  0
   10.5993   -4.8981   21.6068 C   0  0  0  0  0  0  0  0  0  0  0  0
   10.4258   -3.0106   23.0998 C   0  0  0  0  0  0  0  0  0  0  0  0
   10.2148   -3.4364   25.4200 C   0  0  0  0  0  0  0  0  0  0  0  0
    9.7853   -1.1840   24.4927 C   0  0  0  0  0  0  0  0  0  0  0  0
    5.0276   -8.5227   17.5352 C   0  0  0  0  0  0  0  0  0  0  0  0
    9.8187   -2.0895   25.5800 C   0  0  0  0  0  0  0  0  0  0  0  0
    5.6473   -8.7216   15.3158 C   0  0  0  0  0  0  0  0  0  0  0  0
   10.7581   -3.1233   19.4720 N   0  0  0  0  0  0  0  0  0  0  0  0
    9.9571   -4.0573   16.8866 C   0  0  0  0  0  0  0  0  0  0  0  0
    7.6213   -6.5618   16.0087 C   0  0  0  0  0  0  0  0  0  0  0  0
   10.8583   -2.6527   20.7222 C   0  0  0  0  0  0  0  0  0  0  0  0
   10.6412   -3.5089   21.7936 C   0  0  0  0  0  0  0  0  0  0  0  0
   10.4972   -3.8968   24.1589 C   0  0  0  0  0  0  0  0  0  0  0  0
    5.9260   -8.2736   16.5517 C   0  0  0  0  0  0  0  0  0  0  0  0
    3.8816   -9.1166   17.2493 C   0  0  0  0  0  0  0  0  0  0  0  0
   10.1297   -1.6575   23.2324 C   0  0  0  0  0  0  0  0  0  0  0  0
    9.4684   -1.6929   26.7263 F   0  0  0  0  0  0  0  0  0  0  0  0
    7.7963   -7.7906   17.9837 C   0  0  0  0  0  0  0  0  0  0  0  0
   10.5884   -3.0725   16.7902 O   0  0  0  0  0  0  0  0  0  0  0  0
   10.4323   -5.3494   20.3516 C   0  0  0  0  0  0  0  0  0  0  0  0
    7.1156   -7.5454   16.8218 C   0  0  0  0  0  0  0  0  0  0  0  0
   10.3885   -4.4388   19.2773 C   0  0  0  0  0  0  0  0  0  0  0  0
    4.5160   -9.3822   15.0841 C   0  0  0  0  0  0  0  0  0  0  0  0
  1  3  4  0
  1 24  4  0
  2  6  4  0
  2 15  4  0
  3  5  4  0
  3  6  4  0
  4 21  4  0
  4 29  4  0
  5 15  4  0
  5 28  1  0
  6 16  4  0
  7 18  4  0
  7 26  4  0
  8 18  1  0
  8 19  4  0
  8 22  4  0
  9 12  4  0
  9 19  4  0
 10 12  4  0
 10 22  4  0
 11 20  4  0
 11 21  4  0
 12 23  1  0
 13 20  4  0
 13 29  4  0
 14 17  4  0
 14 28  4  0
 15 25  2  0
 16 27  4  0
 17 18  4  0
 20 27  1  0
 24 27  4  0
 26 28  4  0
M  END
$$$$

 Created by Python create_sdf_string function

 29 33  0  0  0  0  0  0  0  0999 V2000
    8.8270   -7.0288   18.4251 C   0  0  0  0  0  0  0  0  0  0  0  0
    9.1576   -4.6236   15.8860 O   0  0  0  0  0  0  0  0  0  0  0  0
    9.1509   -5.9108   17.7177 C   0  0  0  0  0  0  0  0  0  0  0  0
    3.6373   -9.5349   16.0582 N   0  0  0  0  0  0  0  0  0  0  0  0
    9.9275   -4.8001   18.0438 N   0  0  0  0  0  0  0  0  0  0  0  0
    8.5908   -5.7425   16.4412 C   0  0  0  0  0  0  0  0  0  0  0  0
   10.5993   -4.8981   21.6068 C   0  0  0  0  0  0  0  0  0  0  0  0
   10.4258   -3.0106   23.0998 C   0  0  0  0  0  0  0  0  0  0  0  0
   10.2148   -3.4364   25.4200 C   0  0  0  0  0  0  0  0  0  0  0  0
    9.7853   -1.1840   24.4927 C   0  0  0  0  0  0  0  0  0  0  0  0
    5.0276   -8.5227   17.5352 C   0  0  0  0  0  0  0  0  0  0  0  0
    9.8187   -2.0895   25.5800 C   0  0  0  0  0  0  0  0  0  0  0  0
    5.6473   -8.7216   15.3158 C   0  0  0  0  0  0  0  0  0  0  0  0
   10.7581   -3.1233   19.4720 N   0  0  0  0  0  0  0  0  0  0  0  0
    9.9571   -4.0573   16.8866 C   0  0  0  0  0  0  0  0  0  0  0  0
    7.6213   -6.5618   16.0087 C   0  0  0  0  0  0  0  0  0  0  0  0
   10.8583   -2.6527   20.7222 C   0  0  0  0  0  0  0  0  0  0  0  0
   10.6412   -3.5089   21.7936 C   0  0  0  0  0  0  0  0  0  0  0  0
   10.4972   -3.8968   24.1589 C   0  0  0  0  0  0  0  0  0  0  0  0
    5.9260   -8.2736   16.5517 C   0  0  0  0  0  0  0  0  0  0  0  0
    3.8816   -9.1166   17.2493 C   0  0  0  0  0  0  0  0  0  0  0  0
   10.1297   -1.6575   23.2324 C   0  0  0  0  0  0  0  0  0  0  0  0
    9.4684   -1.6929   26.7263 F   0  0  0  0  0  0  0  0  0  0  0  0
    7.7963   -7.7906   17.9837 C   0  0  0  0  0  0  0  0  0  0  0  0
   10.5884   -3.0725   16.7902 O   0  0  0  0  0  0  0  0  0  0  0  0
   10.4323   -5.3494   20.3516 C   0  0  0  0  0  0  0  0  0  0  0  0
    7.1156   -7.5454   16.8218 C   0  0  0  0  0  0  0  0  0  0  0  0
   10.3885   -4.4388   19.2773 C   0  0  0  0  0  0  0  0  0  0  0  0
    4.5160   -9.3822   15.0841 C   0  0  0  0  0  0  0  0  0  0  0  0
  1  3  4  0
  1 24  4  0
  2  6  4  0
  2 15  4  0
  3  5  4  0
  3  6  4  0
  4 21  4  0
  4 29  4  0
  5 15  4  0
  5 28  1  0
  6 16  4  0
  7 18  4  0
  7 26  4  0
  8 18  1  0
  8 19  4  0
  8 22  4  0
  9 12  4  0
  9 19  4  0
 10 12  4  0
 10 22  4  0
 11 20  4  0
 11 21  4  0
 12 23  1  0
 13 20  4  0
 13 29  4  0
 14 17  4  0
 14 28  4  0
 15 25  2  0
 16 27  4  0
 17 18  4  0
 20 27  1  0
 24 27  4  0
 26 28  4  0
M  END
$$$$

 Created by Python create_sdf_string function

 29 33  0  0  0  0  0  0  0  0999 V2000
    8.8270   -7.0288   18.4251 C   0  0  0  0  0  0  0  0  0  0  0  0
    9.1576   -4.6236   15.8860 O   0  0  0  0  0  0  0  0  0  0  0  0
    9.1509   -5.9108   17.7177 C   0  0  0  0  0  0  0  0  0  0  0  0
    3.6373   -9.5349   16.0582 N   0  0  0  0  0  0  0  0  0  0  0  0
    9.9275   -4.8001   18.0438 N   0  0  0  0  0  0  0  0  0  0  0  0
    8.5908   -5.7425   16.4412 C   0  0  0  0  0  0  0  0  0  0  0  0
   10.5993   -4.8981   21.6068 C   0  0  0  0  0  0  0  0  0  0  0  0
   10.4258   -3.0106   23.0998 C   0  0  0  0  0  0  0  0  0  0  0  0
   10.2148   -3.4364   25.4200 C   0  0  0  0  0  0  0  0  0  0  0  0
    9.7853   -1.1840   24.4927 C   0  0  0  0  0  0  0  0  0  0  0  0
    5.0276   -8.5227   17.5352 C   0  0  0  0  0  0  0  0  0  0  0  0
    9.8187   -2.0895   25.5800 C   0  0  0  0  0  0  0  0  0  0  0  0
    5.6473   -8.7216   15.3158 C   0  0  0  0  0  0  0  0  0  0  0  0
   10.7581   -3.1233   19.4720 N   0  0  0  0  0  0  0  0  0  0  0  0
    9.9571   -4.0573   16.8866 C   0  0  0  0  0  0  0  0  0  0  0  0
    7.6213   -6.5618   16.0087 C   0  0  0  0  0  0  0  0  0  0  0  0
   10.8583   -2.6527   20.7222 C   0  0  0  0  0  0  0  0  0  0  0  0
   10.6412   -3.5089   21.7936 C   0  0  0  0  0  0  0  0  0  0  0  0
   10.4972   -3.8968   24.1589 C   0  0  0  0  0  0  0  0  0  0  0  0
    5.9260   -8.2736   16.5517 C   0  0  0  0  0  0  0  0  0  0  0  0
    3.8816   -9.1166   17.2493 C   0  0  0  0  0  0  0  0  0  0  0  0
   10.1297   -1.6575   23.2324 C   0  0  0  0  0  0  0  0  0  0  0  0
    9.4684   -1.6929   26.7263 F   0  0  0  0  0  0  0  0  0  0  0  0
    7.7963   -7.7906   17.9837 C   0  0  0  0  0  0  0  0  0  0  0  0
   10.5884   -3.0725   16.7902 O   0  0  0  0  0  0  0  0  0  0  0  0
   10.4323   -5.3494   20.3516 C   0  0  0  0  0  0  0  0  0  0  0  0
    7.1156   -7.5454   16.8218 C   0  0  0  0  0  0  0  0  0  0  0  0
   10.3885   -4.4388   19.2773 C   0  0  0  0  0  0  0  0  0  0  0  0
    4.5160   -9.3822   15.0841 C   0  0  0  0  0  0  0  0  0  0  0  0
  1  3  4  0
  1 24  4  0
  2  6  4  0
  2 15  4  0
  3  5  4  0
  3  6  4  0
  4 21  4  0
  4 29  4  0
  5 15  4  0
  5 28  1  0
  6 16  4  0
  7 18  4  0
  7 26  4  0
  8 18  1  0
  8 19  4  0
  8 22  4  0
  9 12  4  0
  9 19  4  0
 10 12  4  0
 10 22  4  0
 11 20  4  0
 11 21  4  0
 12 23  1  0
 13 20  4  0
 13 29  4  0
 14 17  4  0
 14 28  4  0
 15 25  2  0
 16 27  4  0
 17 18  4  0
 20 27  1  0
 24 27  4  0
 26 28  4  0
M  END
$$$$

 Created by Python create_sdf_string function

 29 33  0  0  0  0  0  0  0  0999 V2000
    8.8270   -7.0288   18.4251 C   0  0  0  0  0  0  0  0  0  0  0  0
    9.1576   -4.6236   15.8860 O   0  0  0  0  0  0  0  0  0  0  0  0
    9.1509   -5.9108   17.7177 C   0  0  0  0  0  0  0  0  0  0  0  0
    3.6373   -9.5349   16.0582 N   0  0  0  0  0  0  0  0  0  0  0  0
    9.9275   -4.8001   18.0438 N   0  0  0  0  0  0  0  0  0  0  0  0
    8.5908   -5.7425   16.4412 C   0  0  0  0  0  0  0  0  0  0  0  0
   10.5993   -4.8981   21.6068 C   0  0  0  0  0  0  0  0  0  0  0  0
   10.4258   -3.0106   23.0998 C   0  0  0  0  0  0  0  0  0  0  0  0
   10.2148   -3.4364   25.4200 C   0  0  0  0  0  0  0  0  0  0  0  0
    9.7853   -1.1840   24.4927 C   0  0  0  0  0  0  0  0  0  0  0  0
    5.0276   -8.5227   17.5352 C   0  0  0  0  0  0  0  0  0  0  0  0
    9.8187   -2.0895   25.5800 C   0  0  0  0  0  0  0  0  0  0  0  0
    5.6473   -8.7216   15.3158 C   0  0  0  0  0  0  0  0  0  0  0  0
   10.7581   -3.1233   19.4720 N   0  0  0  0  0  0  0  0  0  0  0  0
    9.9571   -4.0573   16.8866 C   0  0  0  0  0  0  0  0  0  0  0  0
    7.6213   -6.5618   16.0087 C   0  0  0  0  0  0  0  0  0  0  0  0
   10.8583   -2.6527   20.7222 C   0  0  0  0  0  0  0  0  0  0  0  0
   10.6412   -3.5089   21.7936 C   0  0  0  0  0  0  0  0  0  0  0  0
   10.4972   -3.8968   24.1589 C   0  0  0  0  0  0  0  0  0  0  0  0
    5.9260   -8.2736   16.5517 C   0  0  0  0  0  0  0  0  0  0  0  0
    3.8816   -9.1166   17.2493 C   0  0  0  0  0  0  0  0  0  0  0  0
   10.1297   -1.6575   23.2324 C   0  0  0  0  0  0  0  0  0  0  0  0
    9.4684   -1.6929   26.7263 F   0  0  0  0  0  0  0  0  0  0  0  0
    7.7963   -7.7906   17.9837 C   0  0  0  0  0  0  0  0  0  0  0  0
   10.5884   -3.0725   16.7902 O   0  0  0  0  0  0  0  0  0  0  0  0
   10.4323   -5.3494   20.3516 C   0  0  0  0  0  0  0  0  0  0  0  0
    7.1156   -7.5454   16.8218 C   0  0  0  0  0  0  0  0  0  0  0  0
   10.3885   -4.4388   19.2773 C   0  0  0  0  0  0  0  0  0  0  0  0
    4.5160   -9.3822   15.0841 C   0  0  0  0  0  0  0  0  0  0  0  0
  1  3  4  0
  1 24  4  0
  2  6  4  0
  2 15  4  0
  3  5  4  0
  3  6  4  0
  4 21  4  0
  4 29  4  0
  5 15  4  0
  5 28  1  0
  6 16  4  0
  7 18  4  0
  7 26  4  0
  8 18  1  0
  8 19  4  0
  8 22  4  0
  9 12  4  0
  9 19  4  0
 10 12  4  0
 10 22  4  0
 11 20  4  0
 11 21  4  0
 12 23  1  0
 13 20  4  0
 13 29  4  0
 14 17  4  0
 14 28  4  0
 15 25  2  0
 16 27  4  0
 17 18  4  0
 20 27  1  0
 24 27  4  0
 26 28  4  0
M  END
$$$$

 Created by Python create_sdf_string function

 29 33  0  0  0  0  0  0  0  0999 V2000
    8.8270   -7.0288   18.4251 C   0  0  0  0  0  0  0  0  0  0  0  0
    9.1576   -4.6236   15.8860 O   0  0  0  0  0  0  0  0  0  0  0  0
    9.1509   -5.9108   17.7177 C   0  0  0  0  0  0  0  0  0  0  0  0
    3.6373   -9.5349   16.0582 N   0  0  0  0  0  0  0  0  0  0  0  0
    9.9275   -4.8001   18.0438 N   0  0  0  0  0  0  0  0  0  0  0  0
    8.5908   -5.7425   16.4412 C   0  0  0  0  0  0  0  0  0  0  0  0
   10.5993   -4.8981   21.6068 C   0  0  0  0  0  0  0  0  0  0  0  0
   10.4258   -3.0106   23.0998 C   0  0  0  0  0  0  0  0  0  0  0  0
   10.2148   -3.4364   25.4200 C   0  0  0  0  0  0  0  0  0  0  0  0
    9.7853   -1.1840   24.4927 C   0  0  0  0  0  0  0  0  0  0  0  0
    5.0276   -8.5227   17.5352 C   0  0  0  0  0  0  0  0  0  0  0  0
    9.8187   -2.0895   25.5800 C   0  0  0  0  0  0  0  0  0  0  0  0
    5.6473   -8.7216   15.3158 C   0  0  0  0  0  0  0  0  0  0  0  0
   10.7581   -3.1233   19.4720 N   0  0  0  0  0  0  0  0  0  0  0  0
    9.9571   -4.0573   16.8866 C   0  0  0  0  0  0  0  0  0  0  0  0
    7.6213   -6.5618   16.0087 C   0  0  0  0  0  0  0  0  0  0  0  0
   10.8583   -2.6527   20.7222 C   0  0  0  0  0  0  0  0  0  0  0  0
   10.6412   -3.5089   21.7936 C   0  0  0  0  0  0  0  0  0  0  0  0
   10.4972   -3.8968   24.1589 C   0  0  0  0  0  0  0  0  0  0  0  0
    5.9260   -8.2736   16.5517 C   0  0  0  0  0  0  0  0  0  0  0  0
    3.8816   -9.1166   17.2493 C   0  0  0  0  0  0  0  0  0  0  0  0
   10.1297   -1.6575   23.2324 C   0  0  0  0  0  0  0  0  0  0  0  0
    9.4684   -1.6929   26.7263 F   0  0  0  0  0  0  0  0  0  0  0  0
    7.7963   -7.7906   17.9837 C   0  0  0  0  0  0  0  0  0  0  0  0
   10.5884   -3.0725   16.7902 O   0  0  0  0  0  0  0  0  0  0  0  0
   10.4323   -5.3494   20.3516 C   0  0  0  0  0  0  0  0  0  0  0  0
    7.1156   -7.5454   16.8218 C   0  0  0  0  0  0  0  0  0  0  0  0
   10.3885   -4.4388   19.2773 C   0  0  0  0  0  0  0  0  0  0  0  0
    4.5160   -9.3822   15.0841 C   0  0  0  0  0  0  0  0  0  0  0  0
  1  3  4  0
  1 24  4  0
  2  6  4  0
  2 15  4  0
  3  5  4  0
  3  6  4  0
  4 21  4  0
  4 29  4  0
  5 15  4  0
  5 28  1  0
  6 16  4  0
  7 18  4  0
  7 26  4  0
  8 18  1  0
  8 19  4  0
  8 22  4  0
  9 12  4  0
  9 19  4  0
 10 12  4  0
 10 22  4  0
 11 20  4  0
 11 21  4  0
 12 23  1  0
 13 20  4  0
 13 29  4  0
 14 17  4  0
 14 28  4  0
 15 25  2  0
 16 27  4  0
 17 18  4  0
 20 27  1  0
 24 27  4  0
 26 28  4  0
M  END
$$$$

 Created by Python create_sdf_string function

 29 33  0  0  0  0  0  0  0  0999 V2000
    8.8270   -7.0288   18.4251 C   0  0  0  0  0  0  0  0  0  0  0  0
    9.1576   -4.6236   15.8860 O   0  0  0  0  0  0  0  0  0  0  0  0
    9.1509   -5.9108   17.7177 C   0  0  0  0  0  0  0  0  0  0  0  0
    3.6373   -9.5349   16.0582 N   0  0  0  0  0  0  0  0  0  0  0  0
    9.9275   -4.8001   18.0438 N   0  0  0  0  0  0  0  0  0  0  0  0
    8.5908   -5.7425   16.4412 C   0  0  0  0  0  0  0  0  0  0  0  0
   10.5993   -4.8981   21.6068 C   0  0  0  0  0  0  0  0  0  0  0  0
   10.4258   -3.0106   23.0998 C   0  0  0  0  0  0  0  0  0  0  0  0
   10.2148   -3.4364   25.4200 C   0  0  0  0  0  0  0  0  0  0  0  0
    9.7853   -1.1840   24.4927 C   0  0  0  0  0  0  0  0  0  0  0  0
    5.0276   -8.5227   17.5352 C   0  0  0  0  0  0  0  0  0  0  0  0
    9.8187   -2.0895   25.5800 C   0  0  0  0  0  0  0  0  0  0  0  0
    5.6473   -8.7216   15.3158 C   0  0  0  0  0  0  0  0  0  0  0  0
   10.7581   -3.1233   19.4720 N   0  0  0  0  0  0  0  0  0  0  0  0
    9.9571   -4.0573   16.8866 C   0  0  0  0  0  0  0  0  0  0  0  0
    7.6213   -6.5618   16.0087 C   0  0  0  0  0  0  0  0  0  0  0  0
   10.8583   -2.6527   20.7222 C   0  0  0  0  0  0  0  0  0  0  0  0
   10.6412   -3.5089   21.7936 C   0  0  0  0  0  0  0  0  0  0  0  0
   10.4972   -3.8968   24.1589 C   0  0  0  0  0  0  0  0  0  0  0  0
    5.9260   -8.2736   16.5517 C   0  0  0  0  0  0  0  0  0  0  0  0
    3.8816   -9.1166   17.2493 C   0  0  0  0  0  0  0  0  0  0  0  0
   10.1297   -1.6575   23.2324 C   0  0  0  0  0  0  0  0  0  0  0  0
    9.4684   -1.6929   26.7263 F   0  0  0  0  0  0  0  0  0  0  0  0
    7.7963   -7.7906   17.9837 C   0  0  0  0  0  0  0  0  0  0  0  0
   10.5884   -3.0725   16.7902 O   0  0  0  0  0  0  0  0  0  0  0  0
   10.4323   -5.3494   20.3516 C   0  0  0  0  0  0  0  0  0  0  0  0
    7.1156   -7.5454   16.8218 C   0  0  0  0  0  0  0  0  0  0  0  0
   10.3885   -4.4388   19.2773 C   0  0  0  0  0  0  0  0  0  0  0  0
    4.5160   -9.3822   15.0841 C   0  0  0  0  0  0  0  0  0  0  0  0
  1  3  4  0
  1 24  4  0
  2  6  4  0
  2 15  4  0
  3  5  4  0
  3  6  4  0
  4 21  4  0
  4 29  4  0
  5 15  4  0
  5 28  1  0
  6 16  4  0
  7 18  4  0
  7 26  4  0
  8 18  1  0
  8 19  4  0
  8 22  4  0
  9 12  4  0
  9 19  4  0
 10 12  4  0
 10 22  4  0
 11 20  4  0
 11 21  4  0
 12 23  1  0
 13 20  4  0
 13 29  4  0
 14 17  4  0
 14 28  4  0
 15 25  2  0
 16 27  4  0
 17 18  4  0
 20 27  1  0
 24 27  4  0
 26 28  4  0
M  END
$$$$

 Created by Python create_sdf_string function

 29 33  0  0  0  0  0  0  0  0999 V2000
    8.8270   -7.0288   18.4251 C   0  0  0  0  0  0  0  0  0  0  0  0
    9.1576   -4.6236   15.8860 O   0  0  0  0  0  0  0  0  0  0  0  0
    9.1509   -5.9108   17.7177 C   0  0  0  0  0  0  0  0  0  0  0  0
    3.6373   -9.5349   16.0582 N   0  0  0  0  0  0  0  0  0  0  0  0
    9.9275   -4.8001   18.0438 N   0  0  0  0  0  0  0  0  0  0  0  0
    8.5908   -5.7425   16.4412 C   0  0  0  0  0  0  0  0  0  0  0  0
   10.5993   -4.8981   21.6068 C   0  0  0  0  0  0  0  0  0  0  0  0
   10.4258   -3.0106   23.0998 C   0  0  0  0  0  0  0  0  0  0  0  0
   10.2148   -3.4364   25.4200 C   0  0  0  0  0  0  0  0  0  0  0  0
    9.7853   -1.1840   24.4927 C   0  0  0  0  0  0  0  0  0  0  0  0
    5.0276   -8.5227   17.5352 C   0  0  0  0  0  0  0  0  0  0  0  0
    9.8187   -2.0895   25.5800 C   0  0  0  0  0  0  0  0  0  0  0  0
    5.6473   -8.7216   15.3158 C   0  0  0  0  0  0  0  0  0  0  0  0
   10.7581   -3.1233   19.4720 N   0  0  0  0  0  0  0  0  0  0  0  0
    9.9571   -4.0573   16.8866 C   0  0  0  0  0  0  0  0  0  0  0  0
    7.6213   -6.5618   16.0087 C   0  0  0  0  0  0  0  0  0  0  0  0
   10.8583   -2.6527   20.7222 C   0  0  0  0  0  0  0  0  0  0  0  0
   10.6412   -3.5089   21.7936 C   0  0  0  0  0  0  0  0  0  0  0  0
   10.4972   -3.8968   24.1589 C   0  0  0  0  0  0  0  0  0  0  0  0
    5.9260   -8.2736   16.5517 C   0  0  0  0  0  0  0  0  0  0  0  0
    3.8816   -9.1166   17.2493 C   0  0  0  0  0  0  0  0  0  0  0  0
   10.1297   -1.6575   23.2324 C   0  0  0  0  0  0  0  0  0  0  0  0
    9.4684   -1.6929   26.7263 F   0  0  0  0  0  0  0  0  0  0  0  0
    7.7963   -7.7906   17.9837 C   0  0  0  0  0  0  0  0  0  0  0  0
   10.5884   -3.0725   16.7902 O   0  0  0  0  0  0  0  0  0  0  0  0
   10.4323   -5.3494   20.3516 C   0  0  0  0  0  0  0  0  0  0  0  0
    7.1156   -7.5454   16.8218 C   0  0  0  0  0  0  0  0  0  0  0  0
   10.3885   -4.4388   19.2773 C   0  0  0  0  0  0  0  0  0  0  0  0
    4.5160   -9.3822   15.0841 C   0  0  0  0  0  0  0  0  0  0  0  0
  1  3  4  0
  1 24  4  0
  2  6  4  0
  2 15  4  0
  3  5  4  0
  3  6  4  0
  4 21  4  0
  4 29  4  0
  5 15  4  0
  5 28  1  0
  6 16  4  0
  7 18  4  0
  7 26  4  0
  8 18  1  0
  8 19  4  0
  8 22  4  0
  9 12  4  0
  9 19  4  0
 10 12  4  0
 10 22  4  0
 11 20  4  0
 11 21  4  0
 12 23  1  0
 13 20  4  0
 13 29  4  0
 14 17  4  0
 14 28  4  0
 15 25  2  0
 16 27  4  0
 17 18  4  0
 20 27  1  0
 24 27  4  0
 26 28  4  0
M  END
$$$$

 Created by Python create_sdf_string function

 29 33  0  0  0  0  0  0  0  0999 V2000
    8.8270   -7.0288   18.4251 C   0  0  0  0  0  0  0  0  0  0  0  0
    9.1576   -4.6236   15.8860 O   0  0  0  0  0  0  0  0  0  0  0  0
    9.1509   -5.9108   17.7177 C   0  0  0  0  0  0  0  0  0  0  0  0
    3.6373   -9.5349   16.0582 N   0  0  0  0  0  0  0  0  0  0  0  0
    9.9275   -4.8001   18.0438 N   0  0  0  0  0  0  0  0  0  0  0  0
    8.5908   -5.7425   16.4412 C   0  0  0  0  0  0  0  0  0  0  0  0
   10.5993   -4.8981   21.6068 C   0  0  0  0  0  0  0  0  0  0  0  0
   10.4258   -3.0106   23.0998 C   0  0  0  0  0  0  0  0  0  0  0  0
   10.2148   -3.4364   25.4200 C   0  0  0  0  0  0  0  0  0  0  0  0
    9.7853   -1.1840   24.4927 C   0  0  0  0  0  0  0  0  0  0  0  0
    5.0276   -8.5227   17.5352 C   0  0  0  0  0  0  0  0  0  0  0  0
    9.8187   -2.0895   25.5800 C   0  0  0  0  0  0  0  0  0  0  0  0
    5.6473   -8.7216   15.3158 C   0  0  0  0  0  0  0  0  0  0  0  0
   10.7581   -3.1233   19.4720 N   0  0  0  0  0  0  0  0  0  0  0  0
    9.9571   -4.0573   16.8866 C   0  0  0  0  0  0  0  0  0  0  0  0
    7.6213   -6.5618   16.0087 C   0  0  0  0  0  0  0  0  0  0  0  0
   10.8583   -2.6527   20.7222 C   0  0  0  0  0  0  0  0  0  0  0  0
   10.6412   -3.5089   21.7936 C   0  0  0  0  0  0  0  0  0  0  0  0
   10.4972   -3.8968   24.1589 C   0  0  0  0  0  0  0  0  0  0  0  0
    5.9260   -8.2736   16.5517 C   0  0  0  0  0  0  0  0  0  0  0  0
    3.8816   -9.1166   17.2493 C   0  0  0  0  0  0  0  0  0  0  0  0
   10.1297   -1.6575   23.2324 C   0  0  0  0  0  0  0  0  0  0  0  0
    9.4684   -1.6929   26.7263 F   0  0  0  0  0  0  0  0  0  0  0  0
    7.7963   -7.7906   17.9837 C   0  0  0  0  0  0  0  0  0  0  0  0
   10.5884   -3.0725   16.7902 O   0  0  0  0  0  0  0  0  0  0  0  0
   10.4323   -5.3494   20.3516 C   0  0  0  0  0  0  0  0  0  0  0  0
    7.1156   -7.5454   16.8218 C   0  0  0  0  0  0  0  0  0  0  0  0
   10.3885   -4.4388   19.2773 C   0  0  0  0  0  0  0  0  0  0  0  0
    4.5160   -9.3822   15.0841 C   0  0  0  0  0  0  0  0  0  0  0  0
  1  3  4  0
  1 24  4  0
  2  6  4  0
  2 15  4  0
  3  5  4  0
  3  6  4  0
  4 21  4  0
  4 29  4  0
  5 15  4  0
  5 28  1  0
  6 16  4  0
  7 18  4  0
  7 26  4  0
  8 18  1  0
  8 19  4  0
  8 22  4  0
  9 12  4  0
  9 19  4  0
 10 12  4  0
 10 22  4  0
 11 20  4  0
 11 21  4  0
 12 23  1  0
 13 20  4  0
 13 29  4  0
 14 17  4  0
 14 28  4  0
 15 25  2  0
 16 27  4  0
 17 18  4  0
 20 27  1  0
 24 27  4  0
 26 28  4  0
M  END
$$$$

 Created by Python create_sdf_string function

 29 33  0  0  0  0  0  0  0  0999 V2000
    8.8270   -7.0288   18.4251 C   0  0  0  0  0  0  0  0  0  0  0  0
    9.1576   -4.6236   15.8860 O   0  0  0  0  0  0  0  0  0  0  0  0
    9.1509   -5.9108   17.7177 C   0  0  0  0  0  0  0  0  0  0  0  0
    3.6373   -9.5349   16.0582 N   0  0  0  0  0  0  0  0  0  0  0  0
    9.9275   -4.8001   18.0438 N   0  0  0  0  0  0  0  0  0  0  0  0
    8.5908   -5.7425   16.4412 C   0  0  0  0  0  0  0  0  0  0  0  0
   10.5993   -4.8981   21.6068 C   0  0  0  0  0  0  0  0  0  0  0  0
   10.4258   -3.0106   23.0998 C   0  0  0  0  0  0  0  0  0  0  0  0
   10.2148   -3.4364   25.4200 C   0  0  0  0  0  0  0  0  0  0  0  0
    9.7853   -1.1840   24.4927 C   0  0  0  0  0  0  0  0  0  0  0  0
    5.0276   -8.5227   17.5352 C   0  0  0  0  0  0  0  0  0  0  0  0
    9.8187   -2.0895   25.5800 C   0  0  0  0  0  0  0  0  0  0  0  0
    5.6473   -8.7216   15.3158 C   0  0  0  0  0  0  0  0  0  0  0  0
   10.7581   -3.1233   19.4720 N   0  0  0  0  0  0  0  0  0  0  0  0
    9.9571   -4.0573   16.8866 C   0  0  0  0  0  0  0  0  0  0  0  0
    7.6213   -6.5618   16.0087 C   0  0  0  0  0  0  0  0  0  0  0  0
   10.8583   -2.6527   20.7222 C   0  0  0  0  0  0  0  0  0  0  0  0
   10.6412   -3.5089   21.7936 C   0  0  0  0  0  0  0  0  0  0  0  0
   10.4972   -3.8968   24.1589 C   0  0  0  0  0  0  0  0  0  0  0  0
    5.9260   -8.2736   16.5517 C   0  0  0  0  0  0  0  0  0  0  0  0
    3.8816   -9.1166   17.2493 C   0  0  0  0  0  0  0  0  0  0  0  0
   10.1297   -1.6575   23.2324 C   0  0  0  0  0  0  0  0  0  0  0  0
    9.4684   -1.6929   26.7263 F   0  0  0  0  0  0  0  0  0  0  0  0
    7.7963   -7.7906   17.9837 C   0  0  0  0  0  0  0  0  0  0  0  0
   10.5884   -3.0725   16.7902 O   0  0  0  0  0  0  0  0  0  0  0  0
   10.4323   -5.3494   20.3516 C   0  0  0  0  0  0  0  0  0  0  0  0
    7.1156   -7.5454   16.8218 C   0  0  0  0  0  0  0  0  0  0  0  0
   10.3885   -4.4388   19.2773 C   0  0  0  0  0  0  0  0  0  0  0  0
    4.5160   -9.3822   15.0841 C   0  0  0  0  0  0  0  0  0  0  0  0
  1  3  4  0
  1 24  4  0
  2  6  4  0
  2 15  4  0
  3  5  4  0
  3  6  4  0
  4 21  4  0
  4 29  4  0
  5 15  4  0
  5 28  1  0
  6 16  4  0
  7 18  4  0
  7 26  4  0
  8 18  1  0
  8 19  4  0
  8 22  4  0
  9 12  4  0
  9 19  4  0
 10 12  4  0
 10 22  4  0
 11 20  4  0
 11 21  4  0
 12 23  1  0
 13 20  4  0
 13 29  4  0
 14 17  4  0
 14 28  4  0
 15 25  2  0
 16 27  4  0
 17 18  4  0
 20 27  1  0
 24 27  4  0
 26 28  4  0
M  END
$$$$

 Created by Python create_sdf_string function

 29 33  0  0  0  0  0  0  0  0999 V2000
    8.8270   -7.0288   18.4251 C   0  0  0  0  0  0  0  0  0  0  0  0
    9.1576   -4.6236   15.8860 O   0  0  0  0  0  0  0  0  0  0  0  0
    9.1509   -5.9108   17.7177 C   0  0  0  0  0  0  0  0  0  0  0  0
    3.6373   -9.5349   16.0582 N   0  0  0  0  0  0  0  0  0  0  0  0
    9.9275   -4.8001   18.0438 N   0  0  0  0  0  0  0  0  0  0  0  0
    8.5908   -5.7425   16.4412 C   0  0  0  0  0  0  0  0  0  0  0  0
   10.5993   -4.8981   21.6068 C   0  0  0  0  0  0  0  0  0  0  0  0
   10.4258   -3.0106   23.0998 C   0  0  0  0  0  0  0  0  0  0  0  0
   10.2148   -3.4364   25.4200 C   0  0  0  0  0  0  0  0  0  0  0  0
    9.7853   -1.1840   24.4927 C   0  0  0  0  0  0  0  0  0  0  0  0
    5.0276   -8.5227   17.5352 C   0  0  0  0  0  0  0  0  0  0  0  0
    9.8187   -2.0895   25.5800 C   0  0  0  0  0  0  0  0  0  0  0  0
    5.6473   -8.7216   15.3158 C   0  0  0  0  0  0  0  0  0  0  0  0
   10.7581   -3.1233   19.4720 N   0  0  0  0  0  0  0  0  0  0  0  0
    9.9571   -4.0573   16.8866 C   0  0  0  0  0  0  0  0  0  0  0  0
    7.6213   -6.5618   16.0087 C   0  0  0  0  0  0  0  0  0  0  0  0
   10.8583   -2.6527   20.7222 C   0  0  0  0  0  0  0  0  0  0  0  0
   10.6412   -3.5089   21.7936 C   0  0  0  0  0  0  0  0  0  0  0  0
   10.4972   -3.8968   24.1589 C   0  0  0  0  0  0  0  0  0  0  0  0
    5.9260   -8.2736   16.5517 C   0  0  0  0  0  0  0  0  0  0  0  0
    3.8816   -9.1166   17.2493 C   0  0  0  0  0  0  0  0  0  0  0  0
   10.1297   -1.6575   23.2324 C   0  0  0  0  0  0  0  0  0  0  0  0
    9.4684   -1.6929   26.7263 F   0  0  0  0  0  0  0  0  0  0  0  0
    7.7963   -7.7906   17.9837 C   0  0  0  0  0  0  0  0  0  0  0  0
   10.5884   -3.0725   16.7902 O   0  0  0  0  0  0  0  0  0  0  0  0
   10.4323   -5.3494   20.3516 C   0  0  0  0  0  0  0  0  0  0  0  0
    7.1156   -7.5454   16.8218 C   0  0  0  0  0  0  0  0  0  0  0  0
   10.3885   -4.4388   19.2773 C   0  0  0  0  0  0  0  0  0  0  0  0
    4.5160   -9.3822   15.0841 C   0  0  0  0  0  0  0  0  0  0  0  0
  1  3  4  0
  1 24  4  0
  2  6  4  0
  2 15  4  0
  3  5  4  0
  3  6  4  0
  4 21  4  0
  4 29  4  0
  5 15  4  0
  5 28  1  0
  6 16  4  0
  7 18  4  0
  7 26  4  0
  8 18  1  0
  8 19  4  0
  8 22  4  0
  9 12  4  0
  9 19  4  0
 10 12  4  0
 10 22  4  0
 11 20  4  0
 11 21  4  0
 12 23  1  0
 13 20  4  0
 13 29  4  0
 14 17  4  0
 14 28  4  0
 15 25  2  0
 16 27  4  0
 17 18  4  0
 20 27  1  0
 24 27  4  0
 26 28  4  0
M  END
$$$$

 Created by Python create_sdf_string function

 29 33  0  0  0  0  0  0  0  0999 V2000
    8.8270   -7.0288   18.4251 C   0  0  0  0  0  0  0  0  0  0  0  0
    9.1576   -4.6236   15.8860 O   0  0  0  0  0  0  0  0  0  0  0  0
    9.1509   -5.9108   17.7177 C   0  0  0  0  0  0  0  0  0  0  0  0
    3.6373   -9.5349   16.0582 N   0  0  0  0  0  0  0  0  0  0  0  0
    9.9275   -4.8001   18.0438 N   0  0  0  0  0  0  0  0  0  0  0  0
    8.5908   -5.7425   16.4412 C   0  0  0  0  0  0  0  0  0  0  0  0
   10.5993   -4.8981   21.6068 C   0  0  0  0  0  0  0  0  0  0  0  0
   10.4258   -3.0106   23.0998 C   0  0  0  0  0  0  0  0  0  0  0  0
   10.2148   -3.4364   25.4200 C   0  0  0  0  0  0  0  0  0  0  0  0
    9.7853   -1.1840   24.4927 C   0  0  0  0  0  0  0  0  0  0  0  0
    5.0276   -8.5227   17.5352 C   0  0  0  0  0  0  0  0  0  0  0  0
    9.8187   -2.0895   25.5800 C   0  0  0  0  0  0  0  0  0  0  0  0
    5.6473   -8.7216   15.3158 C   0  0  0  0  0  0  0  0  0  0  0  0
   10.7581   -3.1233   19.4720 N   0  0  0  0  0  0  0  0  0  0  0  0
    9.9571   -4.0573   16.8866 C   0  0  0  0  0  0  0  0  0  0  0  0
    7.6213   -6.5618   16.0087 C   0  0  0  0  0  0  0  0  0  0  0  0
   10.8583   -2.6527   20.7222 C   0  0  0  0  0  0  0  0  0  0  0  0
   10.6412   -3.5089   21.7936 C   0  0  0  0  0  0  0  0  0  0  0  0
   10.4972   -3.8968   24.1589 C   0  0  0  0  0  0  0  0  0  0  0  0
    5.9260   -8.2736   16.5517 C   0  0  0  0  0  0  0  0  0  0  0  0
    3.8816   -9.1166   17.2493 C   0  0  0  0  0  0  0  0  0  0  0  0
   10.1297   -1.6575   23.2324 C   0  0  0  0  0  0  0  0  0  0  0  0
    9.4684   -1.6929   26.7263 F   0  0  0  0  0  0  0  0  0  0  0  0
    7.7963   -7.7906   17.9837 C   0  0  0  0  0  0  0  0  0  0  0  0
   10.5884   -3.0725   16.7902 O   0  0  0  0  0  0  0  0  0  0  0  0
   10.4323   -5.3494   20.3516 C   0  0  0  0  0  0  0  0  0  0  0  0
    7.1156   -7.5454   16.8218 C   0  0  0  0  0  0  0  0  0  0  0  0
   10.3885   -4.4388   19.2773 C   0  0  0  0  0  0  0  0  0  0  0  0
    4.5160   -9.3822   15.0841 C   0  0  0  0  0  0  0  0  0  0  0  0
  1  3  4  0
  1 24  4  0
  2  6  4  0
  2 15  4  0
  3  5  4  0
  3  6  4  0
  4 21  4  0
  4 29  4  0
  5 15  4  0
  5 28  1  0
  6 16  4  0
  7 18  4  0
  7 26  4  0
  8 18  1  0
  8 19  4  0
  8 22  4  0
  9 12  4  0
  9 19  4  0
 10 12  4  0
 10 22  4  0
 11 20  4  0
 11 21  4  0
 12 23  1  0
 13 20  4  0
 13 29  4  0
 14 17  4  0
 14 28  4  0
 15 25  2  0
 16 27  4  0
 17 18  4  0
 20 27  1  0
 24 27  4  0
 26 28  4  0
M  END
$$$$

 Created by Python create_sdf_string function

 29 33  0  0  0  0  0  0  0  0999 V2000
    8.8270   -7.0288   18.4251 C   0  0  0  0  0  0  0  0  0  0  0  0
    9.1576   -4.6236   15.8860 O   0  0  0  0  0  0  0  0  0  0  0  0
    9.1509   -5.9108   17.7177 C   0  0  0  0  0  0  0  0  0  0  0  0
    3.6373   -9.5349   16.0582 N   0  0  0  0  0  0  0  0  0  0  0  0
    9.9275   -4.8001   18.0438 N   0  0  0  0  0  0  0  0  0  0  0  0
    8.5908   -5.7425   16.4412 C   0  0  0  0  0  0  0  0  0  0  0  0
   10.5993   -4.8981   21.6068 C   0  0  0  0  0  0  0  0  0  0  0  0
   10.4258   -3.0106   23.0998 C   0  0  0  0  0  0  0  0  0  0  0  0
   10.2148   -3.4364   25.4200 C   0  0  0  0  0  0  0  0  0  0  0  0
    9.7853   -1.1840   24.4927 C   0  0  0  0  0  0  0  0  0  0  0  0
    5.0276   -8.5227   17.5352 C   0  0  0  0  0  0  0  0  0  0  0  0
    9.8187   -2.0895   25.5800 C   0  0  0  0  0  0  0  0  0  0  0  0
    5.6473   -8.7216   15.3158 C   0  0  0  0  0  0  0  0  0  0  0  0
   10.7581   -3.1233   19.4720 N   0  0  0  0  0  0  0  0  0  0  0  0
    9.9571   -4.0573   16.8866 C   0  0  0  0  0  0  0  0  0  0  0  0
    7.6213   -6.5618   16.0087 C   0  0  0  0  0  0  0  0  0  0  0  0
   10.8583   -2.6527   20.7222 C   0  0  0  0  0  0  0  0  0  0  0  0
   10.6412   -3.5089   21.7936 C   0  0  0  0  0  0  0  0  0  0  0  0
   10.4972   -3.8968   24.1589 C   0  0  0  0  0  0  0  0  0  0  0  0
    5.9260   -8.2736   16.5517 C   0  0  0  0  0  0  0  0  0  0  0  0
    3.8816   -9.1166   17.2493 C   0  0  0  0  0  0  0  0  0  0  0  0
   10.1297   -1.6575   23.2324 C   0  0  0  0  0  0  0  0  0  0  0  0
    9.4684   -1.6929   26.7263 F   0  0  0  0  0  0  0  0  0  0  0  0
    7.7963   -7.7906   17.9837 C   0  0  0  0  0  0  0  0  0  0  0  0
   10.5884   -3.0725   16.7902 O   0  0  0  0  0  0  0  0  0  0  0  0
   10.4323   -5.3494   20.3516 C   0  0  0  0  0  0  0  0  0  0  0  0
    7.1156   -7.5454   16.8218 C   0  0  0  0  0  0  0  0  0  0  0  0
   10.3885   -4.4388   19.2773 C   0  0  0  0  0  0  0  0  0  0  0  0
    4.5160   -9.3822   15.0841 C   0  0  0  0  0  0  0  0  0  0  0  0
  1  3  4  0
  1 24  4  0
  2  6  4  0
  2 15  4  0
  3  5  4  0
  3  6  4  0
  4 21  4  0
  4 29  4  0
  5 15  4  0
  5 28  1  0
  6 16  4  0
  7 18  4  0
  7 26  4  0
  8 18  1  0
  8 19  4  0
  8 22  4  0
  9 12  4  0
  9 19  4  0
 10 12  4  0
 10 22  4  0
 11 20  4  0
 11 21  4  0
 12 23  1  0
 13 20  4  0
 13 29  4  0
 14 17  4  0
 14 28  4  0
 15 25  2  0
 16 27  4  0
 17 18  4  0
 20 27  1  0
 24 27  4  0
 26 28  4  0
M  END
$$$$

 Created by Python create_sdf_string function

 29 33  0  0  0  0  0  0  0  0999 V2000
    8.8270   -7.0288   18.4251 C   0  0  0  0  0  0  0  0  0  0  0  0
    9.1576   -4.6236   15.8860 O   0  0  0  0  0  0  0  0  0  0  0  0
    9.1509   -5.9108   17.7177 C   0  0  0  0  0  0  0  0  0  0  0  0
    3.6373   -9.5349   16.0582 N   0  0  0  0  0  0  0  0  0  0  0  0
    9.9275   -4.8001   18.0438 N   0  0  0  0  0  0  0  0  0  0  0  0
    8.5908   -5.7425   16.4412 C   0  0  0  0  0  0  0  0  0  0  0  0
   10.5993   -4.8981   21.6068 C   0  0  0  0  0  0  0  0  0  0  0  0
   10.4258   -3.0106   23.0998 C   0  0  0  0  0  0  0  0  0  0  0  0
   10.2148   -3.4364   25.4200 C   0  0  0  0  0  0  0  0  0  0  0  0
    9.7853   -1.1840   24.4927 C   0  0  0  0  0  0  0  0  0  0  0  0
    5.0276   -8.5227   17.5352 C   0  0  0  0  0  0  0  0  0  0  0  0
    9.8187   -2.0895   25.5800 C   0  0  0  0  0  0  0  0  0  0  0  0
    5.6473   -8.7216   15.3158 C   0  0  0  0  0  0  0  0  0  0  0  0
   10.7581   -3.1233   19.4720 N   0  0  0  0  0  0  0  0  0  0  0  0
    9.9571   -4.0573   16.8866 C   0  0  0  0  0  0  0  0  0  0  0  0
    7.6213   -6.5618   16.0087 C   0  0  0  0  0  0  0  0  0  0  0  0
   10.8583   -2.6527   20.7222 C   0  0  0  0  0  0  0  0  0  0  0  0
   10.6412   -3.5089   21.7936 C   0  0  0  0  0  0  0  0  0  0  0  0
   10.4972   -3.8968   24.1589 C   0  0  0  0  0  0  0  0  0  0  0  0
    5.9260   -8.2736   16.5517 C   0  0  0  0  0  0  0  0  0  0  0  0
    3.8816   -9.1166   17.2493 C   0  0  0  0  0  0  0  0  0  0  0  0
   10.1297   -1.6575   23.2324 C   0  0  0  0  0  0  0  0  0  0  0  0
    9.4684   -1.6929   26.7263 F   0  0  0  0  0  0  0  0  0  0  0  0
    7.7963   -7.7906   17.9837 C   0  0  0  0  0  0  0  0  0  0  0  0
   10.5884   -3.0725   16.7902 O   0  0  0  0  0  0  0  0  0  0  0  0
   10.4323   -5.3494   20.3516 C   0  0  0  0  0  0  0  0  0  0  0  0
    7.1156   -7.5454   16.8218 C   0  0  0  0  0  0  0  0  0  0  0  0
   10.3885   -4.4388   19.2773 C   0  0  0  0  0  0  0  0  0  0  0  0
    4.5160   -9.3822   15.0841 C   0  0  0  0  0  0  0  0  0  0  0  0
  1  3  4  0
  1 24  4  0
  2  6  4  0
  2 15  4  0
  3  5  4  0
  3  6  4  0
  4 21  4  0
  4 29  4  0
  5 15  4  0
  5 28  1  0
  6 16  4  0
  7 18  4  0
  7 26  4  0
  8 18  1  0
  8 19  4  0
  8 22  4  0
  9 12  4  0
  9 19  4  0
 10 12  4  0
 10 22  4  0
 11 20  4  0
 11 21  4  0
 12 23  1  0
 13 20  4  0
 13 29  4  0
 14 17  4  0
 14 28  4  0
 15 25  2  0
 16 27  4  0
 17 18  4  0
 20 27  1  0
 24 27  4  0
 26 28  4  0
M  END
$$$$

 Created by Python create_sdf_string function

 29 33  0  0  0  0  0  0  0  0999 V2000
    8.8270   -7.0288   18.4251 C   0  0  0  0  0  0  0  0  0  0  0  0
    9.1576   -4.6236   15.8860 O   0  0  0  0  0  0  0  0  0  0  0  0
    9.1509   -5.9108   17.7177 C   0  0  0  0  0  0  0  0  0  0  0  0
    3.6373   -9.5349   16.0582 N   0  0  0  0  0  0  0  0  0  0  0  0
    9.9275   -4.8001   18.0438 N   0  0  0  0  0  0  0  0  0  0  0  0
    8.5908   -5.7425   16.4412 C   0  0  0  0  0  0  0  0  0  0  0  0
   10.5993   -4.8981   21.6068 C   0  0  0  0  0  0  0  0  0  0  0  0
   10.4258   -3.0106   23.0998 C   0  0  0  0  0  0  0  0  0  0  0  0
   10.2148   -3.4364   25.4200 C   0  0  0  0  0  0  0  0  0  0  0  0
    9.7853   -1.1840   24.4927 C   0  0  0  0  0  0  0  0  0  0  0  0
    5.0276   -8.5227   17.5352 C   0  0  0  0  0  0  0  0  0  0  0  0
    9.8187   -2.0895   25.5800 C   0  0  0  0  0  0  0  0  0  0  0  0
    5.6473   -8.7216   15.3158 C   0  0  0  0  0  0  0  0  0  0  0  0
   10.7581   -3.1233   19.4720 N   0  0  0  0  0  0  0  0  0  0  0  0
    9.9571   -4.0573   16.8866 C   0  0  0  0  0  0  0  0  0  0  0  0
    7.6213   -6.5618   16.0087 C   0  0  0  0  0  0  0  0  0  0  0  0
   10.8583   -2.6527   20.7222 C   0  0  0  0  0  0  0  0  0  0  0  0
   10.6412   -3.5089   21.7936 C   0  0  0  0  0  0  0  0  0  0  0  0
   10.4972   -3.8968   24.1589 C   0  0  0  0  0  0  0  0  0  0  0  0
    5.9260   -8.2736   16.5517 C   0  0  0  0  0  0  0  0  0  0  0  0
    3.8816   -9.1166   17.2493 C   0  0  0  0  0  0  0  0  0  0  0  0
   10.1297   -1.6575   23.2324 C   0  0  0  0  0  0  0  0  0  0  0  0
    9.4684   -1.6929   26.7263 F   0  0  0  0  0  0  0  0  0  0  0  0
    7.7963   -7.7906   17.9837 C   0  0  0  0  0  0  0  0  0  0  0  0
   10.5884   -3.0725   16.7902 O   0  0  0  0  0  0  0  0  0  0  0  0
   10.4323   -5.3494   20.3516 C   0  0  0  0  0  0  0  0  0  0  0  0
    7.1156   -7.5454   16.8218 C   0  0  0  0  0  0  0  0  0  0  0  0
   10.3885   -4.4388   19.2773 C   0  0  0  0  0  0  0  0  0  0  0  0
    4.5160   -9.3822   15.0841 C   0  0  0  0  0  0  0  0  0  0  0  0
  1  3  4  0
  1 24  4  0
  2  6  4  0
  2 15  4  0
  3  5  4  0
  3  6  4  0
  4 21  4  0
  4 29  4  0
  5 15  4  0
  5 28  1  0
  6 16  4  0
  7 18  4  0
  7 26  4  0
  8 18  1  0
  8 19  4  0
  8 22  4  0
  9 12  4  0
  9 19  4  0
 10 12  4  0
 10 22  4  0
 11 20  4  0
 11 21  4  0
 12 23  1  0
 13 20  4  0
 13 29  4  0
 14 17  4  0
 14 28  4  0
 15 25  2  0
 16 27  4  0
 17 18  4  0
 20 27  1  0
 24 27  4  0
 26 28  4  0
M  END
$$$$

 Created by Python create_sdf_string function

 29 33  0  0  0  0  0  0  0  0999 V2000
    8.8270   -7.0288   18.4251 C   0  0  0  0  0  0  0  0  0  0  0  0
    9.1576   -4.6236   15.8860 O   0  0  0  0  0  0  0  0  0  0  0  0
    9.1509   -5.9108   17.7177 C   0  0  0  0  0  0  0  0  0  0  0  0
    3.6373   -9.5349   16.0582 N   0  0  0  0  0  0  0  0  0  0  0  0
    9.9275   -4.8001   18.0438 N   0  0  0  0  0  0  0  0  0  0  0  0
    8.5908   -5.7425   16.4412 C   0  0  0  0  0  0  0  0  0  0  0  0
   10.5993   -4.8981   21.6068 C   0  0  0  0  0  0  0  0  0  0  0  0
   10.4258   -3.0106   23.0998 C   0  0  0  0  0  0  0  0  0  0  0  0
   10.2148   -3.4364   25.4200 C   0  0  0  0  0  0  0  0  0  0  0  0
    9.7853   -1.1840   24.4927 C   0  0  0  0  0  0  0  0  0  0  0  0
    5.0276   -8.5227   17.5352 C   0  0  0  0  0  0  0  0  0  0  0  0
    9.8187   -2.0895   25.5800 C   0  0  0  0  0  0  0  0  0  0  0  0
    5.6473   -8.7216   15.3158 C   0  0  0  0  0  0  0  0  0  0  0  0
   10.7581   -3.1233   19.4720 N   0  0  0  0  0  0  0  0  0  0  0  0
    9.9571   -4.0573   16.8866 C   0  0  0  0  0  0  0  0  0  0  0  0
    7.6213   -6.5618   16.0087 C   0  0  0  0  0  0  0  0  0  0  0  0
   10.8583   -2.6527   20.7222 C   0  0  0  0  0  0  0  0  0  0  0  0
   10.6412   -3.5089   21.7936 C   0  0  0  0  0  0  0  0  0  0  0  0
   10.4972   -3.8968   24.1589 C   0  0  0  0  0  0  0  0  0  0  0  0
    5.9260   -8.2736   16.5517 C   0  0  0  0  0  0  0  0  0  0  0  0
    3.8816   -9.1166   17.2493 C   0  0  0  0  0  0  0  0  0  0  0  0
   10.1297   -1.6575   23.2324 C   0  0  0  0  0  0  0  0  0  0  0  0
    9.4684   -1.6929   26.7263 F   0  0  0  0  0  0  0  0  0  0  0  0
    7.7963   -7.7906   17.9837 C   0  0  0  0  0  0  0  0  0  0  0  0
   10.5884   -3.0725   16.7902 O   0  0  0  0  0  0  0  0  0  0  0  0
   10.4323   -5.3494   20.3516 C   0  0  0  0  0  0  0  0  0  0  0  0
    7.1156   -7.5454   16.8218 C   0  0  0  0  0  0  0  0  0  0  0  0
   10.3885   -4.4388   19.2773 C   0  0  0  0  0  0  0  0  0  0  0  0
    4.5160   -9.3822   15.0841 C   0  0  0  0  0  0  0  0  0  0  0  0
  1  3  4  0
  1 24  4  0
  2  6  4  0
  2 15  4  0
  3  5  4  0
  3  6  4  0
  4 21  4  0
  4 29  4  0
  5 15  4  0
  5 28  1  0
  6 16  4  0
  7 18  4  0
  7 26  4  0
  8 18  1  0
  8 19  4  0
  8 22  4  0
  9 12  4  0
  9 19  4  0
 10 12  4  0
 10 22  4  0
 11 20  4  0
 11 21  4  0
 12 23  1  0
 13 20  4  0
 13 29  4  0
 14 17  4  0
 14 28  4  0
 15 25  2  0
 16 27  4  0
 17 18  4  0
 20 27  1  0
 24 27  4  0
 26 28  4  0
M  END
$$$$

 Created by Python create_sdf_string function

 29 33  0  0  0  0  0  0  0  0999 V2000
    8.8270   -7.0288   18.4251 C   0  0  0  0  0  0  0  0  0  0  0  0
    9.1576   -4.6236   15.8860 O   0  0  0  0  0  0  0  0  0  0  0  0
    9.1509   -5.9108   17.7177 C   0  0  0  0  0  0  0  0  0  0  0  0
    3.6373   -9.5349   16.0582 N   0  0  0  0  0  0  0  0  0  0  0  0
    9.9275   -4.8001   18.0438 N   0  0  0  0  0  0  0  0  0  0  0  0
    8.5908   -5.7425   16.4412 C   0  0  0  0  0  0  0  0  0  0  0  0
   10.5993   -4.8981   21.6068 C   0  0  0  0  0  0  0  0  0  0  0  0
   10.4258   -3.0106   23.0998 C   0  0  0  0  0  0  0  0  0  0  0  0
   10.2148   -3.4364   25.4200 C   0  0  0  0  0  0  0  0  0  0  0  0
    9.7853   -1.1840   24.4927 C   0  0  0  0  0  0  0  0  0  0  0  0
    5.0276   -8.5227   17.5352 C   0  0  0  0  0  0  0  0  0  0  0  0
    9.8187   -2.0895   25.5800 C   0  0  0  0  0  0  0  0  0  0  0  0
    5.6473   -8.7216   15.3158 C   0  0  0  0  0  0  0  0  0  0  0  0
   10.7581   -3.1233   19.4720 N   0  0  0  0  0  0  0  0  0  0  0  0
    9.9571   -4.0573   16.8866 C   0  0  0  0  0  0  0  0  0  0  0  0
    7.6213   -6.5618   16.0087 C   0  0  0  0  0  0  0  0  0  0  0  0
   10.8583   -2.6527   20.7222 C   0  0  0  0  0  0  0  0  0  0  0  0
   10.6412   -3.5089   21.7936 C   0  0  0  0  0  0  0  0  0  0  0  0
   10.4972   -3.8968   24.1589 C   0  0  0  0  0  0  0  0  0  0  0  0
    5.9260   -8.2736   16.5517 C   0  0  0  0  0  0  0  0  0  0  0  0
    3.8816   -9.1166   17.2493 C   0  0  0  0  0  0  0  0  0  0  0  0
   10.1297   -1.6575   23.2324 C   0  0  0  0  0  0  0  0  0  0  0  0
    9.4684   -1.6929   26.7263 F   0  0  0  0  0  0  0  0  0  0  0  0
    7.7963   -7.7906   17.9837 C   0  0  0  0  0  0  0  0  0  0  0  0
   10.5884   -3.0725   16.7902 O   0  0  0  0  0  0  0  0  0  0  0  0
   10.4323   -5.3494   20.3516 C   0  0  0  0  0  0  0  0  0  0  0  0
    7.1156   -7.5454   16.8218 C   0  0  0  0  0  0  0  0  0  0  0  0
   10.3885   -4.4388   19.2773 C   0  0  0  0  0  0  0  0  0  0  0  0
    4.5160   -9.3822   15.0841 C   0  0  0  0  0  0  0  0  0  0  0  0
  1  3  4  0
  1 24  4  0
  2  6  4  0
  2 15  4  0
  3  5  4  0
  3  6  4  0
  4 21  4  0
  4 29  4  0
  5 15  4  0
  5 28  1  0
  6 16  4  0
  7 18  4  0
  7 26  4  0
  8 18  1  0
  8 19  4  0
  8 22  4  0
  9 12  4  0
  9 19  4  0
 10 12  4  0
 10 22  4  0
 11 20  4  0
 11 21  4  0
 12 23  1  0
 13 20  4  0
 13 29  4  0
 14 17  4  0
 14 28  4  0
 15 25  2  0
 16 27  4  0
 17 18  4  0
 20 27  1  0
 24 27  4  0
 26 28  4  0
M  END
$$$$

 Created by Python create_sdf_string function

 29 33  0  0  0  0  0  0  0  0999 V2000
    8.8270   -7.0288   18.4251 C   0  0  0  0  0  0  0  0  0  0  0  0
    9.1576   -4.6236   15.8860 O   0  0  0  0  0  0  0  0  0  0  0  0
    9.1509   -5.9108   17.7177 C   0  0  0  0  0  0  0  0  0  0  0  0
    3.6373   -9.5349   16.0582 N   0  0  0  0  0  0  0  0  0  0  0  0
    9.9275   -4.8001   18.0438 N   0  0  0  0  0  0  0  0  0  0  0  0
    8.5908   -5.7425   16.4412 C   0  0  0  0  0  0  0  0  0  0  0  0
   10.5993   -4.8981   21.6068 C   0  0  0  0  0  0  0  0  0  0  0  0
   10.4258   -3.0106   23.0998 C   0  0  0  0  0  0  0  0  0  0  0  0
   10.2148   -3.4364   25.4200 C   0  0  0  0  0  0  0  0  0  0  0  0
    9.7853   -1.1840   24.4927 C   0  0  0  0  0  0  0  0  0  0  0  0
    5.0276   -8.5227   17.5352 C   0  0  0  0  0  0  0  0  0  0  0  0
    9.8187   -2.0895   25.5800 C   0  0  0  0  0  0  0  0  0  0  0  0
    5.6473   -8.7216   15.3158 C   0  0  0  0  0  0  0  0  0  0  0  0
   10.7581   -3.1233   19.4720 N   0  0  0  0  0  0  0  0  0  0  0  0
    9.9571   -4.0573   16.8866 C   0  0  0  0  0  0  0  0  0  0  0  0
    7.6213   -6.5618   16.0087 C   0  0  0  0  0  0  0  0  0  0  0  0
   10.8583   -2.6527   20.7222 C   0  0  0  0  0  0  0  0  0  0  0  0
   10.6412   -3.5089   21.7936 C   0  0  0  0  0  0  0  0  0  0  0  0
   10.4972   -3.8968   24.1589 C   0  0  0  0  0  0  0  0  0  0  0  0
    5.9260   -8.2736   16.5517 C   0  0  0  0  0  0  0  0  0  0  0  0
    3.8816   -9.1166   17.2493 C   0  0  0  0  0  0  0  0  0  0  0  0
   10.1297   -1.6575   23.2324 C   0  0  0  0  0  0  0  0  0  0  0  0
    9.4684   -1.6929   26.7263 F   0  0  0  0  0  0  0  0  0  0  0  0
    7.7963   -7.7906   17.9837 C   0  0  0  0  0  0  0  0  0  0  0  0
   10.5884   -3.0725   16.7902 O   0  0  0  0  0  0  0  0  0  0  0  0
   10.4323   -5.3494   20.3516 C   0  0  0  0  0  0  0  0  0  0  0  0
    7.1156   -7.5454   16.8218 C   0  0  0  0  0  0  0  0  0  0  0  0
   10.3885   -4.4388   19.2773 C   0  0  0  0  0  0  0  0  0  0  0  0
    4.5160   -9.3822   15.0841 C   0  0  0  0  0  0  0  0  0  0  0  0
  1  3  4  0
  1 24  4  0
  2  6  4  0
  2 15  4  0
  3  5  4  0
  3  6  4  0
  4 21  4  0
  4 29  4  0
  5 15  4  0
  5 28  1  0
  6 16  4  0
  7 18  4  0
  7 26  4  0
  8 18  1  0
  8 19  4  0
  8 22  4  0
  9 12  4  0
  9 19  4  0
 10 12  4  0
 10 22  4  0
 11 20  4  0
 11 21  4  0
 12 23  1  0
 13 20  4  0
 13 29  4  0
 14 17  4  0
 14 28  4  0
 15 25  2  0
 16 27  4  0
 17 18  4  0
 20 27  1  0
 24 27  4  0
 26 28  4  0
M  END
$$$$

 Created by Python create_sdf_string function

 29 33  0  0  0  0  0  0  0  0999 V2000
    8.8270   -7.0288   18.4251 C   0  0  0  0  0  0  0  0  0  0  0  0
    9.1576   -4.6236   15.8860 O   0  0  0  0  0  0  0  0  0  0  0  0
    9.1509   -5.9108   17.7177 C   0  0  0  0  0  0  0  0  0  0  0  0
    3.6373   -9.5349   16.0582 N   0  0  0  0  0  0  0  0  0  0  0  0
    9.9275   -4.8001   18.0438 N   0  0  0  0  0  0  0  0  0  0  0  0
    8.5908   -5.7425   16.4412 C   0  0  0  0  0  0  0  0  0  0  0  0
   10.5993   -4.8981   21.6068 C   0  0  0  0  0  0  0  0  0  0  0  0
   10.4258   -3.0106   23.0998 C   0  0  0  0  0  0  0  0  0  0  0  0
   10.2148   -3.4364   25.4200 C   0  0  0  0  0  0  0  0  0  0  0  0
    9.7853   -1.1840   24.4927 C   0  0  0  0  0  0  0  0  0  0  0  0
    5.0276   -8.5227   17.5352 C   0  0  0  0  0  0  0  0  0  0  0  0
    9.8187   -2.0895   25.5800 C   0  0  0  0  0  0  0  0  0  0  0  0
    5.6473   -8.7216   15.3158 C   0  0  0  0  0  0  0  0  0  0  0  0
   10.7581   -3.1233   19.4720 N   0  0  0  0  0  0  0  0  0  0  0  0
    9.9571   -4.0573   16.8866 C   0  0  0  0  0  0  0  0  0  0  0  0
    7.6213   -6.5618   16.0087 C   0  0  0  0  0  0  0  0  0  0  0  0
   10.8583   -2.6527   20.7222 C   0  0  0  0  0  0  0  0  0  0  0  0
   10.6412   -3.5089   21.7936 C   0  0  0  0  0  0  0  0  0  0  0  0
   10.4972   -3.8968   24.1589 C   0  0  0  0  0  0  0  0  0  0  0  0
    5.9260   -8.2736   16.5517 C   0  0  0  0  0  0  0  0  0  0  0  0
    3.8816   -9.1166   17.2493 C   0  0  0  0  0  0  0  0  0  0  0  0
   10.1297   -1.6575   23.2324 C   0  0  0  0  0  0  0  0  0  0  0  0
    9.4684   -1.6929   26.7263 F   0  0  0  0  0  0  0  0  0  0  0  0
    7.7963   -7.7906   17.9837 C   0  0  0  0  0  0  0  0  0  0  0  0
   10.5884   -3.0725   16.7902 O   0  0  0  0  0  0  0  0  0  0  0  0
   10.4323   -5.3494   20.3516 C   0  0  0  0  0  0  0  0  0  0  0  0
    7.1156   -7.5454   16.8218 C   0  0  0  0  0  0  0  0  0  0  0  0
   10.3885   -4.4388   19.2773 C   0  0  0  0  0  0  0  0  0  0  0  0
    4.5160   -9.3822   15.0841 C   0  0  0  0  0  0  0  0  0  0  0  0
  1  3  4  0
  1 24  4  0
  2  6  4  0
  2 15  4  0
  3  5  4  0
  3  6  4  0
  4 21  4  0
  4 29  4  0
  5 15  4  0
  5 28  1  0
  6 16  4  0
  7 18  4  0
  7 26  4  0
  8 18  1  0
  8 19  4  0
  8 22  4  0
  9 12  4  0
  9 19  4  0
 10 12  4  0
 10 22  4  0
 11 20  4  0
 11 21  4  0
 12 23  1  0
 13 20  4  0
 13 29  4  0
 14 17  4  0
 14 28  4  0
 15 25  2  0
 16 27  4  0
 17 18  4  0
 20 27  1  0
 24 27  4  0
 26 28  4  0
M  END
$$$$

 Created by Python create_sdf_string function

 29 33  0  0  0  0  0  0  0  0999 V2000
    8.8270   -7.0288   18.4251 C   0  0  0  0  0  0  0  0  0  0  0  0
    9.1576   -4.6236   15.8860 O   0  0  0  0  0  0  0  0  0  0  0  0
    9.1509   -5.9108   17.7177 C   0  0  0  0  0  0  0  0  0  0  0  0
    3.6373   -9.5349   16.0582 N   0  0  0  0  0  0  0  0  0  0  0  0
    9.9275   -4.8001   18.0438 N   0  0  0  0  0  0  0  0  0  0  0  0
    8.5908   -5.7425   16.4412 C   0  0  0  0  0  0  0  0  0  0  0  0
   10.5993   -4.8981   21.6068 C   0  0  0  0  0  0  0  0  0  0  0  0
   10.4258   -3.0106   23.0998 C   0  0  0  0  0  0  0  0  0  0  0  0
   10.2148   -3.4364   25.4200 C   0  0  0  0  0  0  0  0  0  0  0  0
    9.7853   -1.1840   24.4927 C   0  0  0  0  0  0  0  0  0  0  0  0
    5.0276   -8.5227   17.5352 C   0  0  0  0  0  0  0  0  0  0  0  0
    9.8187   -2.0895   25.5800 C   0  0  0  0  0  0  0  0  0  0  0  0
    5.6473   -8.7216   15.3158 C   0  0  0  0  0  0  0  0  0  0  0  0
   10.7581   -3.1233   19.4720 N   0  0  0  0  0  0  0  0  0  0  0  0
    9.9571   -4.0573   16.8866 C   0  0  0  0  0  0  0  0  0  0  0  0
    7.6213   -6.5618   16.0087 C   0  0  0  0  0  0  0  0  0  0  0  0
   10.8583   -2.6527   20.7222 C   0  0  0  0  0  0  0  0  0  0  0  0
   10.6412   -3.5089   21.7936 C   0  0  0  0  0  0  0  0  0  0  0  0
   10.4972   -3.8968   24.1589 C   0  0  0  0  0  0  0  0  0  0  0  0
    5.9260   -8.2736   16.5517 C   0  0  0  0  0  0  0  0  0  0  0  0
    3.8816   -9.1166   17.2493 C   0  0  0  0  0  0  0  0  0  0  0  0
   10.1297   -1.6575   23.2324 C   0  0  0  0  0  0  0  0  0  0  0  0
    9.4684   -1.6929   26.7263 F   0  0  0  0  0  0  0  0  0  0  0  0
    7.7963   -7.7906   17.9837 C   0  0  0  0  0  0  0  0  0  0  0  0
   10.5884   -3.0725   16.7902 O   0  0  0  0  0  0  0  0  0  0  0  0
   10.4323   -5.3494   20.3516 C   0  0  0  0  0  0  0  0  0  0  0  0
    7.1156   -7.5454   16.8218 C   0  0  0  0  0  0  0  0  0  0  0  0
   10.3885   -4.4388   19.2773 C   0  0  0  0  0  0  0  0  0  0  0  0
    4.5160   -9.3822   15.0841 C   0  0  0  0  0  0  0  0  0  0  0  0
  1  3  4  0
  1 24  4  0
  2  6  4  0
  2 15  4  0
  3  5  4  0
  3  6  4  0
  4 21  4  0
  4 29  4  0
  5 15  4  0
  5 28  1  0
  6 16  4  0
  7 18  4  0
  7 26  4  0
  8 18  1  0
  8 19  4  0
  8 22  4  0
  9 12  4  0
  9 19  4  0
 10 12  4  0
 10 22  4  0
 11 20  4  0
 11 21  4  0
 12 23  1  0
 13 20  4  0
 13 29  4  0
 14 17  4  0
 14 28  4  0
 15 25  2  0
 16 27  4  0
 17 18  4  0
 20 27  1  0
 24 27  4  0
 26 28  4  0
M  END
$$$$

 Created by Python create_sdf_string function

 29 33  0  0  0  0  0  0  0  0999 V2000
    8.8270   -7.0288   18.4251 C   0  0  0  0  0  0  0  0  0  0  0  0
    9.1576   -4.6236   15.8860 O   0  0  0  0  0  0  0  0  0  0  0  0
    9.1509   -5.9108   17.7177 C   0  0  0  0  0  0  0  0  0  0  0  0
    3.6373   -9.5349   16.0582 N   0  0  0  0  0  0  0  0  0  0  0  0
    9.9275   -4.8001   18.0438 N   0  0  0  0  0  0  0  0  0  0  0  0
    8.5908   -5.7425   16.4412 C   0  0  0  0  0  0  0  0  0  0  0  0
   10.5993   -4.8981   21.6068 C   0  0  0  0  0  0  0  0  0  0  0  0
   10.4258   -3.0106   23.0998 C   0  0  0  0  0  0  0  0  0  0  0  0
   10.2148   -3.4364   25.4200 C   0  0  0  0  0  0  0  0  0  0  0  0
    9.7853   -1.1840   24.4927 C   0  0  0  0  0  0  0  0  0  0  0  0
    5.0276   -8.5227   17.5352 C   0  0  0  0  0  0  0  0  0  0  0  0
    9.8187   -2.0895   25.5800 C   0  0  0  0  0  0  0  0  0  0  0  0
    5.6473   -8.7216   15.3158 C   0  0  0  0  0  0  0  0  0  0  0  0
   10.7581   -3.1233   19.4720 N   0  0  0  0  0  0  0  0  0  0  0  0
    9.9571   -4.0573   16.8866 C   0  0  0  0  0  0  0  0  0  0  0  0
    7.6213   -6.5618   16.0087 C   0  0  0  0  0  0  0  0  0  0  0  0
   10.8583   -2.6527   20.7222 C   0  0  0  0  0  0  0  0  0  0  0  0
   10.6412   -3.5089   21.7936 C   0  0  0  0  0  0  0  0  0  0  0  0
   10.4972   -3.8968   24.1589 C   0  0  0  0  0  0  0  0  0  0  0  0
    5.9260   -8.2736   16.5517 C   0  0  0  0  0  0  0  0  0  0  0  0
    3.8816   -9.1166   17.2493 C   0  0  0  0  0  0  0  0  0  0  0  0
   10.1297   -1.6575   23.2324 C   0  0  0  0  0  0  0  0  0  0  0  0
    9.4684   -1.6929   26.7263 F   0  0  0  0  0  0  0  0  0  0  0  0
    7.7963   -7.7906   17.9837 C   0  0  0  0  0  0  0  0  0  0  0  0
   10.5884   -3.0725   16.7902 O   0  0  0  0  0  0  0  0  0  0  0  0
   10.4323   -5.3494   20.3516 C   0  0  0  0  0  0  0  0  0  0  0  0
    7.1156   -7.5454   16.8218 C   0  0  0  0  0  0  0  0  0  0  0  0
   10.3885   -4.4388   19.2773 C   0  0  0  0  0  0  0  0  0  0  0  0
    4.5160   -9.3822   15.0841 C   0  0  0  0  0  0  0  0  0  0  0  0
  1  3  4  0
  1 24  4  0
  2  6  4  0
  2 15  4  0
  3  5  4  0
  3  6  4  0
  4 21  4  0
  4 29  4  0
  5 15  4  0
  5 28  1  0
  6 16  4  0
  7 18  4  0
  7 26  4  0
  8 18  1  0
  8 19  4  0
  8 22  4  0
  9 12  4  0
  9 19  4  0
 10 12  4  0
 10 22  4  0
 11 20  4  0
 11 21  4  0
 12 23  1  0
 13 20  4  0
 13 29  4  0
 14 17  4  0
 14 28  4  0
 15 25  2  0
 16 27  4  0
 17 18  4  0
 20 27  1  0
 24 27  4  0
 26 28  4  0
M  END
$$$$

 Created by Python create_sdf_string function

 29 33  0  0  0  0  0  0  0  0999 V2000
    8.8270   -7.0288   18.4251 C   0  0  0  0  0  0  0  0  0  0  0  0
    9.1576   -4.6236   15.8860 O   0  0  0  0  0  0  0  0  0  0  0  0
    9.1509   -5.9108   17.7177 C   0  0  0  0  0  0  0  0  0  0  0  0
    3.6373   -9.5349   16.0582 N   0  0  0  0  0  0  0  0  0  0  0  0
    9.9275   -4.8001   18.0438 N   0  0  0  0  0  0  0  0  0  0  0  0
    8.5908   -5.7425   16.4412 C   0  0  0  0  0  0  0  0  0  0  0  0
   10.5993   -4.8981   21.6068 C   0  0  0  0  0  0  0  0  0  0  0  0
   10.4258   -3.0106   23.0998 C   0  0  0  0  0  0  0  0  0  0  0  0
   10.2148   -3.4364   25.4200 C   0  0  0  0  0  0  0  0  0  0  0  0
    9.7853   -1.1840   24.4927 C   0  0  0  0  0  0  0  0  0  0  0  0
    5.0276   -8.5227   17.5352 C   0  0  0  0  0  0  0  0  0  0  0  0
    9.8187   -2.0895   25.5800 C   0  0  0  0  0  0  0  0  0  0  0  0
    5.6473   -8.7216   15.3158 C   0  0  0  0  0  0  0  0  0  0  0  0
   10.7581   -3.1233   19.4720 N   0  0  0  0  0  0  0  0  0  0  0  0
    9.9571   -4.0573   16.8866 C   0  0  0  0  0  0  0  0  0  0  0  0
    7.6213   -6.5618   16.0087 C   0  0  0  0  0  0  0  0  0  0  0  0
   10.8583   -2.6527   20.7222 C   0  0  0  0  0  0  0  0  0  0  0  0
   10.6412   -3.5089   21.7936 C   0  0  0  0  0  0  0  0  0  0  0  0
   10.4972   -3.8968   24.1589 C   0  0  0  0  0  0  0  0  0  0  0  0
    5.9260   -8.2736   16.5517 C   0  0  0  0  0  0  0  0  0  0  0  0
    3.8816   -9.1166   17.2493 C   0  0  0  0  0  0  0  0  0  0  0  0
   10.1297   -1.6575   23.2324 C   0  0  0  0  0  0  0  0  0  0  0  0
    9.4684   -1.6929   26.7263 F   0  0  0  0  0  0  0  0  0  0  0  0
    7.7963   -7.7906   17.9837 C   0  0  0  0  0  0  0  0  0  0  0  0
   10.5884   -3.0725   16.7902 O   0  0  0  0  0  0  0  0  0  0  0  0
   10.4323   -5.3494   20.3516 C   0  0  0  0  0  0  0  0  0  0  0  0
    7.1156   -7.5454   16.8218 C   0  0  0  0  0  0  0  0  0  0  0  0
   10.3885   -4.4388   19.2773 C   0  0  0  0  0  0  0  0  0  0  0  0
    4.5160   -9.3822   15.0841 C   0  0  0  0  0  0  0  0  0  0  0  0
  1  3  4  0
  1 24  4  0
  2  6  4  0
  2 15  4  0
  3  5  4  0
  3  6  4  0
  4 21  4  0
  4 29  4  0
  5 15  4  0
  5 28  1  0
  6 16  4  0
  7 18  4  0
  7 26  4  0
  8 18  1  0
  8 19  4  0
  8 22  4  0
  9 12  4  0
  9 19  4  0
 10 12  4  0
 10 22  4  0
 11 20  4  0
 11 21  4  0
 12 23  1  0
 13 20  4  0
 13 29  4  0
 14 17  4  0
 14 28  4  0
 15 25  2  0
 16 27  4  0
 17 18  4  0
 20 27  1  0
 24 27  4  0
 26 28  4  0
M  END
$$$$

 Created by Python create_sdf_string function

 29 33  0  0  0  0  0  0  0  0999 V2000
    8.8270   -7.0288   18.4251 C   0  0  0  0  0  0  0  0  0  0  0  0
    9.1576   -4.6236   15.8860 O   0  0  0  0  0  0  0  0  0  0  0  0
    9.1509   -5.9108   17.7177 C   0  0  0  0  0  0  0  0  0  0  0  0
    3.6373   -9.5349   16.0582 N   0  0  0  0  0  0  0  0  0  0  0  0
    9.9275   -4.8001   18.0438 N   0  0  0  0  0  0  0  0  0  0  0  0
    8.5908   -5.7425   16.4412 C   0  0  0  0  0  0  0  0  0  0  0  0
   10.5993   -4.8981   21.6068 C   0  0  0  0  0  0  0  0  0  0  0  0
   10.4258   -3.0106   23.0998 C   0  0  0  0  0  0  0  0  0  0  0  0
   10.2148   -3.4364   25.4200 C   0  0  0  0  0  0  0  0  0  0  0  0
    9.7853   -1.1840   24.4927 C   0  0  0  0  0  0  0  0  0  0  0  0
    5.0276   -8.5227   17.5352 C   0  0  0  0  0  0  0  0  0  0  0  0
    9.8187   -2.0895   25.5800 C   0  0  0  0  0  0  0  0  0  0  0  0
    5.6473   -8.7216   15.3158 C   0  0  0  0  0  0  0  0  0  0  0  0
   10.7581   -3.1233   19.4720 N   0  0  0  0  0  0  0  0  0  0  0  0
    9.9571   -4.0573   16.8866 C   0  0  0  0  0  0  0  0  0  0  0  0
    7.6213   -6.5618   16.0087 C   0  0  0  0  0  0  0  0  0  0  0  0
   10.8583   -2.6527   20.7222 C   0  0  0  0  0  0  0  0  0  0  0  0
   10.6412   -3.5089   21.7936 C   0  0  0  0  0  0  0  0  0  0  0  0
   10.4972   -3.8968   24.1589 C   0  0  0  0  0  0  0  0  0  0  0  0
    5.9260   -8.2736   16.5517 C   0  0  0  0  0  0  0  0  0  0  0  0
    3.8816   -9.1166   17.2493 C   0  0  0  0  0  0  0  0  0  0  0  0
   10.1297   -1.6575   23.2324 C   0  0  0  0  0  0  0  0  0  0  0  0
    9.4684   -1.6929   26.7263 F   0  0  0  0  0  0  0  0  0  0  0  0
    7.7963   -7.7906   17.9837 C   0  0  0  0  0  0  0  0  0  0  0  0
   10.5884   -3.0725   16.7902 O   0  0  0  0  0  0  0  0  0  0  0  0
   10.4323   -5.3494   20.3516 C   0  0  0  0  0  0  0  0  0  0  0  0
    7.1156   -7.5454   16.8218 C   0  0  0  0  0  0  0  0  0  0  0  0
   10.3885   -4.4388   19.2773 C   0  0  0  0  0  0  0  0  0  0  0  0
    4.5160   -9.3822   15.0841 C   0  0  0  0  0  0  0  0  0  0  0  0
  1  3  4  0
  1 24  4  0
  2  6  4  0
  2 15  4  0
  3  5  4  0
  3  6  4  0
  4 21  4  0
  4 29  4  0
  5 15  4  0
  5 28  1  0
  6 16  4  0
  7 18  4  0
  7 26  4  0
  8 18  1  0
  8 19  4  0
  8 22  4  0
  9 12  4  0
  9 19  4  0
 10 12  4  0
 10 22  4  0
 11 20  4  0
 11 21  4  0
 12 23  1  0
 13 20  4  0
 13 29  4  0
 14 17  4  0
 14 28  4  0
 15 25  2  0
 16 27  4  0
 17 18  4  0
 20 27  1  0
 24 27  4  0
 26 28  4  0
M  END
$$$$

 Created by Python create_sdf_string function

 29 33  0  0  0  0  0  0  0  0999 V2000
    8.8270   -7.0288   18.4251 C   0  0  0  0  0  0  0  0  0  0  0  0
    9.1576   -4.6236   15.8860 O   0  0  0  0  0  0  0  0  0  0  0  0
    9.1509   -5.9108   17.7177 C   0  0  0  0  0  0  0  0  0  0  0  0
    3.6373   -9.5349   16.0582 N   0  0  0  0  0  0  0  0  0  0  0  0
    9.9275   -4.8001   18.0438 N   0  0  0  0  0  0  0  0  0  0  0  0
    8.5908   -5.7425   16.4412 C   0  0  0  0  0  0  0  0  0  0  0  0
   10.5993   -4.8981   21.6068 C   0  0  0  0  0  0  0  0  0  0  0  0
   10.4258   -3.0106   23.0998 C   0  0  0  0  0  0  0  0  0  0  0  0
   10.2148   -3.4364   25.4200 C   0  0  0  0  0  0  0  0  0  0  0  0
    9.7853   -1.1840   24.4927 C   0  0  0  0  0  0  0  0  0  0  0  0
    5.0276   -8.5227   17.5352 C   0  0  0  0  0  0  0  0  0  0  0  0
    9.8187   -2.0895   25.5800 C   0  0  0  0  0  0  0  0  0  0  0  0
    5.6473   -8.7216   15.3158 C   0  0  0  0  0  0  0  0  0  0  0  0
   10.7581   -3.1233   19.4720 N   0  0  0  0  0  0  0  0  0  0  0  0
    9.9571   -4.0573   16.8866 C   0  0  0  0  0  0  0  0  0  0  0  0
    7.6213   -6.5618   16.0087 C   0  0  0  0  0  0  0  0  0  0  0  0
   10.8583   -2.6527   20.7222 C   0  0  0  0  0  0  0  0  0  0  0  0
   10.6412   -3.5089   21.7936 C   0  0  0  0  0  0  0  0  0  0  0  0
   10.4972   -3.8968   24.1589 C   0  0  0  0  0  0  0  0  0  0  0  0
    5.9260   -8.2736   16.5517 C   0  0  0  0  0  0  0  0  0  0  0  0
    3.8816   -9.1166   17.2493 C   0  0  0  0  0  0  0  0  0  0  0  0
   10.1297   -1.6575   23.2324 C   0  0  0  0  0  0  0  0  0  0  0  0
    9.4684   -1.6929   26.7263 F   0  0  0  0  0  0  0  0  0  0  0  0
    7.7963   -7.7906   17.9837 C   0  0  0  0  0  0  0  0  0  0  0  0
   10.5884   -3.0725   16.7902 O   0  0  0  0  0  0  0  0  0  0  0  0
   10.4323   -5.3494   20.3516 C   0  0  0  0  0  0  0  0  0  0  0  0
    7.1156   -7.5454   16.8218 C   0  0  0  0  0  0  0  0  0  0  0  0
   10.3885   -4.4388   19.2773 C   0  0  0  0  0  0  0  0  0  0  0  0
    4.5160   -9.3822   15.0841 C   0  0  0  0  0  0  0  0  0  0  0  0
  1  3  4  0
  1 24  4  0
  2  6  4  0
  2 15  4  0
  3  5  4  0
  3  6  4  0
  4 21  4  0
  4 29  4  0
  5 15  4  0
  5 28  1  0
  6 16  4  0
  7 18  4  0
  7 26  4  0
  8 18  1  0
  8 19  4  0
  8 22  4  0
  9 12  4  0
  9 19  4  0
 10 12  4  0
 10 22  4  0
 11 20  4  0
 11 21  4  0
 12 23  1  0
 13 20  4  0
 13 29  4  0
 14 17  4  0
 14 28  4  0
 15 25  2  0
 16 27  4  0
 17 18  4  0
 20 27  1  0
 24 27  4  0
 26 28  4  0
M  END
$$$$

 Created by Python create_sdf_string function

 29 33  0  0  0  0  0  0  0  0999 V2000
    8.8270   -7.0288   18.4251 C   0  0  0  0  0  0  0  0  0  0  0  0
    9.1576   -4.6236   15.8860 O   0  0  0  0  0  0  0  0  0  0  0  0
    9.1509   -5.9108   17.7177 C   0  0  0  0  0  0  0  0  0  0  0  0
    3.6373   -9.5349   16.0582 N   0  0  0  0  0  0  0  0  0  0  0  0
    9.9275   -4.8001   18.0438 N   0  0  0  0  0  0  0  0  0  0  0  0
    8.5908   -5.7425   16.4412 C   0  0  0  0  0  0  0  0  0  0  0  0
   10.5993   -4.8981   21.6068 C   0  0  0  0  0  0  0  0  0  0  0  0
   10.4258   -3.0106   23.0998 C   0  0  0  0  0  0  0  0  0  0  0  0
   10.2148   -3.4364   25.4200 C   0  0  0  0  0  0  0  0  0  0  0  0
    9.7853   -1.1840   24.4927 C   0  0  0  0  0  0  0  0  0  0  0  0
    5.0276   -8.5227   17.5352 C   0  0  0  0  0  0  0  0  0  0  0  0
    9.8187   -2.0895   25.5800 C   0  0  0  0  0  0  0  0  0  0  0  0
    5.6473   -8.7216   15.3158 C   0  0  0  0  0  0  0  0  0  0  0  0
   10.7581   -3.1233   19.4720 N   0  0  0  0  0  0  0  0  0  0  0  0
    9.9571   -4.0573   16.8866 C   0  0  0  0  0  0  0  0  0  0  0  0
    7.6213   -6.5618   16.0087 C   0  0  0  0  0  0  0  0  0  0  0  0
   10.8583   -2.6527   20.7222 C   0  0  0  0  0  0  0  0  0  0  0  0
   10.6412   -3.5089   21.7936 C   0  0  0  0  0  0  0  0  0  0  0  0
   10.4972   -3.8968   24.1589 C   0  0  0  0  0  0  0  0  0  0  0  0
    5.9260   -8.2736   16.5517 C   0  0  0  0  0  0  0  0  0  0  0  0
    3.8816   -9.1166   17.2493 C   0  0  0  0  0  0  0  0  0  0  0  0
   10.1297   -1.6575   23.2324 C   0  0  0  0  0  0  0  0  0  0  0  0
    9.4684   -1.6929   26.7263 F   0  0  0  0  0  0  0  0  0  0  0  0
    7.7963   -7.7906   17.9837 C   0  0  0  0  0  0  0  0  0  0  0  0
   10.5884   -3.0725   16.7902 O   0  0  0  0  0  0  0  0  0  0  0  0
   10.4323   -5.3494   20.3516 C   0  0  0  0  0  0  0  0  0  0  0  0
    7.1156   -7.5454   16.8218 C   0  0  0  0  0  0  0  0  0  0  0  0
   10.3885   -4.4388   19.2773 C   0  0  0  0  0  0  0  0  0  0  0  0
    4.5160   -9.3822   15.0841 C   0  0  0  0  0  0  0  0  0  0  0  0
  1  3  4  0
  1 24  4  0
  2  6  4  0
  2 15  4  0
  3  5  4  0
  3  6  4  0
  4 21  4  0
  4 29  4  0
  5 15  4  0
  5 28  1  0
  6 16  4  0
  7 18  4  0
  7 26  4  0
  8 18  1  0
  8 19  4  0
  8 22  4  0
  9 12  4  0
  9 19  4  0
 10 12  4  0
 10 22  4  0
 11 20  4  0
 11 21  4  0
 12 23  1  0
 13 20  4  0
 13 29  4  0
 14 17  4  0
 14 28  4  0
 15 25  2  0
 16 27  4  0
 17 18  4  0
 20 27  1  0
 24 27  4  0
 26 28  4  0
M  END
$$$$

 Created by Python create_sdf_string function

 29 33  0  0  0  0  0  0  0  0999 V2000
    8.8270   -7.0288   18.4251 C   0  0  0  0  0  0  0  0  0  0  0  0
    9.1576   -4.6236   15.8860 O   0  0  0  0  0  0  0  0  0  0  0  0
    9.1509   -5.9108   17.7177 C   0  0  0  0  0  0  0  0  0  0  0  0
    3.6373   -9.5349   16.0582 N   0  0  0  0  0  0  0  0  0  0  0  0
    9.9275   -4.8001   18.0438 N   0  0  0  0  0  0  0  0  0  0  0  0
    8.5908   -5.7425   16.4412 C   0  0  0  0  0  0  0  0  0  0  0  0
   10.5993   -4.8981   21.6068 C   0  0  0  0  0  0  0  0  0  0  0  0
   10.4258   -3.0106   23.0998 C   0  0  0  0  0  0  0  0  0  0  0  0
   10.2148   -3.4364   25.4200 C   0  0  0  0  0  0  0  0  0  0  0  0
    9.7853   -1.1840   24.4927 C   0  0  0  0  0  0  0  0  0  0  0  0
    5.0276   -8.5227   17.5352 C   0  0  0  0  0  0  0  0  0  0  0  0
    9.8187   -2.0895   25.5800 C   0  0  0  0  0  0  0  0  0  0  0  0
    5.6473   -8.7216   15.3158 C   0  0  0  0  0  0  0  0  0  0  0  0
   10.7581   -3.1233   19.4720 N   0  0  0  0  0  0  0  0  0  0  0  0
    9.9571   -4.0573   16.8866 C   0  0  0  0  0  0  0  0  0  0  0  0
    7.6213   -6.5618   16.0087 C   0  0  0  0  0  0  0  0  0  0  0  0
   10.8583   -2.6527   20.7222 C   0  0  0  0  0  0  0  0  0  0  0  0
   10.6412   -3.5089   21.7936 C   0  0  0  0  0  0  0  0  0  0  0  0
   10.4972   -3.8968   24.1589 C   0  0  0  0  0  0  0  0  0  0  0  0
    5.9260   -8.2736   16.5517 C   0  0  0  0  0  0  0  0  0  0  0  0
    3.8816   -9.1166   17.2493 C   0  0  0  0  0  0  0  0  0  0  0  0
   10.1297   -1.6575   23.2324 C   0  0  0  0  0  0  0  0  0  0  0  0
    9.4684   -1.6929   26.7263 F   0  0  0  0  0  0  0  0  0  0  0  0
    7.7963   -7.7906   17.9837 C   0  0  0  0  0  0  0  0  0  0  0  0
   10.5884   -3.0725   16.7902 O   0  0  0  0  0  0  0  0  0  0  0  0
   10.4323   -5.3494   20.3516 C   0  0  0  0  0  0  0  0  0  0  0  0
    7.1156   -7.5454   16.8218 C   0  0  0  0  0  0  0  0  0  0  0  0
   10.3885   -4.4388   19.2773 C   0  0  0  0  0  0  0  0  0  0  0  0
    4.5160   -9.3822   15.0841 C   0  0  0  0  0  0  0  0  0  0  0  0
  1  3  4  0
  1 24  4  0
  2  6  4  0
  2 15  4  0
  3  5  4  0
  3  6  4  0
  4 21  4  0
  4 29  4  0
  5 15  4  0
  5 28  1  0
  6 16  4  0
  7 18  4  0
  7 26  4  0
  8 18  1  0
  8 19  4  0
  8 22  4  0
  9 12  4  0
  9 19  4  0
 10 12  4  0
 10 22  4  0
 11 20  4  0
 11 21  4  0
 12 23  1  0
 13 20  4  0
 13 29  4  0
 14 17  4  0
 14 28  4  0
 15 25  2  0
 16 27  4  0
 17 18  4  0
 20 27  1  0
 24 27  4  0
 26 28  4  0
M  END
$$$$

 Created by Python create_sdf_string function

 29 33  0  0  0  0  0  0  0  0999 V2000
    8.8270   -7.0288   18.4251 C   0  0  0  0  0  0  0  0  0  0  0  0
    9.1576   -4.6236   15.8860 O   0  0  0  0  0  0  0  0  0  0  0  0
    9.1509   -5.9108   17.7177 C   0  0  0  0  0  0  0  0  0  0  0  0
    3.6373   -9.5349   16.0582 N   0  0  0  0  0  0  0  0  0  0  0  0
    9.9275   -4.8001   18.0438 N   0  0  0  0  0  0  0  0  0  0  0  0
    8.5908   -5.7425   16.4412 C   0  0  0  0  0  0  0  0  0  0  0  0
   10.5993   -4.8981   21.6068 C   0  0  0  0  0  0  0  0  0  0  0  0
   10.4258   -3.0106   23.0998 C   0  0  0  0  0  0  0  0  0  0  0  0
   10.2148   -3.4364   25.4200 C   0  0  0  0  0  0  0  0  0  0  0  0
    9.7853   -1.1840   24.4927 C   0  0  0  0  0  0  0  0  0  0  0  0
    5.0276   -8.5227   17.5352 C   0  0  0  0  0  0  0  0  0  0  0  0
    9.8187   -2.0895   25.5800 C   0  0  0  0  0  0  0  0  0  0  0  0
    5.6473   -8.7216   15.3158 C   0  0  0  0  0  0  0  0  0  0  0  0
   10.7581   -3.1233   19.4720 N   0  0  0  0  0  0  0  0  0  0  0  0
    9.9571   -4.0573   16.8866 C   0  0  0  0  0  0  0  0  0  0  0  0
    7.6213   -6.5618   16.0087 C   0  0  0  0  0  0  0  0  0  0  0  0
   10.8583   -2.6527   20.7222 C   0  0  0  0  0  0  0  0  0  0  0  0
   10.6412   -3.5089   21.7936 C   0  0  0  0  0  0  0  0  0  0  0  0
   10.4972   -3.8968   24.1589 C   0  0  0  0  0  0  0  0  0  0  0  0
    5.9260   -8.2736   16.5517 C   0  0  0  0  0  0  0  0  0  0  0  0
    3.8816   -9.1166   17.2493 C   0  0  0  0  0  0  0  0  0  0  0  0
   10.1297   -1.6575   23.2324 C   0  0  0  0  0  0  0  0  0  0  0  0
    9.4684   -1.6929   26.7263 F   0  0  0  0  0  0  0  0  0  0  0  0
    7.7963   -7.7906   17.9837 C   0  0  0  0  0  0  0  0  0  0  0  0
   10.5884   -3.0725   16.7902 O   0  0  0  0  0  0  0  0  0  0  0  0
   10.4323   -5.3494   20.3516 C   0  0  0  0  0  0  0  0  0  0  0  0
    7.1156   -7.5454   16.8218 C   0  0  0  0  0  0  0  0  0  0  0  0
   10.3885   -4.4388   19.2773 C   0  0  0  0  0  0  0  0  0  0  0  0
    4.5160   -9.3822   15.0841 C   0  0  0  0  0  0  0  0  0  0  0  0
  1  3  4  0
  1 24  4  0
  2  6  4  0
  2 15  4  0
  3  5  4  0
  3  6  4  0
  4 21  4  0
  4 29  4  0
  5 15  4  0
  5 28  1  0
  6 16  4  0
  7 18  4  0
  7 26  4  0
  8 18  1  0
  8 19  4  0
  8 22  4  0
  9 12  4  0
  9 19  4  0
 10 12  4  0
 10 22  4  0
 11 20  4  0
 11 21  4  0
 12 23  1  0
 13 20  4  0
 13 29  4  0
 14 17  4  0
 14 28  4  0
 15 25  2  0
 16 27  4  0
 17 18  4  0
 20 27  1  0
 24 27  4  0
 26 28  4  0
M  END
$$$$

 Created by Python create_sdf_string function

 29 33  0  0  0  0  0  0  0  0999 V2000
    8.8270   -7.0288   18.4251 C   0  0  0  0  0  0  0  0  0  0  0  0
    9.1576   -4.6236   15.8860 O   0  0  0  0  0  0  0  0  0  0  0  0
    9.1509   -5.9108   17.7177 C   0  0  0  0  0  0  0  0  0  0  0  0
    3.6373   -9.5349   16.0582 N   0  0  0  0  0  0  0  0  0  0  0  0
    9.9275   -4.8001   18.0438 N   0  0  0  0  0  0  0  0  0  0  0  0
    8.5908   -5.7425   16.4412 C   0  0  0  0  0  0  0  0  0  0  0  0
   10.5993   -4.8981   21.6068 C   0  0  0  0  0  0  0  0  0  0  0  0
   10.4258   -3.0106   23.0998 C   0  0  0  0  0  0  0  0  0  0  0  0
   10.2148   -3.4364   25.4200 C   0  0  0  0  0  0  0  0  0  0  0  0
    9.7853   -1.1840   24.4927 C   0  0  0  0  0  0  0  0  0  0  0  0
    5.0276   -8.5227   17.5352 C   0  0  0  0  0  0  0  0  0  0  0  0
    9.8187   -2.0895   25.5800 C   0  0  0  0  0  0  0  0  0  0  0  0
    5.6473   -8.7216   15.3158 C   0  0  0  0  0  0  0  0  0  0  0  0
   10.7581   -3.1233   19.4720 N   0  0  0  0  0  0  0  0  0  0  0  0
    9.9571   -4.0573   16.8866 C   0  0  0  0  0  0  0  0  0  0  0  0
    7.6213   -6.5618   16.0087 C   0  0  0  0  0  0  0  0  0  0  0  0
   10.8583   -2.6527   20.7222 C   0  0  0  0  0  0  0  0  0  0  0  0
   10.6412   -3.5089   21.7936 C   0  0  0  0  0  0  0  0  0  0  0  0
   10.4972   -3.8968   24.1589 C   0  0  0  0  0  0  0  0  0  0  0  0
    5.9260   -8.2736   16.5517 C   0  0  0  0  0  0  0  0  0  0  0  0
    3.8816   -9.1166   17.2493 C   0  0  0  0  0  0  0  0  0  0  0  0
   10.1297   -1.6575   23.2324 C   0  0  0  0  0  0  0  0  0  0  0  0
    9.4684   -1.6929   26.7263 F   0  0  0  0  0  0  0  0  0  0  0  0
    7.7963   -7.7906   17.9837 C   0  0  0  0  0  0  0  0  0  0  0  0
   10.5884   -3.0725   16.7902 O   0  0  0  0  0  0  0  0  0  0  0  0
   10.4323   -5.3494   20.3516 C   0  0  0  0  0  0  0  0  0  0  0  0
    7.1156   -7.5454   16.8218 C   0  0  0  0  0  0  0  0  0  0  0  0
   10.3885   -4.4388   19.2773 C   0  0  0  0  0  0  0  0  0  0  0  0
    4.5160   -9.3822   15.0841 C   0  0  0  0  0  0  0  0  0  0  0  0
  1  3  4  0
  1 24  4  0
  2  6  4  0
  2 15  4  0
  3  5  4  0
  3  6  4  0
  4 21  4  0
  4 29  4  0
  5 15  4  0
  5 28  1  0
  6 16  4  0
  7 18  4  0
  7 26  4  0
  8 18  1  0
  8 19  4  0
  8 22  4  0
  9 12  4  0
  9 19  4  0
 10 12  4  0
 10 22  4  0
 11 20  4  0
 11 21  4  0
 12 23  1  0
 13 20  4  0
 13 29  4  0
 14 17  4  0
 14 28  4  0
 15 25  2  0
 16 27  4  0
 17 18  4  0
 20 27  1  0
 24 27  4  0
 26 28  4  0
M  END
$$$$

 Created by Python create_sdf_string function

 29 33  0  0  0  0  0  0  0  0999 V2000
    8.8270   -7.0288   18.4251 C   0  0  0  0  0  0  0  0  0  0  0  0
    9.1576   -4.6236   15.8860 O   0  0  0  0  0  0  0  0  0  0  0  0
    9.1509   -5.9108   17.7177 C   0  0  0  0  0  0  0  0  0  0  0  0
    3.6373   -9.5349   16.0582 N   0  0  0  0  0  0  0  0  0  0  0  0
    9.9275   -4.8001   18.0438 N   0  0  0  0  0  0  0  0  0  0  0  0
    8.5908   -5.7425   16.4412 C   0  0  0  0  0  0  0  0  0  0  0  0
   10.5993   -4.8981   21.6068 C   0  0  0  0  0  0  0  0  0  0  0  0
   10.4258   -3.0106   23.0998 C   0  0  0  0  0  0  0  0  0  0  0  0
   10.2148   -3.4364   25.4200 C   0  0  0  0  0  0  0  0  0  0  0  0
    9.7853   -1.1840   24.4927 C   0  0  0  0  0  0  0  0  0  0  0  0
    5.0276   -8.5227   17.5352 C   0  0  0  0  0  0  0  0  0  0  0  0
    9.8187   -2.0895   25.5800 C   0  0  0  0  0  0  0  0  0  0  0  0
    5.6473   -8.7216   15.3158 C   0  0  0  0  0  0  0  0  0  0  0  0
   10.7581   -3.1233   19.4720 N   0  0  0  0  0  0  0  0  0  0  0  0
    9.9571   -4.0573   16.8866 C   0  0  0  0  0  0  0  0  0  0  0  0
    7.6213   -6.5618   16.0087 C   0  0  0  0  0  0  0  0  0  0  0  0
   10.8583   -2.6527   20.7222 C   0  0  0  0  0  0  0  0  0  0  0  0
   10.6412   -3.5089   21.7936 C   0  0  0  0  0  0  0  0  0  0  0  0
   10.4972   -3.8968   24.1589 C   0  0  0  0  0  0  0  0  0  0  0  0
    5.9260   -8.2736   16.5517 C   0  0  0  0  0  0  0  0  0  0  0  0
    3.8816   -9.1166   17.2493 C   0  0  0  0  0  0  0  0  0  0  0  0
   10.1297   -1.6575   23.2324 C   0  0  0  0  0  0  0  0  0  0  0  0
    9.4684   -1.6929   26.7263 F   0  0  0  0  0  0  0  0  0  0  0  0
    7.7963   -7.7906   17.9837 C   0  0  0  0  0  0  0  0  0  0  0  0
   10.5884   -3.0725   16.7902 O   0  0  0  0  0  0  0  0  0  0  0  0
   10.4323   -5.3494   20.3516 C   0  0  0  0  0  0  0  0  0  0  0  0
    7.1156   -7.5454   16.8218 C   0  0  0  0  0  0  0  0  0  0  0  0
   10.3885   -4.4388   19.2773 C   0  0  0  0  0  0  0  0  0  0  0  0
    4.5160   -9.3822   15.0841 C   0  0  0  0  0  0  0  0  0  0  0  0
  1  3  4  0
  1 24  4  0
  2  6  4  0
  2 15  4  0
  3  5  4  0
  3  6  4  0
  4 21  4  0
  4 29  4  0
  5 15  4  0
  5 28  1  0
  6 16  4  0
  7 18  4  0
  7 26  4  0
  8 18  1  0
  8 19  4  0
  8 22  4  0
  9 12  4  0
  9 19  4  0
 10 12  4  0
 10 22  4  0
 11 20  4  0
 11 21  4  0
 12 23  1  0
 13 20  4  0
 13 29  4  0
 14 17  4  0
 14 28  4  0
 15 25  2  0
 16 27  4  0
 17 18  4  0
 20 27  1  0
 24 27  4  0
 26 28  4  0
M  END
$$$$

 Created by Python create_sdf_string function

 29 33  0  0  0  0  0  0  0  0999 V2000
    8.8270   -7.0288   18.4251 C   0  0  0  0  0  0  0  0  0  0  0  0
    9.1576   -4.6236   15.8860 O   0  0  0  0  0  0  0  0  0  0  0  0
    9.1509   -5.9108   17.7177 C   0  0  0  0  0  0  0  0  0  0  0  0
    3.6373   -9.5349   16.0582 N   0  0  0  0  0  0  0  0  0  0  0  0
    9.9275   -4.8001   18.0438 N   0  0  0  0  0  0  0  0  0  0  0  0
    8.5908   -5.7425   16.4412 C   0  0  0  0  0  0  0  0  0  0  0  0
   10.5993   -4.8981   21.6068 C   0  0  0  0  0  0  0  0  0  0  0  0
   10.4258   -3.0106   23.0998 C   0  0  0  0  0  0  0  0  0  0  0  0
   10.2148   -3.4364   25.4200 C   0  0  0  0  0  0  0  0  0  0  0  0
    9.7853   -1.1840   24.4927 C   0  0  0  0  0  0  0  0  0  0  0  0
    5.0276   -8.5227   17.5352 C   0  0  0  0  0  0  0  0  0  0  0  0
    9.8187   -2.0895   25.5800 C   0  0  0  0  0  0  0  0  0  0  0  0
    5.6473   -8.7216   15.3158 C   0  0  0  0  0  0  0  0  0  0  0  0
   10.7581   -3.1233   19.4720 N   0  0  0  0  0  0  0  0  0  0  0  0
    9.9571   -4.0573   16.8866 C   0  0  0  0  0  0  0  0  0  0  0  0
    7.6213   -6.5618   16.0087 C   0  0  0  0  0  0  0  0  0  0  0  0
   10.8583   -2.6527   20.7222 C   0  0  0  0  0  0  0  0  0  0  0  0
   10.6412   -3.5089   21.7936 C   0  0  0  0  0  0  0  0  0  0  0  0
   10.4972   -3.8968   24.1589 C   0  0  0  0  0  0  0  0  0  0  0  0
    5.9260   -8.2736   16.5517 C   0  0  0  0  0  0  0  0  0  0  0  0
    3.8816   -9.1166   17.2493 C   0  0  0  0  0  0  0  0  0  0  0  0
   10.1297   -1.6575   23.2324 C   0  0  0  0  0  0  0  0  0  0  0  0
    9.4684   -1.6929   26.7263 F   0  0  0  0  0  0  0  0  0  0  0  0
    7.7963   -7.7906   17.9837 C   0  0  0  0  0  0  0  0  0  0  0  0
   10.5884   -3.0725   16.7902 O   0  0  0  0  0  0  0  0  0  0  0  0
   10.4323   -5.3494   20.3516 C   0  0  0  0  0  0  0  0  0  0  0  0
    7.1156   -7.5454   16.8218 C   0  0  0  0  0  0  0  0  0  0  0  0
   10.3885   -4.4388   19.2773 C   0  0  0  0  0  0  0  0  0  0  0  0
    4.5160   -9.3822   15.0841 C   0  0  0  0  0  0  0  0  0  0  0  0
  1  3  4  0
  1 24  4  0
  2  6  4  0
  2 15  4  0
  3  5  4  0
  3  6  4  0
  4 21  4  0
  4 29  4  0
  5 15  4  0
  5 28  1  0
  6 16  4  0
  7 18  4  0
  7 26  4  0
  8 18  1  0
  8 19  4  0
  8 22  4  0
  9 12  4  0
  9 19  4  0
 10 12  4  0
 10 22  4  0
 11 20  4  0
 11 21  4  0
 12 23  1  0
 13 20  4  0
 13 29  4  0
 14 17  4  0
 14 28  4  0
 15 25  2  0
 16 27  4  0
 17 18  4  0
 20 27  1  0
 24 27  4  0
 26 28  4  0
M  END
$$$$

 Created by Python create_sdf_string function

 29 33  0  0  0  0  0  0  0  0999 V2000
    8.8270   -7.0288   18.4251 C   0  0  0  0  0  0  0  0  0  0  0  0
    9.1576   -4.6236   15.8860 O   0  0  0  0  0  0  0  0  0  0  0  0
    9.1509   -5.9108   17.7177 C   0  0  0  0  0  0  0  0  0  0  0  0
    3.6373   -9.5349   16.0582 N   0  0  0  0  0  0  0  0  0  0  0  0
    9.9275   -4.8001   18.0438 N   0  0  0  0  0  0  0  0  0  0  0  0
    8.5908   -5.7425   16.4412 C   0  0  0  0  0  0  0  0  0  0  0  0
   10.5993   -4.8981   21.6068 C   0  0  0  0  0  0  0  0  0  0  0  0
   10.4258   -3.0106   23.0998 C   0  0  0  0  0  0  0  0  0  0  0  0
   10.2148   -3.4364   25.4200 C   0  0  0  0  0  0  0  0  0  0  0  0
    9.7853   -1.1840   24.4927 C   0  0  0  0  0  0  0  0  0  0  0  0
    5.0276   -8.5227   17.5352 C   0  0  0  0  0  0  0  0  0  0  0  0
    9.8187   -2.0895   25.5800 C   0  0  0  0  0  0  0  0  0  0  0  0
    5.6473   -8.7216   15.3158 C   0  0  0  0  0  0  0  0  0  0  0  0
   10.7581   -3.1233   19.4720 N   0  0  0  0  0  0  0  0  0  0  0  0
    9.9571   -4.0573   16.8866 C   0  0  0  0  0  0  0  0  0  0  0  0
    7.6213   -6.5618   16.0087 C   0  0  0  0  0  0  0  0  0  0  0  0
   10.8583   -2.6527   20.7222 C   0  0  0  0  0  0  0  0  0  0  0  0
   10.6412   -3.5089   21.7936 C   0  0  0  0  0  0  0  0  0  0  0  0
   10.4972   -3.8968   24.1589 C   0  0  0  0  0  0  0  0  0  0  0  0
    5.9260   -8.2736   16.5517 C   0  0  0  0  0  0  0  0  0  0  0  0
    3.8816   -9.1166   17.2493 C   0  0  0  0  0  0  0  0  0  0  0  0
   10.1297   -1.6575   23.2324 C   0  0  0  0  0  0  0  0  0  0  0  0
    9.4684   -1.6929   26.7263 F   0  0  0  0  0  0  0  0  0  0  0  0
    7.7963   -7.7906   17.9837 C   0  0  0  0  0  0  0  0  0  0  0  0
   10.5884   -3.0725   16.7902 O   0  0  0  0  0  0  0  0  0  0  0  0
   10.4323   -5.3494   20.3516 C   0  0  0  0  0  0  0  0  0  0  0  0
    7.1156   -7.5454   16.8218 C   0  0  0  0  0  0  0  0  0  0  0  0
   10.3885   -4.4388   19.2773 C   0  0  0  0  0  0  0  0  0  0  0  0
    4.5160   -9.3822   15.0841 C   0  0  0  0  0  0  0  0  0  0  0  0
  1  3  4  0
  1 24  4  0
  2  6  4  0
  2 15  4  0
  3  5  4  0
  3  6  4  0
  4 21  4  0
  4 29  4  0
  5 15  4  0
  5 28  1  0
  6 16  4  0
  7 18  4  0
  7 26  4  0
  8 18  1  0
  8 19  4  0
  8 22  4  0
  9 12  4  0
  9 19  4  0
 10 12  4  0
 10 22  4  0
 11 20  4  0
 11 21  4  0
 12 23  1  0
 13 20  4  0
 13 29  4  0
 14 17  4  0
 14 28  4  0
 15 25  2  0
 16 27  4  0
 17 18  4  0
 20 27  1  0
 24 27  4  0
 26 28  4  0
M  END
$$$$

 Created by Python create_sdf_string function

 29 33  0  0  0  0  0  0  0  0999 V2000
    8.8270   -7.0288   18.4251 C   0  0  0  0  0  0  0  0  0  0  0  0
    9.1576   -4.6236   15.8860 O   0  0  0  0  0  0  0  0  0  0  0  0
    9.1509   -5.9108   17.7177 C   0  0  0  0  0  0  0  0  0  0  0  0
    3.6373   -9.5349   16.0582 N   0  0  0  0  0  0  0  0  0  0  0  0
    9.9275   -4.8001   18.0438 N   0  0  0  0  0  0  0  0  0  0  0  0
    8.5908   -5.7425   16.4412 C   0  0  0  0  0  0  0  0  0  0  0  0
   10.5993   -4.8981   21.6068 C   0  0  0  0  0  0  0  0  0  0  0  0
   10.4258   -3.0106   23.0998 C   0  0  0  0  0  0  0  0  0  0  0  0
   10.2148   -3.4364   25.4200 C   0  0  0  0  0  0  0  0  0  0  0  0
    9.7853   -1.1840   24.4927 C   0  0  0  0  0  0  0  0  0  0  0  0
    5.0276   -8.5227   17.5352 C   0  0  0  0  0  0  0  0  0  0  0  0
    9.8187   -2.0895   25.5800 C   0  0  0  0  0  0  0  0  0  0  0  0
    5.6473   -8.7216   15.3158 C   0  0  0  0  0  0  0  0  0  0  0  0
   10.7581   -3.1233   19.4720 N   0  0  0  0  0  0  0  0  0  0  0  0
    9.9571   -4.0573   16.8866 C   0  0  0  0  0  0  0  0  0  0  0  0
    7.6213   -6.5618   16.0087 C   0  0  0  0  0  0  0  0  0  0  0  0
   10.8583   -2.6527   20.7222 C   0  0  0  0  0  0  0  0  0  0  0  0
   10.6412   -3.5089   21.7936 C   0  0  0  0  0  0  0  0  0  0  0  0
   10.4972   -3.8968   24.1589 C   0  0  0  0  0  0  0  0  0  0  0  0
    5.9260   -8.2736   16.5517 C   0  0  0  0  0  0  0  0  0  0  0  0
    3.8816   -9.1166   17.2493 C   0  0  0  0  0  0  0  0  0  0  0  0
   10.1297   -1.6575   23.2324 C   0  0  0  0  0  0  0  0  0  0  0  0
    9.4684   -1.6929   26.7263 F   0  0  0  0  0  0  0  0  0  0  0  0
    7.7963   -7.7906   17.9837 C   0  0  0  0  0  0  0  0  0  0  0  0
   10.5884   -3.0725   16.7902 O   0  0  0  0  0  0  0  0  0  0  0  0
   10.4323   -5.3494   20.3516 C   0  0  0  0  0  0  0  0  0  0  0  0
    7.1156   -7.5454   16.8218 C   0  0  0  0  0  0  0  0  0  0  0  0
   10.3885   -4.4388   19.2773 C   0  0  0  0  0  0  0  0  0  0  0  0
    4.5160   -9.3822   15.0841 C   0  0  0  0  0  0  0  0  0  0  0  0
  1  3  4  0
  1 24  4  0
  2  6  4  0
  2 15  4  0
  3  5  4  0
  3  6  4  0
  4 21  4  0
  4 29  4  0
  5 15  4  0
  5 28  1  0
  6 16  4  0
  7 18  4  0
  7 26  4  0
  8 18  1  0
  8 19  4  0
  8 22  4  0
  9 12  4  0
  9 19  4  0
 10 12  4  0
 10 22  4  0
 11 20  4  0
 11 21  4  0
 12 23  1  0
 13 20  4  0
 13 29  4  0
 14 17  4  0
 14 28  4  0
 15 25  2  0
 16 27  4  0
 17 18  4  0
 20 27  1  0
 24 27  4  0
 26 28  4  0
M  END
$$$$

 Created by Python create_sdf_string function

 29 33  0  0  0  0  0  0  0  0999 V2000
    8.8270   -7.0288   18.4251 C   0  0  0  0  0  0  0  0  0  0  0  0
    9.1576   -4.6236   15.8860 O   0  0  0  0  0  0  0  0  0  0  0  0
    9.1509   -5.9108   17.7177 C   0  0  0  0  0  0  0  0  0  0  0  0
    3.6373   -9.5349   16.0582 N   0  0  0  0  0  0  0  0  0  0  0  0
    9.9275   -4.8001   18.0438 N   0  0  0  0  0  0  0  0  0  0  0  0
    8.5908   -5.7425   16.4412 C   0  0  0  0  0  0  0  0  0  0  0  0
   10.5993   -4.8981   21.6068 C   0  0  0  0  0  0  0  0  0  0  0  0
   10.4258   -3.0106   23.0998 C   0  0  0  0  0  0  0  0  0  0  0  0
   10.2148   -3.4364   25.4200 C   0  0  0  0  0  0  0  0  0  0  0  0
    9.7853   -1.1840   24.4927 C   0  0  0  0  0  0  0  0  0  0  0  0
    5.0276   -8.5227   17.5352 C   0  0  0  0  0  0  0  0  0  0  0  0
    9.8187   -2.0895   25.5800 C   0  0  0  0  0  0  0  0  0  0  0  0
    5.6473   -8.7216   15.3158 C   0  0  0  0  0  0  0  0  0  0  0  0
   10.7581   -3.1233   19.4720 N   0  0  0  0  0  0  0  0  0  0  0  0
    9.9571   -4.0573   16.8866 C   0  0  0  0  0  0  0  0  0  0  0  0
    7.6213   -6.5618   16.0087 C   0  0  0  0  0  0  0  0  0  0  0  0
   10.8583   -2.6527   20.7222 C   0  0  0  0  0  0  0  0  0  0  0  0
   10.6412   -3.5089   21.7936 C   0  0  0  0  0  0  0  0  0  0  0  0
   10.4972   -3.8968   24.1589 C   0  0  0  0  0  0  0  0  0  0  0  0
    5.9260   -8.2736   16.5517 C   0  0  0  0  0  0  0  0  0  0  0  0
    3.8816   -9.1166   17.2493 C   0  0  0  0  0  0  0  0  0  0  0  0
   10.1297   -1.6575   23.2324 C   0  0  0  0  0  0  0  0  0  0  0  0
    9.4684   -1.6929   26.7263 F   0  0  0  0  0  0  0  0  0  0  0  0
    7.7963   -7.7906   17.9837 C   0  0  0  0  0  0  0  0  0  0  0  0
   10.5884   -3.0725   16.7902 O   0  0  0  0  0  0  0  0  0  0  0  0
   10.4323   -5.3494   20.3516 C   0  0  0  0  0  0  0  0  0  0  0  0
    7.1156   -7.5454   16.8218 C   0  0  0  0  0  0  0  0  0  0  0  0
   10.3885   -4.4388   19.2773 C   0  0  0  0  0  0  0  0  0  0  0  0
    4.5160   -9.3822   15.0841 C   0  0  0  0  0  0  0  0  0  0  0  0
  1  3  4  0
  1 24  4  0
  2  6  4  0
  2 15  4  0
  3  5  4  0
  3  6  4  0
  4 21  4  0
  4 29  4  0
  5 15  4  0
  5 28  1  0
  6 16  4  0
  7 18  4  0
  7 26  4  0
  8 18  1  0
  8 19  4  0
  8 22  4  0
  9 12  4  0
  9 19  4  0
 10 12  4  0
 10 22  4  0
 11 20  4  0
 11 21  4  0
 12 23  1  0
 13 20  4  0
 13 29  4  0
 14 17  4  0
 14 28  4  0
 15 25  2  0
 16 27  4  0
 17 18  4  0
 20 27  1  0
 24 27  4  0
 26 28  4  0
M  END
$$$$

 Created by Python create_sdf_string function

 29 33  0  0  0  0  0  0  0  0999 V2000
    8.8270   -7.0288   18.4251 C   0  0  0  0  0  0  0  0  0  0  0  0
    9.1576   -4.6236   15.8860 O   0  0  0  0  0  0  0  0  0  0  0  0
    9.1509   -5.9108   17.7177 C   0  0  0  0  0  0  0  0  0  0  0  0
    3.6373   -9.5349   16.0582 N   0  0  0  0  0  0  0  0  0  0  0  0
    9.9275   -4.8001   18.0438 N   0  0  0  0  0  0  0  0  0  0  0  0
    8.5908   -5.7425   16.4412 C   0  0  0  0  0  0  0  0  0  0  0  0
   10.5993   -4.8981   21.6068 C   0  0  0  0  0  0  0  0  0  0  0  0
   10.4258   -3.0106   23.0998 C   0  0  0  0  0  0  0  0  0  0  0  0
   10.2148   -3.4364   25.4200 C   0  0  0  0  0  0  0  0  0  0  0  0
    9.7853   -1.1840   24.4927 C   0  0  0  0  0  0  0  0  0  0  0  0
    5.0276   -8.5227   17.5352 C   0  0  0  0  0  0  0  0  0  0  0  0
    9.8187   -2.0895   25.5800 C   0  0  0  0  0  0  0  0  0  0  0  0
    5.6473   -8.7216   15.3158 C   0  0  0  0  0  0  0  0  0  0  0  0
   10.7581   -3.1233   19.4720 N   0  0  0  0  0  0  0  0  0  0  0  0
    9.9571   -4.0573   16.8866 C   0  0  0  0  0  0  0  0  0  0  0  0
    7.6213   -6.5618   16.0087 C   0  0  0  0  0  0  0  0  0  0  0  0
   10.8583   -2.6527   20.7222 C   0  0  0  0  0  0  0  0  0  0  0  0
   10.6412   -3.5089   21.7936 C   0  0  0  0  0  0  0  0  0  0  0  0
   10.4972   -3.8968   24.1589 C   0  0  0  0  0  0  0  0  0  0  0  0
    5.9260   -8.2736   16.5517 C   0  0  0  0  0  0  0  0  0  0  0  0
    3.8816   -9.1166   17.2493 C   0  0  0  0  0  0  0  0  0  0  0  0
   10.1297   -1.6575   23.2324 C   0  0  0  0  0  0  0  0  0  0  0  0
    9.4684   -1.6929   26.7263 F   0  0  0  0  0  0  0  0  0  0  0  0
    7.7963   -7.7906   17.9837 C   0  0  0  0  0  0  0  0  0  0  0  0
   10.5884   -3.0725   16.7902 O   0  0  0  0  0  0  0  0  0  0  0  0
   10.4323   -5.3494   20.3516 C   0  0  0  0  0  0  0  0  0  0  0  0
    7.1156   -7.5454   16.8218 C   0  0  0  0  0  0  0  0  0  0  0  0
   10.3885   -4.4388   19.2773 C   0  0  0  0  0  0  0  0  0  0  0  0
    4.5160   -9.3822   15.0841 C   0  0  0  0  0  0  0  0  0  0  0  0
  1  3  4  0
  1 24  4  0
  2  6  4  0
  2 15  4  0
  3  5  4  0
  3  6  4  0
  4 21  4  0
  4 29  4  0
  5 15  4  0
  5 28  1  0
  6 16  4  0
  7 18  4  0
  7 26  4  0
  8 18  1  0
  8 19  4  0
  8 22  4  0
  9 12  4  0
  9 19  4  0
 10 12  4  0
 10 22  4  0
 11 20  4  0
 11 21  4  0
 12 23  1  0
 13 20  4  0
 13 29  4  0
 14 17  4  0
 14 28  4  0
 15 25  2  0
 16 27  4  0
 17 18  4  0
 20 27  1  0
 24 27  4  0
 26 28  4  0
M  END
$$$$

 Created by Python create_sdf_string function

 29 33  0  0  0  0  0  0  0  0999 V2000
    8.8270   -7.0288   18.4251 C   0  0  0  0  0  0  0  0  0  0  0  0
    9.1576   -4.6236   15.8860 O   0  0  0  0  0  0  0  0  0  0  0  0
    9.1509   -5.9108   17.7177 C   0  0  0  0  0  0  0  0  0  0  0  0
    3.6373   -9.5349   16.0582 N   0  0  0  0  0  0  0  0  0  0  0  0
    9.9275   -4.8001   18.0438 N   0  0  0  0  0  0  0  0  0  0  0  0
    8.5908   -5.7425   16.4412 C   0  0  0  0  0  0  0  0  0  0  0  0
   10.5993   -4.8981   21.6068 C   0  0  0  0  0  0  0  0  0  0  0  0
   10.4258   -3.0106   23.0998 C   0  0  0  0  0  0  0  0  0  0  0  0
   10.2148   -3.4364   25.4200 C   0  0  0  0  0  0  0  0  0  0  0  0
    9.7853   -1.1840   24.4927 C   0  0  0  0  0  0  0  0  0  0  0  0
    5.0276   -8.5227   17.5352 C   0  0  0  0  0  0  0  0  0  0  0  0
    9.8187   -2.0895   25.5800 C   0  0  0  0  0  0  0  0  0  0  0  0
    5.6473   -8.7216   15.3158 C   0  0  0  0  0  0  0  0  0  0  0  0
   10.7581   -3.1233   19.4720 N   0  0  0  0  0  0  0  0  0  0  0  0
    9.9571   -4.0573   16.8866 C   0  0  0  0  0  0  0  0  0  0  0  0
    7.6213   -6.5618   16.0087 C   0  0  0  0  0  0  0  0  0  0  0  0
   10.8583   -2.6527   20.7222 C   0  0  0  0  0  0  0  0  0  0  0  0
   10.6412   -3.5089   21.7936 C   0  0  0  0  0  0  0  0  0  0  0  0
   10.4972   -3.8968   24.1589 C   0  0  0  0  0  0  0  0  0  0  0  0
    5.9260   -8.2736   16.5517 C   0  0  0  0  0  0  0  0  0  0  0  0
    3.8816   -9.1166   17.2493 C   0  0  0  0  0  0  0  0  0  0  0  0
   10.1297   -1.6575   23.2324 C   0  0  0  0  0  0  0  0  0  0  0  0
    9.4684   -1.6929   26.7263 F   0  0  0  0  0  0  0  0  0  0  0  0
    7.7963   -7.7906   17.9837 C   0  0  0  0  0  0  0  0  0  0  0  0
   10.5884   -3.0725   16.7902 O   0  0  0  0  0  0  0  0  0  0  0  0
   10.4323   -5.3494   20.3516 C   0  0  0  0  0  0  0  0  0  0  0  0
    7.1156   -7.5454   16.8218 C   0  0  0  0  0  0  0  0  0  0  0  0
   10.3885   -4.4388   19.2773 C   0  0  0  0  0  0  0  0  0  0  0  0
    4.5160   -9.3822   15.0841 C   0  0  0  0  0  0  0  0  0  0  0  0
  1  3  4  0
  1 24  4  0
  2  6  4  0
  2 15  4  0
  3  5  4  0
  3  6  4  0
  4 21  4  0
  4 29  4  0
  5 15  4  0
  5 28  1  0
  6 16  4  0
  7 18  4  0
  7 26  4  0
  8 18  1  0
  8 19  4  0
  8 22  4  0
  9 12  4  0
  9 19  4  0
 10 12  4  0
 10 22  4  0
 11 20  4  0
 11 21  4  0
 12 23  1  0
 13 20  4  0
 13 29  4  0
 14 17  4  0
 14 28  4  0
 15 25  2  0
 16 27  4  0
 17 18  4  0
 20 27  1  0
 24 27  4  0
 26 28  4  0
M  END
$$$$

 Created by Python create_sdf_string function

 29 33  0  0  0  0  0  0  0  0999 V2000
    8.8270   -7.0288   18.4251 C   0  0  0  0  0  0  0  0  0  0  0  0
    9.1576   -4.6236   15.8860 O   0  0  0  0  0  0  0  0  0  0  0  0
    9.1509   -5.9108   17.7177 C   0  0  0  0  0  0  0  0  0  0  0  0
    3.6373   -9.5349   16.0582 N   0  0  0  0  0  0  0  0  0  0  0  0
    9.9275   -4.8001   18.0438 N   0  0  0  0  0  0  0  0  0  0  0  0
    8.5908   -5.7425   16.4412 C   0  0  0  0  0  0  0  0  0  0  0  0
   10.5993   -4.8981   21.6068 C   0  0  0  0  0  0  0  0  0  0  0  0
   10.4258   -3.0106   23.0998 C   0  0  0  0  0  0  0  0  0  0  0  0
   10.2148   -3.4364   25.4200 C   0  0  0  0  0  0  0  0  0  0  0  0
    9.7853   -1.1840   24.4927 C   0  0  0  0  0  0  0  0  0  0  0  0
    5.0276   -8.5227   17.5352 C   0  0  0  0  0  0  0  0  0  0  0  0
    9.8187   -2.0895   25.5800 C   0  0  0  0  0  0  0  0  0  0  0  0
    5.6473   -8.7216   15.3158 C   0  0  0  0  0  0  0  0  0  0  0  0
   10.7581   -3.1233   19.4720 N   0  0  0  0  0  0  0  0  0  0  0  0
    9.9571   -4.0573   16.8866 C   0  0  0  0  0  0  0  0  0  0  0  0
    7.6213   -6.5618   16.0087 C   0  0  0  0  0  0  0  0  0  0  0  0
   10.8583   -2.6527   20.7222 C   0  0  0  0  0  0  0  0  0  0  0  0
   10.6412   -3.5089   21.7936 C   0  0  0  0  0  0  0  0  0  0  0  0
   10.4972   -3.8968   24.1589 C   0  0  0  0  0  0  0  0  0  0  0  0
    5.9260   -8.2736   16.5517 C   0  0  0  0  0  0  0  0  0  0  0  0
    3.8816   -9.1166   17.2493 C   0  0  0  0  0  0  0  0  0  0  0  0
   10.1297   -1.6575   23.2324 C   0  0  0  0  0  0  0  0  0  0  0  0
    9.4684   -1.6929   26.7263 F   0  0  0  0  0  0  0  0  0  0  0  0
    7.7963   -7.7906   17.9837 C   0  0  0  0  0  0  0  0  0  0  0  0
   10.5884   -3.0725   16.7902 O   0  0  0  0  0  0  0  0  0  0  0  0
   10.4323   -5.3494   20.3516 C   0  0  0  0  0  0  0  0  0  0  0  0
    7.1156   -7.5454   16.8218 C   0  0  0  0  0  0  0  0  0  0  0  0
   10.3885   -4.4388   19.2773 C   0  0  0  0  0  0  0  0  0  0  0  0
    4.5160   -9.3822   15.0841 C   0  0  0  0  0  0  0  0  0  0  0  0
  1  3  4  0
  1 24  4  0
  2  6  4  0
  2 15  4  0
  3  5  4  0
  3  6  4  0
  4 21  4  0
  4 29  4  0
  5 15  4  0
  5 28  1  0
  6 16  4  0
  7 18  4  0
  7 26  4  0
  8 18  1  0
  8 19  4  0
  8 22  4  0
  9 12  4  0
  9 19  4  0
 10 12  4  0
 10 22  4  0
 11 20  4  0
 11 21  4  0
 12 23  1  0
 13 20  4  0
 13 29  4  0
 14 17  4  0
 14 28  4  0
 15 25  2  0
 16 27  4  0
 17 18  4  0
 20 27  1  0
 24 27  4  0
 26 28  4  0
M  END
$$$$

 Created by Python create_sdf_string function

 29 33  0  0  0  0  0  0  0  0999 V2000
    8.8270   -7.0288   18.4251 C   0  0  0  0  0  0  0  0  0  0  0  0
    9.1576   -4.6236   15.8860 O   0  0  0  0  0  0  0  0  0  0  0  0
    9.1509   -5.9108   17.7177 C   0  0  0  0  0  0  0  0  0  0  0  0
    3.6373   -9.5349   16.0582 N   0  0  0  0  0  0  0  0  0  0  0  0
    9.9275   -4.8001   18.0438 N   0  0  0  0  0  0  0  0  0  0  0  0
    8.5908   -5.7425   16.4412 C   0  0  0  0  0  0  0  0  0  0  0  0
   10.5993   -4.8981   21.6068 C   0  0  0  0  0  0  0  0  0  0  0  0
   10.4258   -3.0106   23.0998 C   0  0  0  0  0  0  0  0  0  0  0  0
   10.2148   -3.4364   25.4200 C   0  0  0  0  0  0  0  0  0  0  0  0
    9.7853   -1.1840   24.4927 C   0  0  0  0  0  0  0  0  0  0  0  0
    5.0276   -8.5227   17.5352 C   0  0  0  0  0  0  0  0  0  0  0  0
    9.8187   -2.0895   25.5800 C   0  0  0  0  0  0  0  0  0  0  0  0
    5.6473   -8.7216   15.3158 C   0  0  0  0  0  0  0  0  0  0  0  0
   10.7581   -3.1233   19.4720 N   0  0  0  0  0  0  0  0  0  0  0  0
    9.9571   -4.0573   16.8866 C   0  0  0  0  0  0  0  0  0  0  0  0
    7.6213   -6.5618   16.0087 C   0  0  0  0  0  0  0  0  0  0  0  0
   10.8583   -2.6527   20.7222 C   0  0  0  0  0  0  0  0  0  0  0  0
   10.6412   -3.5089   21.7936 C   0  0  0  0  0  0  0  0  0  0  0  0
   10.4972   -3.8968   24.1589 C   0  0  0  0  0  0  0  0  0  0  0  0
    5.9260   -8.2736   16.5517 C   0  0  0  0  0  0  0  0  0  0  0  0
    3.8816   -9.1166   17.2493 C   0  0  0  0  0  0  0  0  0  0  0  0
   10.1297   -1.6575   23.2324 C   0  0  0  0  0  0  0  0  0  0  0  0
    9.4684   -1.6929   26.7263 F   0  0  0  0  0  0  0  0  0  0  0  0
    7.7963   -7.7906   17.9837 C   0  0  0  0  0  0  0  0  0  0  0  0
   10.5884   -3.0725   16.7902 O   0  0  0  0  0  0  0  0  0  0  0  0
   10.4323   -5.3494   20.3516 C   0  0  0  0  0  0  0  0  0  0  0  0
    7.1156   -7.5454   16.8218 C   0  0  0  0  0  0  0  0  0  0  0  0
   10.3885   -4.4388   19.2773 C   0  0  0  0  0  0  0  0  0  0  0  0
    4.5160   -9.3822   15.0841 C   0  0  0  0  0  0  0  0  0  0  0  0
  1  3  4  0
  1 24  4  0
  2  6  4  0
  2 15  4  0
  3  5  4  0
  3  6  4  0
  4 21  4  0
  4 29  4  0
  5 15  4  0
  5 28  1  0
  6 16  4  0
  7 18  4  0
  7 26  4  0
  8 18  1  0
  8 19  4  0
  8 22  4  0
  9 12  4  0
  9 19  4  0
 10 12  4  0
 10 22  4  0
 11 20  4  0
 11 21  4  0
 12 23  1  0
 13 20  4  0
 13 29  4  0
 14 17  4  0
 14 28  4  0
 15 25  2  0
 16 27  4  0
 17 18  4  0
 20 27  1  0
 24 27  4  0
 26 28  4  0
M  END
$$$$

 Created by Python create_sdf_string function

 29 33  0  0  0  0  0  0  0  0999 V2000
    8.8270   -7.0288   18.4251 C   0  0  0  0  0  0  0  0  0  0  0  0
    9.1576   -4.6236   15.8860 O   0  0  0  0  0  0  0  0  0  0  0  0
    9.1509   -5.9108   17.7177 C   0  0  0  0  0  0  0  0  0  0  0  0
    3.6373   -9.5349   16.0582 N   0  0  0  0  0  0  0  0  0  0  0  0
    9.9275   -4.8001   18.0438 N   0  0  0  0  0  0  0  0  0  0  0  0
    8.5908   -5.7425   16.4412 C   0  0  0  0  0  0  0  0  0  0  0  0
   10.5993   -4.8981   21.6068 C   0  0  0  0  0  0  0  0  0  0  0  0
   10.4258   -3.0106   23.0998 C   0  0  0  0  0  0  0  0  0  0  0  0
   10.2148   -3.4364   25.4200 C   0  0  0  0  0  0  0  0  0  0  0  0
    9.7853   -1.1840   24.4927 C   0  0  0  0  0  0  0  0  0  0  0  0
    5.0276   -8.5227   17.5352 C   0  0  0  0  0  0  0  0  0  0  0  0
    9.8187   -2.0895   25.5800 C   0  0  0  0  0  0  0  0  0  0  0  0
    5.6473   -8.7216   15.3158 C   0  0  0  0  0  0  0  0  0  0  0  0
   10.7581   -3.1233   19.4720 N   0  0  0  0  0  0  0  0  0  0  0  0
    9.9571   -4.0573   16.8866 C   0  0  0  0  0  0  0  0  0  0  0  0
    7.6213   -6.5618   16.0087 C   0  0  0  0  0  0  0  0  0  0  0  0
   10.8583   -2.6527   20.7222 C   0  0  0  0  0  0  0  0  0  0  0  0
   10.6412   -3.5089   21.7936 C   0  0  0  0  0  0  0  0  0  0  0  0
   10.4972   -3.8968   24.1589 C   0  0  0  0  0  0  0  0  0  0  0  0
    5.9260   -8.2736   16.5517 C   0  0  0  0  0  0  0  0  0  0  0  0
    3.8816   -9.1166   17.2493 C   0  0  0  0  0  0  0  0  0  0  0  0
   10.1297   -1.6575   23.2324 C   0  0  0  0  0  0  0  0  0  0  0  0
    9.4684   -1.6929   26.7263 F   0  0  0  0  0  0  0  0  0  0  0  0
    7.7963   -7.7906   17.9837 C   0  0  0  0  0  0  0  0  0  0  0  0
   10.5884   -3.0725   16.7902 O   0  0  0  0  0  0  0  0  0  0  0  0
   10.4323   -5.3494   20.3516 C   0  0  0  0  0  0  0  0  0  0  0  0
    7.1156   -7.5454   16.8218 C   0  0  0  0  0  0  0  0  0  0  0  0
   10.3885   -4.4388   19.2773 C   0  0  0  0  0  0  0  0  0  0  0  0
    4.5160   -9.3822   15.0841 C   0  0  0  0  0  0  0  0  0  0  0  0
  1  3  4  0
  1 24  4  0
  2  6  4  0
  2 15  4  0
  3  5  4  0
  3  6  4  0
  4 21  4  0
  4 29  4  0
  5 15  4  0
  5 28  1  0
  6 16  4  0
  7 18  4  0
  7 26  4  0
  8 18  1  0
  8 19  4  0
  8 22  4  0
  9 12  4  0
  9 19  4  0
 10 12  4  0
 10 22  4  0
 11 20  4  0
 11 21  4  0
 12 23  1  0
 13 20  4  0
 13 29  4  0
 14 17  4  0
 14 28  4  0
 15 25  2  0
 16 27  4  0
 17 18  4  0
 20 27  1  0
 24 27  4  0
 26 28  4  0
M  END
$$$$

 Created by Python create_sdf_string function

 29 33  0  0  0  0  0  0  0  0999 V2000
    8.8270   -7.0288   18.4251 C   0  0  0  0  0  0  0  0  0  0  0  0
    9.1576   -4.6236   15.8860 O   0  0  0  0  0  0  0  0  0  0  0  0
    9.1509   -5.9108   17.7177 C   0  0  0  0  0  0  0  0  0  0  0  0
    3.6373   -9.5349   16.0582 N   0  0  0  0  0  0  0  0  0  0  0  0
    9.9275   -4.8001   18.0438 N   0  0  0  0  0  0  0  0  0  0  0  0
    8.5908   -5.7425   16.4412 C   0  0  0  0  0  0  0  0  0  0  0  0
   10.5993   -4.8981   21.6068 C   0  0  0  0  0  0  0  0  0  0  0  0
   10.4258   -3.0106   23.0998 C   0  0  0  0  0  0  0  0  0  0  0  0
   10.2148   -3.4364   25.4200 C   0  0  0  0  0  0  0  0  0  0  0  0
    9.7853   -1.1840   24.4927 C   0  0  0  0  0  0  0  0  0  0  0  0
    5.0276   -8.5227   17.5352 C   0  0  0  0  0  0  0  0  0  0  0  0
    9.8187   -2.0895   25.5800 C   0  0  0  0  0  0  0  0  0  0  0  0
    5.6473   -8.7216   15.3158 C   0  0  0  0  0  0  0  0  0  0  0  0
   10.7581   -3.1233   19.4720 N   0  0  0  0  0  0  0  0  0  0  0  0
    9.9571   -4.0573   16.8866 C   0  0  0  0  0  0  0  0  0  0  0  0
    7.6213   -6.5618   16.0087 C   0  0  0  0  0  0  0  0  0  0  0  0
   10.8583   -2.6527   20.7222 C   0  0  0  0  0  0  0  0  0  0  0  0
   10.6412   -3.5089   21.7936 C   0  0  0  0  0  0  0  0  0  0  0  0
   10.4972   -3.8968   24.1589 C   0  0  0  0  0  0  0  0  0  0  0  0
    5.9260   -8.2736   16.5517 C   0  0  0  0  0  0  0  0  0  0  0  0
    3.8816   -9.1166   17.2493 C   0  0  0  0  0  0  0  0  0  0  0  0
   10.1297   -1.6575   23.2324 C   0  0  0  0  0  0  0  0  0  0  0  0
    9.4684   -1.6929   26.7263 F   0  0  0  0  0  0  0  0  0  0  0  0
    7.7963   -7.7906   17.9837 C   0  0  0  0  0  0  0  0  0  0  0  0
   10.5884   -3.0725   16.7902 O   0  0  0  0  0  0  0  0  0  0  0  0
   10.4323   -5.3494   20.3516 C   0  0  0  0  0  0  0  0  0  0  0  0
    7.1156   -7.5454   16.8218 C   0  0  0  0  0  0  0  0  0  0  0  0
   10.3885   -4.4388   19.2773 C   0  0  0  0  0  0  0  0  0  0  0  0
    4.5160   -9.3822   15.0841 C   0  0  0  0  0  0  0  0  0  0  0  0
  1  3  4  0
  1 24  4  0
  2  6  4  0
  2 15  4  0
  3  5  4  0
  3  6  4  0
  4 21  4  0
  4 29  4  0
  5 15  4  0
  5 28  1  0
  6 16  4  0
  7 18  4  0
  7 26  4  0
  8 18  1  0
  8 19  4  0
  8 22  4  0
  9 12  4  0
  9 19  4  0
 10 12  4  0
 10 22  4  0
 11 20  4  0
 11 21  4  0
 12 23  1  0
 13 20  4  0
 13 29  4  0
 14 17  4  0
 14 28  4  0
 15 25  2  0
 16 27  4  0
 17 18  4  0
 20 27  1  0
 24 27  4  0
 26 28  4  0
M  END
$$$$

 Created by Python create_sdf_string function

 29 33  0  0  0  0  0  0  0  0999 V2000
    8.8270   -7.0288   18.4251 C   0  0  0  0  0  0  0  0  0  0  0  0
    9.1576   -4.6236   15.8860 O   0  0  0  0  0  0  0  0  0  0  0  0
    9.1509   -5.9108   17.7177 C   0  0  0  0  0  0  0  0  0  0  0  0
    3.6373   -9.5349   16.0582 N   0  0  0  0  0  0  0  0  0  0  0  0
    9.9275   -4.8001   18.0438 N   0  0  0  0  0  0  0  0  0  0  0  0
    8.5908   -5.7425   16.4412 C   0  0  0  0  0  0  0  0  0  0  0  0
   10.5993   -4.8981   21.6068 C   0  0  0  0  0  0  0  0  0  0  0  0
   10.4258   -3.0106   23.0998 C   0  0  0  0  0  0  0  0  0  0  0  0
   10.2148   -3.4364   25.4200 C   0  0  0  0  0  0  0  0  0  0  0  0
    9.7853   -1.1840   24.4927 C   0  0  0  0  0  0  0  0  0  0  0  0
    5.0276   -8.5227   17.5352 C   0  0  0  0  0  0  0  0  0  0  0  0
    9.8187   -2.0895   25.5800 C   0  0  0  0  0  0  0  0  0  0  0  0
    5.6473   -8.7216   15.3158 C   0  0  0  0  0  0  0  0  0  0  0  0
   10.7581   -3.1233   19.4720 N   0  0  0  0  0  0  0  0  0  0  0  0
    9.9571   -4.0573   16.8866 C   0  0  0  0  0  0  0  0  0  0  0  0
    7.6213   -6.5618   16.0087 C   0  0  0  0  0  0  0  0  0  0  0  0
   10.8583   -2.6527   20.7222 C   0  0  0  0  0  0  0  0  0  0  0  0
   10.6412   -3.5089   21.7936 C   0  0  0  0  0  0  0  0  0  0  0  0
   10.4972   -3.8968   24.1589 C   0  0  0  0  0  0  0  0  0  0  0  0
    5.9260   -8.2736   16.5517 C   0  0  0  0  0  0  0  0  0  0  0  0
    3.8816   -9.1166   17.2493 C   0  0  0  0  0  0  0  0  0  0  0  0
   10.1297   -1.6575   23.2324 C   0  0  0  0  0  0  0  0  0  0  0  0
    9.4684   -1.6929   26.7263 F   0  0  0  0  0  0  0  0  0  0  0  0
    7.7963   -7.7906   17.9837 C   0  0  0  0  0  0  0  0  0  0  0  0
   10.5884   -3.0725   16.7902 O   0  0  0  0  0  0  0  0  0  0  0  0
   10.4323   -5.3494   20.3516 C   0  0  0  0  0  0  0  0  0  0  0  0
    7.1156   -7.5454   16.8218 C   0  0  0  0  0  0  0  0  0  0  0  0
   10.3885   -4.4388   19.2773 C   0  0  0  0  0  0  0  0  0  0  0  0
    4.5160   -9.3822   15.0841 C   0  0  0  0  0  0  0  0  0  0  0  0
  1  3  4  0
  1 24  4  0
  2  6  4  0
  2 15  4  0
  3  5  4  0
  3  6  4  0
  4 21  4  0
  4 29  4  0
  5 15  4  0
  5 28  1  0
  6 16  4  0
  7 18  4  0
  7 26  4  0
  8 18  1  0
  8 19  4  0
  8 22  4  0
  9 12  4  0
  9 19  4  0
 10 12  4  0
 10 22  4  0
 11 20  4  0
 11 21  4  0
 12 23  1  0
 13 20  4  0
 13 29  4  0
 14 17  4  0
 14 28  4  0
 15 25  2  0
 16 27  4  0
 17 18  4  0
 20 27  1  0
 24 27  4  0
 26 28  4  0
M  END
$$$$

 Created by Python create_sdf_string function

 29 33  0  0  0  0  0  0  0  0999 V2000
    8.8270   -7.0288   18.4251 C   0  0  0  0  0  0  0  0  0  0  0  0
    9.1576   -4.6236   15.8860 O   0  0  0  0  0  0  0  0  0  0  0  0
    9.1509   -5.9108   17.7177 C   0  0  0  0  0  0  0  0  0  0  0  0
    3.6373   -9.5349   16.0582 N   0  0  0  0  0  0  0  0  0  0  0  0
    9.9275   -4.8001   18.0438 N   0  0  0  0  0  0  0  0  0  0  0  0
    8.5908   -5.7425   16.4412 C   0  0  0  0  0  0  0  0  0  0  0  0
   10.5993   -4.8981   21.6068 C   0  0  0  0  0  0  0  0  0  0  0  0
   10.4258   -3.0106   23.0998 C   0  0  0  0  0  0  0  0  0  0  0  0
   10.2148   -3.4364   25.4200 C   0  0  0  0  0  0  0  0  0  0  0  0
    9.7853   -1.1840   24.4927 C   0  0  0  0  0  0  0  0  0  0  0  0
    5.0276   -8.5227   17.5352 C   0  0  0  0  0  0  0  0  0  0  0  0
    9.8187   -2.0895   25.5800 C   0  0  0  0  0  0  0  0  0  0  0  0
    5.6473   -8.7216   15.3158 C   0  0  0  0  0  0  0  0  0  0  0  0
   10.7581   -3.1233   19.4720 N   0  0  0  0  0  0  0  0  0  0  0  0
    9.9571   -4.0573   16.8866 C   0  0  0  0  0  0  0  0  0  0  0  0
    7.6213   -6.5618   16.0087 C   0  0  0  0  0  0  0  0  0  0  0  0
   10.8583   -2.6527   20.7222 C   0  0  0  0  0  0  0  0  0  0  0  0
   10.6412   -3.5089   21.7936 C   0  0  0  0  0  0  0  0  0  0  0  0
   10.4972   -3.8968   24.1589 C   0  0  0  0  0  0  0  0  0  0  0  0
    5.9260   -8.2736   16.5517 C   0  0  0  0  0  0  0  0  0  0  0  0
    3.8816   -9.1166   17.2493 C   0  0  0  0  0  0  0  0  0  0  0  0
   10.1297   -1.6575   23.2324 C   0  0  0  0  0  0  0  0  0  0  0  0
    9.4684   -1.6929   26.7263 F   0  0  0  0  0  0  0  0  0  0  0  0
    7.7963   -7.7906   17.9837 C   0  0  0  0  0  0  0  0  0  0  0  0
   10.5884   -3.0725   16.7902 O   0  0  0  0  0  0  0  0  0  0  0  0
   10.4323   -5.3494   20.3516 C   0  0  0  0  0  0  0  0  0  0  0  0
    7.1156   -7.5454   16.8218 C   0  0  0  0  0  0  0  0  0  0  0  0
   10.3885   -4.4388   19.2773 C   0  0  0  0  0  0  0  0  0  0  0  0
    4.5160   -9.3822   15.0841 C   0  0  0  0  0  0  0  0  0  0  0  0
  1  3  4  0
  1 24  4  0
  2  6  4  0
  2 15  4  0
  3  5  4  0
  3  6  4  0
  4 21  4  0
  4 29  4  0
  5 15  4  0
  5 28  1  0
  6 16  4  0
  7 18  4  0
  7 26  4  0
  8 18  1  0
  8 19  4  0
  8 22  4  0
  9 12  4  0
  9 19  4  0
 10 12  4  0
 10 22  4  0
 11 20  4  0
 11 21  4  0
 12 23  1  0
 13 20  4  0
 13 29  4  0
 14 17  4  0
 14 28  4  0
 15 25  2  0
 16 27  4  0
 17 18  4  0
 20 27  1  0
 24 27  4  0
 26 28  4  0
M  END
$$$$

 Created by Python create_sdf_string function

 29 33  0  0  0  0  0  0  0  0999 V2000
    8.8270   -7.0288   18.4251 C   0  0  0  0  0  0  0  0  0  0  0  0
    9.1576   -4.6236   15.8860 O   0  0  0  0  0  0  0  0  0  0  0  0
    9.1509   -5.9108   17.7177 C   0  0  0  0  0  0  0  0  0  0  0  0
    3.6373   -9.5349   16.0582 N   0  0  0  0  0  0  0  0  0  0  0  0
    9.9275   -4.8001   18.0438 N   0  0  0  0  0  0  0  0  0  0  0  0
    8.5908   -5.7425   16.4412 C   0  0  0  0  0  0  0  0  0  0  0  0
   10.5993   -4.8981   21.6068 C   0  0  0  0  0  0  0  0  0  0  0  0
   10.4258   -3.0106   23.0998 C   0  0  0  0  0  0  0  0  0  0  0  0
   10.2148   -3.4364   25.4200 C   0  0  0  0  0  0  0  0  0  0  0  0
    9.7853   -1.1840   24.4927 C   0  0  0  0  0  0  0  0  0  0  0  0
    5.0276   -8.5227   17.5352 C   0  0  0  0  0  0  0  0  0  0  0  0
    9.8187   -2.0895   25.5800 C   0  0  0  0  0  0  0  0  0  0  0  0
    5.6473   -8.7216   15.3158 C   0  0  0  0  0  0  0  0  0  0  0  0
   10.7581   -3.1233   19.4720 N   0  0  0  0  0  0  0  0  0  0  0  0
    9.9571   -4.0573   16.8866 C   0  0  0  0  0  0  0  0  0  0  0  0
    7.6213   -6.5618   16.0087 C   0  0  0  0  0  0  0  0  0  0  0  0
   10.8583   -2.6527   20.7222 C   0  0  0  0  0  0  0  0  0  0  0  0
   10.6412   -3.5089   21.7936 C   0  0  0  0  0  0  0  0  0  0  0  0
   10.4972   -3.8968   24.1589 C   0  0  0  0  0  0  0  0  0  0  0  0
    5.9260   -8.2736   16.5517 C   0  0  0  0  0  0  0  0  0  0  0  0
    3.8816   -9.1166   17.2493 C   0  0  0  0  0  0  0  0  0  0  0  0
   10.1297   -1.6575   23.2324 C   0  0  0  0  0  0  0  0  0  0  0  0
    9.4684   -1.6929   26.7263 F   0  0  0  0  0  0  0  0  0  0  0  0
    7.7963   -7.7906   17.9837 C   0  0  0  0  0  0  0  0  0  0  0  0
   10.5884   -3.0725   16.7902 O   0  0  0  0  0  0  0  0  0  0  0  0
   10.4323   -5.3494   20.3516 C   0  0  0  0  0  0  0  0  0  0  0  0
    7.1156   -7.5454   16.8218 C   0  0  0  0  0  0  0  0  0  0  0  0
   10.3885   -4.4388   19.2773 C   0  0  0  0  0  0  0  0  0  0  0  0
    4.5160   -9.3822   15.0841 C   0  0  0  0  0  0  0  0  0  0  0  0
  1  3  4  0
  1 24  4  0
  2  6  4  0
  2 15  4  0
  3  5  4  0
  3  6  4  0
  4 21  4  0
  4 29  4  0
  5 15  4  0
  5 28  1  0
  6 16  4  0
  7 18  4  0
  7 26  4  0
  8 18  1  0
  8 19  4  0
  8 22  4  0
  9 12  4  0
  9 19  4  0
 10 12  4  0
 10 22  4  0
 11 20  4  0
 11 21  4  0
 12 23  1  0
 13 20  4  0
 13 29  4  0
 14 17  4  0
 14 28  4  0
 15 25  2  0
 16 27  4  0
 17 18  4  0
 20 27  1  0
 24 27  4  0
 26 28  4  0
M  END
$$$$

 Created by Python create_sdf_string function

 29 33  0  0  0  0  0  0  0  0999 V2000
    8.8270   -7.0288   18.4251 C   0  0  0  0  0  0  0  0  0  0  0  0
    9.1576   -4.6236   15.8860 O   0  0  0  0  0  0  0  0  0  0  0  0
    9.1509   -5.9108   17.7177 C   0  0  0  0  0  0  0  0  0  0  0  0
    3.6373   -9.5349   16.0582 N   0  0  0  0  0  0  0  0  0  0  0  0
    9.9275   -4.8001   18.0438 N   0  0  0  0  0  0  0  0  0  0  0  0
    8.5908   -5.7425   16.4412 C   0  0  0  0  0  0  0  0  0  0  0  0
   10.5993   -4.8981   21.6068 C   0  0  0  0  0  0  0  0  0  0  0  0
   10.4258   -3.0106   23.0998 C   0  0  0  0  0  0  0  0  0  0  0  0
   10.2148   -3.4364   25.4200 C   0  0  0  0  0  0  0  0  0  0  0  0
    9.7853   -1.1840   24.4927 C   0  0  0  0  0  0  0  0  0  0  0  0
    5.0276   -8.5227   17.5352 C   0  0  0  0  0  0  0  0  0  0  0  0
    9.8187   -2.0895   25.5800 C   0  0  0  0  0  0  0  0  0  0  0  0
    5.6473   -8.7216   15.3158 C   0  0  0  0  0  0  0  0  0  0  0  0
   10.7581   -3.1233   19.4720 N   0  0  0  0  0  0  0  0  0  0  0  0
    9.9571   -4.0573   16.8866 C   0  0  0  0  0  0  0  0  0  0  0  0
    7.6213   -6.5618   16.0087 C   0  0  0  0  0  0  0  0  0  0  0  0
   10.8583   -2.6527   20.7222 C   0  0  0  0  0  0  0  0  0  0  0  0
   10.6412   -3.5089   21.7936 C   0  0  0  0  0  0  0  0  0  0  0  0
   10.4972   -3.8968   24.1589 C   0  0  0  0  0  0  0  0  0  0  0  0
    5.9260   -8.2736   16.5517 C   0  0  0  0  0  0  0  0  0  0  0  0
    3.8816   -9.1166   17.2493 C   0  0  0  0  0  0  0  0  0  0  0  0
   10.1297   -1.6575   23.2324 C   0  0  0  0  0  0  0  0  0  0  0  0
    9.4684   -1.6929   26.7263 F   0  0  0  0  0  0  0  0  0  0  0  0
    7.7963   -7.7906   17.9837 C   0  0  0  0  0  0  0  0  0  0  0  0
   10.5884   -3.0725   16.7902 O   0  0  0  0  0  0  0  0  0  0  0  0
   10.4323   -5.3494   20.3516 C   0  0  0  0  0  0  0  0  0  0  0  0
    7.1156   -7.5454   16.8218 C   0  0  0  0  0  0  0  0  0  0  0  0
   10.3885   -4.4388   19.2773 C   0  0  0  0  0  0  0  0  0  0  0  0
    4.5160   -9.3822   15.0841 C   0  0  0  0  0  0  0  0  0  0  0  0
  1  3  4  0
  1 24  4  0
  2  6  4  0
  2 15  4  0
  3  5  4  0
  3  6  4  0
  4 21  4  0
  4 29  4  0
  5 15  4  0
  5 28  1  0
  6 16  4  0
  7 18  4  0
  7 26  4  0
  8 18  1  0
  8 19  4  0
  8 22  4  0
  9 12  4  0
  9 19  4  0
 10 12  4  0
 10 22  4  0
 11 20  4  0
 11 21  4  0
 12 23  1  0
 13 20  4  0
 13 29  4  0
 14 17  4  0
 14 28  4  0
 15 25  2  0
 16 27  4  0
 17 18  4  0
 20 27  1  0
 24 27  4  0
 26 28  4  0
M  END
$$$$

 Created by Python create_sdf_string function

 29 33  0  0  0  0  0  0  0  0999 V2000
    8.8270   -7.0288   18.4251 C   0  0  0  0  0  0  0  0  0  0  0  0
    9.1576   -4.6236   15.8860 O   0  0  0  0  0  0  0  0  0  0  0  0
    9.1509   -5.9108   17.7177 C   0  0  0  0  0  0  0  0  0  0  0  0
    3.6373   -9.5349   16.0582 N   0  0  0  0  0  0  0  0  0  0  0  0
    9.9275   -4.8001   18.0438 N   0  0  0  0  0  0  0  0  0  0  0  0
    8.5908   -5.7425   16.4412 C   0  0  0  0  0  0  0  0  0  0  0  0
   10.5993   -4.8981   21.6068 C   0  0  0  0  0  0  0  0  0  0  0  0
   10.4258   -3.0106   23.0998 C   0  0  0  0  0  0  0  0  0  0  0  0
   10.2148   -3.4364   25.4200 C   0  0  0  0  0  0  0  0  0  0  0  0
    9.7853   -1.1840   24.4927 C   0  0  0  0  0  0  0  0  0  0  0  0
    5.0276   -8.5227   17.5352 C   0  0  0  0  0  0  0  0  0  0  0  0
    9.8187   -2.0895   25.5800 C   0  0  0  0  0  0  0  0  0  0  0  0
    5.6473   -8.7216   15.3158 C   0  0  0  0  0  0  0  0  0  0  0  0
   10.7581   -3.1233   19.4720 N   0  0  0  0  0  0  0  0  0  0  0  0
    9.9571   -4.0573   16.8866 C   0  0  0  0  0  0  0  0  0  0  0  0
    7.6213   -6.5618   16.0087 C   0  0  0  0  0  0  0  0  0  0  0  0
   10.8583   -2.6527   20.7222 C   0  0  0  0  0  0  0  0  0  0  0  0
   10.6412   -3.5089   21.7936 C   0  0  0  0  0  0  0  0  0  0  0  0
   10.4972   -3.8968   24.1589 C   0  0  0  0  0  0  0  0  0  0  0  0
    5.9260   -8.2736   16.5517 C   0  0  0  0  0  0  0  0  0  0  0  0
    3.8816   -9.1166   17.2493 C   0  0  0  0  0  0  0  0  0  0  0  0
   10.1297   -1.6575   23.2324 C   0  0  0  0  0  0  0  0  0  0  0  0
    9.4684   -1.6929   26.7263 F   0  0  0  0  0  0  0  0  0  0  0  0
    7.7963   -7.7906   17.9837 C   0  0  0  0  0  0  0  0  0  0  0  0
   10.5884   -3.0725   16.7902 O   0  0  0  0  0  0  0  0  0  0  0  0
   10.4323   -5.3494   20.3516 C   0  0  0  0  0  0  0  0  0  0  0  0
    7.1156   -7.5454   16.8218 C   0  0  0  0  0  0  0  0  0  0  0  0
   10.3885   -4.4388   19.2773 C   0  0  0  0  0  0  0  0  0  0  0  0
    4.5160   -9.3822   15.0841 C   0  0  0  0  0  0  0  0  0  0  0  0
  1  3  4  0
  1 24  4  0
  2  6  4  0
  2 15  4  0
  3  5  4  0
  3  6  4  0
  4 21  4  0
  4 29  4  0
  5 15  4  0
  5 28  1  0
  6 16  4  0
  7 18  4  0
  7 26  4  0
  8 18  1  0
  8 19  4  0
  8 22  4  0
  9 12  4  0
  9 19  4  0
 10 12  4  0
 10 22  4  0
 11 20  4  0
 11 21  4  0
 12 23  1  0
 13 20  4  0
 13 29  4  0
 14 17  4  0
 14 28  4  0
 15 25  2  0
 16 27  4  0
 17 18  4  0
 20 27  1  0
 24 27  4  0
 26 28  4  0
M  END
$$$$

 Created by Python create_sdf_string function

 29 33  0  0  0  0  0  0  0  0999 V2000
    8.8270   -7.0288   18.4251 C   0  0  0  0  0  0  0  0  0  0  0  0
    9.1576   -4.6236   15.8860 O   0  0  0  0  0  0  0  0  0  0  0  0
    9.1509   -5.9108   17.7177 C   0  0  0  0  0  0  0  0  0  0  0  0
    3.6373   -9.5349   16.0582 N   0  0  0  0  0  0  0  0  0  0  0  0
    9.9275   -4.8001   18.0438 N   0  0  0  0  0  0  0  0  0  0  0  0
    8.5908   -5.7425   16.4412 C   0  0  0  0  0  0  0  0  0  0  0  0
   10.5993   -4.8981   21.6068 C   0  0  0  0  0  0  0  0  0  0  0  0
   10.4258   -3.0106   23.0998 C   0  0  0  0  0  0  0  0  0  0  0  0
   10.2148   -3.4364   25.4200 C   0  0  0  0  0  0  0  0  0  0  0  0
    9.7853   -1.1840   24.4927 C   0  0  0  0  0  0  0  0  0  0  0  0
    5.0276   -8.5227   17.5352 C   0  0  0  0  0  0  0  0  0  0  0  0
    9.8187   -2.0895   25.5800 C   0  0  0  0  0  0  0  0  0  0  0  0
    5.6473   -8.7216   15.3158 C   0  0  0  0  0  0  0  0  0  0  0  0
   10.7581   -3.1233   19.4720 N   0  0  0  0  0  0  0  0  0  0  0  0
    9.9571   -4.0573   16.8866 C   0  0  0  0  0  0  0  0  0  0  0  0
    7.6213   -6.5618   16.0087 C   0  0  0  0  0  0  0  0  0  0  0  0
   10.8583   -2.6527   20.7222 C   0  0  0  0  0  0  0  0  0  0  0  0
   10.6412   -3.5089   21.7936 C   0  0  0  0  0  0  0  0  0  0  0  0
   10.4972   -3.8968   24.1589 C   0  0  0  0  0  0  0  0  0  0  0  0
    5.9260   -8.2736   16.5517 C   0  0  0  0  0  0  0  0  0  0  0  0
    3.8816   -9.1166   17.2493 C   0  0  0  0  0  0  0  0  0  0  0  0
   10.1297   -1.6575   23.2324 C   0  0  0  0  0  0  0  0  0  0  0  0
    9.4684   -1.6929   26.7263 F   0  0  0  0  0  0  0  0  0  0  0  0
    7.7963   -7.7906   17.9837 C   0  0  0  0  0  0  0  0  0  0  0  0
   10.5884   -3.0725   16.7902 O   0  0  0  0  0  0  0  0  0  0  0  0
   10.4323   -5.3494   20.3516 C   0  0  0  0  0  0  0  0  0  0  0  0
    7.1156   -7.5454   16.8218 C   0  0  0  0  0  0  0  0  0  0  0  0
   10.3885   -4.4388   19.2773 C   0  0  0  0  0  0  0  0  0  0  0  0
    4.5160   -9.3822   15.0841 C   0  0  0  0  0  0  0  0  0  0  0  0
  1  3  4  0
  1 24  4  0
  2  6  4  0
  2 15  4  0
  3  5  4  0
  3  6  4  0
  4 21  4  0
  4 29  4  0
  5 15  4  0
  5 28  1  0
  6 16  4  0
  7 18  4  0
  7 26  4  0
  8 18  1  0
  8 19  4  0
  8 22  4  0
  9 12  4  0
  9 19  4  0
 10 12  4  0
 10 22  4  0
 11 20  4  0
 11 21  4  0
 12 23  1  0
 13 20  4  0
 13 29  4  0
 14 17  4  0
 14 28  4  0
 15 25  2  0
 16 27  4  0
 17 18  4  0
 20 27  1  0
 24 27  4  0
 26 28  4  0
M  END
$$$$

 Created by Python create_sdf_string function

 29 33  0  0  0  0  0  0  0  0999 V2000
    8.8270   -7.0288   18.4251 C   0  0  0  0  0  0  0  0  0  0  0  0
    9.1576   -4.6236   15.8860 O   0  0  0  0  0  0  0  0  0  0  0  0
    9.1509   -5.9108   17.7177 C   0  0  0  0  0  0  0  0  0  0  0  0
    3.6373   -9.5349   16.0582 N   0  0  0  0  0  0  0  0  0  0  0  0
    9.9275   -4.8001   18.0438 N   0  0  0  0  0  0  0  0  0  0  0  0
    8.5908   -5.7425   16.4412 C   0  0  0  0  0  0  0  0  0  0  0  0
   10.5993   -4.8981   21.6068 C   0  0  0  0  0  0  0  0  0  0  0  0
   10.4258   -3.0106   23.0998 C   0  0  0  0  0  0  0  0  0  0  0  0
   10.2148   -3.4364   25.4200 C   0  0  0  0  0  0  0  0  0  0  0  0
    9.7853   -1.1840   24.4927 C   0  0  0  0  0  0  0  0  0  0  0  0
    5.0276   -8.5227   17.5352 C   0  0  0  0  0  0  0  0  0  0  0  0
    9.8187   -2.0895   25.5800 C   0  0  0  0  0  0  0  0  0  0  0  0
    5.6473   -8.7216   15.3158 C   0  0  0  0  0  0  0  0  0  0  0  0
   10.7581   -3.1233   19.4720 N   0  0  0  0  0  0  0  0  0  0  0  0
    9.9571   -4.0573   16.8866 C   0  0  0  0  0  0  0  0  0  0  0  0
    7.6213   -6.5618   16.0087 C   0  0  0  0  0  0  0  0  0  0  0  0
   10.8583   -2.6527   20.7222 C   0  0  0  0  0  0  0  0  0  0  0  0
   10.6412   -3.5089   21.7936 C   0  0  0  0  0  0  0  0  0  0  0  0
   10.4972   -3.8968   24.1589 C   0  0  0  0  0  0  0  0  0  0  0  0
    5.9260   -8.2736   16.5517 C   0  0  0  0  0  0  0  0  0  0  0  0
    3.8816   -9.1166   17.2493 C   0  0  0  0  0  0  0  0  0  0  0  0
   10.1297   -1.6575   23.2324 C   0  0  0  0  0  0  0  0  0  0  0  0
    9.4684   -1.6929   26.7263 F   0  0  0  0  0  0  0  0  0  0  0  0
    7.7963   -7.7906   17.9837 C   0  0  0  0  0  0  0  0  0  0  0  0
   10.5884   -3.0725   16.7902 O   0  0  0  0  0  0  0  0  0  0  0  0
   10.4323   -5.3494   20.3516 C   0  0  0  0  0  0  0  0  0  0  0  0
    7.1156   -7.5454   16.8218 C   0  0  0  0  0  0  0  0  0  0  0  0
   10.3885   -4.4388   19.2773 C   0  0  0  0  0  0  0  0  0  0  0  0
    4.5160   -9.3822   15.0841 C   0  0  0  0  0  0  0  0  0  0  0  0
  1  3  4  0
  1 24  4  0
  2  6  4  0
  2 15  4  0
  3  5  4  0
  3  6  4  0
  4 21  4  0
  4 29  4  0
  5 15  4  0
  5 28  1  0
  6 16  4  0
  7 18  4  0
  7 26  4  0
  8 18  1  0
  8 19  4  0
  8 22  4  0
  9 12  4  0
  9 19  4  0
 10 12  4  0
 10 22  4  0
 11 20  4  0
 11 21  4  0
 12 23  1  0
 13 20  4  0
 13 29  4  0
 14 17  4  0
 14 28  4  0
 15 25  2  0
 16 27  4  0
 17 18  4  0
 20 27  1  0
 24 27  4  0
 26 28  4  0
M  END
$$$$

 Created by Python create_sdf_string function

 29 33  0  0  0  0  0  0  0  0999 V2000
    8.8270   -7.0288   18.4251 C   0  0  0  0  0  0  0  0  0  0  0  0
    9.1576   -4.6236   15.8860 O   0  0  0  0  0  0  0  0  0  0  0  0
    9.1509   -5.9108   17.7177 C   0  0  0  0  0  0  0  0  0  0  0  0
    3.6373   -9.5349   16.0582 N   0  0  0  0  0  0  0  0  0  0  0  0
    9.9275   -4.8001   18.0438 N   0  0  0  0  0  0  0  0  0  0  0  0
    8.5908   -5.7425   16.4412 C   0  0  0  0  0  0  0  0  0  0  0  0
   10.5993   -4.8981   21.6068 C   0  0  0  0  0  0  0  0  0  0  0  0
   10.4258   -3.0106   23.0998 C   0  0  0  0  0  0  0  0  0  0  0  0
   10.2148   -3.4364   25.4200 C   0  0  0  0  0  0  0  0  0  0  0  0
    9.7853   -1.1840   24.4927 C   0  0  0  0  0  0  0  0  0  0  0  0
    5.0276   -8.5227   17.5352 C   0  0  0  0  0  0  0  0  0  0  0  0
    9.8187   -2.0895   25.5800 C   0  0  0  0  0  0  0  0  0  0  0  0
    5.6473   -8.7216   15.3158 C   0  0  0  0  0  0  0  0  0  0  0  0
   10.7581   -3.1233   19.4720 N   0  0  0  0  0  0  0  0  0  0  0  0
    9.9571   -4.0573   16.8866 C   0  0  0  0  0  0  0  0  0  0  0  0
    7.6213   -6.5618   16.0087 C   0  0  0  0  0  0  0  0  0  0  0  0
   10.8583   -2.6527   20.7222 C   0  0  0  0  0  0  0  0  0  0  0  0
   10.6412   -3.5089   21.7936 C   0  0  0  0  0  0  0  0  0  0  0  0
   10.4972   -3.8968   24.1589 C   0  0  0  0  0  0  0  0  0  0  0  0
    5.9260   -8.2736   16.5517 C   0  0  0  0  0  0  0  0  0  0  0  0
    3.8816   -9.1166   17.2493 C   0  0  0  0  0  0  0  0  0  0  0  0
   10.1297   -1.6575   23.2324 C   0  0  0  0  0  0  0  0  0  0  0  0
    9.4684   -1.6929   26.7263 F   0  0  0  0  0  0  0  0  0  0  0  0
    7.7963   -7.7906   17.9837 C   0  0  0  0  0  0  0  0  0  0  0  0
   10.5884   -3.0725   16.7902 O   0  0  0  0  0  0  0  0  0  0  0  0
   10.4323   -5.3494   20.3516 C   0  0  0  0  0  0  0  0  0  0  0  0
    7.1156   -7.5454   16.8218 C   0  0  0  0  0  0  0  0  0  0  0  0
   10.3885   -4.4388   19.2773 C   0  0  0  0  0  0  0  0  0  0  0  0
    4.5160   -9.3822   15.0841 C   0  0  0  0  0  0  0  0  0  0  0  0
  1  3  4  0
  1 24  4  0
  2  6  4  0
  2 15  4  0
  3  5  4  0
  3  6  4  0
  4 21  4  0
  4 29  4  0
  5 15  4  0
  5 28  1  0
  6 16  4  0
  7 18  4  0
  7 26  4  0
  8 18  1  0
  8 19  4  0
  8 22  4  0
  9 12  4  0
  9 19  4  0
 10 12  4  0
 10 22  4  0
 11 20  4  0
 11 21  4  0
 12 23  1  0
 13 20  4  0
 13 29  4  0
 14 17  4  0
 14 28  4  0
 15 25  2  0
 16 27  4  0
 17 18  4  0
 20 27  1  0
 24 27  4  0
 26 28  4  0
M  END
$$$$

 Created by Python create_sdf_string function

 29 33  0  0  0  0  0  0  0  0999 V2000
    8.8270   -7.0288   18.4251 C   0  0  0  0  0  0  0  0  0  0  0  0
    9.1576   -4.6236   15.8860 O   0  0  0  0  0  0  0  0  0  0  0  0
    9.1509   -5.9108   17.7177 C   0  0  0  0  0  0  0  0  0  0  0  0
    3.6373   -9.5349   16.0582 N   0  0  0  0  0  0  0  0  0  0  0  0
    9.9275   -4.8001   18.0438 N   0  0  0  0  0  0  0  0  0  0  0  0
    8.5908   -5.7425   16.4412 C   0  0  0  0  0  0  0  0  0  0  0  0
   10.5993   -4.8981   21.6068 C   0  0  0  0  0  0  0  0  0  0  0  0
   10.4258   -3.0106   23.0998 C   0  0  0  0  0  0  0  0  0  0  0  0
   10.2148   -3.4364   25.4200 C   0  0  0  0  0  0  0  0  0  0  0  0
    9.7853   -1.1840   24.4927 C   0  0  0  0  0  0  0  0  0  0  0  0
    5.0276   -8.5227   17.5352 C   0  0  0  0  0  0  0  0  0  0  0  0
    9.8187   -2.0895   25.5800 C   0  0  0  0  0  0  0  0  0  0  0  0
    5.6473   -8.7216   15.3158 C   0  0  0  0  0  0  0  0  0  0  0  0
   10.7581   -3.1233   19.4720 N   0  0  0  0  0  0  0  0  0  0  0  0
    9.9571   -4.0573   16.8866 C   0  0  0  0  0  0  0  0  0  0  0  0
    7.6213   -6.5618   16.0087 C   0  0  0  0  0  0  0  0  0  0  0  0
   10.8583   -2.6527   20.7222 C   0  0  0  0  0  0  0  0  0  0  0  0
   10.6412   -3.5089   21.7936 C   0  0  0  0  0  0  0  0  0  0  0  0
   10.4972   -3.8968   24.1589 C   0  0  0  0  0  0  0  0  0  0  0  0
    5.9260   -8.2736   16.5517 C   0  0  0  0  0  0  0  0  0  0  0  0
    3.8816   -9.1166   17.2493 C   0  0  0  0  0  0  0  0  0  0  0  0
   10.1297   -1.6575   23.2324 C   0  0  0  0  0  0  0  0  0  0  0  0
    9.4684   -1.6929   26.7263 F   0  0  0  0  0  0  0  0  0  0  0  0
    7.7963   -7.7906   17.9837 C   0  0  0  0  0  0  0  0  0  0  0  0
   10.5884   -3.0725   16.7902 O   0  0  0  0  0  0  0  0  0  0  0  0
   10.4323   -5.3494   20.3516 C   0  0  0  0  0  0  0  0  0  0  0  0
    7.1156   -7.5454   16.8218 C   0  0  0  0  0  0  0  0  0  0  0  0
   10.3885   -4.4388   19.2773 C   0  0  0  0  0  0  0  0  0  0  0  0
    4.5160   -9.3822   15.0841 C   0  0  0  0  0  0  0  0  0  0  0  0
  1  3  4  0
  1 24  4  0
  2  6  4  0
  2 15  4  0
  3  5  4  0
  3  6  4  0
  4 21  4  0
  4 29  4  0
  5 15  4  0
  5 28  1  0
  6 16  4  0
  7 18  4  0
  7 26  4  0
  8 18  1  0
  8 19  4  0
  8 22  4  0
  9 12  4  0
  9 19  4  0
 10 12  4  0
 10 22  4  0
 11 20  4  0
 11 21  4  0
 12 23  1  0
 13 20  4  0
 13 29  4  0
 14 17  4  0
 14 28  4  0
 15 25  2  0
 16 27  4  0
 17 18  4  0
 20 27  1  0
 24 27  4  0
 26 28  4  0
M  END
$$$$

 Created by Python create_sdf_string function

 29 33  0  0  0  0  0  0  0  0999 V2000
    8.8270   -7.0288   18.4251 C   0  0  0  0  0  0  0  0  0  0  0  0
    9.1576   -4.6236   15.8860 O   0  0  0  0  0  0  0  0  0  0  0  0
    9.1509   -5.9108   17.7177 C   0  0  0  0  0  0  0  0  0  0  0  0
    3.6373   -9.5349   16.0582 N   0  0  0  0  0  0  0  0  0  0  0  0
    9.9275   -4.8001   18.0438 N   0  0  0  0  0  0  0  0  0  0  0  0
    8.5908   -5.7425   16.4412 C   0  0  0  0  0  0  0  0  0  0  0  0
   10.5993   -4.8981   21.6068 C   0  0  0  0  0  0  0  0  0  0  0  0
   10.4258   -3.0106   23.0998 C   0  0  0  0  0  0  0  0  0  0  0  0
   10.2148   -3.4364   25.4200 C   0  0  0  0  0  0  0  0  0  0  0  0
    9.7853   -1.1840   24.4927 C   0  0  0  0  0  0  0  0  0  0  0  0
    5.0276   -8.5227   17.5352 C   0  0  0  0  0  0  0  0  0  0  0  0
    9.8187   -2.0895   25.5800 C   0  0  0  0  0  0  0  0  0  0  0  0
    5.6473   -8.7216   15.3158 C   0  0  0  0  0  0  0  0  0  0  0  0
   10.7581   -3.1233   19.4720 N   0  0  0  0  0  0  0  0  0  0  0  0
    9.9571   -4.0573   16.8866 C   0  0  0  0  0  0  0  0  0  0  0  0
    7.6213   -6.5618   16.0087 C   0  0  0  0  0  0  0  0  0  0  0  0
   10.8583   -2.6527   20.7222 C   0  0  0  0  0  0  0  0  0  0  0  0
   10.6412   -3.5089   21.7936 C   0  0  0  0  0  0  0  0  0  0  0  0
   10.4972   -3.8968   24.1589 C   0  0  0  0  0  0  0  0  0  0  0  0
    5.9260   -8.2736   16.5517 C   0  0  0  0  0  0  0  0  0  0  0  0
    3.8816   -9.1166   17.2493 C   0  0  0  0  0  0  0  0  0  0  0  0
   10.1297   -1.6575   23.2324 C   0  0  0  0  0  0  0  0  0  0  0  0
    9.4684   -1.6929   26.7263 F   0  0  0  0  0  0  0  0  0  0  0  0
    7.7963   -7.7906   17.9837 C   0  0  0  0  0  0  0  0  0  0  0  0
   10.5884   -3.0725   16.7902 O   0  0  0  0  0  0  0  0  0  0  0  0
   10.4323   -5.3494   20.3516 C   0  0  0  0  0  0  0  0  0  0  0  0
    7.1156   -7.5454   16.8218 C   0  0  0  0  0  0  0  0  0  0  0  0
   10.3885   -4.4388   19.2773 C   0  0  0  0  0  0  0  0  0  0  0  0
    4.5160   -9.3822   15.0841 C   0  0  0  0  0  0  0  0  0  0  0  0
  1  3  4  0
  1 24  4  0
  2  6  4  0
  2 15  4  0
  3  5  4  0
  3  6  4  0
  4 21  4  0
  4 29  4  0
  5 15  4  0
  5 28  1  0
  6 16  4  0
  7 18  4  0
  7 26  4  0
  8 18  1  0
  8 19  4  0
  8 22  4  0
  9 12  4  0
  9 19  4  0
 10 12  4  0
 10 22  4  0
 11 20  4  0
 11 21  4  0
 12 23  1  0
 13 20  4  0
 13 29  4  0
 14 17  4  0
 14 28  4  0
 15 25  2  0
 16 27  4  0
 17 18  4  0
 20 27  1  0
 24 27  4  0
 26 28  4  0
M  END
$$$$

 Created by Python create_sdf_string function

 29 33  0  0  0  0  0  0  0  0999 V2000
    8.8270   -7.0288   18.4251 C   0  0  0  0  0  0  0  0  0  0  0  0
    9.1576   -4.6236   15.8860 O   0  0  0  0  0  0  0  0  0  0  0  0
    9.1509   -5.9108   17.7177 C   0  0  0  0  0  0  0  0  0  0  0  0
    3.6373   -9.5349   16.0582 N   0  0  0  0  0  0  0  0  0  0  0  0
    9.9275   -4.8001   18.0438 N   0  0  0  0  0  0  0  0  0  0  0  0
    8.5908   -5.7425   16.4412 C   0  0  0  0  0  0  0  0  0  0  0  0
   10.5993   -4.8981   21.6068 C   0  0  0  0  0  0  0  0  0  0  0  0
   10.4258   -3.0106   23.0998 C   0  0  0  0  0  0  0  0  0  0  0  0
   10.2148   -3.4364   25.4200 C   0  0  0  0  0  0  0  0  0  0  0  0
    9.7853   -1.1840   24.4927 C   0  0  0  0  0  0  0  0  0  0  0  0
    5.0276   -8.5227   17.5352 C   0  0  0  0  0  0  0  0  0  0  0  0
    9.8187   -2.0895   25.5800 C   0  0  0  0  0  0  0  0  0  0  0  0
    5.6473   -8.7216   15.3158 C   0  0  0  0  0  0  0  0  0  0  0  0
   10.7581   -3.1233   19.4720 N   0  0  0  0  0  0  0  0  0  0  0  0
    9.9571   -4.0573   16.8866 C   0  0  0  0  0  0  0  0  0  0  0  0
    7.6213   -6.5618   16.0087 C   0  0  0  0  0  0  0  0  0  0  0  0
   10.8583   -2.6527   20.7222 C   0  0  0  0  0  0  0  0  0  0  0  0
   10.6412   -3.5089   21.7936 C   0  0  0  0  0  0  0  0  0  0  0  0
   10.4972   -3.8968   24.1589 C   0  0  0  0  0  0  0  0  0  0  0  0
    5.9260   -8.2736   16.5517 C   0  0  0  0  0  0  0  0  0  0  0  0
    3.8816   -9.1166   17.2493 C   0  0  0  0  0  0  0  0  0  0  0  0
   10.1297   -1.6575   23.2324 C   0  0  0  0  0  0  0  0  0  0  0  0
    9.4684   -1.6929   26.7263 F   0  0  0  0  0  0  0  0  0  0  0  0
    7.7963   -7.7906   17.9837 C   0  0  0  0  0  0  0  0  0  0  0  0
   10.5884   -3.0725   16.7902 O   0  0  0  0  0  0  0  0  0  0  0  0
   10.4323   -5.3494   20.3516 C   0  0  0  0  0  0  0  0  0  0  0  0
    7.1156   -7.5454   16.8218 C   0  0  0  0  0  0  0  0  0  0  0  0
   10.3885   -4.4388   19.2773 C   0  0  0  0  0  0  0  0  0  0  0  0
    4.5160   -9.3822   15.0841 C   0  0  0  0  0  0  0  0  0  0  0  0
  1  3  4  0
  1 24  4  0
  2  6  4  0
  2 15  4  0
  3  5  4  0
  3  6  4  0
  4 21  4  0
  4 29  4  0
  5 15  4  0
  5 28  1  0
  6 16  4  0
  7 18  4  0
  7 26  4  0
  8 18  1  0
  8 19  4  0
  8 22  4  0
  9 12  4  0
  9 19  4  0
 10 12  4  0
 10 22  4  0
 11 20  4  0
 11 21  4  0
 12 23  1  0
 13 20  4  0
 13 29  4  0
 14 17  4  0
 14 28  4  0
 15 25  2  0
 16 27  4  0
 17 18  4  0
 20 27  1  0
 24 27  4  0
 26 28  4  0
M  END
$$$$

 Created by Python create_sdf_string function

 29 33  0  0  0  0  0  0  0  0999 V2000
    8.8270   -7.0288   18.4251 C   0  0  0  0  0  0  0  0  0  0  0  0
    9.1576   -4.6236   15.8860 O   0  0  0  0  0  0  0  0  0  0  0  0
    9.1509   -5.9108   17.7177 C   0  0  0  0  0  0  0  0  0  0  0  0
    3.6373   -9.5349   16.0582 N   0  0  0  0  0  0  0  0  0  0  0  0
    9.9275   -4.8001   18.0438 N   0  0  0  0  0  0  0  0  0  0  0  0
    8.5908   -5.7425   16.4412 C   0  0  0  0  0  0  0  0  0  0  0  0
   10.5993   -4.8981   21.6068 C   0  0  0  0  0  0  0  0  0  0  0  0
   10.4258   -3.0106   23.0998 C   0  0  0  0  0  0  0  0  0  0  0  0
   10.2148   -3.4364   25.4200 C   0  0  0  0  0  0  0  0  0  0  0  0
    9.7853   -1.1840   24.4927 C   0  0  0  0  0  0  0  0  0  0  0  0
    5.0276   -8.5227   17.5352 C   0  0  0  0  0  0  0  0  0  0  0  0
    9.8187   -2.0895   25.5800 C   0  0  0  0  0  0  0  0  0  0  0  0
    5.6473   -8.7216   15.3158 C   0  0  0  0  0  0  0  0  0  0  0  0
   10.7581   -3.1233   19.4720 N   0  0  0  0  0  0  0  0  0  0  0  0
    9.9571   -4.0573   16.8866 C   0  0  0  0  0  0  0  0  0  0  0  0
    7.6213   -6.5618   16.0087 C   0  0  0  0  0  0  0  0  0  0  0  0
   10.8583   -2.6527   20.7222 C   0  0  0  0  0  0  0  0  0  0  0  0
   10.6412   -3.5089   21.7936 C   0  0  0  0  0  0  0  0  0  0  0  0
   10.4972   -3.8968   24.1589 C   0  0  0  0  0  0  0  0  0  0  0  0
    5.9260   -8.2736   16.5517 C   0  0  0  0  0  0  0  0  0  0  0  0
    3.8816   -9.1166   17.2493 C   0  0  0  0  0  0  0  0  0  0  0  0
   10.1297   -1.6575   23.2324 C   0  0  0  0  0  0  0  0  0  0  0  0
    9.4684   -1.6929   26.7263 F   0  0  0  0  0  0  0  0  0  0  0  0
    7.7963   -7.7906   17.9837 C   0  0  0  0  0  0  0  0  0  0  0  0
   10.5884   -3.0725   16.7902 O   0  0  0  0  0  0  0  0  0  0  0  0
   10.4323   -5.3494   20.3516 C   0  0  0  0  0  0  0  0  0  0  0  0
    7.1156   -7.5454   16.8218 C   0  0  0  0  0  0  0  0  0  0  0  0
   10.3885   -4.4388   19.2773 C   0  0  0  0  0  0  0  0  0  0  0  0
    4.5160   -9.3822   15.0841 C   0  0  0  0  0  0  0  0  0  0  0  0
  1  3  4  0
  1 24  4  0
  2  6  4  0
  2 15  4  0
  3  5  4  0
  3  6  4  0
  4 21  4  0
  4 29  4  0
  5 15  4  0
  5 28  1  0
  6 16  4  0
  7 18  4  0
  7 26  4  0
  8 18  1  0
  8 19  4  0
  8 22  4  0
  9 12  4  0
  9 19  4  0
 10 12  4  0
 10 22  4  0
 11 20  4  0
 11 21  4  0
 12 23  1  0
 13 20  4  0
 13 29  4  0
 14 17  4  0
 14 28  4  0
 15 25  2  0
 16 27  4  0
 17 18  4  0
 20 27  1  0
 24 27  4  0
 26 28  4  0
M  END
$$$$

 Created by Python create_sdf_string function

 29 33  0  0  0  0  0  0  0  0999 V2000
    8.8270   -7.0288   18.4251 C   0  0  0  0  0  0  0  0  0  0  0  0
    9.1576   -4.6236   15.8860 O   0  0  0  0  0  0  0  0  0  0  0  0
    9.1509   -5.9108   17.7177 C   0  0  0  0  0  0  0  0  0  0  0  0
    3.6373   -9.5349   16.0582 N   0  0  0  0  0  0  0  0  0  0  0  0
    9.9275   -4.8001   18.0438 N   0  0  0  0  0  0  0  0  0  0  0  0
    8.5908   -5.7425   16.4412 C   0  0  0  0  0  0  0  0  0  0  0  0
   10.5993   -4.8981   21.6068 C   0  0  0  0  0  0  0  0  0  0  0  0
   10.4258   -3.0106   23.0998 C   0  0  0  0  0  0  0  0  0  0  0  0
   10.2148   -3.4364   25.4200 C   0  0  0  0  0  0  0  0  0  0  0  0
    9.7853   -1.1840   24.4927 C   0  0  0  0  0  0  0  0  0  0  0  0
    5.0276   -8.5227   17.5352 C   0  0  0  0  0  0  0  0  0  0  0  0
    9.8187   -2.0895   25.5800 C   0  0  0  0  0  0  0  0  0  0  0  0
    5.6473   -8.7216   15.3158 C   0  0  0  0  0  0  0  0  0  0  0  0
   10.7581   -3.1233   19.4720 N   0  0  0  0  0  0  0  0  0  0  0  0
    9.9571   -4.0573   16.8866 C   0  0  0  0  0  0  0  0  0  0  0  0
    7.6213   -6.5618   16.0087 C   0  0  0  0  0  0  0  0  0  0  0  0
   10.8583   -2.6527   20.7222 C   0  0  0  0  0  0  0  0  0  0  0  0
   10.6412   -3.5089   21.7936 C   0  0  0  0  0  0  0  0  0  0  0  0
   10.4972   -3.8968   24.1589 C   0  0  0  0  0  0  0  0  0  0  0  0
    5.9260   -8.2736   16.5517 C   0  0  0  0  0  0  0  0  0  0  0  0
    3.8816   -9.1166   17.2493 C   0  0  0  0  0  0  0  0  0  0  0  0
   10.1297   -1.6575   23.2324 C   0  0  0  0  0  0  0  0  0  0  0  0
    9.4684   -1.6929   26.7263 F   0  0  0  0  0  0  0  0  0  0  0  0
    7.7963   -7.7906   17.9837 C   0  0  0  0  0  0  0  0  0  0  0  0
   10.5884   -3.0725   16.7902 O   0  0  0  0  0  0  0  0  0  0  0  0
   10.4323   -5.3494   20.3516 C   0  0  0  0  0  0  0  0  0  0  0  0
    7.1156   -7.5454   16.8218 C   0  0  0  0  0  0  0  0  0  0  0  0
   10.3885   -4.4388   19.2773 C   0  0  0  0  0  0  0  0  0  0  0  0
    4.5160   -9.3822   15.0841 C   0  0  0  0  0  0  0  0  0  0  0  0
  1  3  4  0
  1 24  4  0
  2  6  4  0
  2 15  4  0
  3  5  4  0
  3  6  4  0
  4 21  4  0
  4 29  4  0
  5 15  4  0
  5 28  1  0
  6 16  4  0
  7 18  4  0
  7 26  4  0
  8 18  1  0
  8 19  4  0
  8 22  4  0
  9 12  4  0
  9 19  4  0
 10 12  4  0
 10 22  4  0
 11 20  4  0
 11 21  4  0
 12 23  1  0
 13 20  4  0
 13 29  4  0
 14 17  4  0
 14 28  4  0
 15 25  2  0
 16 27  4  0
 17 18  4  0
 20 27  1  0
 24 27  4  0
 26 28  4  0
M  END
$$$$

 Created by Python create_sdf_string function

 29 33  0  0  0  0  0  0  0  0999 V2000
    8.8270   -7.0288   18.4251 C   0  0  0  0  0  0  0  0  0  0  0  0
    9.1576   -4.6236   15.8860 O   0  0  0  0  0  0  0  0  0  0  0  0
    9.1509   -5.9108   17.7177 C   0  0  0  0  0  0  0  0  0  0  0  0
    3.6373   -9.5349   16.0582 N   0  0  0  0  0  0  0  0  0  0  0  0
    9.9275   -4.8001   18.0438 N   0  0  0  0  0  0  0  0  0  0  0  0
    8.5908   -5.7425   16.4412 C   0  0  0  0  0  0  0  0  0  0  0  0
   10.5993   -4.8981   21.6068 C   0  0  0  0  0  0  0  0  0  0  0  0
   10.4258   -3.0106   23.0998 C   0  0  0  0  0  0  0  0  0  0  0  0
   10.2148   -3.4364   25.4200 C   0  0  0  0  0  0  0  0  0  0  0  0
    9.7853   -1.1840   24.4927 C   0  0  0  0  0  0  0  0  0  0  0  0
    5.0276   -8.5227   17.5352 C   0  0  0  0  0  0  0  0  0  0  0  0
    9.8187   -2.0895   25.5800 C   0  0  0  0  0  0  0  0  0  0  0  0
    5.6473   -8.7216   15.3158 C   0  0  0  0  0  0  0  0  0  0  0  0
   10.7581   -3.1233   19.4720 N   0  0  0  0  0  0  0  0  0  0  0  0
    9.9571   -4.0573   16.8866 C   0  0  0  0  0  0  0  0  0  0  0  0
    7.6213   -6.5618   16.0087 C   0  0  0  0  0  0  0  0  0  0  0  0
   10.8583   -2.6527   20.7222 C   0  0  0  0  0  0  0  0  0  0  0  0
   10.6412   -3.5089   21.7936 C   0  0  0  0  0  0  0  0  0  0  0  0
   10.4972   -3.8968   24.1589 C   0  0  0  0  0  0  0  0  0  0  0  0
    5.9260   -8.2736   16.5517 C   0  0  0  0  0  0  0  0  0  0  0  0
    3.8816   -9.1166   17.2493 C   0  0  0  0  0  0  0  0  0  0  0  0
   10.1297   -1.6575   23.2324 C   0  0  0  0  0  0  0  0  0  0  0  0
    9.4684   -1.6929   26.7263 F   0  0  0  0  0  0  0  0  0  0  0  0
    7.7963   -7.7906   17.9837 C   0  0  0  0  0  0  0  0  0  0  0  0
   10.5884   -3.0725   16.7902 O   0  0  0  0  0  0  0  0  0  0  0  0
   10.4323   -5.3494   20.3516 C   0  0  0  0  0  0  0  0  0  0  0  0
    7.1156   -7.5454   16.8218 C   0  0  0  0  0  0  0  0  0  0  0  0
   10.3885   -4.4388   19.2773 C   0  0  0  0  0  0  0  0  0  0  0  0
    4.5160   -9.3822   15.0841 C   0  0  0  0  0  0  0  0  0  0  0  0
  1  3  4  0
  1 24  4  0
  2  6  4  0
  2 15  4  0
  3  5  4  0
  3  6  4  0
  4 21  4  0
  4 29  4  0
  5 15  4  0
  5 28  1  0
  6 16  4  0
  7 18  4  0
  7 26  4  0
  8 18  1  0
  8 19  4  0
  8 22  4  0
  9 12  4  0
  9 19  4  0
 10 12  4  0
 10 22  4  0
 11 20  4  0
 11 21  4  0
 12 23  1  0
 13 20  4  0
 13 29  4  0
 14 17  4  0
 14 28  4  0
 15 25  2  0
 16 27  4  0
 17 18  4  0
 20 27  1  0
 24 27  4  0
 26 28  4  0
M  END
$$$$

 Created by Python create_sdf_string function

 29 33  0  0  0  0  0  0  0  0999 V2000
    8.8270   -7.0288   18.4251 C   0  0  0  0  0  0  0  0  0  0  0  0
    9.1576   -4.6236   15.8860 O   0  0  0  0  0  0  0  0  0  0  0  0
    9.1509   -5.9108   17.7177 C   0  0  0  0  0  0  0  0  0  0  0  0
    3.6373   -9.5349   16.0582 N   0  0  0  0  0  0  0  0  0  0  0  0
    9.9275   -4.8001   18.0438 N   0  0  0  0  0  0  0  0  0  0  0  0
    8.5908   -5.7425   16.4412 C   0  0  0  0  0  0  0  0  0  0  0  0
   10.5993   -4.8981   21.6068 C   0  0  0  0  0  0  0  0  0  0  0  0
   10.4258   -3.0106   23.0998 C   0  0  0  0  0  0  0  0  0  0  0  0
   10.2148   -3.4364   25.4200 C   0  0  0  0  0  0  0  0  0  0  0  0
    9.7853   -1.1840   24.4927 C   0  0  0  0  0  0  0  0  0  0  0  0
    5.0276   -8.5227   17.5352 C   0  0  0  0  0  0  0  0  0  0  0  0
    9.8187   -2.0895   25.5800 C   0  0  0  0  0  0  0  0  0  0  0  0
    5.6473   -8.7216   15.3158 C   0  0  0  0  0  0  0  0  0  0  0  0
   10.7581   -3.1233   19.4720 N   0  0  0  0  0  0  0  0  0  0  0  0
    9.9571   -4.0573   16.8866 C   0  0  0  0  0  0  0  0  0  0  0  0
    7.6213   -6.5618   16.0087 C   0  0  0  0  0  0  0  0  0  0  0  0
   10.8583   -2.6527   20.7222 C   0  0  0  0  0  0  0  0  0  0  0  0
   10.6412   -3.5089   21.7936 C   0  0  0  0  0  0  0  0  0  0  0  0
   10.4972   -3.8968   24.1589 C   0  0  0  0  0  0  0  0  0  0  0  0
    5.9260   -8.2736   16.5517 C   0  0  0  0  0  0  0  0  0  0  0  0
    3.8816   -9.1166   17.2493 C   0  0  0  0  0  0  0  0  0  0  0  0
   10.1297   -1.6575   23.2324 C   0  0  0  0  0  0  0  0  0  0  0  0
    9.4684   -1.6929   26.7263 F   0  0  0  0  0  0  0  0  0  0  0  0
    7.7963   -7.7906   17.9837 C   0  0  0  0  0  0  0  0  0  0  0  0
   10.5884   -3.0725   16.7902 O   0  0  0  0  0  0  0  0  0  0  0  0
   10.4323   -5.3494   20.3516 C   0  0  0  0  0  0  0  0  0  0  0  0
    7.1156   -7.5454   16.8218 C   0  0  0  0  0  0  0  0  0  0  0  0
   10.3885   -4.4388   19.2773 C   0  0  0  0  0  0  0  0  0  0  0  0
    4.5160   -9.3822   15.0841 C   0  0  0  0  0  0  0  0  0  0  0  0
  1  3  4  0
  1 24  4  0
  2  6  4  0
  2 15  4  0
  3  5  4  0
  3  6  4  0
  4 21  4  0
  4 29  4  0
  5 15  4  0
  5 28  1  0
  6 16  4  0
  7 18  4  0
  7 26  4  0
  8 18  1  0
  8 19  4  0
  8 22  4  0
  9 12  4  0
  9 19  4  0
 10 12  4  0
 10 22  4  0
 11 20  4  0
 11 21  4  0
 12 23  1  0
 13 20  4  0
 13 29  4  0
 14 17  4  0
 14 28  4  0
 15 25  2  0
 16 27  4  0
 17 18  4  0
 20 27  1  0
 24 27  4  0
 26 28  4  0
M  END
$$$$

 Created by Python create_sdf_string function

 29 33  0  0  0  0  0  0  0  0999 V2000
    8.8270   -7.0288   18.4251 C   0  0  0  0  0  0  0  0  0  0  0  0
    9.1576   -4.6236   15.8860 O   0  0  0  0  0  0  0  0  0  0  0  0
    9.1509   -5.9108   17.7177 C   0  0  0  0  0  0  0  0  0  0  0  0
    3.6373   -9.5349   16.0582 N   0  0  0  0  0  0  0  0  0  0  0  0
    9.9275   -4.8001   18.0438 N   0  0  0  0  0  0  0  0  0  0  0  0
    8.5908   -5.7425   16.4412 C   0  0  0  0  0  0  0  0  0  0  0  0
   10.5993   -4.8981   21.6068 C   0  0  0  0  0  0  0  0  0  0  0  0
   10.4258   -3.0106   23.0998 C   0  0  0  0  0  0  0  0  0  0  0  0
   10.2148   -3.4364   25.4200 C   0  0  0  0  0  0  0  0  0  0  0  0
    9.7853   -1.1840   24.4927 C   0  0  0  0  0  0  0  0  0  0  0  0
    5.0276   -8.5227   17.5352 C   0  0  0  0  0  0  0  0  0  0  0  0
    9.8187   -2.0895   25.5800 C   0  0  0  0  0  0  0  0  0  0  0  0
    5.6473   -8.7216   15.3158 C   0  0  0  0  0  0  0  0  0  0  0  0
   10.7581   -3.1233   19.4720 N   0  0  0  0  0  0  0  0  0  0  0  0
    9.9571   -4.0573   16.8866 C   0  0  0  0  0  0  0  0  0  0  0  0
    7.6213   -6.5618   16.0087 C   0  0  0  0  0  0  0  0  0  0  0  0
   10.8583   -2.6527   20.7222 C   0  0  0  0  0  0  0  0  0  0  0  0
   10.6412   -3.5089   21.7936 C   0  0  0  0  0  0  0  0  0  0  0  0
   10.4972   -3.8968   24.1589 C   0  0  0  0  0  0  0  0  0  0  0  0
    5.9260   -8.2736   16.5517 C   0  0  0  0  0  0  0  0  0  0  0  0
    3.8816   -9.1166   17.2493 C   0  0  0  0  0  0  0  0  0  0  0  0
   10.1297   -1.6575   23.2324 C   0  0  0  0  0  0  0  0  0  0  0  0
    9.4684   -1.6929   26.7263 F   0  0  0  0  0  0  0  0  0  0  0  0
    7.7963   -7.7906   17.9837 C   0  0  0  0  0  0  0  0  0  0  0  0
   10.5884   -3.0725   16.7902 O   0  0  0  0  0  0  0  0  0  0  0  0
   10.4323   -5.3494   20.3516 C   0  0  0  0  0  0  0  0  0  0  0  0
    7.1156   -7.5454   16.8218 C   0  0  0  0  0  0  0  0  0  0  0  0
   10.3885   -4.4388   19.2773 C   0  0  0  0  0  0  0  0  0  0  0  0
    4.5160   -9.3822   15.0841 C   0  0  0  0  0  0  0  0  0  0  0  0
  1  3  4  0
  1 24  4  0
  2  6  4  0
  2 15  4  0
  3  5  4  0
  3  6  4  0
  4 21  4  0
  4 29  4  0
  5 15  4  0
  5 28  1  0
  6 16  4  0
  7 18  4  0
  7 26  4  0
  8 18  1  0
  8 19  4  0
  8 22  4  0
  9 12  4  0
  9 19  4  0
 10 12  4  0
 10 22  4  0
 11 20  4  0
 11 21  4  0
 12 23  1  0
 13 20  4  0
 13 29  4  0
 14 17  4  0
 14 28  4  0
 15 25  2  0
 16 27  4  0
 17 18  4  0
 20 27  1  0
 24 27  4  0
 26 28  4  0
M  END
$$$$

 Created by Python create_sdf_string function

 29 33  0  0  0  0  0  0  0  0999 V2000
    8.8270   -7.0288   18.4251 C   0  0  0  0  0  0  0  0  0  0  0  0
    9.1576   -4.6236   15.8860 O   0  0  0  0  0  0  0  0  0  0  0  0
    9.1509   -5.9108   17.7177 C   0  0  0  0  0  0  0  0  0  0  0  0
    3.6373   -9.5349   16.0582 N   0  0  0  0  0  0  0  0  0  0  0  0
    9.9275   -4.8001   18.0438 N   0  0  0  0  0  0  0  0  0  0  0  0
    8.5908   -5.7425   16.4412 C   0  0  0  0  0  0  0  0  0  0  0  0
   10.5993   -4.8981   21.6068 C   0  0  0  0  0  0  0  0  0  0  0  0
   10.4258   -3.0106   23.0998 C   0  0  0  0  0  0  0  0  0  0  0  0
   10.2148   -3.4364   25.4200 C   0  0  0  0  0  0  0  0  0  0  0  0
    9.7853   -1.1840   24.4927 C   0  0  0  0  0  0  0  0  0  0  0  0
    5.0276   -8.5227   17.5352 C   0  0  0  0  0  0  0  0  0  0  0  0
    9.8187   -2.0895   25.5800 C   0  0  0  0  0  0  0  0  0  0  0  0
    5.6473   -8.7216   15.3158 C   0  0  0  0  0  0  0  0  0  0  0  0
   10.7581   -3.1233   19.4720 N   0  0  0  0  0  0  0  0  0  0  0  0
    9.9571   -4.0573   16.8866 C   0  0  0  0  0  0  0  0  0  0  0  0
    7.6213   -6.5618   16.0087 C   0  0  0  0  0  0  0  0  0  0  0  0
   10.8583   -2.6527   20.7222 C   0  0  0  0  0  0  0  0  0  0  0  0
   10.6412   -3.5089   21.7936 C   0  0  0  0  0  0  0  0  0  0  0  0
   10.4972   -3.8968   24.1589 C   0  0  0  0  0  0  0  0  0  0  0  0
    5.9260   -8.2736   16.5517 C   0  0  0  0  0  0  0  0  0  0  0  0
    3.8816   -9.1166   17.2493 C   0  0  0  0  0  0  0  0  0  0  0  0
   10.1297   -1.6575   23.2324 C   0  0  0  0  0  0  0  0  0  0  0  0
    9.4684   -1.6929   26.7263 F   0  0  0  0  0  0  0  0  0  0  0  0
    7.7963   -7.7906   17.9837 C   0  0  0  0  0  0  0  0  0  0  0  0
   10.5884   -3.0725   16.7902 O   0  0  0  0  0  0  0  0  0  0  0  0
   10.4323   -5.3494   20.3516 C   0  0  0  0  0  0  0  0  0  0  0  0
    7.1156   -7.5454   16.8218 C   0  0  0  0  0  0  0  0  0  0  0  0
   10.3885   -4.4388   19.2773 C   0  0  0  0  0  0  0  0  0  0  0  0
    4.5160   -9.3822   15.0841 C   0  0  0  0  0  0  0  0  0  0  0  0
  1  3  4  0
  1 24  4  0
  2  6  4  0
  2 15  4  0
  3  5  4  0
  3  6  4  0
  4 21  4  0
  4 29  4  0
  5 15  4  0
  5 28  1  0
  6 16  4  0
  7 18  4  0
  7 26  4  0
  8 18  1  0
  8 19  4  0
  8 22  4  0
  9 12  4  0
  9 19  4  0
 10 12  4  0
 10 22  4  0
 11 20  4  0
 11 21  4  0
 12 23  1  0
 13 20  4  0
 13 29  4  0
 14 17  4  0
 14 28  4  0
 15 25  2  0
 16 27  4  0
 17 18  4  0
 20 27  1  0
 24 27  4  0
 26 28  4  0
M  END
$$$$

 Created by Python create_sdf_string function

 29 33  0  0  0  0  0  0  0  0999 V2000
    8.8270   -7.0288   18.4251 C   0  0  0  0  0  0  0  0  0  0  0  0
    9.1576   -4.6236   15.8860 O   0  0  0  0  0  0  0  0  0  0  0  0
    9.1509   -5.9108   17.7177 C   0  0  0  0  0  0  0  0  0  0  0  0
    3.6373   -9.5349   16.0582 N   0  0  0  0  0  0  0  0  0  0  0  0
    9.9275   -4.8001   18.0438 N   0  0  0  0  0  0  0  0  0  0  0  0
    8.5908   -5.7425   16.4412 C   0  0  0  0  0  0  0  0  0  0  0  0
   10.5993   -4.8981   21.6068 C   0  0  0  0  0  0  0  0  0  0  0  0
   10.4258   -3.0106   23.0998 C   0  0  0  0  0  0  0  0  0  0  0  0
   10.2148   -3.4364   25.4200 C   0  0  0  0  0  0  0  0  0  0  0  0
    9.7853   -1.1840   24.4927 C   0  0  0  0  0  0  0  0  0  0  0  0
    5.0276   -8.5227   17.5352 C   0  0  0  0  0  0  0  0  0  0  0  0
    9.8187   -2.0895   25.5800 C   0  0  0  0  0  0  0  0  0  0  0  0
    5.6473   -8.7216   15.3158 C   0  0  0  0  0  0  0  0  0  0  0  0
   10.7581   -3.1233   19.4720 N   0  0  0  0  0  0  0  0  0  0  0  0
    9.9571   -4.0573   16.8866 C   0  0  0  0  0  0  0  0  0  0  0  0
    7.6213   -6.5618   16.0087 C   0  0  0  0  0  0  0  0  0  0  0  0
   10.8583   -2.6527   20.7222 C   0  0  0  0  0  0  0  0  0  0  0  0
   10.6412   -3.5089   21.7936 C   0  0  0  0  0  0  0  0  0  0  0  0
   10.4972   -3.8968   24.1589 C   0  0  0  0  0  0  0  0  0  0  0  0
    5.9260   -8.2736   16.5517 C   0  0  0  0  0  0  0  0  0  0  0  0
    3.8816   -9.1166   17.2493 C   0  0  0  0  0  0  0  0  0  0  0  0
   10.1297   -1.6575   23.2324 C   0  0  0  0  0  0  0  0  0  0  0  0
    9.4684   -1.6929   26.7263 F   0  0  0  0  0  0  0  0  0  0  0  0
    7.7963   -7.7906   17.9837 C   0  0  0  0  0  0  0  0  0  0  0  0
   10.5884   -3.0725   16.7902 O   0  0  0  0  0  0  0  0  0  0  0  0
   10.4323   -5.3494   20.3516 C   0  0  0  0  0  0  0  0  0  0  0  0
    7.1156   -7.5454   16.8218 C   0  0  0  0  0  0  0  0  0  0  0  0
   10.3885   -4.4388   19.2773 C   0  0  0  0  0  0  0  0  0  0  0  0
    4.5160   -9.3822   15.0841 C   0  0  0  0  0  0  0  0  0  0  0  0
  1  3  4  0
  1 24  4  0
  2  6  4  0
  2 15  4  0
  3  5  4  0
  3  6  4  0
  4 21  4  0
  4 29  4  0
  5 15  4  0
  5 28  1  0
  6 16  4  0
  7 18  4  0
  7 26  4  0
  8 18  1  0
  8 19  4  0
  8 22  4  0
  9 12  4  0
  9 19  4  0
 10 12  4  0
 10 22  4  0
 11 20  4  0
 11 21  4  0
 12 23  1  0
 13 20  4  0
 13 29  4  0
 14 17  4  0
 14 28  4  0
 15 25  2  0
 16 27  4  0
 17 18  4  0
 20 27  1  0
 24 27  4  0
 26 28  4  0
M  END
$$$$

 Created by Python create_sdf_string function

 29 33  0  0  0  0  0  0  0  0999 V2000
    8.8270   -7.0288   18.4251 C   0  0  0  0  0  0  0  0  0  0  0  0
    9.1576   -4.6236   15.8860 O   0  0  0  0  0  0  0  0  0  0  0  0
    9.1509   -5.9108   17.7177 C   0  0  0  0  0  0  0  0  0  0  0  0
    3.6373   -9.5349   16.0582 N   0  0  0  0  0  0  0  0  0  0  0  0
    9.9275   -4.8001   18.0438 N   0  0  0  0  0  0  0  0  0  0  0  0
    8.5908   -5.7425   16.4412 C   0  0  0  0  0  0  0  0  0  0  0  0
   10.5993   -4.8981   21.6068 C   0  0  0  0  0  0  0  0  0  0  0  0
   10.4258   -3.0106   23.0998 C   0  0  0  0  0  0  0  0  0  0  0  0
   10.2148   -3.4364   25.4200 C   0  0  0  0  0  0  0  0  0  0  0  0
    9.7853   -1.1840   24.4927 C   0  0  0  0  0  0  0  0  0  0  0  0
    5.0276   -8.5227   17.5352 C   0  0  0  0  0  0  0  0  0  0  0  0
    9.8187   -2.0895   25.5800 C   0  0  0  0  0  0  0  0  0  0  0  0
    5.6473   -8.7216   15.3158 C   0  0  0  0  0  0  0  0  0  0  0  0
   10.7581   -3.1233   19.4720 N   0  0  0  0  0  0  0  0  0  0  0  0
    9.9571   -4.0573   16.8866 C   0  0  0  0  0  0  0  0  0  0  0  0
    7.6213   -6.5618   16.0087 C   0  0  0  0  0  0  0  0  0  0  0  0
   10.8583   -2.6527   20.7222 C   0  0  0  0  0  0  0  0  0  0  0  0
   10.6412   -3.5089   21.7936 C   0  0  0  0  0  0  0  0  0  0  0  0
   10.4972   -3.8968   24.1589 C   0  0  0  0  0  0  0  0  0  0  0  0
    5.9260   -8.2736   16.5517 C   0  0  0  0  0  0  0  0  0  0  0  0
    3.8816   -9.1166   17.2493 C   0  0  0  0  0  0  0  0  0  0  0  0
   10.1297   -1.6575   23.2324 C   0  0  0  0  0  0  0  0  0  0  0  0
    9.4684   -1.6929   26.7263 F   0  0  0  0  0  0  0  0  0  0  0  0
    7.7963   -7.7906   17.9837 C   0  0  0  0  0  0  0  0  0  0  0  0
   10.5884   -3.0725   16.7902 O   0  0  0  0  0  0  0  0  0  0  0  0
   10.4323   -5.3494   20.3516 C   0  0  0  0  0  0  0  0  0  0  0  0
    7.1156   -7.5454   16.8218 C   0  0  0  0  0  0  0  0  0  0  0  0
   10.3885   -4.4388   19.2773 C   0  0  0  0  0  0  0  0  0  0  0  0
    4.5160   -9.3822   15.0841 C   0  0  0  0  0  0  0  0  0  0  0  0
  1  3  4  0
  1 24  4  0
  2  6  4  0
  2 15  4  0
  3  5  4  0
  3  6  4  0
  4 21  4  0
  4 29  4  0
  5 15  4  0
  5 28  1  0
  6 16  4  0
  7 18  4  0
  7 26  4  0
  8 18  1  0
  8 19  4  0
  8 22  4  0
  9 12  4  0
  9 19  4  0
 10 12  4  0
 10 22  4  0
 11 20  4  0
 11 21  4  0
 12 23  1  0
 13 20  4  0
 13 29  4  0
 14 17  4  0
 14 28  4  0
 15 25  2  0
 16 27  4  0
 17 18  4  0
 20 27  1  0
 24 27  4  0
 26 28  4  0
M  END
$$$$

 Created by Python create_sdf_string function

 29 33  0  0  0  0  0  0  0  0999 V2000
    8.8270   -7.0288   18.4251 C   0  0  0  0  0  0  0  0  0  0  0  0
    9.1576   -4.6236   15.8860 O   0  0  0  0  0  0  0  0  0  0  0  0
    9.1509   -5.9108   17.7177 C   0  0  0  0  0  0  0  0  0  0  0  0
    3.6373   -9.5349   16.0582 N   0  0  0  0  0  0  0  0  0  0  0  0
    9.9275   -4.8001   18.0438 N   0  0  0  0  0  0  0  0  0  0  0  0
    8.5908   -5.7425   16.4412 C   0  0  0  0  0  0  0  0  0  0  0  0
   10.5993   -4.8981   21.6068 C   0  0  0  0  0  0  0  0  0  0  0  0
   10.4258   -3.0106   23.0998 C   0  0  0  0  0  0  0  0  0  0  0  0
   10.2148   -3.4364   25.4200 C   0  0  0  0  0  0  0  0  0  0  0  0
    9.7853   -1.1840   24.4927 C   0  0  0  0  0  0  0  0  0  0  0  0
    5.0276   -8.5227   17.5352 C   0  0  0  0  0  0  0  0  0  0  0  0
    9.8187   -2.0895   25.5800 C   0  0  0  0  0  0  0  0  0  0  0  0
    5.6473   -8.7216   15.3158 C   0  0  0  0  0  0  0  0  0  0  0  0
   10.7581   -3.1233   19.4720 N   0  0  0  0  0  0  0  0  0  0  0  0
    9.9571   -4.0573   16.8866 C   0  0  0  0  0  0  0  0  0  0  0  0
    7.6213   -6.5618   16.0087 C   0  0  0  0  0  0  0  0  0  0  0  0
   10.8583   -2.6527   20.7222 C   0  0  0  0  0  0  0  0  0  0  0  0
   10.6412   -3.5089   21.7936 C   0  0  0  0  0  0  0  0  0  0  0  0
   10.4972   -3.8968   24.1589 C   0  0  0  0  0  0  0  0  0  0  0  0
    5.9260   -8.2736   16.5517 C   0  0  0  0  0  0  0  0  0  0  0  0
    3.8816   -9.1166   17.2493 C   0  0  0  0  0  0  0  0  0  0  0  0
   10.1297   -1.6575   23.2324 C   0  0  0  0  0  0  0  0  0  0  0  0
    9.4684   -1.6929   26.7263 F   0  0  0  0  0  0  0  0  0  0  0  0
    7.7963   -7.7906   17.9837 C   0  0  0  0  0  0  0  0  0  0  0  0
   10.5884   -3.0725   16.7902 O   0  0  0  0  0  0  0  0  0  0  0  0
   10.4323   -5.3494   20.3516 C   0  0  0  0  0  0  0  0  0  0  0  0
    7.1156   -7.5454   16.8218 C   0  0  0  0  0  0  0  0  0  0  0  0
   10.3885   -4.4388   19.2773 C   0  0  0  0  0  0  0  0  0  0  0  0
    4.5160   -9.3822   15.0841 C   0  0  0  0  0  0  0  0  0  0  0  0
  1  3  4  0
  1 24  4  0
  2  6  4  0
  2 15  4  0
  3  5  4  0
  3  6  4  0
  4 21  4  0
  4 29  4  0
  5 15  4  0
  5 28  1  0
  6 16  4  0
  7 18  4  0
  7 26  4  0
  8 18  1  0
  8 19  4  0
  8 22  4  0
  9 12  4  0
  9 19  4  0
 10 12  4  0
 10 22  4  0
 11 20  4  0
 11 21  4  0
 12 23  1  0
 13 20  4  0
 13 29  4  0
 14 17  4  0
 14 28  4  0
 15 25  2  0
 16 27  4  0
 17 18  4  0
 20 27  1  0
 24 27  4  0
 26 28  4  0
M  END
$$$$

 Created by Python create_sdf_string function

 29 33  0  0  0  0  0  0  0  0999 V2000
    8.8270   -7.0288   18.4251 C   0  0  0  0  0  0  0  0  0  0  0  0
    9.1576   -4.6236   15.8860 O   0  0  0  0  0  0  0  0  0  0  0  0
    9.1509   -5.9108   17.7177 C   0  0  0  0  0  0  0  0  0  0  0  0
    3.6373   -9.5349   16.0582 N   0  0  0  0  0  0  0  0  0  0  0  0
    9.9275   -4.8001   18.0438 N   0  0  0  0  0  0  0  0  0  0  0  0
    8.5908   -5.7425   16.4412 C   0  0  0  0  0  0  0  0  0  0  0  0
   10.5993   -4.8981   21.6068 C   0  0  0  0  0  0  0  0  0  0  0  0
   10.4258   -3.0106   23.0998 C   0  0  0  0  0  0  0  0  0  0  0  0
   10.2148   -3.4364   25.4200 C   0  0  0  0  0  0  0  0  0  0  0  0
    9.7853   -1.1840   24.4927 C   0  0  0  0  0  0  0  0  0  0  0  0
    5.0276   -8.5227   17.5352 C   0  0  0  0  0  0  0  0  0  0  0  0
    9.8187   -2.0895   25.5800 C   0  0  0  0  0  0  0  0  0  0  0  0
    5.6473   -8.7216   15.3158 C   0  0  0  0  0  0  0  0  0  0  0  0
   10.7581   -3.1233   19.4720 N   0  0  0  0  0  0  0  0  0  0  0  0
    9.9571   -4.0573   16.8866 C   0  0  0  0  0  0  0  0  0  0  0  0
    7.6213   -6.5618   16.0087 C   0  0  0  0  0  0  0  0  0  0  0  0
   10.8583   -2.6527   20.7222 C   0  0  0  0  0  0  0  0  0  0  0  0
   10.6412   -3.5089   21.7936 C   0  0  0  0  0  0  0  0  0  0  0  0
   10.4972   -3.8968   24.1589 C   0  0  0  0  0  0  0  0  0  0  0  0
    5.9260   -8.2736   16.5517 C   0  0  0  0  0  0  0  0  0  0  0  0
    3.8816   -9.1166   17.2493 C   0  0  0  0  0  0  0  0  0  0  0  0
   10.1297   -1.6575   23.2324 C   0  0  0  0  0  0  0  0  0  0  0  0
    9.4684   -1.6929   26.7263 F   0  0  0  0  0  0  0  0  0  0  0  0
    7.7963   -7.7906   17.9837 C   0  0  0  0  0  0  0  0  0  0  0  0
   10.5884   -3.0725   16.7902 O   0  0  0  0  0  0  0  0  0  0  0  0
   10.4323   -5.3494   20.3516 C   0  0  0  0  0  0  0  0  0  0  0  0
    7.1156   -7.5454   16.8218 C   0  0  0  0  0  0  0  0  0  0  0  0
   10.3885   -4.4388   19.2773 C   0  0  0  0  0  0  0  0  0  0  0  0
    4.5160   -9.3822   15.0841 C   0  0  0  0  0  0  0  0  0  0  0  0
  1  3  4  0
  1 24  4  0
  2  6  4  0
  2 15  4  0
  3  5  4  0
  3  6  4  0
  4 21  4  0
  4 29  4  0
  5 15  4  0
  5 28  1  0
  6 16  4  0
  7 18  4  0
  7 26  4  0
  8 18  1  0
  8 19  4  0
  8 22  4  0
  9 12  4  0
  9 19  4  0
 10 12  4  0
 10 22  4  0
 11 20  4  0
 11 21  4  0
 12 23  1  0
 13 20  4  0
 13 29  4  0
 14 17  4  0
 14 28  4  0
 15 25  2  0
 16 27  4  0
 17 18  4  0
 20 27  1  0
 24 27  4  0
 26 28  4  0
M  END
$$$$

 Created by Python create_sdf_string function

 29 33  0  0  0  0  0  0  0  0999 V2000
    8.8270   -7.0288   18.4251 C   0  0  0  0  0  0  0  0  0  0  0  0
    9.1576   -4.6236   15.8860 O   0  0  0  0  0  0  0  0  0  0  0  0
    9.1509   -5.9108   17.7177 C   0  0  0  0  0  0  0  0  0  0  0  0
    3.6373   -9.5349   16.0582 N   0  0  0  0  0  0  0  0  0  0  0  0
    9.9275   -4.8001   18.0438 N   0  0  0  0  0  0  0  0  0  0  0  0
    8.5908   -5.7425   16.4412 C   0  0  0  0  0  0  0  0  0  0  0  0
   10.5993   -4.8981   21.6068 C   0  0  0  0  0  0  0  0  0  0  0  0
   10.4258   -3.0106   23.0998 C   0  0  0  0  0  0  0  0  0  0  0  0
   10.2148   -3.4364   25.4200 C   0  0  0  0  0  0  0  0  0  0  0  0
    9.7853   -1.1840   24.4927 C   0  0  0  0  0  0  0  0  0  0  0  0
    5.0276   -8.5227   17.5352 C   0  0  0  0  0  0  0  0  0  0  0  0
    9.8187   -2.0895   25.5800 C   0  0  0  0  0  0  0  0  0  0  0  0
    5.6473   -8.7216   15.3158 C   0  0  0  0  0  0  0  0  0  0  0  0
   10.7581   -3.1233   19.4720 N   0  0  0  0  0  0  0  0  0  0  0  0
    9.9571   -4.0573   16.8866 C   0  0  0  0  0  0  0  0  0  0  0  0
    7.6213   -6.5618   16.0087 C   0  0  0  0  0  0  0  0  0  0  0  0
   10.8583   -2.6527   20.7222 C   0  0  0  0  0  0  0  0  0  0  0  0
   10.6412   -3.5089   21.7936 C   0  0  0  0  0  0  0  0  0  0  0  0
   10.4972   -3.8968   24.1589 C   0  0  0  0  0  0  0  0  0  0  0  0
    5.9260   -8.2736   16.5517 C   0  0  0  0  0  0  0  0  0  0  0  0
    3.8816   -9.1166   17.2493 C   0  0  0  0  0  0  0  0  0  0  0  0
   10.1297   -1.6575   23.2324 C   0  0  0  0  0  0  0  0  0  0  0  0
    9.4684   -1.6929   26.7263 F   0  0  0  0  0  0  0  0  0  0  0  0
    7.7963   -7.7906   17.9837 C   0  0  0  0  0  0  0  0  0  0  0  0
   10.5884   -3.0725   16.7902 O   0  0  0  0  0  0  0  0  0  0  0  0
   10.4323   -5.3494   20.3516 C   0  0  0  0  0  0  0  0  0  0  0  0
    7.1156   -7.5454   16.8218 C   0  0  0  0  0  0  0  0  0  0  0  0
   10.3885   -4.4388   19.2773 C   0  0  0  0  0  0  0  0  0  0  0  0
    4.5160   -9.3822   15.0841 C   0  0  0  0  0  0  0  0  0  0  0  0
  1  3  4  0
  1 24  4  0
  2  6  4  0
  2 15  4  0
  3  5  4  0
  3  6  4  0
  4 21  4  0
  4 29  4  0
  5 15  4  0
  5 28  1  0
  6 16  4  0
  7 18  4  0
  7 26  4  0
  8 18  1  0
  8 19  4  0
  8 22  4  0
  9 12  4  0
  9 19  4  0
 10 12  4  0
 10 22  4  0
 11 20  4  0
 11 21  4  0
 12 23  1  0
 13 20  4  0
 13 29  4  0
 14 17  4  0
 14 28  4  0
 15 25  2  0
 16 27  4  0
 17 18  4  0
 20 27  1  0
 24 27  4  0
 26 28  4  0
M  END
$$$$

 Created by Python create_sdf_string function

 29 33  0  0  0  0  0  0  0  0999 V2000
    8.8270   -7.0288   18.4251 C   0  0  0  0  0  0  0  0  0  0  0  0
    9.1576   -4.6236   15.8860 O   0  0  0  0  0  0  0  0  0  0  0  0
    9.1509   -5.9108   17.7177 C   0  0  0  0  0  0  0  0  0  0  0  0
    3.6373   -9.5349   16.0582 N   0  0  0  0  0  0  0  0  0  0  0  0
    9.9275   -4.8001   18.0438 N   0  0  0  0  0  0  0  0  0  0  0  0
    8.5908   -5.7425   16.4412 C   0  0  0  0  0  0  0  0  0  0  0  0
   10.5993   -4.8981   21.6068 C   0  0  0  0  0  0  0  0  0  0  0  0
   10.4258   -3.0106   23.0998 C   0  0  0  0  0  0  0  0  0  0  0  0
   10.2148   -3.4364   25.4200 C   0  0  0  0  0  0  0  0  0  0  0  0
    9.7853   -1.1840   24.4927 C   0  0  0  0  0  0  0  0  0  0  0  0
    5.0276   -8.5227   17.5352 C   0  0  0  0  0  0  0  0  0  0  0  0
    9.8187   -2.0895   25.5800 C   0  0  0  0  0  0  0  0  0  0  0  0
    5.6473   -8.7216   15.3158 C   0  0  0  0  0  0  0  0  0  0  0  0
   10.7581   -3.1233   19.4720 N   0  0  0  0  0  0  0  0  0  0  0  0
    9.9571   -4.0573   16.8866 C   0  0  0  0  0  0  0  0  0  0  0  0
    7.6213   -6.5618   16.0087 C   0  0  0  0  0  0  0  0  0  0  0  0
   10.8583   -2.6527   20.7222 C   0  0  0  0  0  0  0  0  0  0  0  0
   10.6412   -3.5089   21.7936 C   0  0  0  0  0  0  0  0  0  0  0  0
   10.4972   -3.8968   24.1589 C   0  0  0  0  0  0  0  0  0  0  0  0
    5.9260   -8.2736   16.5517 C   0  0  0  0  0  0  0  0  0  0  0  0
    3.8816   -9.1166   17.2493 C   0  0  0  0  0  0  0  0  0  0  0  0
   10.1297   -1.6575   23.2324 C   0  0  0  0  0  0  0  0  0  0  0  0
    9.4684   -1.6929   26.7263 F   0  0  0  0  0  0  0  0  0  0  0  0
    7.7963   -7.7906   17.9837 C   0  0  0  0  0  0  0  0  0  0  0  0
   10.5884   -3.0725   16.7902 O   0  0  0  0  0  0  0  0  0  0  0  0
   10.4323   -5.3494   20.3516 C   0  0  0  0  0  0  0  0  0  0  0  0
    7.1156   -7.5454   16.8218 C   0  0  0  0  0  0  0  0  0  0  0  0
   10.3885   -4.4388   19.2773 C   0  0  0  0  0  0  0  0  0  0  0  0
    4.5160   -9.3822   15.0841 C   0  0  0  0  0  0  0  0  0  0  0  0
  1  3  4  0
  1 24  4  0
  2  6  4  0
  2 15  4  0
  3  5  4  0
  3  6  4  0
  4 21  4  0
  4 29  4  0
  5 15  4  0
  5 28  1  0
  6 16  4  0
  7 18  4  0
  7 26  4  0
  8 18  1  0
  8 19  4  0
  8 22  4  0
  9 12  4  0
  9 19  4  0
 10 12  4  0
 10 22  4  0
 11 20  4  0
 11 21  4  0
 12 23  1  0
 13 20  4  0
 13 29  4  0
 14 17  4  0
 14 28  4  0
 15 25  2  0
 16 27  4  0
 17 18  4  0
 20 27  1  0
 24 27  4  0
 26 28  4  0
M  END
$$$$

 Created by Python create_sdf_string function

 29 33  0  0  0  0  0  0  0  0999 V2000
    8.8270   -7.0288   18.4251 C   0  0  0  0  0  0  0  0  0  0  0  0
    9.1576   -4.6236   15.8860 O   0  0  0  0  0  0  0  0  0  0  0  0
    9.1509   -5.9108   17.7177 C   0  0  0  0  0  0  0  0  0  0  0  0
    3.6373   -9.5349   16.0582 N   0  0  0  0  0  0  0  0  0  0  0  0
    9.9275   -4.8001   18.0438 N   0  0  0  0  0  0  0  0  0  0  0  0
    8.5908   -5.7425   16.4412 C   0  0  0  0  0  0  0  0  0  0  0  0
   10.5993   -4.8981   21.6068 C   0  0  0  0  0  0  0  0  0  0  0  0
   10.4258   -3.0106   23.0998 C   0  0  0  0  0  0  0  0  0  0  0  0
   10.2148   -3.4364   25.4200 C   0  0  0  0  0  0  0  0  0  0  0  0
    9.7853   -1.1840   24.4927 C   0  0  0  0  0  0  0  0  0  0  0  0
    5.0276   -8.5227   17.5352 C   0  0  0  0  0  0  0  0  0  0  0  0
    9.8187   -2.0895   25.5800 C   0  0  0  0  0  0  0  0  0  0  0  0
    5.6473   -8.7216   15.3158 C   0  0  0  0  0  0  0  0  0  0  0  0
   10.7581   -3.1233   19.4720 N   0  0  0  0  0  0  0  0  0  0  0  0
    9.9571   -4.0573   16.8866 C   0  0  0  0  0  0  0  0  0  0  0  0
    7.6213   -6.5618   16.0087 C   0  0  0  0  0  0  0  0  0  0  0  0
   10.8583   -2.6527   20.7222 C   0  0  0  0  0  0  0  0  0  0  0  0
   10.6412   -3.5089   21.7936 C   0  0  0  0  0  0  0  0  0  0  0  0
   10.4972   -3.8968   24.1589 C   0  0  0  0  0  0  0  0  0  0  0  0
    5.9260   -8.2736   16.5517 C   0  0  0  0  0  0  0  0  0  0  0  0
    3.8816   -9.1166   17.2493 C   0  0  0  0  0  0  0  0  0  0  0  0
   10.1297   -1.6575   23.2324 C   0  0  0  0  0  0  0  0  0  0  0  0
    9.4684   -1.6929   26.7263 F   0  0  0  0  0  0  0  0  0  0  0  0
    7.7963   -7.7906   17.9837 C   0  0  0  0  0  0  0  0  0  0  0  0
   10.5884   -3.0725   16.7902 O   0  0  0  0  0  0  0  0  0  0  0  0
   10.4323   -5.3494   20.3516 C   0  0  0  0  0  0  0  0  0  0  0  0
    7.1156   -7.5454   16.8218 C   0  0  0  0  0  0  0  0  0  0  0  0
   10.3885   -4.4388   19.2773 C   0  0  0  0  0  0  0  0  0  0  0  0
    4.5160   -9.3822   15.0841 C   0  0  0  0  0  0  0  0  0  0  0  0
  1  3  4  0
  1 24  4  0
  2  6  4  0
  2 15  4  0
  3  5  4  0
  3  6  4  0
  4 21  4  0
  4 29  4  0
  5 15  4  0
  5 28  1  0
  6 16  4  0
  7 18  4  0
  7 26  4  0
  8 18  1  0
  8 19  4  0
  8 22  4  0
  9 12  4  0
  9 19  4  0
 10 12  4  0
 10 22  4  0
 11 20  4  0
 11 21  4  0
 12 23  1  0
 13 20  4  0
 13 29  4  0
 14 17  4  0
 14 28  4  0
 15 25  2  0
 16 27  4  0
 17 18  4  0
 20 27  1  0
 24 27  4  0
 26 28  4  0
M  END
$$$$

 Created by Python create_sdf_string function

 29 33  0  0  0  0  0  0  0  0999 V2000
    8.8270   -7.0288   18.4251 C   0  0  0  0  0  0  0  0  0  0  0  0
    9.1576   -4.6236   15.8860 O   0  0  0  0  0  0  0  0  0  0  0  0
    9.1509   -5.9108   17.7177 C   0  0  0  0  0  0  0  0  0  0  0  0
    3.6373   -9.5349   16.0582 N   0  0  0  0  0  0  0  0  0  0  0  0
    9.9275   -4.8001   18.0438 N   0  0  0  0  0  0  0  0  0  0  0  0
    8.5908   -5.7425   16.4412 C   0  0  0  0  0  0  0  0  0  0  0  0
   10.5993   -4.8981   21.6068 C   0  0  0  0  0  0  0  0  0  0  0  0
   10.4258   -3.0106   23.0998 C   0  0  0  0  0  0  0  0  0  0  0  0
   10.2148   -3.4364   25.4200 C   0  0  0  0  0  0  0  0  0  0  0  0
    9.7853   -1.1840   24.4927 C   0  0  0  0  0  0  0  0  0  0  0  0
    5.0276   -8.5227   17.5352 C   0  0  0  0  0  0  0  0  0  0  0  0
    9.8187   -2.0895   25.5800 C   0  0  0  0  0  0  0  0  0  0  0  0
    5.6473   -8.7216   15.3158 C   0  0  0  0  0  0  0  0  0  0  0  0
   10.7581   -3.1233   19.4720 N   0  0  0  0  0  0  0  0  0  0  0  0
    9.9571   -4.0573   16.8866 C   0  0  0  0  0  0  0  0  0  0  0  0
    7.6213   -6.5618   16.0087 C   0  0  0  0  0  0  0  0  0  0  0  0
   10.8583   -2.6527   20.7222 C   0  0  0  0  0  0  0  0  0  0  0  0
   10.6412   -3.5089   21.7936 C   0  0  0  0  0  0  0  0  0  0  0  0
   10.4972   -3.8968   24.1589 C   0  0  0  0  0  0  0  0  0  0  0  0
    5.9260   -8.2736   16.5517 C   0  0  0  0  0  0  0  0  0  0  0  0
    3.8816   -9.1166   17.2493 C   0  0  0  0  0  0  0  0  0  0  0  0
   10.1297   -1.6575   23.2324 C   0  0  0  0  0  0  0  0  0  0  0  0
    9.4684   -1.6929   26.7263 F   0  0  0  0  0  0  0  0  0  0  0  0
    7.7963   -7.7906   17.9837 C   0  0  0  0  0  0  0  0  0  0  0  0
   10.5884   -3.0725   16.7902 O   0  0  0  0  0  0  0  0  0  0  0  0
   10.4323   -5.3494   20.3516 C   0  0  0  0  0  0  0  0  0  0  0  0
    7.1156   -7.5454   16.8218 C   0  0  0  0  0  0  0  0  0  0  0  0
   10.3885   -4.4388   19.2773 C   0  0  0  0  0  0  0  0  0  0  0  0
    4.5160   -9.3822   15.0841 C   0  0  0  0  0  0  0  0  0  0  0  0
  1  3  4  0
  1 24  4  0
  2  6  4  0
  2 15  4  0
  3  5  4  0
  3  6  4  0
  4 21  4  0
  4 29  4  0
  5 15  4  0
  5 28  1  0
  6 16  4  0
  7 18  4  0
  7 26  4  0
  8 18  1  0
  8 19  4  0
  8 22  4  0
  9 12  4  0
  9 19  4  0
 10 12  4  0
 10 22  4  0
 11 20  4  0
 11 21  4  0
 12 23  1  0
 13 20  4  0
 13 29  4  0
 14 17  4  0
 14 28  4  0
 15 25  2  0
 16 27  4  0
 17 18  4  0
 20 27  1  0
 24 27  4  0
 26 28  4  0
M  END
$$$$

 Created by Python create_sdf_string function

 29 33  0  0  0  0  0  0  0  0999 V2000
    8.8270   -7.0288   18.4251 C   0  0  0  0  0  0  0  0  0  0  0  0
    9.1576   -4.6236   15.8860 O   0  0  0  0  0  0  0  0  0  0  0  0
    9.1509   -5.9108   17.7177 C   0  0  0  0  0  0  0  0  0  0  0  0
    3.6373   -9.5349   16.0582 N   0  0  0  0  0  0  0  0  0  0  0  0
    9.9275   -4.8001   18.0438 N   0  0  0  0  0  0  0  0  0  0  0  0
    8.5908   -5.7425   16.4412 C   0  0  0  0  0  0  0  0  0  0  0  0
   10.5993   -4.8981   21.6068 C   0  0  0  0  0  0  0  0  0  0  0  0
   10.4258   -3.0106   23.0998 C   0  0  0  0  0  0  0  0  0  0  0  0
   10.2148   -3.4364   25.4200 C   0  0  0  0  0  0  0  0  0  0  0  0
    9.7853   -1.1840   24.4927 C   0  0  0  0  0  0  0  0  0  0  0  0
    5.0276   -8.5227   17.5352 C   0  0  0  0  0  0  0  0  0  0  0  0
    9.8187   -2.0895   25.5800 C   0  0  0  0  0  0  0  0  0  0  0  0
    5.6473   -8.7216   15.3158 C   0  0  0  0  0  0  0  0  0  0  0  0
   10.7581   -3.1233   19.4720 N   0  0  0  0  0  0  0  0  0  0  0  0
    9.9571   -4.0573   16.8866 C   0  0  0  0  0  0  0  0  0  0  0  0
    7.6213   -6.5618   16.0087 C   0  0  0  0  0  0  0  0  0  0  0  0
   10.8583   -2.6527   20.7222 C   0  0  0  0  0  0  0  0  0  0  0  0
   10.6412   -3.5089   21.7936 C   0  0  0  0  0  0  0  0  0  0  0  0
   10.4972   -3.8968   24.1589 C   0  0  0  0  0  0  0  0  0  0  0  0
    5.9260   -8.2736   16.5517 C   0  0  0  0  0  0  0  0  0  0  0  0
    3.8816   -9.1166   17.2493 C   0  0  0  0  0  0  0  0  0  0  0  0
   10.1297   -1.6575   23.2324 C   0  0  0  0  0  0  0  0  0  0  0  0
    9.4684   -1.6929   26.7263 F   0  0  0  0  0  0  0  0  0  0  0  0
    7.7963   -7.7906   17.9837 C   0  0  0  0  0  0  0  0  0  0  0  0
   10.5884   -3.0725   16.7902 O   0  0  0  0  0  0  0  0  0  0  0  0
   10.4323   -5.3494   20.3516 C   0  0  0  0  0  0  0  0  0  0  0  0
    7.1156   -7.5454   16.8218 C   0  0  0  0  0  0  0  0  0  0  0  0
   10.3885   -4.4388   19.2773 C   0  0  0  0  0  0  0  0  0  0  0  0
    4.5160   -9.3822   15.0841 C   0  0  0  0  0  0  0  0  0  0  0  0
  1  3  4  0
  1 24  4  0
  2  6  4  0
  2 15  4  0
  3  5  4  0
  3  6  4  0
  4 21  4  0
  4 29  4  0
  5 15  4  0
  5 28  1  0
  6 16  4  0
  7 18  4  0
  7 26  4  0
  8 18  1  0
  8 19  4  0
  8 22  4  0
  9 12  4  0
  9 19  4  0
 10 12  4  0
 10 22  4  0
 11 20  4  0
 11 21  4  0
 12 23  1  0
 13 20  4  0
 13 29  4  0
 14 17  4  0
 14 28  4  0
 15 25  2  0
 16 27  4  0
 17 18  4  0
 20 27  1  0
 24 27  4  0
 26 28  4  0
M  END
$$$$

 Created by Python create_sdf_string function

 29 33  0  0  0  0  0  0  0  0999 V2000
    8.8270   -7.0288   18.4251 C   0  0  0  0  0  0  0  0  0  0  0  0
    9.1576   -4.6236   15.8860 O   0  0  0  0  0  0  0  0  0  0  0  0
    9.1509   -5.9108   17.7177 C   0  0  0  0  0  0  0  0  0  0  0  0
    3.6373   -9.5349   16.0582 N   0  0  0  0  0  0  0  0  0  0  0  0
    9.9275   -4.8001   18.0438 N   0  0  0  0  0  0  0  0  0  0  0  0
    8.5908   -5.7425   16.4412 C   0  0  0  0  0  0  0  0  0  0  0  0
   10.5993   -4.8981   21.6068 C   0  0  0  0  0  0  0  0  0  0  0  0
   10.4258   -3.0106   23.0998 C   0  0  0  0  0  0  0  0  0  0  0  0
   10.2148   -3.4364   25.4200 C   0  0  0  0  0  0  0  0  0  0  0  0
    9.7853   -1.1840   24.4927 C   0  0  0  0  0  0  0  0  0  0  0  0
    5.0276   -8.5227   17.5352 C   0  0  0  0  0  0  0  0  0  0  0  0
    9.8187   -2.0895   25.5800 C   0  0  0  0  0  0  0  0  0  0  0  0
    5.6473   -8.7216   15.3158 C   0  0  0  0  0  0  0  0  0  0  0  0
   10.7581   -3.1233   19.4720 N   0  0  0  0  0  0  0  0  0  0  0  0
    9.9571   -4.0573   16.8866 C   0  0  0  0  0  0  0  0  0  0  0  0
    7.6213   -6.5618   16.0087 C   0  0  0  0  0  0  0  0  0  0  0  0
   10.8583   -2.6527   20.7222 C   0  0  0  0  0  0  0  0  0  0  0  0
   10.6412   -3.5089   21.7936 C   0  0  0  0  0  0  0  0  0  0  0  0
   10.4972   -3.8968   24.1589 C   0  0  0  0  0  0  0  0  0  0  0  0
    5.9260   -8.2736   16.5517 C   0  0  0  0  0  0  0  0  0  0  0  0
    3.8816   -9.1166   17.2493 C   0  0  0  0  0  0  0  0  0  0  0  0
   10.1297   -1.6575   23.2324 C   0  0  0  0  0  0  0  0  0  0  0  0
    9.4684   -1.6929   26.7263 F   0  0  0  0  0  0  0  0  0  0  0  0
    7.7963   -7.7906   17.9837 C   0  0  0  0  0  0  0  0  0  0  0  0
   10.5884   -3.0725   16.7902 O   0  0  0  0  0  0  0  0  0  0  0  0
   10.4323   -5.3494   20.3516 C   0  0  0  0  0  0  0  0  0  0  0  0
    7.1156   -7.5454   16.8218 C   0  0  0  0  0  0  0  0  0  0  0  0
   10.3885   -4.4388   19.2773 C   0  0  0  0  0  0  0  0  0  0  0  0
    4.5160   -9.3822   15.0841 C   0  0  0  0  0  0  0  0  0  0  0  0
  1  3  4  0
  1 24  4  0
  2  6  4  0
  2 15  4  0
  3  5  4  0
  3  6  4  0
  4 21  4  0
  4 29  4  0
  5 15  4  0
  5 28  1  0
  6 16  4  0
  7 18  4  0
  7 26  4  0
  8 18  1  0
  8 19  4  0
  8 22  4  0
  9 12  4  0
  9 19  4  0
 10 12  4  0
 10 22  4  0
 11 20  4  0
 11 21  4  0
 12 23  1  0
 13 20  4  0
 13 29  4  0
 14 17  4  0
 14 28  4  0
 15 25  2  0
 16 27  4  0
 17 18  4  0
 20 27  1  0
 24 27  4  0
 26 28  4  0
M  END
$$$$

 Created by Python create_sdf_string function

 29 33  0  0  0  0  0  0  0  0999 V2000
    8.8270   -7.0288   18.4251 C   0  0  0  0  0  0  0  0  0  0  0  0
    9.1576   -4.6236   15.8860 O   0  0  0  0  0  0  0  0  0  0  0  0
    9.1509   -5.9108   17.7177 C   0  0  0  0  0  0  0  0  0  0  0  0
    3.6373   -9.5349   16.0582 N   0  0  0  0  0  0  0  0  0  0  0  0
    9.9275   -4.8001   18.0438 N   0  0  0  0  0  0  0  0  0  0  0  0
    8.5908   -5.7425   16.4412 C   0  0  0  0  0  0  0  0  0  0  0  0
   10.5993   -4.8981   21.6068 C   0  0  0  0  0  0  0  0  0  0  0  0
   10.4258   -3.0106   23.0998 C   0  0  0  0  0  0  0  0  0  0  0  0
   10.2148   -3.4364   25.4200 C   0  0  0  0  0  0  0  0  0  0  0  0
    9.7853   -1.1840   24.4927 C   0  0  0  0  0  0  0  0  0  0  0  0
    5.0276   -8.5227   17.5352 C   0  0  0  0  0  0  0  0  0  0  0  0
    9.8187   -2.0895   25.5800 C   0  0  0  0  0  0  0  0  0  0  0  0
    5.6473   -8.7216   15.3158 C   0  0  0  0  0  0  0  0  0  0  0  0
   10.7581   -3.1233   19.4720 N   0  0  0  0  0  0  0  0  0  0  0  0
    9.9571   -4.0573   16.8866 C   0  0  0  0  0  0  0  0  0  0  0  0
    7.6213   -6.5618   16.0087 C   0  0  0  0  0  0  0  0  0  0  0  0
   10.8583   -2.6527   20.7222 C   0  0  0  0  0  0  0  0  0  0  0  0
   10.6412   -3.5089   21.7936 C   0  0  0  0  0  0  0  0  0  0  0  0
   10.4972   -3.8968   24.1589 C   0  0  0  0  0  0  0  0  0  0  0  0
    5.9260   -8.2736   16.5517 C   0  0  0  0  0  0  0  0  0  0  0  0
    3.8816   -9.1166   17.2493 C   0  0  0  0  0  0  0  0  0  0  0  0
   10.1297   -1.6575   23.2324 C   0  0  0  0  0  0  0  0  0  0  0  0
    9.4684   -1.6929   26.7263 F   0  0  0  0  0  0  0  0  0  0  0  0
    7.7963   -7.7906   17.9837 C   0  0  0  0  0  0  0  0  0  0  0  0
   10.5884   -3.0725   16.7902 O   0  0  0  0  0  0  0  0  0  0  0  0
   10.4323   -5.3494   20.3516 C   0  0  0  0  0  0  0  0  0  0  0  0
    7.1156   -7.5454   16.8218 C   0  0  0  0  0  0  0  0  0  0  0  0
   10.3885   -4.4388   19.2773 C   0  0  0  0  0  0  0  0  0  0  0  0
    4.5160   -9.3822   15.0841 C   0  0  0  0  0  0  0  0  0  0  0  0
  1  3  4  0
  1 24  4  0
  2  6  4  0
  2 15  4  0
  3  5  4  0
  3  6  4  0
  4 21  4  0
  4 29  4  0
  5 15  4  0
  5 28  1  0
  6 16  4  0
  7 18  4  0
  7 26  4  0
  8 18  1  0
  8 19  4  0
  8 22  4  0
  9 12  4  0
  9 19  4  0
 10 12  4  0
 10 22  4  0
 11 20  4  0
 11 21  4  0
 12 23  1  0
 13 20  4  0
 13 29  4  0
 14 17  4  0
 14 28  4  0
 15 25  2  0
 16 27  4  0
 17 18  4  0
 20 27  1  0
 24 27  4  0
 26 28  4  0
M  END
$$$$

 Created by Python create_sdf_string function

 29 33  0  0  0  0  0  0  0  0999 V2000
    8.8270   -7.0288   18.4251 C   0  0  0  0  0  0  0  0  0  0  0  0
    9.1576   -4.6236   15.8860 O   0  0  0  0  0  0  0  0  0  0  0  0
    9.1509   -5.9108   17.7177 C   0  0  0  0  0  0  0  0  0  0  0  0
    3.6373   -9.5349   16.0582 N   0  0  0  0  0  0  0  0  0  0  0  0
    9.9275   -4.8001   18.0438 N   0  0  0  0  0  0  0  0  0  0  0  0
    8.5908   -5.7425   16.4412 C   0  0  0  0  0  0  0  0  0  0  0  0
   10.5993   -4.8981   21.6068 C   0  0  0  0  0  0  0  0  0  0  0  0
   10.4258   -3.0106   23.0998 C   0  0  0  0  0  0  0  0  0  0  0  0
   10.2148   -3.4364   25.4200 C   0  0  0  0  0  0  0  0  0  0  0  0
    9.7853   -1.1840   24.4927 C   0  0  0  0  0  0  0  0  0  0  0  0
    5.0276   -8.5227   17.5352 C   0  0  0  0  0  0  0  0  0  0  0  0
    9.8187   -2.0895   25.5800 C   0  0  0  0  0  0  0  0  0  0  0  0
    5.6473   -8.7216   15.3158 C   0  0  0  0  0  0  0  0  0  0  0  0
   10.7581   -3.1233   19.4720 N   0  0  0  0  0  0  0  0  0  0  0  0
    9.9571   -4.0573   16.8866 C   0  0  0  0  0  0  0  0  0  0  0  0
    7.6213   -6.5618   16.0087 C   0  0  0  0  0  0  0  0  0  0  0  0
   10.8583   -2.6527   20.7222 C   0  0  0  0  0  0  0  0  0  0  0  0
   10.6412   -3.5089   21.7936 C   0  0  0  0  0  0  0  0  0  0  0  0
   10.4972   -3.8968   24.1589 C   0  0  0  0  0  0  0  0  0  0  0  0
    5.9260   -8.2736   16.5517 C   0  0  0  0  0  0  0  0  0  0  0  0
    3.8816   -9.1166   17.2493 C   0  0  0  0  0  0  0  0  0  0  0  0
   10.1297   -1.6575   23.2324 C   0  0  0  0  0  0  0  0  0  0  0  0
    9.4684   -1.6929   26.7263 F   0  0  0  0  0  0  0  0  0  0  0  0
    7.7963   -7.7906   17.9837 C   0  0  0  0  0  0  0  0  0  0  0  0
   10.5884   -3.0725   16.7902 O   0  0  0  0  0  0  0  0  0  0  0  0
   10.4323   -5.3494   20.3516 C   0  0  0  0  0  0  0  0  0  0  0  0
    7.1156   -7.5454   16.8218 C   0  0  0  0  0  0  0  0  0  0  0  0
   10.3885   -4.4388   19.2773 C   0  0  0  0  0  0  0  0  0  0  0  0
    4.5160   -9.3822   15.0841 C   0  0  0  0  0  0  0  0  0  0  0  0
  1  3  4  0
  1 24  4  0
  2  6  4  0
  2 15  4  0
  3  5  4  0
  3  6  4  0
  4 21  4  0
  4 29  4  0
  5 15  4  0
  5 28  1  0
  6 16  4  0
  7 18  4  0
  7 26  4  0
  8 18  1  0
  8 19  4  0
  8 22  4  0
  9 12  4  0
  9 19  4  0
 10 12  4  0
 10 22  4  0
 11 20  4  0
 11 21  4  0
 12 23  1  0
 13 20  4  0
 13 29  4  0
 14 17  4  0
 14 28  4  0
 15 25  2  0
 16 27  4  0
 17 18  4  0
 20 27  1  0
 24 27  4  0
 26 28  4  0
M  END
$$$$

 Created by Python create_sdf_string function

 29 33  0  0  0  0  0  0  0  0999 V2000
    8.8270   -7.0288   18.4251 C   0  0  0  0  0  0  0  0  0  0  0  0
    9.1576   -4.6236   15.8860 O   0  0  0  0  0  0  0  0  0  0  0  0
    9.1509   -5.9108   17.7177 C   0  0  0  0  0  0  0  0  0  0  0  0
    3.6373   -9.5349   16.0582 N   0  0  0  0  0  0  0  0  0  0  0  0
    9.9275   -4.8001   18.0438 N   0  0  0  0  0  0  0  0  0  0  0  0
    8.5908   -5.7425   16.4412 C   0  0  0  0  0  0  0  0  0  0  0  0
   10.5993   -4.8981   21.6068 C   0  0  0  0  0  0  0  0  0  0  0  0
   10.4258   -3.0106   23.0998 C   0  0  0  0  0  0  0  0  0  0  0  0
   10.2148   -3.4364   25.4200 C   0  0  0  0  0  0  0  0  0  0  0  0
    9.7853   -1.1840   24.4927 C   0  0  0  0  0  0  0  0  0  0  0  0
    5.0276   -8.5227   17.5352 C   0  0  0  0  0  0  0  0  0  0  0  0
    9.8187   -2.0895   25.5800 C   0  0  0  0  0  0  0  0  0  0  0  0
    5.6473   -8.7216   15.3158 C   0  0  0  0  0  0  0  0  0  0  0  0
   10.7581   -3.1233   19.4720 N   0  0  0  0  0  0  0  0  0  0  0  0
    9.9571   -4.0573   16.8866 C   0  0  0  0  0  0  0  0  0  0  0  0
    7.6213   -6.5618   16.0087 C   0  0  0  0  0  0  0  0  0  0  0  0
   10.8583   -2.6527   20.7222 C   0  0  0  0  0  0  0  0  0  0  0  0
   10.6412   -3.5089   21.7936 C   0  0  0  0  0  0  0  0  0  0  0  0
   10.4972   -3.8968   24.1589 C   0  0  0  0  0  0  0  0  0  0  0  0
    5.9260   -8.2736   16.5517 C   0  0  0  0  0  0  0  0  0  0  0  0
    3.8816   -9.1166   17.2493 C   0  0  0  0  0  0  0  0  0  0  0  0
   10.1297   -1.6575   23.2324 C   0  0  0  0  0  0  0  0  0  0  0  0
    9.4684   -1.6929   26.7263 F   0  0  0  0  0  0  0  0  0  0  0  0
    7.7963   -7.7906   17.9837 C   0  0  0  0  0  0  0  0  0  0  0  0
   10.5884   -3.0725   16.7902 O   0  0  0  0  0  0  0  0  0  0  0  0
   10.4323   -5.3494   20.3516 C   0  0  0  0  0  0  0  0  0  0  0  0
    7.1156   -7.5454   16.8218 C   0  0  0  0  0  0  0  0  0  0  0  0
   10.3885   -4.4388   19.2773 C   0  0  0  0  0  0  0  0  0  0  0  0
    4.5160   -9.3822   15.0841 C   0  0  0  0  0  0  0  0  0  0  0  0
  1  3  4  0
  1 24  4  0
  2  6  4  0
  2 15  4  0
  3  5  4  0
  3  6  4  0
  4 21  4  0
  4 29  4  0
  5 15  4  0
  5 28  1  0
  6 16  4  0
  7 18  4  0
  7 26  4  0
  8 18  1  0
  8 19  4  0
  8 22  4  0
  9 12  4  0
  9 19  4  0
 10 12  4  0
 10 22  4  0
 11 20  4  0
 11 21  4  0
 12 23  1  0
 13 20  4  0
 13 29  4  0
 14 17  4  0
 14 28  4  0
 15 25  2  0
 16 27  4  0
 17 18  4  0
 20 27  1  0
 24 27  4  0
 26 28  4  0
M  END
$$$$

 Created by Python create_sdf_string function

 29 33  0  0  0  0  0  0  0  0999 V2000
    8.8270   -7.0288   18.4251 C   0  0  0  0  0  0  0  0  0  0  0  0
    9.1576   -4.6236   15.8860 O   0  0  0  0  0  0  0  0  0  0  0  0
    9.1509   -5.9108   17.7177 C   0  0  0  0  0  0  0  0  0  0  0  0
    3.6373   -9.5349   16.0582 N   0  0  0  0  0  0  0  0  0  0  0  0
    9.9275   -4.8001   18.0438 N   0  0  0  0  0  0  0  0  0  0  0  0
    8.5908   -5.7425   16.4412 C   0  0  0  0  0  0  0  0  0  0  0  0
   10.5993   -4.8981   21.6068 C   0  0  0  0  0  0  0  0  0  0  0  0
   10.4258   -3.0106   23.0998 C   0  0  0  0  0  0  0  0  0  0  0  0
   10.2148   -3.4364   25.4200 C   0  0  0  0  0  0  0  0  0  0  0  0
    9.7853   -1.1840   24.4927 C   0  0  0  0  0  0  0  0  0  0  0  0
    5.0276   -8.5227   17.5352 C   0  0  0  0  0  0  0  0  0  0  0  0
    9.8187   -2.0895   25.5800 C   0  0  0  0  0  0  0  0  0  0  0  0
    5.6473   -8.7216   15.3158 C   0  0  0  0  0  0  0  0  0  0  0  0
   10.7581   -3.1233   19.4720 N   0  0  0  0  0  0  0  0  0  0  0  0
    9.9571   -4.0573   16.8866 C   0  0  0  0  0  0  0  0  0  0  0  0
    7.6213   -6.5618   16.0087 C   0  0  0  0  0  0  0  0  0  0  0  0
   10.8583   -2.6527   20.7222 C   0  0  0  0  0  0  0  0  0  0  0  0
   10.6412   -3.5089   21.7936 C   0  0  0  0  0  0  0  0  0  0  0  0
   10.4972   -3.8968   24.1589 C   0  0  0  0  0  0  0  0  0  0  0  0
    5.9260   -8.2736   16.5517 C   0  0  0  0  0  0  0  0  0  0  0  0
    3.8816   -9.1166   17.2493 C   0  0  0  0  0  0  0  0  0  0  0  0
   10.1297   -1.6575   23.2324 C   0  0  0  0  0  0  0  0  0  0  0  0
    9.4684   -1.6929   26.7263 F   0  0  0  0  0  0  0  0  0  0  0  0
    7.7963   -7.7906   17.9837 C   0  0  0  0  0  0  0  0  0  0  0  0
   10.5884   -3.0725   16.7902 O   0  0  0  0  0  0  0  0  0  0  0  0
   10.4323   -5.3494   20.3516 C   0  0  0  0  0  0  0  0  0  0  0  0
    7.1156   -7.5454   16.8218 C   0  0  0  0  0  0  0  0  0  0  0  0
   10.3885   -4.4388   19.2773 C   0  0  0  0  0  0  0  0  0  0  0  0
    4.5160   -9.3822   15.0841 C   0  0  0  0  0  0  0  0  0  0  0  0
  1  3  4  0
  1 24  4  0
  2  6  4  0
  2 15  4  0
  3  5  4  0
  3  6  4  0
  4 21  4  0
  4 29  4  0
  5 15  4  0
  5 28  1  0
  6 16  4  0
  7 18  4  0
  7 26  4  0
  8 18  1  0
  8 19  4  0
  8 22  4  0
  9 12  4  0
  9 19  4  0
 10 12  4  0
 10 22  4  0
 11 20  4  0
 11 21  4  0
 12 23  1  0
 13 20  4  0
 13 29  4  0
 14 17  4  0
 14 28  4  0
 15 25  2  0
 16 27  4  0
 17 18  4  0
 20 27  1  0
 24 27  4  0
 26 28  4  0
M  END
$$$$

 Created by Python create_sdf_string function

 29 33  0  0  0  0  0  0  0  0999 V2000
    8.8270   -7.0288   18.4251 C   0  0  0  0  0  0  0  0  0  0  0  0
    9.1576   -4.6236   15.8860 O   0  0  0  0  0  0  0  0  0  0  0  0
    9.1509   -5.9108   17.7177 C   0  0  0  0  0  0  0  0  0  0  0  0
    3.6373   -9.5349   16.0582 N   0  0  0  0  0  0  0  0  0  0  0  0
    9.9275   -4.8001   18.0438 N   0  0  0  0  0  0  0  0  0  0  0  0
    8.5908   -5.7425   16.4412 C   0  0  0  0  0  0  0  0  0  0  0  0
   10.5993   -4.8981   21.6068 C   0  0  0  0  0  0  0  0  0  0  0  0
   10.4258   -3.0106   23.0998 C   0  0  0  0  0  0  0  0  0  0  0  0
   10.2148   -3.4364   25.4200 C   0  0  0  0  0  0  0  0  0  0  0  0
    9.7853   -1.1840   24.4927 C   0  0  0  0  0  0  0  0  0  0  0  0
    5.0276   -8.5227   17.5352 C   0  0  0  0  0  0  0  0  0  0  0  0
    9.8187   -2.0895   25.5800 C   0  0  0  0  0  0  0  0  0  0  0  0
    5.6473   -8.7216   15.3158 C   0  0  0  0  0  0  0  0  0  0  0  0
   10.7581   -3.1233   19.4720 N   0  0  0  0  0  0  0  0  0  0  0  0
    9.9571   -4.0573   16.8866 C   0  0  0  0  0  0  0  0  0  0  0  0
    7.6213   -6.5618   16.0087 C   0  0  0  0  0  0  0  0  0  0  0  0
   10.8583   -2.6527   20.7222 C   0  0  0  0  0  0  0  0  0  0  0  0
   10.6412   -3.5089   21.7936 C   0  0  0  0  0  0  0  0  0  0  0  0
   10.4972   -3.8968   24.1589 C   0  0  0  0  0  0  0  0  0  0  0  0
    5.9260   -8.2736   16.5517 C   0  0  0  0  0  0  0  0  0  0  0  0
    3.8816   -9.1166   17.2493 C   0  0  0  0  0  0  0  0  0  0  0  0
   10.1297   -1.6575   23.2324 C   0  0  0  0  0  0  0  0  0  0  0  0
    9.4684   -1.6929   26.7263 F   0  0  0  0  0  0  0  0  0  0  0  0
    7.7963   -7.7906   17.9837 C   0  0  0  0  0  0  0  0  0  0  0  0
   10.5884   -3.0725   16.7902 O   0  0  0  0  0  0  0  0  0  0  0  0
   10.4323   -5.3494   20.3516 C   0  0  0  0  0  0  0  0  0  0  0  0
    7.1156   -7.5454   16.8218 C   0  0  0  0  0  0  0  0  0  0  0  0
   10.3885   -4.4388   19.2773 C   0  0  0  0  0  0  0  0  0  0  0  0
    4.5160   -9.3822   15.0841 C   0  0  0  0  0  0  0  0  0  0  0  0
  1  3  4  0
  1 24  4  0
  2  6  4  0
  2 15  4  0
  3  5  4  0
  3  6  4  0
  4 21  4  0
  4 29  4  0
  5 15  4  0
  5 28  1  0
  6 16  4  0
  7 18  4  0
  7 26  4  0
  8 18  1  0
  8 19  4  0
  8 22  4  0
  9 12  4  0
  9 19  4  0
 10 12  4  0
 10 22  4  0
 11 20  4  0
 11 21  4  0
 12 23  1  0
 13 20  4  0
 13 29  4  0
 14 17  4  0
 14 28  4  0
 15 25  2  0
 16 27  4  0
 17 18  4  0
 20 27  1  0
 24 27  4  0
 26 28  4  0
M  END
$$$$

 Created by Python create_sdf_string function

 29 33  0  0  0  0  0  0  0  0999 V2000
    8.8270   -7.0288   18.4251 C   0  0  0  0  0  0  0  0  0  0  0  0
    9.1576   -4.6236   15.8860 O   0  0  0  0  0  0  0  0  0  0  0  0
    9.1509   -5.9108   17.7177 C   0  0  0  0  0  0  0  0  0  0  0  0
    3.6373   -9.5349   16.0582 N   0  0  0  0  0  0  0  0  0  0  0  0
    9.9275   -4.8001   18.0438 N   0  0  0  0  0  0  0  0  0  0  0  0
    8.5908   -5.7425   16.4412 C   0  0  0  0  0  0  0  0  0  0  0  0
   10.5993   -4.8981   21.6068 C   0  0  0  0  0  0  0  0  0  0  0  0
   10.4258   -3.0106   23.0998 C   0  0  0  0  0  0  0  0  0  0  0  0
   10.2148   -3.4364   25.4200 C   0  0  0  0  0  0  0  0  0  0  0  0
    9.7853   -1.1840   24.4927 C   0  0  0  0  0  0  0  0  0  0  0  0
    5.0276   -8.5227   17.5352 C   0  0  0  0  0  0  0  0  0  0  0  0
    9.8187   -2.0895   25.5800 C   0  0  0  0  0  0  0  0  0  0  0  0
    5.6473   -8.7216   15.3158 C   0  0  0  0  0  0  0  0  0  0  0  0
   10.7581   -3.1233   19.4720 N   0  0  0  0  0  0  0  0  0  0  0  0
    9.9571   -4.0573   16.8866 C   0  0  0  0  0  0  0  0  0  0  0  0
    7.6213   -6.5618   16.0087 C   0  0  0  0  0  0  0  0  0  0  0  0
   10.8583   -2.6527   20.7222 C   0  0  0  0  0  0  0  0  0  0  0  0
   10.6412   -3.5089   21.7936 C   0  0  0  0  0  0  0  0  0  0  0  0
   10.4972   -3.8968   24.1589 C   0  0  0  0  0  0  0  0  0  0  0  0
    5.9260   -8.2736   16.5517 C   0  0  0  0  0  0  0  0  0  0  0  0
    3.8816   -9.1166   17.2493 C   0  0  0  0  0  0  0  0  0  0  0  0
   10.1297   -1.6575   23.2324 C   0  0  0  0  0  0  0  0  0  0  0  0
    9.4684   -1.6929   26.7263 F   0  0  0  0  0  0  0  0  0  0  0  0
    7.7963   -7.7906   17.9837 C   0  0  0  0  0  0  0  0  0  0  0  0
   10.5884   -3.0725   16.7902 O   0  0  0  0  0  0  0  0  0  0  0  0
   10.4323   -5.3494   20.3516 C   0  0  0  0  0  0  0  0  0  0  0  0
    7.1156   -7.5454   16.8218 C   0  0  0  0  0  0  0  0  0  0  0  0
   10.3885   -4.4388   19.2773 C   0  0  0  0  0  0  0  0  0  0  0  0
    4.5160   -9.3822   15.0841 C   0  0  0  0  0  0  0  0  0  0  0  0
  1  3  4  0
  1 24  4  0
  2  6  4  0
  2 15  4  0
  3  5  4  0
  3  6  4  0
  4 21  4  0
  4 29  4  0
  5 15  4  0
  5 28  1  0
  6 16  4  0
  7 18  4  0
  7 26  4  0
  8 18  1  0
  8 19  4  0
  8 22  4  0
  9 12  4  0
  9 19  4  0
 10 12  4  0
 10 22  4  0
 11 20  4  0
 11 21  4  0
 12 23  1  0
 13 20  4  0
 13 29  4  0
 14 17  4  0
 14 28  4  0
 15 25  2  0
 16 27  4  0
 17 18  4  0
 20 27  1  0
 24 27  4  0
 26 28  4  0
M  END
$$$$

 Created by Python create_sdf_string function

 29 33  0  0  0  0  0  0  0  0999 V2000
    8.8270   -7.0288   18.4251 C   0  0  0  0  0  0  0  0  0  0  0  0
    9.1576   -4.6236   15.8860 O   0  0  0  0  0  0  0  0  0  0  0  0
    9.1509   -5.9108   17.7177 C   0  0  0  0  0  0  0  0  0  0  0  0
    3.6373   -9.5349   16.0582 N   0  0  0  0  0  0  0  0  0  0  0  0
    9.9275   -4.8001   18.0438 N   0  0  0  0  0  0  0  0  0  0  0  0
    8.5908   -5.7425   16.4412 C   0  0  0  0  0  0  0  0  0  0  0  0
   10.5993   -4.8981   21.6068 C   0  0  0  0  0  0  0  0  0  0  0  0
   10.4258   -3.0106   23.0998 C   0  0  0  0  0  0  0  0  0  0  0  0
   10.2148   -3.4364   25.4200 C   0  0  0  0  0  0  0  0  0  0  0  0
    9.7853   -1.1840   24.4927 C   0  0  0  0  0  0  0  0  0  0  0  0
    5.0276   -8.5227   17.5352 C   0  0  0  0  0  0  0  0  0  0  0  0
    9.8187   -2.0895   25.5800 C   0  0  0  0  0  0  0  0  0  0  0  0
    5.6473   -8.7216   15.3158 C   0  0  0  0  0  0  0  0  0  0  0  0
   10.7581   -3.1233   19.4720 N   0  0  0  0  0  0  0  0  0  0  0  0
    9.9571   -4.0573   16.8866 C   0  0  0  0  0  0  0  0  0  0  0  0
    7.6213   -6.5618   16.0087 C   0  0  0  0  0  0  0  0  0  0  0  0
   10.8583   -2.6527   20.7222 C   0  0  0  0  0  0  0  0  0  0  0  0
   10.6412   -3.5089   21.7936 C   0  0  0  0  0  0  0  0  0  0  0  0
   10.4972   -3.8968   24.1589 C   0  0  0  0  0  0  0  0  0  0  0  0
    5.9260   -8.2736   16.5517 C   0  0  0  0  0  0  0  0  0  0  0  0
    3.8816   -9.1166   17.2493 C   0  0  0  0  0  0  0  0  0  0  0  0
   10.1297   -1.6575   23.2324 C   0  0  0  0  0  0  0  0  0  0  0  0
    9.4684   -1.6929   26.7263 F   0  0  0  0  0  0  0  0  0  0  0  0
    7.7963   -7.7906   17.9837 C   0  0  0  0  0  0  0  0  0  0  0  0
   10.5884   -3.0725   16.7902 O   0  0  0  0  0  0  0  0  0  0  0  0
   10.4323   -5.3494   20.3516 C   0  0  0  0  0  0  0  0  0  0  0  0
    7.1156   -7.5454   16.8218 C   0  0  0  0  0  0  0  0  0  0  0  0
   10.3885   -4.4388   19.2773 C   0  0  0  0  0  0  0  0  0  0  0  0
    4.5160   -9.3822   15.0841 C   0  0  0  0  0  0  0  0  0  0  0  0
  1  3  4  0
  1 24  4  0
  2  6  4  0
  2 15  4  0
  3  5  4  0
  3  6  4  0
  4 21  4  0
  4 29  4  0
  5 15  4  0
  5 28  1  0
  6 16  4  0
  7 18  4  0
  7 26  4  0
  8 18  1  0
  8 19  4  0
  8 22  4  0
  9 12  4  0
  9 19  4  0
 10 12  4  0
 10 22  4  0
 11 20  4  0
 11 21  4  0
 12 23  1  0
 13 20  4  0
 13 29  4  0
 14 17  4  0
 14 28  4  0
 15 25  2  0
 16 27  4  0
 17 18  4  0
 20 27  1  0
 24 27  4  0
 26 28  4  0
M  END
$$$$

 Created by Python create_sdf_string function

 29 33  0  0  0  0  0  0  0  0999 V2000
    8.8270   -7.0288   18.4251 C   0  0  0  0  0  0  0  0  0  0  0  0
    9.1576   -4.6236   15.8860 O   0  0  0  0  0  0  0  0  0  0  0  0
    9.1509   -5.9108   17.7177 C   0  0  0  0  0  0  0  0  0  0  0  0
    3.6373   -9.5349   16.0582 N   0  0  0  0  0  0  0  0  0  0  0  0
    9.9275   -4.8001   18.0438 N   0  0  0  0  0  0  0  0  0  0  0  0
    8.5908   -5.7425   16.4412 C   0  0  0  0  0  0  0  0  0  0  0  0
   10.5993   -4.8981   21.6068 C   0  0  0  0  0  0  0  0  0  0  0  0
   10.4258   -3.0106   23.0998 C   0  0  0  0  0  0  0  0  0  0  0  0
   10.2148   -3.4364   25.4200 C   0  0  0  0  0  0  0  0  0  0  0  0
    9.7853   -1.1840   24.4927 C   0  0  0  0  0  0  0  0  0  0  0  0
    5.0276   -8.5227   17.5352 C   0  0  0  0  0  0  0  0  0  0  0  0
    9.8187   -2.0895   25.5800 C   0  0  0  0  0  0  0  0  0  0  0  0
    5.6473   -8.7216   15.3158 C   0  0  0  0  0  0  0  0  0  0  0  0
   10.7581   -3.1233   19.4720 N   0  0  0  0  0  0  0  0  0  0  0  0
    9.9571   -4.0573   16.8866 C   0  0  0  0  0  0  0  0  0  0  0  0
    7.6213   -6.5618   16.0087 C   0  0  0  0  0  0  0  0  0  0  0  0
   10.8583   -2.6527   20.7222 C   0  0  0  0  0  0  0  0  0  0  0  0
   10.6412   -3.5089   21.7936 C   0  0  0  0  0  0  0  0  0  0  0  0
   10.4972   -3.8968   24.1589 C   0  0  0  0  0  0  0  0  0  0  0  0
    5.9260   -8.2736   16.5517 C   0  0  0  0  0  0  0  0  0  0  0  0
    3.8816   -9.1166   17.2493 C   0  0  0  0  0  0  0  0  0  0  0  0
   10.1297   -1.6575   23.2324 C   0  0  0  0  0  0  0  0  0  0  0  0
    9.4684   -1.6929   26.7263 F   0  0  0  0  0  0  0  0  0  0  0  0
    7.7963   -7.7906   17.9837 C   0  0  0  0  0  0  0  0  0  0  0  0
   10.5884   -3.0725   16.7902 O   0  0  0  0  0  0  0  0  0  0  0  0
   10.4323   -5.3494   20.3516 C   0  0  0  0  0  0  0  0  0  0  0  0
    7.1156   -7.5454   16.8218 C   0  0  0  0  0  0  0  0  0  0  0  0
   10.3885   -4.4388   19.2773 C   0  0  0  0  0  0  0  0  0  0  0  0
    4.5160   -9.3822   15.0841 C   0  0  0  0  0  0  0  0  0  0  0  0
  1  3  4  0
  1 24  4  0
  2  6  4  0
  2 15  4  0
  3  5  4  0
  3  6  4  0
  4 21  4  0
  4 29  4  0
  5 15  4  0
  5 28  1  0
  6 16  4  0
  7 18  4  0
  7 26  4  0
  8 18  1  0
  8 19  4  0
  8 22  4  0
  9 12  4  0
  9 19  4  0
 10 12  4  0
 10 22  4  0
 11 20  4  0
 11 21  4  0
 12 23  1  0
 13 20  4  0
 13 29  4  0
 14 17  4  0
 14 28  4  0
 15 25  2  0
 16 27  4  0
 17 18  4  0
 20 27  1  0
 24 27  4  0
 26 28  4  0
M  END
$$$$

 Created by Python create_sdf_string function

 29 33  0  0  0  0  0  0  0  0999 V2000
    8.8270   -7.0288   18.4251 C   0  0  0  0  0  0  0  0  0  0  0  0
    9.1576   -4.6236   15.8860 O   0  0  0  0  0  0  0  0  0  0  0  0
    9.1509   -5.9108   17.7177 C   0  0  0  0  0  0  0  0  0  0  0  0
    3.6373   -9.5349   16.0582 N   0  0  0  0  0  0  0  0  0  0  0  0
    9.9275   -4.8001   18.0438 N   0  0  0  0  0  0  0  0  0  0  0  0
    8.5908   -5.7425   16.4412 C   0  0  0  0  0  0  0  0  0  0  0  0
   10.5993   -4.8981   21.6068 C   0  0  0  0  0  0  0  0  0  0  0  0
   10.4258   -3.0106   23.0998 C   0  0  0  0  0  0  0  0  0  0  0  0
   10.2148   -3.4364   25.4200 C   0  0  0  0  0  0  0  0  0  0  0  0
    9.7853   -1.1840   24.4927 C   0  0  0  0  0  0  0  0  0  0  0  0
    5.0276   -8.5227   17.5352 C   0  0  0  0  0  0  0  0  0  0  0  0
    9.8187   -2.0895   25.5800 C   0  0  0  0  0  0  0  0  0  0  0  0
    5.6473   -8.7216   15.3158 C   0  0  0  0  0  0  0  0  0  0  0  0
   10.7581   -3.1233   19.4720 N   0  0  0  0  0  0  0  0  0  0  0  0
    9.9571   -4.0573   16.8866 C   0  0  0  0  0  0  0  0  0  0  0  0
    7.6213   -6.5618   16.0087 C   0  0  0  0  0  0  0  0  0  0  0  0
   10.8583   -2.6527   20.7222 C   0  0  0  0  0  0  0  0  0  0  0  0
   10.6412   -3.5089   21.7936 C   0  0  0  0  0  0  0  0  0  0  0  0
   10.4972   -3.8968   24.1589 C   0  0  0  0  0  0  0  0  0  0  0  0
    5.9260   -8.2736   16.5517 C   0  0  0  0  0  0  0  0  0  0  0  0
    3.8816   -9.1166   17.2493 C   0  0  0  0  0  0  0  0  0  0  0  0
   10.1297   -1.6575   23.2324 C   0  0  0  0  0  0  0  0  0  0  0  0
    9.4684   -1.6929   26.7263 F   0  0  0  0  0  0  0  0  0  0  0  0
    7.7963   -7.7906   17.9837 C   0  0  0  0  0  0  0  0  0  0  0  0
   10.5884   -3.0725   16.7902 O   0  0  0  0  0  0  0  0  0  0  0  0
   10.4323   -5.3494   20.3516 C   0  0  0  0  0  0  0  0  0  0  0  0
    7.1156   -7.5454   16.8218 C   0  0  0  0  0  0  0  0  0  0  0  0
   10.3885   -4.4388   19.2773 C   0  0  0  0  0  0  0  0  0  0  0  0
    4.5160   -9.3822   15.0841 C   0  0  0  0  0  0  0  0  0  0  0  0
  1  3  4  0
  1 24  4  0
  2  6  4  0
  2 15  4  0
  3  5  4  0
  3  6  4  0
  4 21  4  0
  4 29  4  0
  5 15  4  0
  5 28  1  0
  6 16  4  0
  7 18  4  0
  7 26  4  0
  8 18  1  0
  8 19  4  0
  8 22  4  0
  9 12  4  0
  9 19  4  0
 10 12  4  0
 10 22  4  0
 11 20  4  0
 11 21  4  0
 12 23  1  0
 13 20  4  0
 13 29  4  0
 14 17  4  0
 14 28  4  0
 15 25  2  0
 16 27  4  0
 17 18  4  0
 20 27  1  0
 24 27  4  0
 26 28  4  0
M  END
$$$$

 Created by Python create_sdf_string function

 29 33  0  0  0  0  0  0  0  0999 V2000
    8.8270   -7.0288   18.4251 C   0  0  0  0  0  0  0  0  0  0  0  0
    9.1576   -4.6236   15.8860 O   0  0  0  0  0  0  0  0  0  0  0  0
    9.1509   -5.9108   17.7177 C   0  0  0  0  0  0  0  0  0  0  0  0
    3.6373   -9.5349   16.0582 N   0  0  0  0  0  0  0  0  0  0  0  0
    9.9275   -4.8001   18.0438 N   0  0  0  0  0  0  0  0  0  0  0  0
    8.5908   -5.7425   16.4412 C   0  0  0  0  0  0  0  0  0  0  0  0
   10.5993   -4.8981   21.6068 C   0  0  0  0  0  0  0  0  0  0  0  0
   10.4258   -3.0106   23.0998 C   0  0  0  0  0  0  0  0  0  0  0  0
   10.2148   -3.4364   25.4200 C   0  0  0  0  0  0  0  0  0  0  0  0
    9.7853   -1.1840   24.4927 C   0  0  0  0  0  0  0  0  0  0  0  0
    5.0276   -8.5227   17.5352 C   0  0  0  0  0  0  0  0  0  0  0  0
    9.8187   -2.0895   25.5800 C   0  0  0  0  0  0  0  0  0  0  0  0
    5.6473   -8.7216   15.3158 C   0  0  0  0  0  0  0  0  0  0  0  0
   10.7581   -3.1233   19.4720 N   0  0  0  0  0  0  0  0  0  0  0  0
    9.9571   -4.0573   16.8866 C   0  0  0  0  0  0  0  0  0  0  0  0
    7.6213   -6.5618   16.0087 C   0  0  0  0  0  0  0  0  0  0  0  0
   10.8583   -2.6527   20.7222 C   0  0  0  0  0  0  0  0  0  0  0  0
   10.6412   -3.5089   21.7936 C   0  0  0  0  0  0  0  0  0  0  0  0
   10.4972   -3.8968   24.1589 C   0  0  0  0  0  0  0  0  0  0  0  0
    5.9260   -8.2736   16.5517 C   0  0  0  0  0  0  0  0  0  0  0  0
    3.8816   -9.1166   17.2493 C   0  0  0  0  0  0  0  0  0  0  0  0
   10.1297   -1.6575   23.2324 C   0  0  0  0  0  0  0  0  0  0  0  0
    9.4684   -1.6929   26.7263 F   0  0  0  0  0  0  0  0  0  0  0  0
    7.7963   -7.7906   17.9837 C   0  0  0  0  0  0  0  0  0  0  0  0
   10.5884   -3.0725   16.7902 O   0  0  0  0  0  0  0  0  0  0  0  0
   10.4323   -5.3494   20.3516 C   0  0  0  0  0  0  0  0  0  0  0  0
    7.1156   -7.5454   16.8218 C   0  0  0  0  0  0  0  0  0  0  0  0
   10.3885   -4.4388   19.2773 C   0  0  0  0  0  0  0  0  0  0  0  0
    4.5160   -9.3822   15.0841 C   0  0  0  0  0  0  0  0  0  0  0  0
  1  3  4  0
  1 24  4  0
  2  6  4  0
  2 15  4  0
  3  5  4  0
  3  6  4  0
  4 21  4  0
  4 29  4  0
  5 15  4  0
  5 28  1  0
  6 16  4  0
  7 18  4  0
  7 26  4  0
  8 18  1  0
  8 19  4  0
  8 22  4  0
  9 12  4  0
  9 19  4  0
 10 12  4  0
 10 22  4  0
 11 20  4  0
 11 21  4  0
 12 23  1  0
 13 20  4  0
 13 29  4  0
 14 17  4  0
 14 28  4  0
 15 25  2  0
 16 27  4  0
 17 18  4  0
 20 27  1  0
 24 27  4  0
 26 28  4  0
M  END
$$$$

 Created by Python create_sdf_string function

 29 33  0  0  0  0  0  0  0  0999 V2000
    8.8270   -7.0288   18.4251 C   0  0  0  0  0  0  0  0  0  0  0  0
    9.1576   -4.6236   15.8860 O   0  0  0  0  0  0  0  0  0  0  0  0
    9.1509   -5.9108   17.7177 C   0  0  0  0  0  0  0  0  0  0  0  0
    3.6373   -9.5349   16.0582 N   0  0  0  0  0  0  0  0  0  0  0  0
    9.9275   -4.8001   18.0438 N   0  0  0  0  0  0  0  0  0  0  0  0
    8.5908   -5.7425   16.4412 C   0  0  0  0  0  0  0  0  0  0  0  0
   10.5993   -4.8981   21.6068 C   0  0  0  0  0  0  0  0  0  0  0  0
   10.4258   -3.0106   23.0998 C   0  0  0  0  0  0  0  0  0  0  0  0
   10.2148   -3.4364   25.4200 C   0  0  0  0  0  0  0  0  0  0  0  0
    9.7853   -1.1840   24.4927 C   0  0  0  0  0  0  0  0  0  0  0  0
    5.0276   -8.5227   17.5352 C   0  0  0  0  0  0  0  0  0  0  0  0
    9.8187   -2.0895   25.5800 C   0  0  0  0  0  0  0  0  0  0  0  0
    5.6473   -8.7216   15.3158 C   0  0  0  0  0  0  0  0  0  0  0  0
   10.7581   -3.1233   19.4720 N   0  0  0  0  0  0  0  0  0  0  0  0
    9.9571   -4.0573   16.8866 C   0  0  0  0  0  0  0  0  0  0  0  0
    7.6213   -6.5618   16.0087 C   0  0  0  0  0  0  0  0  0  0  0  0
   10.8583   -2.6527   20.7222 C   0  0  0  0  0  0  0  0  0  0  0  0
   10.6412   -3.5089   21.7936 C   0  0  0  0  0  0  0  0  0  0  0  0
   10.4972   -3.8968   24.1589 C   0  0  0  0  0  0  0  0  0  0  0  0
    5.9260   -8.2736   16.5517 C   0  0  0  0  0  0  0  0  0  0  0  0
    3.8816   -9.1166   17.2493 C   0  0  0  0  0  0  0  0  0  0  0  0
   10.1297   -1.6575   23.2324 C   0  0  0  0  0  0  0  0  0  0  0  0
    9.4684   -1.6929   26.7263 F   0  0  0  0  0  0  0  0  0  0  0  0
    7.7963   -7.7906   17.9837 C   0  0  0  0  0  0  0  0  0  0  0  0
   10.5884   -3.0725   16.7902 O   0  0  0  0  0  0  0  0  0  0  0  0
   10.4323   -5.3494   20.3516 C   0  0  0  0  0  0  0  0  0  0  0  0
    7.1156   -7.5454   16.8218 C   0  0  0  0  0  0  0  0  0  0  0  0
   10.3885   -4.4388   19.2773 C   0  0  0  0  0  0  0  0  0  0  0  0
    4.5160   -9.3822   15.0841 C   0  0  0  0  0  0  0  0  0  0  0  0
  1  3  4  0
  1 24  4  0
  2  6  4  0
  2 15  4  0
  3  5  4  0
  3  6  4  0
  4 21  4  0
  4 29  4  0
  5 15  4  0
  5 28  1  0
  6 16  4  0
  7 18  4  0
  7 26  4  0
  8 18  1  0
  8 19  4  0
  8 22  4  0
  9 12  4  0
  9 19  4  0
 10 12  4  0
 10 22  4  0
 11 20  4  0
 11 21  4  0
 12 23  1  0
 13 20  4  0
 13 29  4  0
 14 17  4  0
 14 28  4  0
 15 25  2  0
 16 27  4  0
 17 18  4  0
 20 27  1  0
 24 27  4  0
 26 28  4  0
M  END
$$$$

 Created by Python create_sdf_string function

 29 33  0  0  0  0  0  0  0  0999 V2000
    8.8270   -7.0288   18.4251 C   0  0  0  0  0  0  0  0  0  0  0  0
    9.1576   -4.6236   15.8860 O   0  0  0  0  0  0  0  0  0  0  0  0
    9.1509   -5.9108   17.7177 C   0  0  0  0  0  0  0  0  0  0  0  0
    3.6373   -9.5349   16.0582 N   0  0  0  0  0  0  0  0  0  0  0  0
    9.9275   -4.8001   18.0438 N   0  0  0  0  0  0  0  0  0  0  0  0
    8.5908   -5.7425   16.4412 C   0  0  0  0  0  0  0  0  0  0  0  0
   10.5993   -4.8981   21.6068 C   0  0  0  0  0  0  0  0  0  0  0  0
   10.4258   -3.0106   23.0998 C   0  0  0  0  0  0  0  0  0  0  0  0
   10.2148   -3.4364   25.4200 C   0  0  0  0  0  0  0  0  0  0  0  0
    9.7853   -1.1840   24.4927 C   0  0  0  0  0  0  0  0  0  0  0  0
    5.0276   -8.5227   17.5352 C   0  0  0  0  0  0  0  0  0  0  0  0
    9.8187   -2.0895   25.5800 C   0  0  0  0  0  0  0  0  0  0  0  0
    5.6473   -8.7216   15.3158 C   0  0  0  0  0  0  0  0  0  0  0  0
   10.7581   -3.1233   19.4720 N   0  0  0  0  0  0  0  0  0  0  0  0
    9.9571   -4.0573   16.8866 C   0  0  0  0  0  0  0  0  0  0  0  0
    7.6213   -6.5618   16.0087 C   0  0  0  0  0  0  0  0  0  0  0  0
   10.8583   -2.6527   20.7222 C   0  0  0  0  0  0  0  0  0  0  0  0
   10.6412   -3.5089   21.7936 C   0  0  0  0  0  0  0  0  0  0  0  0
   10.4972   -3.8968   24.1589 C   0  0  0  0  0  0  0  0  0  0  0  0
    5.9260   -8.2736   16.5517 C   0  0  0  0  0  0  0  0  0  0  0  0
    3.8816   -9.1166   17.2493 C   0  0  0  0  0  0  0  0  0  0  0  0
   10.1297   -1.6575   23.2324 C   0  0  0  0  0  0  0  0  0  0  0  0
    9.4684   -1.6929   26.7263 F   0  0  0  0  0  0  0  0  0  0  0  0
    7.7963   -7.7906   17.9837 C   0  0  0  0  0  0  0  0  0  0  0  0
   10.5884   -3.0725   16.7902 O   0  0  0  0  0  0  0  0  0  0  0  0
   10.4323   -5.3494   20.3516 C   0  0  0  0  0  0  0  0  0  0  0  0
    7.1156   -7.5454   16.8218 C   0  0  0  0  0  0  0  0  0  0  0  0
   10.3885   -4.4388   19.2773 C   0  0  0  0  0  0  0  0  0  0  0  0
    4.5160   -9.3822   15.0841 C   0  0  0  0  0  0  0  0  0  0  0  0
  1  3  4  0
  1 24  4  0
  2  6  4  0
  2 15  4  0
  3  5  4  0
  3  6  4  0
  4 21  4  0
  4 29  4  0
  5 15  4  0
  5 28  1  0
  6 16  4  0
  7 18  4  0
  7 26  4  0
  8 18  1  0
  8 19  4  0
  8 22  4  0
  9 12  4  0
  9 19  4  0
 10 12  4  0
 10 22  4  0
 11 20  4  0
 11 21  4  0
 12 23  1  0
 13 20  4  0
 13 29  4  0
 14 17  4  0
 14 28  4  0
 15 25  2  0
 16 27  4  0
 17 18  4  0
 20 27  1  0
 24 27  4  0
 26 28  4  0
M  END
$$$$

 Created by Python create_sdf_string function

 29 33  0  0  0  0  0  0  0  0999 V2000
    8.8270   -7.0288   18.4251 C   0  0  0  0  0  0  0  0  0  0  0  0
    9.1576   -4.6236   15.8860 O   0  0  0  0  0  0  0  0  0  0  0  0
    9.1509   -5.9108   17.7177 C   0  0  0  0  0  0  0  0  0  0  0  0
    3.6373   -9.5349   16.0582 N   0  0  0  0  0  0  0  0  0  0  0  0
    9.9275   -4.8001   18.0438 N   0  0  0  0  0  0  0  0  0  0  0  0
    8.5908   -5.7425   16.4412 C   0  0  0  0  0  0  0  0  0  0  0  0
   10.5993   -4.8981   21.6068 C   0  0  0  0  0  0  0  0  0  0  0  0
   10.4258   -3.0106   23.0998 C   0  0  0  0  0  0  0  0  0  0  0  0
   10.2148   -3.4364   25.4200 C   0  0  0  0  0  0  0  0  0  0  0  0
    9.7853   -1.1840   24.4927 C   0  0  0  0  0  0  0  0  0  0  0  0
    5.0276   -8.5227   17.5352 C   0  0  0  0  0  0  0  0  0  0  0  0
    9.8187   -2.0895   25.5800 C   0  0  0  0  0  0  0  0  0  0  0  0
    5.6473   -8.7216   15.3158 C   0  0  0  0  0  0  0  0  0  0  0  0
   10.7581   -3.1233   19.4720 N   0  0  0  0  0  0  0  0  0  0  0  0
    9.9571   -4.0573   16.8866 C   0  0  0  0  0  0  0  0  0  0  0  0
    7.6213   -6.5618   16.0087 C   0  0  0  0  0  0  0  0  0  0  0  0
   10.8583   -2.6527   20.7222 C   0  0  0  0  0  0  0  0  0  0  0  0
   10.6412   -3.5089   21.7936 C   0  0  0  0  0  0  0  0  0  0  0  0
   10.4972   -3.8968   24.1589 C   0  0  0  0  0  0  0  0  0  0  0  0
    5.9260   -8.2736   16.5517 C   0  0  0  0  0  0  0  0  0  0  0  0
    3.8816   -9.1166   17.2493 C   0  0  0  0  0  0  0  0  0  0  0  0
   10.1297   -1.6575   23.2324 C   0  0  0  0  0  0  0  0  0  0  0  0
    9.4684   -1.6929   26.7263 F   0  0  0  0  0  0  0  0  0  0  0  0
    7.7963   -7.7906   17.9837 C   0  0  0  0  0  0  0  0  0  0  0  0
   10.5884   -3.0725   16.7902 O   0  0  0  0  0  0  0  0  0  0  0  0
   10.4323   -5.3494   20.3516 C   0  0  0  0  0  0  0  0  0  0  0  0
    7.1156   -7.5454   16.8218 C   0  0  0  0  0  0  0  0  0  0  0  0
   10.3885   -4.4388   19.2773 C   0  0  0  0  0  0  0  0  0  0  0  0
    4.5160   -9.3822   15.0841 C   0  0  0  0  0  0  0  0  0  0  0  0
  1  3  4  0
  1 24  4  0
  2  6  4  0
  2 15  4  0
  3  5  4  0
  3  6  4  0
  4 21  4  0
  4 29  4  0
  5 15  4  0
  5 28  1  0
  6 16  4  0
  7 18  4  0
  7 26  4  0
  8 18  1  0
  8 19  4  0
  8 22  4  0
  9 12  4  0
  9 19  4  0
 10 12  4  0
 10 22  4  0
 11 20  4  0
 11 21  4  0
 12 23  1  0
 13 20  4  0
 13 29  4  0
 14 17  4  0
 14 28  4  0
 15 25  2  0
 16 27  4  0
 17 18  4  0
 20 27  1  0
 24 27  4  0
 26 28  4  0
M  END
$$$$

 Created by Python create_sdf_string function

 29 33  0  0  0  0  0  0  0  0999 V2000
    8.8270   -7.0288   18.4251 C   0  0  0  0  0  0  0  0  0  0  0  0
    9.1576   -4.6236   15.8860 O   0  0  0  0  0  0  0  0  0  0  0  0
    9.1509   -5.9108   17.7177 C   0  0  0  0  0  0  0  0  0  0  0  0
    3.6373   -9.5349   16.0582 N   0  0  0  0  0  0  0  0  0  0  0  0
    9.9275   -4.8001   18.0438 N   0  0  0  0  0  0  0  0  0  0  0  0
    8.5908   -5.7425   16.4412 C   0  0  0  0  0  0  0  0  0  0  0  0
   10.5993   -4.8981   21.6068 C   0  0  0  0  0  0  0  0  0  0  0  0
   10.4258   -3.0106   23.0998 C   0  0  0  0  0  0  0  0  0  0  0  0
   10.2148   -3.4364   25.4200 C   0  0  0  0  0  0  0  0  0  0  0  0
    9.7853   -1.1840   24.4927 C   0  0  0  0  0  0  0  0  0  0  0  0
    5.0276   -8.5227   17.5352 C   0  0  0  0  0  0  0  0  0  0  0  0
    9.8187   -2.0895   25.5800 C   0  0  0  0  0  0  0  0  0  0  0  0
    5.6473   -8.7216   15.3158 C   0  0  0  0  0  0  0  0  0  0  0  0
   10.7581   -3.1233   19.4720 N   0  0  0  0  0  0  0  0  0  0  0  0
    9.9571   -4.0573   16.8866 C   0  0  0  0  0  0  0  0  0  0  0  0
    7.6213   -6.5618   16.0087 C   0  0  0  0  0  0  0  0  0  0  0  0
   10.8583   -2.6527   20.7222 C   0  0  0  0  0  0  0  0  0  0  0  0
   10.6412   -3.5089   21.7936 C   0  0  0  0  0  0  0  0  0  0  0  0
   10.4972   -3.8968   24.1589 C   0  0  0  0  0  0  0  0  0  0  0  0
    5.9260   -8.2736   16.5517 C   0  0  0  0  0  0  0  0  0  0  0  0
    3.8816   -9.1166   17.2493 C   0  0  0  0  0  0  0  0  0  0  0  0
   10.1297   -1.6575   23.2324 C   0  0  0  0  0  0  0  0  0  0  0  0
    9.4684   -1.6929   26.7263 F   0  0  0  0  0  0  0  0  0  0  0  0
    7.7963   -7.7906   17.9837 C   0  0  0  0  0  0  0  0  0  0  0  0
   10.5884   -3.0725   16.7902 O   0  0  0  0  0  0  0  0  0  0  0  0
   10.4323   -5.3494   20.3516 C   0  0  0  0  0  0  0  0  0  0  0  0
    7.1156   -7.5454   16.8218 C   0  0  0  0  0  0  0  0  0  0  0  0
   10.3885   -4.4388   19.2773 C   0  0  0  0  0  0  0  0  0  0  0  0
    4.5160   -9.3822   15.0841 C   0  0  0  0  0  0  0  0  0  0  0  0
  1  3  4  0
  1 24  4  0
  2  6  4  0
  2 15  4  0
  3  5  4  0
  3  6  4  0
  4 21  4  0
  4 29  4  0
  5 15  4  0
  5 28  1  0
  6 16  4  0
  7 18  4  0
  7 26  4  0
  8 18  1  0
  8 19  4  0
  8 22  4  0
  9 12  4  0
  9 19  4  0
 10 12  4  0
 10 22  4  0
 11 20  4  0
 11 21  4  0
 12 23  1  0
 13 20  4  0
 13 29  4  0
 14 17  4  0
 14 28  4  0
 15 25  2  0
 16 27  4  0
 17 18  4  0
 20 27  1  0
 24 27  4  0
 26 28  4  0
M  END
$$$$

 Created by Python create_sdf_string function

 29 33  0  0  0  0  0  0  0  0999 V2000
    8.8270   -7.0288   18.4251 C   0  0  0  0  0  0  0  0  0  0  0  0
    9.1576   -4.6236   15.8860 O   0  0  0  0  0  0  0  0  0  0  0  0
    9.1509   -5.9108   17.7177 C   0  0  0  0  0  0  0  0  0  0  0  0
    3.6373   -9.5349   16.0582 N   0  0  0  0  0  0  0  0  0  0  0  0
    9.9275   -4.8001   18.0438 N   0  0  0  0  0  0  0  0  0  0  0  0
    8.5908   -5.7425   16.4412 C   0  0  0  0  0  0  0  0  0  0  0  0
   10.5993   -4.8981   21.6068 C   0  0  0  0  0  0  0  0  0  0  0  0
   10.4258   -3.0106   23.0998 C   0  0  0  0  0  0  0  0  0  0  0  0
   10.2148   -3.4364   25.4200 C   0  0  0  0  0  0  0  0  0  0  0  0
    9.7853   -1.1840   24.4927 C   0  0  0  0  0  0  0  0  0  0  0  0
    5.0276   -8.5227   17.5352 C   0  0  0  0  0  0  0  0  0  0  0  0
    9.8187   -2.0895   25.5800 C   0  0  0  0  0  0  0  0  0  0  0  0
    5.6473   -8.7216   15.3158 C   0  0  0  0  0  0  0  0  0  0  0  0
   10.7581   -3.1233   19.4720 N   0  0  0  0  0  0  0  0  0  0  0  0
    9.9571   -4.0573   16.8866 C   0  0  0  0  0  0  0  0  0  0  0  0
    7.6213   -6.5618   16.0087 C   0  0  0  0  0  0  0  0  0  0  0  0
   10.8583   -2.6527   20.7222 C   0  0  0  0  0  0  0  0  0  0  0  0
   10.6412   -3.5089   21.7936 C   0  0  0  0  0  0  0  0  0  0  0  0
   10.4972   -3.8968   24.1589 C   0  0  0  0  0  0  0  0  0  0  0  0
    5.9260   -8.2736   16.5517 C   0  0  0  0  0  0  0  0  0  0  0  0
    3.8816   -9.1166   17.2493 C   0  0  0  0  0  0  0  0  0  0  0  0
   10.1297   -1.6575   23.2324 C   0  0  0  0  0  0  0  0  0  0  0  0
    9.4684   -1.6929   26.7263 F   0  0  0  0  0  0  0  0  0  0  0  0
    7.7963   -7.7906   17.9837 C   0  0  0  0  0  0  0  0  0  0  0  0
   10.5884   -3.0725   16.7902 O   0  0  0  0  0  0  0  0  0  0  0  0
   10.4323   -5.3494   20.3516 C   0  0  0  0  0  0  0  0  0  0  0  0
    7.1156   -7.5454   16.8218 C   0  0  0  0  0  0  0  0  0  0  0  0
   10.3885   -4.4388   19.2773 C   0  0  0  0  0  0  0  0  0  0  0  0
    4.5160   -9.3822   15.0841 C   0  0  0  0  0  0  0  0  0  0  0  0
  1  3  4  0
  1 24  4  0
  2  6  4  0
  2 15  4  0
  3  5  4  0
  3  6  4  0
  4 21  4  0
  4 29  4  0
  5 15  4  0
  5 28  1  0
  6 16  4  0
  7 18  4  0
  7 26  4  0
  8 18  1  0
  8 19  4  0
  8 22  4  0
  9 12  4  0
  9 19  4  0
 10 12  4  0
 10 22  4  0
 11 20  4  0
 11 21  4  0
 12 23  1  0
 13 20  4  0
 13 29  4  0
 14 17  4  0
 14 28  4  0
 15 25  2  0
 16 27  4  0
 17 18  4  0
 20 27  1  0
 24 27  4  0
 26 28  4  0
M  END
$$$$

 Created by Python create_sdf_string function

 29 33  0  0  0  0  0  0  0  0999 V2000
    8.8270   -7.0288   18.4251 C   0  0  0  0  0  0  0  0  0  0  0  0
    9.1576   -4.6236   15.8860 O   0  0  0  0  0  0  0  0  0  0  0  0
    9.1509   -5.9108   17.7177 C   0  0  0  0  0  0  0  0  0  0  0  0
    3.6373   -9.5349   16.0582 N   0  0  0  0  0  0  0  0  0  0  0  0
    9.9275   -4.8001   18.0438 N   0  0  0  0  0  0  0  0  0  0  0  0
    8.5908   -5.7425   16.4412 C   0  0  0  0  0  0  0  0  0  0  0  0
   10.5993   -4.8981   21.6068 C   0  0  0  0  0  0  0  0  0  0  0  0
   10.4258   -3.0106   23.0998 C   0  0  0  0  0  0  0  0  0  0  0  0
   10.2148   -3.4364   25.4200 C   0  0  0  0  0  0  0  0  0  0  0  0
    9.7853   -1.1840   24.4927 C   0  0  0  0  0  0  0  0  0  0  0  0
    5.0276   -8.5227   17.5352 C   0  0  0  0  0  0  0  0  0  0  0  0
    9.8187   -2.0895   25.5800 C   0  0  0  0  0  0  0  0  0  0  0  0
    5.6473   -8.7216   15.3158 C   0  0  0  0  0  0  0  0  0  0  0  0
   10.7581   -3.1233   19.4720 N   0  0  0  0  0  0  0  0  0  0  0  0
    9.9571   -4.0573   16.8866 C   0  0  0  0  0  0  0  0  0  0  0  0
    7.6213   -6.5618   16.0087 C   0  0  0  0  0  0  0  0  0  0  0  0
   10.8583   -2.6527   20.7222 C   0  0  0  0  0  0  0  0  0  0  0  0
   10.6412   -3.5089   21.7936 C   0  0  0  0  0  0  0  0  0  0  0  0
   10.4972   -3.8968   24.1589 C   0  0  0  0  0  0  0  0  0  0  0  0
    5.9260   -8.2736   16.5517 C   0  0  0  0  0  0  0  0  0  0  0  0
    3.8816   -9.1166   17.2493 C   0  0  0  0  0  0  0  0  0  0  0  0
   10.1297   -1.6575   23.2324 C   0  0  0  0  0  0  0  0  0  0  0  0
    9.4684   -1.6929   26.7263 F   0  0  0  0  0  0  0  0  0  0  0  0
    7.7963   -7.7906   17.9837 C   0  0  0  0  0  0  0  0  0  0  0  0
   10.5884   -3.0725   16.7902 O   0  0  0  0  0  0  0  0  0  0  0  0
   10.4323   -5.3494   20.3516 C   0  0  0  0  0  0  0  0  0  0  0  0
    7.1156   -7.5454   16.8218 C   0  0  0  0  0  0  0  0  0  0  0  0
   10.3885   -4.4388   19.2773 C   0  0  0  0  0  0  0  0  0  0  0  0
    4.5160   -9.3822   15.0841 C   0  0  0  0  0  0  0  0  0  0  0  0
  1  3  4  0
  1 24  4  0
  2  6  4  0
  2 15  4  0
  3  5  4  0
  3  6  4  0
  4 21  4  0
  4 29  4  0
  5 15  4  0
  5 28  1  0
  6 16  4  0
  7 18  4  0
  7 26  4  0
  8 18  1  0
  8 19  4  0
  8 22  4  0
  9 12  4  0
  9 19  4  0
 10 12  4  0
 10 22  4  0
 11 20  4  0
 11 21  4  0
 12 23  1  0
 13 20  4  0
 13 29  4  0
 14 17  4  0
 14 28  4  0
 15 25  2  0
 16 27  4  0
 17 18  4  0
 20 27  1  0
 24 27  4  0
 26 28  4  0
M  END
$$$$

 Created by Python create_sdf_string function

 29 33  0  0  0  0  0  0  0  0999 V2000
    8.8270   -7.0288   18.4251 C   0  0  0  0  0  0  0  0  0  0  0  0
    9.1576   -4.6236   15.8860 O   0  0  0  0  0  0  0  0  0  0  0  0
    9.1509   -5.9108   17.7177 C   0  0  0  0  0  0  0  0  0  0  0  0
    3.6373   -9.5349   16.0582 N   0  0  0  0  0  0  0  0  0  0  0  0
    9.9275   -4.8001   18.0438 N   0  0  0  0  0  0  0  0  0  0  0  0
    8.5908   -5.7425   16.4412 C   0  0  0  0  0  0  0  0  0  0  0  0
   10.5993   -4.8981   21.6068 C   0  0  0  0  0  0  0  0  0  0  0  0
   10.4258   -3.0106   23.0998 C   0  0  0  0  0  0  0  0  0  0  0  0
   10.2148   -3.4364   25.4200 C   0  0  0  0  0  0  0  0  0  0  0  0
    9.7853   -1.1840   24.4927 C   0  0  0  0  0  0  0  0  0  0  0  0
    5.0276   -8.5227   17.5352 C   0  0  0  0  0  0  0  0  0  0  0  0
    9.8187   -2.0895   25.5800 C   0  0  0  0  0  0  0  0  0  0  0  0
    5.6473   -8.7216   15.3158 C   0  0  0  0  0  0  0  0  0  0  0  0
   10.7581   -3.1233   19.4720 N   0  0  0  0  0  0  0  0  0  0  0  0
    9.9571   -4.0573   16.8866 C   0  0  0  0  0  0  0  0  0  0  0  0
    7.6213   -6.5618   16.0087 C   0  0  0  0  0  0  0  0  0  0  0  0
   10.8583   -2.6527   20.7222 C   0  0  0  0  0  0  0  0  0  0  0  0
   10.6412   -3.5089   21.7936 C   0  0  0  0  0  0  0  0  0  0  0  0
   10.4972   -3.8968   24.1589 C   0  0  0  0  0  0  0  0  0  0  0  0
    5.9260   -8.2736   16.5517 C   0  0  0  0  0  0  0  0  0  0  0  0
    3.8816   -9.1166   17.2493 C   0  0  0  0  0  0  0  0  0  0  0  0
   10.1297   -1.6575   23.2324 C   0  0  0  0  0  0  0  0  0  0  0  0
    9.4684   -1.6929   26.7263 F   0  0  0  0  0  0  0  0  0  0  0  0
    7.7963   -7.7906   17.9837 C   0  0  0  0  0  0  0  0  0  0  0  0
   10.5884   -3.0725   16.7902 O   0  0  0  0  0  0  0  0  0  0  0  0
   10.4323   -5.3494   20.3516 C   0  0  0  0  0  0  0  0  0  0  0  0
    7.1156   -7.5454   16.8218 C   0  0  0  0  0  0  0  0  0  0  0  0
   10.3885   -4.4388   19.2773 C   0  0  0  0  0  0  0  0  0  0  0  0
    4.5160   -9.3822   15.0841 C   0  0  0  0  0  0  0  0  0  0  0  0
  1  3  4  0
  1 24  4  0
  2  6  4  0
  2 15  4  0
  3  5  4  0
  3  6  4  0
  4 21  4  0
  4 29  4  0
  5 15  4  0
  5 28  1  0
  6 16  4  0
  7 18  4  0
  7 26  4  0
  8 18  1  0
  8 19  4  0
  8 22  4  0
  9 12  4  0
  9 19  4  0
 10 12  4  0
 10 22  4  0
 11 20  4  0
 11 21  4  0
 12 23  1  0
 13 20  4  0
 13 29  4  0
 14 17  4  0
 14 28  4  0
 15 25  2  0
 16 27  4  0
 17 18  4  0
 20 27  1  0
 24 27  4  0
 26 28  4  0
M  END
$$$$

 Created by Python create_sdf_string function

 29 33  0  0  0  0  0  0  0  0999 V2000
    8.8270   -7.0288   18.4251 C   0  0  0  0  0  0  0  0  0  0  0  0
    9.1576   -4.6236   15.8860 O   0  0  0  0  0  0  0  0  0  0  0  0
    9.1509   -5.9108   17.7177 C   0  0  0  0  0  0  0  0  0  0  0  0
    3.6373   -9.5349   16.0582 N   0  0  0  0  0  0  0  0  0  0  0  0
    9.9275   -4.8001   18.0438 N   0  0  0  0  0  0  0  0  0  0  0  0
    8.5908   -5.7425   16.4412 C   0  0  0  0  0  0  0  0  0  0  0  0
   10.5993   -4.8981   21.6068 C   0  0  0  0  0  0  0  0  0  0  0  0
   10.4258   -3.0106   23.0998 C   0  0  0  0  0  0  0  0  0  0  0  0
   10.2148   -3.4364   25.4200 C   0  0  0  0  0  0  0  0  0  0  0  0
    9.7853   -1.1840   24.4927 C   0  0  0  0  0  0  0  0  0  0  0  0
    5.0276   -8.5227   17.5352 C   0  0  0  0  0  0  0  0  0  0  0  0
    9.8187   -2.0895   25.5800 C   0  0  0  0  0  0  0  0  0  0  0  0
    5.6473   -8.7216   15.3158 C   0  0  0  0  0  0  0  0  0  0  0  0
   10.7581   -3.1233   19.4720 N   0  0  0  0  0  0  0  0  0  0  0  0
    9.9571   -4.0573   16.8866 C   0  0  0  0  0  0  0  0  0  0  0  0
    7.6213   -6.5618   16.0087 C   0  0  0  0  0  0  0  0  0  0  0  0
   10.8583   -2.6527   20.7222 C   0  0  0  0  0  0  0  0  0  0  0  0
   10.6412   -3.5089   21.7936 C   0  0  0  0  0  0  0  0  0  0  0  0
   10.4972   -3.8968   24.1589 C   0  0  0  0  0  0  0  0  0  0  0  0
    5.9260   -8.2736   16.5517 C   0  0  0  0  0  0  0  0  0  0  0  0
    3.8816   -9.1166   17.2493 C   0  0  0  0  0  0  0  0  0  0  0  0
   10.1297   -1.6575   23.2324 C   0  0  0  0  0  0  0  0  0  0  0  0
    9.4684   -1.6929   26.7263 F   0  0  0  0  0  0  0  0  0  0  0  0
    7.7963   -7.7906   17.9837 C   0  0  0  0  0  0  0  0  0  0  0  0
   10.5884   -3.0725   16.7902 O   0  0  0  0  0  0  0  0  0  0  0  0
   10.4323   -5.3494   20.3516 C   0  0  0  0  0  0  0  0  0  0  0  0
    7.1156   -7.5454   16.8218 C   0  0  0  0  0  0  0  0  0  0  0  0
   10.3885   -4.4388   19.2773 C   0  0  0  0  0  0  0  0  0  0  0  0
    4.5160   -9.3822   15.0841 C   0  0  0  0  0  0  0  0  0  0  0  0
  1  3  4  0
  1 24  4  0
  2  6  4  0
  2 15  4  0
  3  5  4  0
  3  6  4  0
  4 21  4  0
  4 29  4  0
  5 15  4  0
  5 28  1  0
  6 16  4  0
  7 18  4  0
  7 26  4  0
  8 18  1  0
  8 19  4  0
  8 22  4  0
  9 12  4  0
  9 19  4  0
 10 12  4  0
 10 22  4  0
 11 20  4  0
 11 21  4  0
 12 23  1  0
 13 20  4  0
 13 29  4  0
 14 17  4  0
 14 28  4  0
 15 25  2  0
 16 27  4  0
 17 18  4  0
 20 27  1  0
 24 27  4  0
 26 28  4  0
M  END
$$$$

 Created by Python create_sdf_string function

 29 33  0  0  0  0  0  0  0  0999 V2000
    8.8270   -7.0288   18.4251 C   0  0  0  0  0  0  0  0  0  0  0  0
    9.1576   -4.6236   15.8860 O   0  0  0  0  0  0  0  0  0  0  0  0
    9.1509   -5.9108   17.7177 C   0  0  0  0  0  0  0  0  0  0  0  0
    3.6373   -9.5349   16.0582 N   0  0  0  0  0  0  0  0  0  0  0  0
    9.9275   -4.8001   18.0438 N   0  0  0  0  0  0  0  0  0  0  0  0
    8.5908   -5.7425   16.4412 C   0  0  0  0  0  0  0  0  0  0  0  0
   10.5993   -4.8981   21.6068 C   0  0  0  0  0  0  0  0  0  0  0  0
   10.4258   -3.0106   23.0998 C   0  0  0  0  0  0  0  0  0  0  0  0
   10.2148   -3.4364   25.4200 C   0  0  0  0  0  0  0  0  0  0  0  0
    9.7853   -1.1840   24.4927 C   0  0  0  0  0  0  0  0  0  0  0  0
    5.0276   -8.5227   17.5352 C   0  0  0  0  0  0  0  0  0  0  0  0
    9.8187   -2.0895   25.5800 C   0  0  0  0  0  0  0  0  0  0  0  0
    5.6473   -8.7216   15.3158 C   0  0  0  0  0  0  0  0  0  0  0  0
   10.7581   -3.1233   19.4720 N   0  0  0  0  0  0  0  0  0  0  0  0
    9.9571   -4.0573   16.8866 C   0  0  0  0  0  0  0  0  0  0  0  0
    7.6213   -6.5618   16.0087 C   0  0  0  0  0  0  0  0  0  0  0  0
   10.8583   -2.6527   20.7222 C   0  0  0  0  0  0  0  0  0  0  0  0
   10.6412   -3.5089   21.7936 C   0  0  0  0  0  0  0  0  0  0  0  0
   10.4972   -3.8968   24.1589 C   0  0  0  0  0  0  0  0  0  0  0  0
    5.9260   -8.2736   16.5517 C   0  0  0  0  0  0  0  0  0  0  0  0
    3.8816   -9.1166   17.2493 C   0  0  0  0  0  0  0  0  0  0  0  0
   10.1297   -1.6575   23.2324 C   0  0  0  0  0  0  0  0  0  0  0  0
    9.4684   -1.6929   26.7263 F   0  0  0  0  0  0  0  0  0  0  0  0
    7.7963   -7.7906   17.9837 C   0  0  0  0  0  0  0  0  0  0  0  0
   10.5884   -3.0725   16.7902 O   0  0  0  0  0  0  0  0  0  0  0  0
   10.4323   -5.3494   20.3516 C   0  0  0  0  0  0  0  0  0  0  0  0
    7.1156   -7.5454   16.8218 C   0  0  0  0  0  0  0  0  0  0  0  0
   10.3885   -4.4388   19.2773 C   0  0  0  0  0  0  0  0  0  0  0  0
    4.5160   -9.3822   15.0841 C   0  0  0  0  0  0  0  0  0  0  0  0
  1  3  4  0
  1 24  4  0
  2  6  4  0
  2 15  4  0
  3  5  4  0
  3  6  4  0
  4 21  4  0
  4 29  4  0
  5 15  4  0
  5 28  1  0
  6 16  4  0
  7 18  4  0
  7 26  4  0
  8 18  1  0
  8 19  4  0
  8 22  4  0
  9 12  4  0
  9 19  4  0
 10 12  4  0
 10 22  4  0
 11 20  4  0
 11 21  4  0
 12 23  1  0
 13 20  4  0
 13 29  4  0
 14 17  4  0
 14 28  4  0
 15 25  2  0
 16 27  4  0
 17 18  4  0
 20 27  1  0
 24 27  4  0
 26 28  4  0
M  END
$$$$

 Created by Python create_sdf_string function

 29 33  0  0  0  0  0  0  0  0999 V2000
    8.8270   -7.0288   18.4251 C   0  0  0  0  0  0  0  0  0  0  0  0
    9.1576   -4.6236   15.8860 O   0  0  0  0  0  0  0  0  0  0  0  0
    9.1509   -5.9108   17.7177 C   0  0  0  0  0  0  0  0  0  0  0  0
    3.6373   -9.5349   16.0582 N   0  0  0  0  0  0  0  0  0  0  0  0
    9.9275   -4.8001   18.0438 N   0  0  0  0  0  0  0  0  0  0  0  0
    8.5908   -5.7425   16.4412 C   0  0  0  0  0  0  0  0  0  0  0  0
   10.5993   -4.8981   21.6068 C   0  0  0  0  0  0  0  0  0  0  0  0
   10.4258   -3.0106   23.0998 C   0  0  0  0  0  0  0  0  0  0  0  0
   10.2148   -3.4364   25.4200 C   0  0  0  0  0  0  0  0  0  0  0  0
    9.7853   -1.1840   24.4927 C   0  0  0  0  0  0  0  0  0  0  0  0
    5.0276   -8.5227   17.5352 C   0  0  0  0  0  0  0  0  0  0  0  0
    9.8187   -2.0895   25.5800 C   0  0  0  0  0  0  0  0  0  0  0  0
    5.6473   -8.7216   15.3158 C   0  0  0  0  0  0  0  0  0  0  0  0
   10.7581   -3.1233   19.4720 N   0  0  0  0  0  0  0  0  0  0  0  0
    9.9571   -4.0573   16.8866 C   0  0  0  0  0  0  0  0  0  0  0  0
    7.6213   -6.5618   16.0087 C   0  0  0  0  0  0  0  0  0  0  0  0
   10.8583   -2.6527   20.7222 C   0  0  0  0  0  0  0  0  0  0  0  0
   10.6412   -3.5089   21.7936 C   0  0  0  0  0  0  0  0  0  0  0  0
   10.4972   -3.8968   24.1589 C   0  0  0  0  0  0  0  0  0  0  0  0
    5.9260   -8.2736   16.5517 C   0  0  0  0  0  0  0  0  0  0  0  0
    3.8816   -9.1166   17.2493 C   0  0  0  0  0  0  0  0  0  0  0  0
   10.1297   -1.6575   23.2324 C   0  0  0  0  0  0  0  0  0  0  0  0
    9.4684   -1.6929   26.7263 F   0  0  0  0  0  0  0  0  0  0  0  0
    7.7963   -7.7906   17.9837 C   0  0  0  0  0  0  0  0  0  0  0  0
   10.5884   -3.0725   16.7902 O   0  0  0  0  0  0  0  0  0  0  0  0
   10.4323   -5.3494   20.3516 C   0  0  0  0  0  0  0  0  0  0  0  0
    7.1156   -7.5454   16.8218 C   0  0  0  0  0  0  0  0  0  0  0  0
   10.3885   -4.4388   19.2773 C   0  0  0  0  0  0  0  0  0  0  0  0
    4.5160   -9.3822   15.0841 C   0  0  0  0  0  0  0  0  0  0  0  0
  1  3  4  0
  1 24  4  0
  2  6  4  0
  2 15  4  0
  3  5  4  0
  3  6  4  0
  4 21  4  0
  4 29  4  0
  5 15  4  0
  5 28  1  0
  6 16  4  0
  7 18  4  0
  7 26  4  0
  8 18  1  0
  8 19  4  0
  8 22  4  0
  9 12  4  0
  9 19  4  0
 10 12  4  0
 10 22  4  0
 11 20  4  0
 11 21  4  0
 12 23  1  0
 13 20  4  0
 13 29  4  0
 14 17  4  0
 14 28  4  0
 15 25  2  0
 16 27  4  0
 17 18  4  0
 20 27  1  0
 24 27  4  0
 26 28  4  0
M  END
$$$$

 Created by Python create_sdf_string function

 29 33  0  0  0  0  0  0  0  0999 V2000
    8.8270   -7.0288   18.4251 C   0  0  0  0  0  0  0  0  0  0  0  0
    9.1576   -4.6236   15.8860 O   0  0  0  0  0  0  0  0  0  0  0  0
    9.1509   -5.9108   17.7177 C   0  0  0  0  0  0  0  0  0  0  0  0
    3.6373   -9.5349   16.0582 N   0  0  0  0  0  0  0  0  0  0  0  0
    9.9275   -4.8001   18.0438 N   0  0  0  0  0  0  0  0  0  0  0  0
    8.5908   -5.7425   16.4412 C   0  0  0  0  0  0  0  0  0  0  0  0
   10.5993   -4.8981   21.6068 C   0  0  0  0  0  0  0  0  0  0  0  0
   10.4258   -3.0106   23.0998 C   0  0  0  0  0  0  0  0  0  0  0  0
   10.2148   -3.4364   25.4200 C   0  0  0  0  0  0  0  0  0  0  0  0
    9.7853   -1.1840   24.4927 C   0  0  0  0  0  0  0  0  0  0  0  0
    5.0276   -8.5227   17.5352 C   0  0  0  0  0  0  0  0  0  0  0  0
    9.8187   -2.0895   25.5800 C   0  0  0  0  0  0  0  0  0  0  0  0
    5.6473   -8.7216   15.3158 C   0  0  0  0  0  0  0  0  0  0  0  0
   10.7581   -3.1233   19.4720 N   0  0  0  0  0  0  0  0  0  0  0  0
    9.9571   -4.0573   16.8866 C   0  0  0  0  0  0  0  0  0  0  0  0
    7.6213   -6.5618   16.0087 C   0  0  0  0  0  0  0  0  0  0  0  0
   10.8583   -2.6527   20.7222 C   0  0  0  0  0  0  0  0  0  0  0  0
   10.6412   -3.5089   21.7936 C   0  0  0  0  0  0  0  0  0  0  0  0
   10.4972   -3.8968   24.1589 C   0  0  0  0  0  0  0  0  0  0  0  0
    5.9260   -8.2736   16.5517 C   0  0  0  0  0  0  0  0  0  0  0  0
    3.8816   -9.1166   17.2493 C   0  0  0  0  0  0  0  0  0  0  0  0
   10.1297   -1.6575   23.2324 C   0  0  0  0  0  0  0  0  0  0  0  0
    9.4684   -1.6929   26.7263 F   0  0  0  0  0  0  0  0  0  0  0  0
    7.7963   -7.7906   17.9837 C   0  0  0  0  0  0  0  0  0  0  0  0
   10.5884   -3.0725   16.7902 O   0  0  0  0  0  0  0  0  0  0  0  0
   10.4323   -5.3494   20.3516 C   0  0  0  0  0  0  0  0  0  0  0  0
    7.1156   -7.5454   16.8218 C   0  0  0  0  0  0  0  0  0  0  0  0
   10.3885   -4.4388   19.2773 C   0  0  0  0  0  0  0  0  0  0  0  0
    4.5160   -9.3822   15.0841 C   0  0  0  0  0  0  0  0  0  0  0  0
  1  3  4  0
  1 24  4  0
  2  6  4  0
  2 15  4  0
  3  5  4  0
  3  6  4  0
  4 21  4  0
  4 29  4  0
  5 15  4  0
  5 28  1  0
  6 16  4  0
  7 18  4  0
  7 26  4  0
  8 18  1  0
  8 19  4  0
  8 22  4  0
  9 12  4  0
  9 19  4  0
 10 12  4  0
 10 22  4  0
 11 20  4  0
 11 21  4  0
 12 23  1  0
 13 20  4  0
 13 29  4  0
 14 17  4  0
 14 28  4  0
 15 25  2  0
 16 27  4  0
 17 18  4  0
 20 27  1  0
 24 27  4  0
 26 28  4  0
M  END
$$$$

 Created by Python create_sdf_string function

 29 33  0  0  0  0  0  0  0  0999 V2000
    8.8270   -7.0288   18.4251 C   0  0  0  0  0  0  0  0  0  0  0  0
    9.1576   -4.6236   15.8860 O   0  0  0  0  0  0  0  0  0  0  0  0
    9.1509   -5.9108   17.7177 C   0  0  0  0  0  0  0  0  0  0  0  0
    3.6373   -9.5349   16.0582 N   0  0  0  0  0  0  0  0  0  0  0  0
    9.9275   -4.8001   18.0438 N   0  0  0  0  0  0  0  0  0  0  0  0
    8.5908   -5.7425   16.4412 C   0  0  0  0  0  0  0  0  0  0  0  0
   10.5993   -4.8981   21.6068 C   0  0  0  0  0  0  0  0  0  0  0  0
   10.4258   -3.0106   23.0998 C   0  0  0  0  0  0  0  0  0  0  0  0
   10.2148   -3.4364   25.4200 C   0  0  0  0  0  0  0  0  0  0  0  0
    9.7853   -1.1840   24.4927 C   0  0  0  0  0  0  0  0  0  0  0  0
    5.0276   -8.5227   17.5352 C   0  0  0  0  0  0  0  0  0  0  0  0
    9.8187   -2.0895   25.5800 C   0  0  0  0  0  0  0  0  0  0  0  0
    5.6473   -8.7216   15.3158 C   0  0  0  0  0  0  0  0  0  0  0  0
   10.7581   -3.1233   19.4720 N   0  0  0  0  0  0  0  0  0  0  0  0
    9.9571   -4.0573   16.8866 C   0  0  0  0  0  0  0  0  0  0  0  0
    7.6213   -6.5618   16.0087 C   0  0  0  0  0  0  0  0  0  0  0  0
   10.8583   -2.6527   20.7222 C   0  0  0  0  0  0  0  0  0  0  0  0
   10.6412   -3.5089   21.7936 C   0  0  0  0  0  0  0  0  0  0  0  0
   10.4972   -3.8968   24.1589 C   0  0  0  0  0  0  0  0  0  0  0  0
    5.9260   -8.2736   16.5517 C   0  0  0  0  0  0  0  0  0  0  0  0
    3.8816   -9.1166   17.2493 C   0  0  0  0  0  0  0  0  0  0  0  0
   10.1297   -1.6575   23.2324 C   0  0  0  0  0  0  0  0  0  0  0  0
    9.4684   -1.6929   26.7263 F   0  0  0  0  0  0  0  0  0  0  0  0
    7.7963   -7.7906   17.9837 C   0  0  0  0  0  0  0  0  0  0  0  0
   10.5884   -3.0725   16.7902 O   0  0  0  0  0  0  0  0  0  0  0  0
   10.4323   -5.3494   20.3516 C   0  0  0  0  0  0  0  0  0  0  0  0
    7.1156   -7.5454   16.8218 C   0  0  0  0  0  0  0  0  0  0  0  0
   10.3885   -4.4388   19.2773 C   0  0  0  0  0  0  0  0  0  0  0  0
    4.5160   -9.3822   15.0841 C   0  0  0  0  0  0  0  0  0  0  0  0
  1  3  4  0
  1 24  4  0
  2  6  4  0
  2 15  4  0
  3  5  4  0
  3  6  4  0
  4 21  4  0
  4 29  4  0
  5 15  4  0
  5 28  1  0
  6 16  4  0
  7 18  4  0
  7 26  4  0
  8 18  1  0
  8 19  4  0
  8 22  4  0
  9 12  4  0
  9 19  4  0
 10 12  4  0
 10 22  4  0
 11 20  4  0
 11 21  4  0
 12 23  1  0
 13 20  4  0
 13 29  4  0
 14 17  4  0
 14 28  4  0
 15 25  2  0
 16 27  4  0
 17 18  4  0
 20 27  1  0
 24 27  4  0
 26 28  4  0
M  END
$$$$

 Created by Python create_sdf_string function

 29 33  0  0  0  0  0  0  0  0999 V2000
    8.8270   -7.0288   18.4251 C   0  0  0  0  0  0  0  0  0  0  0  0
    9.1576   -4.6236   15.8860 O   0  0  0  0  0  0  0  0  0  0  0  0
    9.1509   -5.9108   17.7177 C   0  0  0  0  0  0  0  0  0  0  0  0
    3.6373   -9.5349   16.0582 N   0  0  0  0  0  0  0  0  0  0  0  0
    9.9275   -4.8001   18.0438 N   0  0  0  0  0  0  0  0  0  0  0  0
    8.5908   -5.7425   16.4412 C   0  0  0  0  0  0  0  0  0  0  0  0
   10.5993   -4.8981   21.6068 C   0  0  0  0  0  0  0  0  0  0  0  0
   10.4258   -3.0106   23.0998 C   0  0  0  0  0  0  0  0  0  0  0  0
   10.2148   -3.4364   25.4200 C   0  0  0  0  0  0  0  0  0  0  0  0
    9.7853   -1.1840   24.4927 C   0  0  0  0  0  0  0  0  0  0  0  0
    5.0276   -8.5227   17.5352 C   0  0  0  0  0  0  0  0  0  0  0  0
    9.8187   -2.0895   25.5800 C   0  0  0  0  0  0  0  0  0  0  0  0
    5.6473   -8.7216   15.3158 C   0  0  0  0  0  0  0  0  0  0  0  0
   10.7581   -3.1233   19.4720 N   0  0  0  0  0  0  0  0  0  0  0  0
    9.9571   -4.0573   16.8866 C   0  0  0  0  0  0  0  0  0  0  0  0
    7.6213   -6.5618   16.0087 C   0  0  0  0  0  0  0  0  0  0  0  0
   10.8583   -2.6527   20.7222 C   0  0  0  0  0  0  0  0  0  0  0  0
   10.6412   -3.5089   21.7936 C   0  0  0  0  0  0  0  0  0  0  0  0
   10.4972   -3.8968   24.1589 C   0  0  0  0  0  0  0  0  0  0  0  0
    5.9260   -8.2736   16.5517 C   0  0  0  0  0  0  0  0  0  0  0  0
    3.8816   -9.1166   17.2493 C   0  0  0  0  0  0  0  0  0  0  0  0
   10.1297   -1.6575   23.2324 C   0  0  0  0  0  0  0  0  0  0  0  0
    9.4684   -1.6929   26.7263 F   0  0  0  0  0  0  0  0  0  0  0  0
    7.7963   -7.7906   17.9837 C   0  0  0  0  0  0  0  0  0  0  0  0
   10.5884   -3.0725   16.7902 O   0  0  0  0  0  0  0  0  0  0  0  0
   10.4323   -5.3494   20.3516 C   0  0  0  0  0  0  0  0  0  0  0  0
    7.1156   -7.5454   16.8218 C   0  0  0  0  0  0  0  0  0  0  0  0
   10.3885   -4.4388   19.2773 C   0  0  0  0  0  0  0  0  0  0  0  0
    4.5160   -9.3822   15.0841 C   0  0  0  0  0  0  0  0  0  0  0  0
  1  3  4  0
  1 24  4  0
  2  6  4  0
  2 15  4  0
  3  5  4  0
  3  6  4  0
  4 21  4  0
  4 29  4  0
  5 15  4  0
  5 28  1  0
  6 16  4  0
  7 18  4  0
  7 26  4  0
  8 18  1  0
  8 19  4  0
  8 22  4  0
  9 12  4  0
  9 19  4  0
 10 12  4  0
 10 22  4  0
 11 20  4  0
 11 21  4  0
 12 23  1  0
 13 20  4  0
 13 29  4  0
 14 17  4  0
 14 28  4  0
 15 25  2  0
 16 27  4  0
 17 18  4  0
 20 27  1  0
 24 27  4  0
 26 28  4  0
M  END
$$$$

 Created by Python create_sdf_string function

 29 33  0  0  0  0  0  0  0  0999 V2000
    8.8270   -7.0288   18.4251 C   0  0  0  0  0  0  0  0  0  0  0  0
    9.1576   -4.6236   15.8860 O   0  0  0  0  0  0  0  0  0  0  0  0
    9.1509   -5.9108   17.7177 C   0  0  0  0  0  0  0  0  0  0  0  0
    3.6373   -9.5349   16.0582 N   0  0  0  0  0  0  0  0  0  0  0  0
    9.9275   -4.8001   18.0438 N   0  0  0  0  0  0  0  0  0  0  0  0
    8.5908   -5.7425   16.4412 C   0  0  0  0  0  0  0  0  0  0  0  0
   10.5993   -4.8981   21.6068 C   0  0  0  0  0  0  0  0  0  0  0  0
   10.4258   -3.0106   23.0998 C   0  0  0  0  0  0  0  0  0  0  0  0
   10.2148   -3.4364   25.4200 C   0  0  0  0  0  0  0  0  0  0  0  0
    9.7853   -1.1840   24.4927 C   0  0  0  0  0  0  0  0  0  0  0  0
    5.0276   -8.5227   17.5352 C   0  0  0  0  0  0  0  0  0  0  0  0
    9.8187   -2.0895   25.5800 C   0  0  0  0  0  0  0  0  0  0  0  0
    5.6473   -8.7216   15.3158 C   0  0  0  0  0  0  0  0  0  0  0  0
   10.7581   -3.1233   19.4720 N   0  0  0  0  0  0  0  0  0  0  0  0
    9.9571   -4.0573   16.8866 C   0  0  0  0  0  0  0  0  0  0  0  0
    7.6213   -6.5618   16.0087 C   0  0  0  0  0  0  0  0  0  0  0  0
   10.8583   -2.6527   20.7222 C   0  0  0  0  0  0  0  0  0  0  0  0
   10.6412   -3.5089   21.7936 C   0  0  0  0  0  0  0  0  0  0  0  0
   10.4972   -3.8968   24.1589 C   0  0  0  0  0  0  0  0  0  0  0  0
    5.9260   -8.2736   16.5517 C   0  0  0  0  0  0  0  0  0  0  0  0
    3.8816   -9.1166   17.2493 C   0  0  0  0  0  0  0  0  0  0  0  0
   10.1297   -1.6575   23.2324 C   0  0  0  0  0  0  0  0  0  0  0  0
    9.4684   -1.6929   26.7263 F   0  0  0  0  0  0  0  0  0  0  0  0
    7.7963   -7.7906   17.9837 C   0  0  0  0  0  0  0  0  0  0  0  0
   10.5884   -3.0725   16.7902 O   0  0  0  0  0  0  0  0  0  0  0  0
   10.4323   -5.3494   20.3516 C   0  0  0  0  0  0  0  0  0  0  0  0
    7.1156   -7.5454   16.8218 C   0  0  0  0  0  0  0  0  0  0  0  0
   10.3885   -4.4388   19.2773 C   0  0  0  0  0  0  0  0  0  0  0  0
    4.5160   -9.3822   15.0841 C   0  0  0  0  0  0  0  0  0  0  0  0
  1  3  4  0
  1 24  4  0
  2  6  4  0
  2 15  4  0
  3  5  4  0
  3  6  4  0
  4 21  4  0
  4 29  4  0
  5 15  4  0
  5 28  1  0
  6 16  4  0
  7 18  4  0
  7 26  4  0
  8 18  1  0
  8 19  4  0
  8 22  4  0
  9 12  4  0
  9 19  4  0
 10 12  4  0
 10 22  4  0
 11 20  4  0
 11 21  4  0
 12 23  1  0
 13 20  4  0
 13 29  4  0
 14 17  4  0
 14 28  4  0
 15 25  2  0
 16 27  4  0
 17 18  4  0
 20 27  1  0
 24 27  4  0
 26 28  4  0
M  END
$$$$

 Created by Python create_sdf_string function

 29 33  0  0  0  0  0  0  0  0999 V2000
    8.8270   -7.0288   18.4251 C   0  0  0  0  0  0  0  0  0  0  0  0
    9.1576   -4.6236   15.8860 O   0  0  0  0  0  0  0  0  0  0  0  0
    9.1509   -5.9108   17.7177 C   0  0  0  0  0  0  0  0  0  0  0  0
    3.6373   -9.5349   16.0582 N   0  0  0  0  0  0  0  0  0  0  0  0
    9.9275   -4.8001   18.0438 N   0  0  0  0  0  0  0  0  0  0  0  0
    8.5908   -5.7425   16.4412 C   0  0  0  0  0  0  0  0  0  0  0  0
   10.5993   -4.8981   21.6068 C   0  0  0  0  0  0  0  0  0  0  0  0
   10.4258   -3.0106   23.0998 C   0  0  0  0  0  0  0  0  0  0  0  0
   10.2148   -3.4364   25.4200 C   0  0  0  0  0  0  0  0  0  0  0  0
    9.7853   -1.1840   24.4927 C   0  0  0  0  0  0  0  0  0  0  0  0
    5.0276   -8.5227   17.5352 C   0  0  0  0  0  0  0  0  0  0  0  0
    9.8187   -2.0895   25.5800 C   0  0  0  0  0  0  0  0  0  0  0  0
    5.6473   -8.7216   15.3158 C   0  0  0  0  0  0  0  0  0  0  0  0
   10.7581   -3.1233   19.4720 N   0  0  0  0  0  0  0  0  0  0  0  0
    9.9571   -4.0573   16.8866 C   0  0  0  0  0  0  0  0  0  0  0  0
    7.6213   -6.5618   16.0087 C   0  0  0  0  0  0  0  0  0  0  0  0
   10.8583   -2.6527   20.7222 C   0  0  0  0  0  0  0  0  0  0  0  0
   10.6412   -3.5089   21.7936 C   0  0  0  0  0  0  0  0  0  0  0  0
   10.4972   -3.8968   24.1589 C   0  0  0  0  0  0  0  0  0  0  0  0
    5.9260   -8.2736   16.5517 C   0  0  0  0  0  0  0  0  0  0  0  0
    3.8816   -9.1166   17.2493 C   0  0  0  0  0  0  0  0  0  0  0  0
   10.1297   -1.6575   23.2324 C   0  0  0  0  0  0  0  0  0  0  0  0
    9.4684   -1.6929   26.7263 F   0  0  0  0  0  0  0  0  0  0  0  0
    7.7963   -7.7906   17.9837 C   0  0  0  0  0  0  0  0  0  0  0  0
   10.5884   -3.0725   16.7902 O   0  0  0  0  0  0  0  0  0  0  0  0
   10.4323   -5.3494   20.3516 C   0  0  0  0  0  0  0  0  0  0  0  0
    7.1156   -7.5454   16.8218 C   0  0  0  0  0  0  0  0  0  0  0  0
   10.3885   -4.4388   19.2773 C   0  0  0  0  0  0  0  0  0  0  0  0
    4.5160   -9.3822   15.0841 C   0  0  0  0  0  0  0  0  0  0  0  0
  1  3  4  0
  1 24  4  0
  2  6  4  0
  2 15  4  0
  3  5  4  0
  3  6  4  0
  4 21  4  0
  4 29  4  0
  5 15  4  0
  5 28  1  0
  6 16  4  0
  7 18  4  0
  7 26  4  0
  8 18  1  0
  8 19  4  0
  8 22  4  0
  9 12  4  0
  9 19  4  0
 10 12  4  0
 10 22  4  0
 11 20  4  0
 11 21  4  0
 12 23  1  0
 13 20  4  0
 13 29  4  0
 14 17  4  0
 14 28  4  0
 15 25  2  0
 16 27  4  0
 17 18  4  0
 20 27  1  0
 24 27  4  0
 26 28  4  0
M  END
$$$$

 Created by Python create_sdf_string function

 29 33  0  0  0  0  0  0  0  0999 V2000
    8.8270   -7.0288   18.4251 C   0  0  0  0  0  0  0  0  0  0  0  0
    9.1576   -4.6236   15.8860 O   0  0  0  0  0  0  0  0  0  0  0  0
    9.1509   -5.9108   17.7177 C   0  0  0  0  0  0  0  0  0  0  0  0
    3.6373   -9.5349   16.0582 N   0  0  0  0  0  0  0  0  0  0  0  0
    9.9275   -4.8001   18.0438 N   0  0  0  0  0  0  0  0  0  0  0  0
    8.5908   -5.7425   16.4412 C   0  0  0  0  0  0  0  0  0  0  0  0
   10.5993   -4.8981   21.6068 C   0  0  0  0  0  0  0  0  0  0  0  0
   10.4258   -3.0106   23.0998 C   0  0  0  0  0  0  0  0  0  0  0  0
   10.2148   -3.4364   25.4200 C   0  0  0  0  0  0  0  0  0  0  0  0
    9.7853   -1.1840   24.4927 C   0  0  0  0  0  0  0  0  0  0  0  0
    5.0276   -8.5227   17.5352 C   0  0  0  0  0  0  0  0  0  0  0  0
    9.8187   -2.0895   25.5800 C   0  0  0  0  0  0  0  0  0  0  0  0
    5.6473   -8.7216   15.3158 C   0  0  0  0  0  0  0  0  0  0  0  0
   10.7581   -3.1233   19.4720 N   0  0  0  0  0  0  0  0  0  0  0  0
    9.9571   -4.0573   16.8866 C   0  0  0  0  0  0  0  0  0  0  0  0
    7.6213   -6.5618   16.0087 C   0  0  0  0  0  0  0  0  0  0  0  0
   10.8583   -2.6527   20.7222 C   0  0  0  0  0  0  0  0  0  0  0  0
   10.6412   -3.5089   21.7936 C   0  0  0  0  0  0  0  0  0  0  0  0
   10.4972   -3.8968   24.1589 C   0  0  0  0  0  0  0  0  0  0  0  0
    5.9260   -8.2736   16.5517 C   0  0  0  0  0  0  0  0  0  0  0  0
    3.8816   -9.1166   17.2493 C   0  0  0  0  0  0  0  0  0  0  0  0
   10.1297   -1.6575   23.2324 C   0  0  0  0  0  0  0  0  0  0  0  0
    9.4684   -1.6929   26.7263 F   0  0  0  0  0  0  0  0  0  0  0  0
    7.7963   -7.7906   17.9837 C   0  0  0  0  0  0  0  0  0  0  0  0
   10.5884   -3.0725   16.7902 O   0  0  0  0  0  0  0  0  0  0  0  0
   10.4323   -5.3494   20.3516 C   0  0  0  0  0  0  0  0  0  0  0  0
    7.1156   -7.5454   16.8218 C   0  0  0  0  0  0  0  0  0  0  0  0
   10.3885   -4.4388   19.2773 C   0  0  0  0  0  0  0  0  0  0  0  0
    4.5160   -9.3822   15.0841 C   0  0  0  0  0  0  0  0  0  0  0  0
  1  3  4  0
  1 24  4  0
  2  6  4  0
  2 15  4  0
  3  5  4  0
  3  6  4  0
  4 21  4  0
  4 29  4  0
  5 15  4  0
  5 28  1  0
  6 16  4  0
  7 18  4  0
  7 26  4  0
  8 18  1  0
  8 19  4  0
  8 22  4  0
  9 12  4  0
  9 19  4  0
 10 12  4  0
 10 22  4  0
 11 20  4  0
 11 21  4  0
 12 23  1  0
 13 20  4  0
 13 29  4  0
 14 17  4  0
 14 28  4  0
 15 25  2  0
 16 27  4  0
 17 18  4  0
 20 27  1  0
 24 27  4  0
 26 28  4  0
M  END
$$$$

 Created by Python create_sdf_string function

 29 33  0  0  0  0  0  0  0  0999 V2000
    8.8270   -7.0288   18.4251 C   0  0  0  0  0  0  0  0  0  0  0  0
    9.1576   -4.6236   15.8860 O   0  0  0  0  0  0  0  0  0  0  0  0
    9.1509   -5.9108   17.7177 C   0  0  0  0  0  0  0  0  0  0  0  0
    3.6373   -9.5349   16.0582 N   0  0  0  0  0  0  0  0  0  0  0  0
    9.9275   -4.8001   18.0438 N   0  0  0  0  0  0  0  0  0  0  0  0
    8.5908   -5.7425   16.4412 C   0  0  0  0  0  0  0  0  0  0  0  0
   10.5993   -4.8981   21.6068 C   0  0  0  0  0  0  0  0  0  0  0  0
   10.4258   -3.0106   23.0998 C   0  0  0  0  0  0  0  0  0  0  0  0
   10.2148   -3.4364   25.4200 C   0  0  0  0  0  0  0  0  0  0  0  0
    9.7853   -1.1840   24.4927 C   0  0  0  0  0  0  0  0  0  0  0  0
    5.0276   -8.5227   17.5352 C   0  0  0  0  0  0  0  0  0  0  0  0
    9.8187   -2.0895   25.5800 C   0  0  0  0  0  0  0  0  0  0  0  0
    5.6473   -8.7216   15.3158 C   0  0  0  0  0  0  0  0  0  0  0  0
   10.7581   -3.1233   19.4720 N   0  0  0  0  0  0  0  0  0  0  0  0
    9.9571   -4.0573   16.8866 C   0  0  0  0  0  0  0  0  0  0  0  0
    7.6213   -6.5618   16.0087 C   0  0  0  0  0  0  0  0  0  0  0  0
   10.8583   -2.6527   20.7222 C   0  0  0  0  0  0  0  0  0  0  0  0
   10.6412   -3.5089   21.7936 C   0  0  0  0  0  0  0  0  0  0  0  0
   10.4972   -3.8968   24.1589 C   0  0  0  0  0  0  0  0  0  0  0  0
    5.9260   -8.2736   16.5517 C   0  0  0  0  0  0  0  0  0  0  0  0
    3.8816   -9.1166   17.2493 C   0  0  0  0  0  0  0  0  0  0  0  0
   10.1297   -1.6575   23.2324 C   0  0  0  0  0  0  0  0  0  0  0  0
    9.4684   -1.6929   26.7263 F   0  0  0  0  0  0  0  0  0  0  0  0
    7.7963   -7.7906   17.9837 C   0  0  0  0  0  0  0  0  0  0  0  0
   10.5884   -3.0725   16.7902 O   0  0  0  0  0  0  0  0  0  0  0  0
   10.4323   -5.3494   20.3516 C   0  0  0  0  0  0  0  0  0  0  0  0
    7.1156   -7.5454   16.8218 C   0  0  0  0  0  0  0  0  0  0  0  0
   10.3885   -4.4388   19.2773 C   0  0  0  0  0  0  0  0  0  0  0  0
    4.5160   -9.3822   15.0841 C   0  0  0  0  0  0  0  0  0  0  0  0
  1  3  4  0
  1 24  4  0
  2  6  4  0
  2 15  4  0
  3  5  4  0
  3  6  4  0
  4 21  4  0
  4 29  4  0
  5 15  4  0
  5 28  1  0
  6 16  4  0
  7 18  4  0
  7 26  4  0
  8 18  1  0
  8 19  4  0
  8 22  4  0
  9 12  4  0
  9 19  4  0
 10 12  4  0
 10 22  4  0
 11 20  4  0
 11 21  4  0
 12 23  1  0
 13 20  4  0
 13 29  4  0
 14 17  4  0
 14 28  4  0
 15 25  2  0
 16 27  4  0
 17 18  4  0
 20 27  1  0
 24 27  4  0
 26 28  4  0
M  END
$$$$

 Created by Python create_sdf_string function

 29 33  0  0  0  0  0  0  0  0999 V2000
    8.8270   -7.0288   18.4251 C   0  0  0  0  0  0  0  0  0  0  0  0
    9.1576   -4.6236   15.8860 O   0  0  0  0  0  0  0  0  0  0  0  0
    9.1509   -5.9108   17.7177 C   0  0  0  0  0  0  0  0  0  0  0  0
    3.6373   -9.5349   16.0582 N   0  0  0  0  0  0  0  0  0  0  0  0
    9.9275   -4.8001   18.0438 N   0  0  0  0  0  0  0  0  0  0  0  0
    8.5908   -5.7425   16.4412 C   0  0  0  0  0  0  0  0  0  0  0  0
   10.5993   -4.8981   21.6068 C   0  0  0  0  0  0  0  0  0  0  0  0
   10.4258   -3.0106   23.0998 C   0  0  0  0  0  0  0  0  0  0  0  0
   10.2148   -3.4364   25.4200 C   0  0  0  0  0  0  0  0  0  0  0  0
    9.7853   -1.1840   24.4927 C   0  0  0  0  0  0  0  0  0  0  0  0
    5.0276   -8.5227   17.5352 C   0  0  0  0  0  0  0  0  0  0  0  0
    9.8187   -2.0895   25.5800 C   0  0  0  0  0  0  0  0  0  0  0  0
    5.6473   -8.7216   15.3158 C   0  0  0  0  0  0  0  0  0  0  0  0
   10.7581   -3.1233   19.4720 N   0  0  0  0  0  0  0  0  0  0  0  0
    9.9571   -4.0573   16.8866 C   0  0  0  0  0  0  0  0  0  0  0  0
    7.6213   -6.5618   16.0087 C   0  0  0  0  0  0  0  0  0  0  0  0
   10.8583   -2.6527   20.7222 C   0  0  0  0  0  0  0  0  0  0  0  0
   10.6412   -3.5089   21.7936 C   0  0  0  0  0  0  0  0  0  0  0  0
   10.4972   -3.8968   24.1589 C   0  0  0  0  0  0  0  0  0  0  0  0
    5.9260   -8.2736   16.5517 C   0  0  0  0  0  0  0  0  0  0  0  0
    3.8816   -9.1166   17.2493 C   0  0  0  0  0  0  0  0  0  0  0  0
   10.1297   -1.6575   23.2324 C   0  0  0  0  0  0  0  0  0  0  0  0
    9.4684   -1.6929   26.7263 F   0  0  0  0  0  0  0  0  0  0  0  0
    7.7963   -7.7906   17.9837 C   0  0  0  0  0  0  0  0  0  0  0  0
   10.5884   -3.0725   16.7902 O   0  0  0  0  0  0  0  0  0  0  0  0
   10.4323   -5.3494   20.3516 C   0  0  0  0  0  0  0  0  0  0  0  0
    7.1156   -7.5454   16.8218 C   0  0  0  0  0  0  0  0  0  0  0  0
   10.3885   -4.4388   19.2773 C   0  0  0  0  0  0  0  0  0  0  0  0
    4.5160   -9.3822   15.0841 C   0  0  0  0  0  0  0  0  0  0  0  0
  1  3  4  0
  1 24  4  0
  2  6  4  0
  2 15  4  0
  3  5  4  0
  3  6  4  0
  4 21  4  0
  4 29  4  0
  5 15  4  0
  5 28  1  0
  6 16  4  0
  7 18  4  0
  7 26  4  0
  8 18  1  0
  8 19  4  0
  8 22  4  0
  9 12  4  0
  9 19  4  0
 10 12  4  0
 10 22  4  0
 11 20  4  0
 11 21  4  0
 12 23  1  0
 13 20  4  0
 13 29  4  0
 14 17  4  0
 14 28  4  0
 15 25  2  0
 16 27  4  0
 17 18  4  0
 20 27  1  0
 24 27  4  0
 26 28  4  0
M  END
$$$$

 Created by Python create_sdf_string function

 29 33  0  0  0  0  0  0  0  0999 V2000
    8.8270   -7.0288   18.4251 C   0  0  0  0  0  0  0  0  0  0  0  0
    9.1576   -4.6236   15.8860 O   0  0  0  0  0  0  0  0  0  0  0  0
    9.1509   -5.9108   17.7177 C   0  0  0  0  0  0  0  0  0  0  0  0
    3.6373   -9.5349   16.0582 N   0  0  0  0  0  0  0  0  0  0  0  0
    9.9275   -4.8001   18.0438 N   0  0  0  0  0  0  0  0  0  0  0  0
    8.5908   -5.7425   16.4412 C   0  0  0  0  0  0  0  0  0  0  0  0
   10.5993   -4.8981   21.6068 C   0  0  0  0  0  0  0  0  0  0  0  0
   10.4258   -3.0106   23.0998 C   0  0  0  0  0  0  0  0  0  0  0  0
   10.2148   -3.4364   25.4200 C   0  0  0  0  0  0  0  0  0  0  0  0
    9.7853   -1.1840   24.4927 C   0  0  0  0  0  0  0  0  0  0  0  0
    5.0276   -8.5227   17.5352 C   0  0  0  0  0  0  0  0  0  0  0  0
    9.8187   -2.0895   25.5800 C   0  0  0  0  0  0  0  0  0  0  0  0
    5.6473   -8.7216   15.3158 C   0  0  0  0  0  0  0  0  0  0  0  0
   10.7581   -3.1233   19.4720 N   0  0  0  0  0  0  0  0  0  0  0  0
    9.9571   -4.0573   16.8866 C   0  0  0  0  0  0  0  0  0  0  0  0
    7.6213   -6.5618   16.0087 C   0  0  0  0  0  0  0  0  0  0  0  0
   10.8583   -2.6527   20.7222 C   0  0  0  0  0  0  0  0  0  0  0  0
   10.6412   -3.5089   21.7936 C   0  0  0  0  0  0  0  0  0  0  0  0
   10.4972   -3.8968   24.1589 C   0  0  0  0  0  0  0  0  0  0  0  0
    5.9260   -8.2736   16.5517 C   0  0  0  0  0  0  0  0  0  0  0  0
    3.8816   -9.1166   17.2493 C   0  0  0  0  0  0  0  0  0  0  0  0
   10.1297   -1.6575   23.2324 C   0  0  0  0  0  0  0  0  0  0  0  0
    9.4684   -1.6929   26.7263 F   0  0  0  0  0  0  0  0  0  0  0  0
    7.7963   -7.7906   17.9837 C   0  0  0  0  0  0  0  0  0  0  0  0
   10.5884   -3.0725   16.7902 O   0  0  0  0  0  0  0  0  0  0  0  0
   10.4323   -5.3494   20.3516 C   0  0  0  0  0  0  0  0  0  0  0  0
    7.1156   -7.5454   16.8218 C   0  0  0  0  0  0  0  0  0  0  0  0
   10.3885   -4.4388   19.2773 C   0  0  0  0  0  0  0  0  0  0  0  0
    4.5160   -9.3822   15.0841 C   0  0  0  0  0  0  0  0  0  0  0  0
  1  3  4  0
  1 24  4  0
  2  6  4  0
  2 15  4  0
  3  5  4  0
  3  6  4  0
  4 21  4  0
  4 29  4  0
  5 15  4  0
  5 28  1  0
  6 16  4  0
  7 18  4  0
  7 26  4  0
  8 18  1  0
  8 19  4  0
  8 22  4  0
  9 12  4  0
  9 19  4  0
 10 12  4  0
 10 22  4  0
 11 20  4  0
 11 21  4  0
 12 23  1  0
 13 20  4  0
 13 29  4  0
 14 17  4  0
 14 28  4  0
 15 25  2  0
 16 27  4  0
 17 18  4  0
 20 27  1  0
 24 27  4  0
 26 28  4  0
M  END
$$$$

 Created by Python create_sdf_string function

 29 33  0  0  0  0  0  0  0  0999 V2000
    8.8270   -7.0288   18.4251 C   0  0  0  0  0  0  0  0  0  0  0  0
    9.1576   -4.6236   15.8860 O   0  0  0  0  0  0  0  0  0  0  0  0
    9.1509   -5.9108   17.7177 C   0  0  0  0  0  0  0  0  0  0  0  0
    3.6373   -9.5349   16.0582 N   0  0  0  0  0  0  0  0  0  0  0  0
    9.9275   -4.8001   18.0438 N   0  0  0  0  0  0  0  0  0  0  0  0
    8.5908   -5.7425   16.4412 C   0  0  0  0  0  0  0  0  0  0  0  0
   10.5993   -4.8981   21.6068 C   0  0  0  0  0  0  0  0  0  0  0  0
   10.4258   -3.0106   23.0998 C   0  0  0  0  0  0  0  0  0  0  0  0
   10.2148   -3.4364   25.4200 C   0  0  0  0  0  0  0  0  0  0  0  0
    9.7853   -1.1840   24.4927 C   0  0  0  0  0  0  0  0  0  0  0  0
    5.0276   -8.5227   17.5352 C   0  0  0  0  0  0  0  0  0  0  0  0
    9.8187   -2.0895   25.5800 C   0  0  0  0  0  0  0  0  0  0  0  0
    5.6473   -8.7216   15.3158 C   0  0  0  0  0  0  0  0  0  0  0  0
   10.7581   -3.1233   19.4720 N   0  0  0  0  0  0  0  0  0  0  0  0
    9.9571   -4.0573   16.8866 C   0  0  0  0  0  0  0  0  0  0  0  0
    7.6213   -6.5618   16.0087 C   0  0  0  0  0  0  0  0  0  0  0  0
   10.8583   -2.6527   20.7222 C   0  0  0  0  0  0  0  0  0  0  0  0
   10.6412   -3.5089   21.7936 C   0  0  0  0  0  0  0  0  0  0  0  0
   10.4972   -3.8968   24.1589 C   0  0  0  0  0  0  0  0  0  0  0  0
    5.9260   -8.2736   16.5517 C   0  0  0  0  0  0  0  0  0  0  0  0
    3.8816   -9.1166   17.2493 C   0  0  0  0  0  0  0  0  0  0  0  0
   10.1297   -1.6575   23.2324 C   0  0  0  0  0  0  0  0  0  0  0  0
    9.4684   -1.6929   26.7263 F   0  0  0  0  0  0  0  0  0  0  0  0
    7.7963   -7.7906   17.9837 C   0  0  0  0  0  0  0  0  0  0  0  0
   10.5884   -3.0725   16.7902 O   0  0  0  0  0  0  0  0  0  0  0  0
   10.4323   -5.3494   20.3516 C   0  0  0  0  0  0  0  0  0  0  0  0
    7.1156   -7.5454   16.8218 C   0  0  0  0  0  0  0  0  0  0  0  0
   10.3885   -4.4388   19.2773 C   0  0  0  0  0  0  0  0  0  0  0  0
    4.5160   -9.3822   15.0841 C   0  0  0  0  0  0  0  0  0  0  0  0
  1  3  4  0
  1 24  4  0
  2  6  4  0
  2 15  4  0
  3  5  4  0
  3  6  4  0
  4 21  4  0
  4 29  4  0
  5 15  4  0
  5 28  1  0
  6 16  4  0
  7 18  4  0
  7 26  4  0
  8 18  1  0
  8 19  4  0
  8 22  4  0
  9 12  4  0
  9 19  4  0
 10 12  4  0
 10 22  4  0
 11 20  4  0
 11 21  4  0
 12 23  1  0
 13 20  4  0
 13 29  4  0
 14 17  4  0
 14 28  4  0
 15 25  2  0
 16 27  4  0
 17 18  4  0
 20 27  1  0
 24 27  4  0
 26 28  4  0
M  END
$$$$

 Created by Python create_sdf_string function

 29 33  0  0  0  0  0  0  0  0999 V2000
    8.8270   -7.0288   18.4251 C   0  0  0  0  0  0  0  0  0  0  0  0
    9.1576   -4.6236   15.8860 O   0  0  0  0  0  0  0  0  0  0  0  0
    9.1509   -5.9108   17.7177 C   0  0  0  0  0  0  0  0  0  0  0  0
    3.6373   -9.5349   16.0582 N   0  0  0  0  0  0  0  0  0  0  0  0
    9.9275   -4.8001   18.0438 N   0  0  0  0  0  0  0  0  0  0  0  0
    8.5908   -5.7425   16.4412 C   0  0  0  0  0  0  0  0  0  0  0  0
   10.5993   -4.8981   21.6068 C   0  0  0  0  0  0  0  0  0  0  0  0
   10.4258   -3.0106   23.0998 C   0  0  0  0  0  0  0  0  0  0  0  0
   10.2148   -3.4364   25.4200 C   0  0  0  0  0  0  0  0  0  0  0  0
    9.7853   -1.1840   24.4927 C   0  0  0  0  0  0  0  0  0  0  0  0
    5.0276   -8.5227   17.5352 C   0  0  0  0  0  0  0  0  0  0  0  0
    9.8187   -2.0895   25.5800 C   0  0  0  0  0  0  0  0  0  0  0  0
    5.6473   -8.7216   15.3158 C   0  0  0  0  0  0  0  0  0  0  0  0
   10.7581   -3.1233   19.4720 N   0  0  0  0  0  0  0  0  0  0  0  0
    9.9571   -4.0573   16.8866 C   0  0  0  0  0  0  0  0  0  0  0  0
    7.6213   -6.5618   16.0087 C   0  0  0  0  0  0  0  0  0  0  0  0
   10.8583   -2.6527   20.7222 C   0  0  0  0  0  0  0  0  0  0  0  0
   10.6412   -3.5089   21.7936 C   0  0  0  0  0  0  0  0  0  0  0  0
   10.4972   -3.8968   24.1589 C   0  0  0  0  0  0  0  0  0  0  0  0
    5.9260   -8.2736   16.5517 C   0  0  0  0  0  0  0  0  0  0  0  0
    3.8816   -9.1166   17.2493 C   0  0  0  0  0  0  0  0  0  0  0  0
   10.1297   -1.6575   23.2324 C   0  0  0  0  0  0  0  0  0  0  0  0
    9.4684   -1.6929   26.7263 F   0  0  0  0  0  0  0  0  0  0  0  0
    7.7963   -7.7906   17.9837 C   0  0  0  0  0  0  0  0  0  0  0  0
   10.5884   -3.0725   16.7902 O   0  0  0  0  0  0  0  0  0  0  0  0
   10.4323   -5.3494   20.3516 C   0  0  0  0  0  0  0  0  0  0  0  0
    7.1156   -7.5454   16.8218 C   0  0  0  0  0  0  0  0  0  0  0  0
   10.3885   -4.4388   19.2773 C   0  0  0  0  0  0  0  0  0  0  0  0
    4.5160   -9.3822   15.0841 C   0  0  0  0  0  0  0  0  0  0  0  0
  1  3  4  0
  1 24  4  0
  2  6  4  0
  2 15  4  0
  3  5  4  0
  3  6  4  0
  4 21  4  0
  4 29  4  0
  5 15  4  0
  5 28  1  0
  6 16  4  0
  7 18  4  0
  7 26  4  0
  8 18  1  0
  8 19  4  0
  8 22  4  0
  9 12  4  0
  9 19  4  0
 10 12  4  0
 10 22  4  0
 11 20  4  0
 11 21  4  0
 12 23  1  0
 13 20  4  0
 13 29  4  0
 14 17  4  0
 14 28  4  0
 15 25  2  0
 16 27  4  0
 17 18  4  0
 20 27  1  0
 24 27  4  0
 26 28  4  0
M  END
$$$$

 Created by Python create_sdf_string function

 29 33  0  0  0  0  0  0  0  0999 V2000
    8.8270   -7.0288   18.4251 C   0  0  0  0  0  0  0  0  0  0  0  0
    9.1576   -4.6236   15.8860 O   0  0  0  0  0  0  0  0  0  0  0  0
    9.1509   -5.9108   17.7177 C   0  0  0  0  0  0  0  0  0  0  0  0
    3.6373   -9.5349   16.0582 N   0  0  0  0  0  0  0  0  0  0  0  0
    9.9275   -4.8001   18.0438 N   0  0  0  0  0  0  0  0  0  0  0  0
    8.5908   -5.7425   16.4412 C   0  0  0  0  0  0  0  0  0  0  0  0
   10.5993   -4.8981   21.6068 C   0  0  0  0  0  0  0  0  0  0  0  0
   10.4258   -3.0106   23.0998 C   0  0  0  0  0  0  0  0  0  0  0  0
   10.2148   -3.4364   25.4200 C   0  0  0  0  0  0  0  0  0  0  0  0
    9.7853   -1.1840   24.4927 C   0  0  0  0  0  0  0  0  0  0  0  0
    5.0276   -8.5227   17.5352 C   0  0  0  0  0  0  0  0  0  0  0  0
    9.8187   -2.0895   25.5800 C   0  0  0  0  0  0  0  0  0  0  0  0
    5.6473   -8.7216   15.3158 C   0  0  0  0  0  0  0  0  0  0  0  0
   10.7581   -3.1233   19.4720 N   0  0  0  0  0  0  0  0  0  0  0  0
    9.9571   -4.0573   16.8866 C   0  0  0  0  0  0  0  0  0  0  0  0
    7.6213   -6.5618   16.0087 C   0  0  0  0  0  0  0  0  0  0  0  0
   10.8583   -2.6527   20.7222 C   0  0  0  0  0  0  0  0  0  0  0  0
   10.6412   -3.5089   21.7936 C   0  0  0  0  0  0  0  0  0  0  0  0
   10.4972   -3.8968   24.1589 C   0  0  0  0  0  0  0  0  0  0  0  0
    5.9260   -8.2736   16.5517 C   0  0  0  0  0  0  0  0  0  0  0  0
    3.8816   -9.1166   17.2493 C   0  0  0  0  0  0  0  0  0  0  0  0
   10.1297   -1.6575   23.2324 C   0  0  0  0  0  0  0  0  0  0  0  0
    9.4684   -1.6929   26.7263 F   0  0  0  0  0  0  0  0  0  0  0  0
    7.7963   -7.7906   17.9837 C   0  0  0  0  0  0  0  0  0  0  0  0
   10.5884   -3.0725   16.7902 O   0  0  0  0  0  0  0  0  0  0  0  0
   10.4323   -5.3494   20.3516 C   0  0  0  0  0  0  0  0  0  0  0  0
    7.1156   -7.5454   16.8218 C   0  0  0  0  0  0  0  0  0  0  0  0
   10.3885   -4.4388   19.2773 C   0  0  0  0  0  0  0  0  0  0  0  0
    4.5160   -9.3822   15.0841 C   0  0  0  0  0  0  0  0  0  0  0  0
  1  3  4  0
  1 24  4  0
  2  6  4  0
  2 15  4  0
  3  5  4  0
  3  6  4  0
  4 21  4  0
  4 29  4  0
  5 15  4  0
  5 28  1  0
  6 16  4  0
  7 18  4  0
  7 26  4  0
  8 18  1  0
  8 19  4  0
  8 22  4  0
  9 12  4  0
  9 19  4  0
 10 12  4  0
 10 22  4  0
 11 20  4  0
 11 21  4  0
 12 23  1  0
 13 20  4  0
 13 29  4  0
 14 17  4  0
 14 28  4  0
 15 25  2  0
 16 27  4  0
 17 18  4  0
 20 27  1  0
 24 27  4  0
 26 28  4  0
M  END
$$$$

 Created by Python create_sdf_string function

 29 33  0  0  0  0  0  0  0  0999 V2000
    8.8270   -7.0288   18.4251 C   0  0  0  0  0  0  0  0  0  0  0  0
    9.1576   -4.6236   15.8860 O   0  0  0  0  0  0  0  0  0  0  0  0
    9.1509   -5.9108   17.7177 C   0  0  0  0  0  0  0  0  0  0  0  0
    3.6373   -9.5349   16.0582 N   0  0  0  0  0  0  0  0  0  0  0  0
    9.9275   -4.8001   18.0438 N   0  0  0  0  0  0  0  0  0  0  0  0
    8.5908   -5.7425   16.4412 C   0  0  0  0  0  0  0  0  0  0  0  0
   10.5993   -4.8981   21.6068 C   0  0  0  0  0  0  0  0  0  0  0  0
   10.4258   -3.0106   23.0998 C   0  0  0  0  0  0  0  0  0  0  0  0
   10.2148   -3.4364   25.4200 C   0  0  0  0  0  0  0  0  0  0  0  0
    9.7853   -1.1840   24.4927 C   0  0  0  0  0  0  0  0  0  0  0  0
    5.0276   -8.5227   17.5352 C   0  0  0  0  0  0  0  0  0  0  0  0
    9.8187   -2.0895   25.5800 C   0  0  0  0  0  0  0  0  0  0  0  0
    5.6473   -8.7216   15.3158 C   0  0  0  0  0  0  0  0  0  0  0  0
   10.7581   -3.1233   19.4720 N   0  0  0  0  0  0  0  0  0  0  0  0
    9.9571   -4.0573   16.8866 C   0  0  0  0  0  0  0  0  0  0  0  0
    7.6213   -6.5618   16.0087 C   0  0  0  0  0  0  0  0  0  0  0  0
   10.8583   -2.6527   20.7222 C   0  0  0  0  0  0  0  0  0  0  0  0
   10.6412   -3.5089   21.7936 C   0  0  0  0  0  0  0  0  0  0  0  0
   10.4972   -3.8968   24.1589 C   0  0  0  0  0  0  0  0  0  0  0  0
    5.9260   -8.2736   16.5517 C   0  0  0  0  0  0  0  0  0  0  0  0
    3.8816   -9.1166   17.2493 C   0  0  0  0  0  0  0  0  0  0  0  0
   10.1297   -1.6575   23.2324 C   0  0  0  0  0  0  0  0  0  0  0  0
    9.4684   -1.6929   26.7263 F   0  0  0  0  0  0  0  0  0  0  0  0
    7.7963   -7.7906   17.9837 C   0  0  0  0  0  0  0  0  0  0  0  0
   10.5884   -3.0725   16.7902 O   0  0  0  0  0  0  0  0  0  0  0  0
   10.4323   -5.3494   20.3516 C   0  0  0  0  0  0  0  0  0  0  0  0
    7.1156   -7.5454   16.8218 C   0  0  0  0  0  0  0  0  0  0  0  0
   10.3885   -4.4388   19.2773 C   0  0  0  0  0  0  0  0  0  0  0  0
    4.5160   -9.3822   15.0841 C   0  0  0  0  0  0  0  0  0  0  0  0
  1  3  4  0
  1 24  4  0
  2  6  4  0
  2 15  4  0
  3  5  4  0
  3  6  4  0
  4 21  4  0
  4 29  4  0
  5 15  4  0
  5 28  1  0
  6 16  4  0
  7 18  4  0
  7 26  4  0
  8 18  1  0
  8 19  4  0
  8 22  4  0
  9 12  4  0
  9 19  4  0
 10 12  4  0
 10 22  4  0
 11 20  4  0
 11 21  4  0
 12 23  1  0
 13 20  4  0
 13 29  4  0
 14 17  4  0
 14 28  4  0
 15 25  2  0
 16 27  4  0
 17 18  4  0
 20 27  1  0
 24 27  4  0
 26 28  4  0
M  END
$$$$

 Created by Python create_sdf_string function

 29 33  0  0  0  0  0  0  0  0999 V2000
    8.8270   -7.0288   18.4251 C   0  0  0  0  0  0  0  0  0  0  0  0
    9.1576   -4.6236   15.8860 O   0  0  0  0  0  0  0  0  0  0  0  0
    9.1509   -5.9108   17.7177 C   0  0  0  0  0  0  0  0  0  0  0  0
    3.6373   -9.5349   16.0582 N   0  0  0  0  0  0  0  0  0  0  0  0
    9.9275   -4.8001   18.0438 N   0  0  0  0  0  0  0  0  0  0  0  0
    8.5908   -5.7425   16.4412 C   0  0  0  0  0  0  0  0  0  0  0  0
   10.5993   -4.8981   21.6068 C   0  0  0  0  0  0  0  0  0  0  0  0
   10.4258   -3.0106   23.0998 C   0  0  0  0  0  0  0  0  0  0  0  0
   10.2148   -3.4364   25.4200 C   0  0  0  0  0  0  0  0  0  0  0  0
    9.7853   -1.1840   24.4927 C   0  0  0  0  0  0  0  0  0  0  0  0
    5.0276   -8.5227   17.5352 C   0  0  0  0  0  0  0  0  0  0  0  0
    9.8187   -2.0895   25.5800 C   0  0  0  0  0  0  0  0  0  0  0  0
    5.6473   -8.7216   15.3158 C   0  0  0  0  0  0  0  0  0  0  0  0
   10.7581   -3.1233   19.4720 N   0  0  0  0  0  0  0  0  0  0  0  0
    9.9571   -4.0573   16.8866 C   0  0  0  0  0  0  0  0  0  0  0  0
    7.6213   -6.5618   16.0087 C   0  0  0  0  0  0  0  0  0  0  0  0
   10.8583   -2.6527   20.7222 C   0  0  0  0  0  0  0  0  0  0  0  0
   10.6412   -3.5089   21.7936 C   0  0  0  0  0  0  0  0  0  0  0  0
   10.4972   -3.8968   24.1589 C   0  0  0  0  0  0  0  0  0  0  0  0
    5.9260   -8.2736   16.5517 C   0  0  0  0  0  0  0  0  0  0  0  0
    3.8816   -9.1166   17.2493 C   0  0  0  0  0  0  0  0  0  0  0  0
   10.1297   -1.6575   23.2324 C   0  0  0  0  0  0  0  0  0  0  0  0
    9.4684   -1.6929   26.7263 F   0  0  0  0  0  0  0  0  0  0  0  0
    7.7963   -7.7906   17.9837 C   0  0  0  0  0  0  0  0  0  0  0  0
   10.5884   -3.0725   16.7902 O   0  0  0  0  0  0  0  0  0  0  0  0
   10.4323   -5.3494   20.3516 C   0  0  0  0  0  0  0  0  0  0  0  0
    7.1156   -7.5454   16.8218 C   0  0  0  0  0  0  0  0  0  0  0  0
   10.3885   -4.4388   19.2773 C   0  0  0  0  0  0  0  0  0  0  0  0
    4.5160   -9.3822   15.0841 C   0  0  0  0  0  0  0  0  0  0  0  0
  1  3  4  0
  1 24  4  0
  2  6  4  0
  2 15  4  0
  3  5  4  0
  3  6  4  0
  4 21  4  0
  4 29  4  0
  5 15  4  0
  5 28  1  0
  6 16  4  0
  7 18  4  0
  7 26  4  0
  8 18  1  0
  8 19  4  0
  8 22  4  0
  9 12  4  0
  9 19  4  0
 10 12  4  0
 10 22  4  0
 11 20  4  0
 11 21  4  0
 12 23  1  0
 13 20  4  0
 13 29  4  0
 14 17  4  0
 14 28  4  0
 15 25  2  0
 16 27  4  0
 17 18  4  0
 20 27  1  0
 24 27  4  0
 26 28  4  0
M  END
$$$$

 Created by Python create_sdf_string function

 29 33  0  0  0  0  0  0  0  0999 V2000
    8.8270   -7.0288   18.4251 C   0  0  0  0  0  0  0  0  0  0  0  0
    9.1576   -4.6236   15.8860 O   0  0  0  0  0  0  0  0  0  0  0  0
    9.1509   -5.9108   17.7177 C   0  0  0  0  0  0  0  0  0  0  0  0
    3.6373   -9.5349   16.0582 N   0  0  0  0  0  0  0  0  0  0  0  0
    9.9275   -4.8001   18.0438 N   0  0  0  0  0  0  0  0  0  0  0  0
    8.5908   -5.7425   16.4412 C   0  0  0  0  0  0  0  0  0  0  0  0
   10.5993   -4.8981   21.6068 C   0  0  0  0  0  0  0  0  0  0  0  0
   10.4258   -3.0106   23.0998 C   0  0  0  0  0  0  0  0  0  0  0  0
   10.2148   -3.4364   25.4200 C   0  0  0  0  0  0  0  0  0  0  0  0
    9.7853   -1.1840   24.4927 C   0  0  0  0  0  0  0  0  0  0  0  0
    5.0276   -8.5227   17.5352 C   0  0  0  0  0  0  0  0  0  0  0  0
    9.8187   -2.0895   25.5800 C   0  0  0  0  0  0  0  0  0  0  0  0
    5.6473   -8.7216   15.3158 C   0  0  0  0  0  0  0  0  0  0  0  0
   10.7581   -3.1233   19.4720 N   0  0  0  0  0  0  0  0  0  0  0  0
    9.9571   -4.0573   16.8866 C   0  0  0  0  0  0  0  0  0  0  0  0
    7.6213   -6.5618   16.0087 C   0  0  0  0  0  0  0  0  0  0  0  0
   10.8583   -2.6527   20.7222 C   0  0  0  0  0  0  0  0  0  0  0  0
   10.6412   -3.5089   21.7936 C   0  0  0  0  0  0  0  0  0  0  0  0
   10.4972   -3.8968   24.1589 C   0  0  0  0  0  0  0  0  0  0  0  0
    5.9260   -8.2736   16.5517 C   0  0  0  0  0  0  0  0  0  0  0  0
    3.8816   -9.1166   17.2493 C   0  0  0  0  0  0  0  0  0  0  0  0
   10.1297   -1.6575   23.2324 C   0  0  0  0  0  0  0  0  0  0  0  0
    9.4684   -1.6929   26.7263 F   0  0  0  0  0  0  0  0  0  0  0  0
    7.7963   -7.7906   17.9837 C   0  0  0  0  0  0  0  0  0  0  0  0
   10.5884   -3.0725   16.7902 O   0  0  0  0  0  0  0  0  0  0  0  0
   10.4323   -5.3494   20.3516 C   0  0  0  0  0  0  0  0  0  0  0  0
    7.1156   -7.5454   16.8218 C   0  0  0  0  0  0  0  0  0  0  0  0
   10.3885   -4.4388   19.2773 C   0  0  0  0  0  0  0  0  0  0  0  0
    4.5160   -9.3822   15.0841 C   0  0  0  0  0  0  0  0  0  0  0  0
  1  3  4  0
  1 24  4  0
  2  6  4  0
  2 15  4  0
  3  5  4  0
  3  6  4  0
  4 21  4  0
  4 29  4  0
  5 15  4  0
  5 28  1  0
  6 16  4  0
  7 18  4  0
  7 26  4  0
  8 18  1  0
  8 19  4  0
  8 22  4  0
  9 12  4  0
  9 19  4  0
 10 12  4  0
 10 22  4  0
 11 20  4  0
 11 21  4  0
 12 23  1  0
 13 20  4  0
 13 29  4  0
 14 17  4  0
 14 28  4  0
 15 25  2  0
 16 27  4  0
 17 18  4  0
 20 27  1  0
 24 27  4  0
 26 28  4  0
M  END
$$$$

 Created by Python create_sdf_string function

 29 33  0  0  0  0  0  0  0  0999 V2000
    8.8270   -7.0288   18.4251 C   0  0  0  0  0  0  0  0  0  0  0  0
    9.1576   -4.6236   15.8860 O   0  0  0  0  0  0  0  0  0  0  0  0
    9.1509   -5.9108   17.7177 C   0  0  0  0  0  0  0  0  0  0  0  0
    3.6373   -9.5349   16.0582 N   0  0  0  0  0  0  0  0  0  0  0  0
    9.9275   -4.8001   18.0438 N   0  0  0  0  0  0  0  0  0  0  0  0
    8.5908   -5.7425   16.4412 C   0  0  0  0  0  0  0  0  0  0  0  0
   10.5993   -4.8981   21.6068 C   0  0  0  0  0  0  0  0  0  0  0  0
   10.4258   -3.0106   23.0998 C   0  0  0  0  0  0  0  0  0  0  0  0
   10.2148   -3.4364   25.4200 C   0  0  0  0  0  0  0  0  0  0  0  0
    9.7853   -1.1840   24.4927 C   0  0  0  0  0  0  0  0  0  0  0  0
    5.0276   -8.5227   17.5352 C   0  0  0  0  0  0  0  0  0  0  0  0
    9.8187   -2.0895   25.5800 C   0  0  0  0  0  0  0  0  0  0  0  0
    5.6473   -8.7216   15.3158 C   0  0  0  0  0  0  0  0  0  0  0  0
   10.7581   -3.1233   19.4720 N   0  0  0  0  0  0  0  0  0  0  0  0
    9.9571   -4.0573   16.8866 C   0  0  0  0  0  0  0  0  0  0  0  0
    7.6213   -6.5618   16.0087 C   0  0  0  0  0  0  0  0  0  0  0  0
   10.8583   -2.6527   20.7222 C   0  0  0  0  0  0  0  0  0  0  0  0
   10.6412   -3.5089   21.7936 C   0  0  0  0  0  0  0  0  0  0  0  0
   10.4972   -3.8968   24.1589 C   0  0  0  0  0  0  0  0  0  0  0  0
    5.9260   -8.2736   16.5517 C   0  0  0  0  0  0  0  0  0  0  0  0
    3.8816   -9.1166   17.2493 C   0  0  0  0  0  0  0  0  0  0  0  0
   10.1297   -1.6575   23.2324 C   0  0  0  0  0  0  0  0  0  0  0  0
    9.4684   -1.6929   26.7263 F   0  0  0  0  0  0  0  0  0  0  0  0
    7.7963   -7.7906   17.9837 C   0  0  0  0  0  0  0  0  0  0  0  0
   10.5884   -3.0725   16.7902 O   0  0  0  0  0  0  0  0  0  0  0  0
   10.4323   -5.3494   20.3516 C   0  0  0  0  0  0  0  0  0  0  0  0
    7.1156   -7.5454   16.8218 C   0  0  0  0  0  0  0  0  0  0  0  0
   10.3885   -4.4388   19.2773 C   0  0  0  0  0  0  0  0  0  0  0  0
    4.5160   -9.3822   15.0841 C   0  0  0  0  0  0  0  0  0  0  0  0
  1  3  4  0
  1 24  4  0
  2  6  4  0
  2 15  4  0
  3  5  4  0
  3  6  4  0
  4 21  4  0
  4 29  4  0
  5 15  4  0
  5 28  1  0
  6 16  4  0
  7 18  4  0
  7 26  4  0
  8 18  1  0
  8 19  4  0
  8 22  4  0
  9 12  4  0
  9 19  4  0
 10 12  4  0
 10 22  4  0
 11 20  4  0
 11 21  4  0
 12 23  1  0
 13 20  4  0
 13 29  4  0
 14 17  4  0
 14 28  4  0
 15 25  2  0
 16 27  4  0
 17 18  4  0
 20 27  1  0
 24 27  4  0
 26 28  4  0
M  END
$$$$

 Created by Python create_sdf_string function

 29 33  0  0  0  0  0  0  0  0999 V2000
    8.8270   -7.0288   18.4251 C   0  0  0  0  0  0  0  0  0  0  0  0
    9.1576   -4.6236   15.8860 O   0  0  0  0  0  0  0  0  0  0  0  0
    9.1509   -5.9108   17.7177 C   0  0  0  0  0  0  0  0  0  0  0  0
    3.6373   -9.5349   16.0582 N   0  0  0  0  0  0  0  0  0  0  0  0
    9.9275   -4.8001   18.0438 N   0  0  0  0  0  0  0  0  0  0  0  0
    8.5908   -5.7425   16.4412 C   0  0  0  0  0  0  0  0  0  0  0  0
   10.5993   -4.8981   21.6068 C   0  0  0  0  0  0  0  0  0  0  0  0
   10.4258   -3.0106   23.0998 C   0  0  0  0  0  0  0  0  0  0  0  0
   10.2148   -3.4364   25.4200 C   0  0  0  0  0  0  0  0  0  0  0  0
    9.7853   -1.1840   24.4927 C   0  0  0  0  0  0  0  0  0  0  0  0
    5.0276   -8.5227   17.5352 C   0  0  0  0  0  0  0  0  0  0  0  0
    9.8187   -2.0895   25.5800 C   0  0  0  0  0  0  0  0  0  0  0  0
    5.6473   -8.7216   15.3158 C   0  0  0  0  0  0  0  0  0  0  0  0
   10.7581   -3.1233   19.4720 N   0  0  0  0  0  0  0  0  0  0  0  0
    9.9571   -4.0573   16.8866 C   0  0  0  0  0  0  0  0  0  0  0  0
    7.6213   -6.5618   16.0087 C   0  0  0  0  0  0  0  0  0  0  0  0
   10.8583   -2.6527   20.7222 C   0  0  0  0  0  0  0  0  0  0  0  0
   10.6412   -3.5089   21.7936 C   0  0  0  0  0  0  0  0  0  0  0  0
   10.4972   -3.8968   24.1589 C   0  0  0  0  0  0  0  0  0  0  0  0
    5.9260   -8.2736   16.5517 C   0  0  0  0  0  0  0  0  0  0  0  0
    3.8816   -9.1166   17.2493 C   0  0  0  0  0  0  0  0  0  0  0  0
   10.1297   -1.6575   23.2324 C   0  0  0  0  0  0  0  0  0  0  0  0
    9.4684   -1.6929   26.7263 F   0  0  0  0  0  0  0  0  0  0  0  0
    7.7963   -7.7906   17.9837 C   0  0  0  0  0  0  0  0  0  0  0  0
   10.5884   -3.0725   16.7902 O   0  0  0  0  0  0  0  0  0  0  0  0
   10.4323   -5.3494   20.3516 C   0  0  0  0  0  0  0  0  0  0  0  0
    7.1156   -7.5454   16.8218 C   0  0  0  0  0  0  0  0  0  0  0  0
   10.3885   -4.4388   19.2773 C   0  0  0  0  0  0  0  0  0  0  0  0
    4.5160   -9.3822   15.0841 C   0  0  0  0  0  0  0  0  0  0  0  0
  1  3  4  0
  1 24  4  0
  2  6  4  0
  2 15  4  0
  3  5  4  0
  3  6  4  0
  4 21  4  0
  4 29  4  0
  5 15  4  0
  5 28  1  0
  6 16  4  0
  7 18  4  0
  7 26  4  0
  8 18  1  0
  8 19  4  0
  8 22  4  0
  9 12  4  0
  9 19  4  0
 10 12  4  0
 10 22  4  0
 11 20  4  0
 11 21  4  0
 12 23  1  0
 13 20  4  0
 13 29  4  0
 14 17  4  0
 14 28  4  0
 15 25  2  0
 16 27  4  0
 17 18  4  0
 20 27  1  0
 24 27  4  0
 26 28  4  0
M  END
$$$$

 Created by Python create_sdf_string function

 29 33  0  0  0  0  0  0  0  0999 V2000
    8.8270   -7.0288   18.4251 C   0  0  0  0  0  0  0  0  0  0  0  0
    9.1576   -4.6236   15.8860 O   0  0  0  0  0  0  0  0  0  0  0  0
    9.1509   -5.9108   17.7177 C   0  0  0  0  0  0  0  0  0  0  0  0
    3.6373   -9.5349   16.0582 N   0  0  0  0  0  0  0  0  0  0  0  0
    9.9275   -4.8001   18.0438 N   0  0  0  0  0  0  0  0  0  0  0  0
    8.5908   -5.7425   16.4412 C   0  0  0  0  0  0  0  0  0  0  0  0
   10.5993   -4.8981   21.6068 C   0  0  0  0  0  0  0  0  0  0  0  0
   10.4258   -3.0106   23.0998 C   0  0  0  0  0  0  0  0  0  0  0  0
   10.2148   -3.4364   25.4200 C   0  0  0  0  0  0  0  0  0  0  0  0
    9.7853   -1.1840   24.4927 C   0  0  0  0  0  0  0  0  0  0  0  0
    5.0276   -8.5227   17.5352 C   0  0  0  0  0  0  0  0  0  0  0  0
    9.8187   -2.0895   25.5800 C   0  0  0  0  0  0  0  0  0  0  0  0
    5.6473   -8.7216   15.3158 C   0  0  0  0  0  0  0  0  0  0  0  0
   10.7581   -3.1233   19.4720 N   0  0  0  0  0  0  0  0  0  0  0  0
    9.9571   -4.0573   16.8866 C   0  0  0  0  0  0  0  0  0  0  0  0
    7.6213   -6.5618   16.0087 C   0  0  0  0  0  0  0  0  0  0  0  0
   10.8583   -2.6527   20.7222 C   0  0  0  0  0  0  0  0  0  0  0  0
   10.6412   -3.5089   21.7936 C   0  0  0  0  0  0  0  0  0  0  0  0
   10.4972   -3.8968   24.1589 C   0  0  0  0  0  0  0  0  0  0  0  0
    5.9260   -8.2736   16.5517 C   0  0  0  0  0  0  0  0  0  0  0  0
    3.8816   -9.1166   17.2493 C   0  0  0  0  0  0  0  0  0  0  0  0
   10.1297   -1.6575   23.2324 C   0  0  0  0  0  0  0  0  0  0  0  0
    9.4684   -1.6929   26.7263 F   0  0  0  0  0  0  0  0  0  0  0  0
    7.7963   -7.7906   17.9837 C   0  0  0  0  0  0  0  0  0  0  0  0
   10.5884   -3.0725   16.7902 O   0  0  0  0  0  0  0  0  0  0  0  0
   10.4323   -5.3494   20.3516 C   0  0  0  0  0  0  0  0  0  0  0  0
    7.1156   -7.5454   16.8218 C   0  0  0  0  0  0  0  0  0  0  0  0
   10.3885   -4.4388   19.2773 C   0  0  0  0  0  0  0  0  0  0  0  0
    4.5160   -9.3822   15.0841 C   0  0  0  0  0  0  0  0  0  0  0  0
  1  3  4  0
  1 24  4  0
  2  6  4  0
  2 15  4  0
  3  5  4  0
  3  6  4  0
  4 21  4  0
  4 29  4  0
  5 15  4  0
  5 28  1  0
  6 16  4  0
  7 18  4  0
  7 26  4  0
  8 18  1  0
  8 19  4  0
  8 22  4  0
  9 12  4  0
  9 19  4  0
 10 12  4  0
 10 22  4  0
 11 20  4  0
 11 21  4  0
 12 23  1  0
 13 20  4  0
 13 29  4  0
 14 17  4  0
 14 28  4  0
 15 25  2  0
 16 27  4  0
 17 18  4  0
 20 27  1  0
 24 27  4  0
 26 28  4  0
M  END
$$$$

 Created by Python create_sdf_string function

 29 33  0  0  0  0  0  0  0  0999 V2000
    8.8270   -7.0288   18.4251 C   0  0  0  0  0  0  0  0  0  0  0  0
    9.1576   -4.6236   15.8860 O   0  0  0  0  0  0  0  0  0  0  0  0
    9.1509   -5.9108   17.7177 C   0  0  0  0  0  0  0  0  0  0  0  0
    3.6373   -9.5349   16.0582 N   0  0  0  0  0  0  0  0  0  0  0  0
    9.9275   -4.8001   18.0438 N   0  0  0  0  0  0  0  0  0  0  0  0
    8.5908   -5.7425   16.4412 C   0  0  0  0  0  0  0  0  0  0  0  0
   10.5993   -4.8981   21.6068 C   0  0  0  0  0  0  0  0  0  0  0  0
   10.4258   -3.0106   23.0998 C   0  0  0  0  0  0  0  0  0  0  0  0
   10.2148   -3.4364   25.4200 C   0  0  0  0  0  0  0  0  0  0  0  0
    9.7853   -1.1840   24.4927 C   0  0  0  0  0  0  0  0  0  0  0  0
    5.0276   -8.5227   17.5352 C   0  0  0  0  0  0  0  0  0  0  0  0
    9.8187   -2.0895   25.5800 C   0  0  0  0  0  0  0  0  0  0  0  0
    5.6473   -8.7216   15.3158 C   0  0  0  0  0  0  0  0  0  0  0  0
   10.7581   -3.1233   19.4720 N   0  0  0  0  0  0  0  0  0  0  0  0
    9.9571   -4.0573   16.8866 C   0  0  0  0  0  0  0  0  0  0  0  0
    7.6213   -6.5618   16.0087 C   0  0  0  0  0  0  0  0  0  0  0  0
   10.8583   -2.6527   20.7222 C   0  0  0  0  0  0  0  0  0  0  0  0
   10.6412   -3.5089   21.7936 C   0  0  0  0  0  0  0  0  0  0  0  0
   10.4972   -3.8968   24.1589 C   0  0  0  0  0  0  0  0  0  0  0  0
    5.9260   -8.2736   16.5517 C   0  0  0  0  0  0  0  0  0  0  0  0
    3.8816   -9.1166   17.2493 C   0  0  0  0  0  0  0  0  0  0  0  0
   10.1297   -1.6575   23.2324 C   0  0  0  0  0  0  0  0  0  0  0  0
    9.4684   -1.6929   26.7263 F   0  0  0  0  0  0  0  0  0  0  0  0
    7.7963   -7.7906   17.9837 C   0  0  0  0  0  0  0  0  0  0  0  0
   10.5884   -3.0725   16.7902 O   0  0  0  0  0  0  0  0  0  0  0  0
   10.4323   -5.3494   20.3516 C   0  0  0  0  0  0  0  0  0  0  0  0
    7.1156   -7.5454   16.8218 C   0  0  0  0  0  0  0  0  0  0  0  0
   10.3885   -4.4388   19.2773 C   0  0  0  0  0  0  0  0  0  0  0  0
    4.5160   -9.3822   15.0841 C   0  0  0  0  0  0  0  0  0  0  0  0
  1  3  4  0
  1 24  4  0
  2  6  4  0
  2 15  4  0
  3  5  4  0
  3  6  4  0
  4 21  4  0
  4 29  4  0
  5 15  4  0
  5 28  1  0
  6 16  4  0
  7 18  4  0
  7 26  4  0
  8 18  1  0
  8 19  4  0
  8 22  4  0
  9 12  4  0
  9 19  4  0
 10 12  4  0
 10 22  4  0
 11 20  4  0
 11 21  4  0
 12 23  1  0
 13 20  4  0
 13 29  4  0
 14 17  4  0
 14 28  4  0
 15 25  2  0
 16 27  4  0
 17 18  4  0
 20 27  1  0
 24 27  4  0
 26 28  4  0
M  END
$$$$

 Created by Python create_sdf_string function

 29 33  0  0  0  0  0  0  0  0999 V2000
    8.8270   -7.0288   18.4251 C   0  0  0  0  0  0  0  0  0  0  0  0
    9.1576   -4.6236   15.8860 O   0  0  0  0  0  0  0  0  0  0  0  0
    9.1509   -5.9108   17.7177 C   0  0  0  0  0  0  0  0  0  0  0  0
    3.6373   -9.5349   16.0582 N   0  0  0  0  0  0  0  0  0  0  0  0
    9.9275   -4.8001   18.0438 N   0  0  0  0  0  0  0  0  0  0  0  0
    8.5908   -5.7425   16.4412 C   0  0  0  0  0  0  0  0  0  0  0  0
   10.5993   -4.8981   21.6068 C   0  0  0  0  0  0  0  0  0  0  0  0
   10.4258   -3.0106   23.0998 C   0  0  0  0  0  0  0  0  0  0  0  0
   10.2148   -3.4364   25.4200 C   0  0  0  0  0  0  0  0  0  0  0  0
    9.7853   -1.1840   24.4927 C   0  0  0  0  0  0  0  0  0  0  0  0
    5.0276   -8.5227   17.5352 C   0  0  0  0  0  0  0  0  0  0  0  0
    9.8187   -2.0895   25.5800 C   0  0  0  0  0  0  0  0  0  0  0  0
    5.6473   -8.7216   15.3158 C   0  0  0  0  0  0  0  0  0  0  0  0
   10.7581   -3.1233   19.4720 N   0  0  0  0  0  0  0  0  0  0  0  0
    9.9571   -4.0573   16.8866 C   0  0  0  0  0  0  0  0  0  0  0  0
    7.6213   -6.5618   16.0087 C   0  0  0  0  0  0  0  0  0  0  0  0
   10.8583   -2.6527   20.7222 C   0  0  0  0  0  0  0  0  0  0  0  0
   10.6412   -3.5089   21.7936 C   0  0  0  0  0  0  0  0  0  0  0  0
   10.4972   -3.8968   24.1589 C   0  0  0  0  0  0  0  0  0  0  0  0
    5.9260   -8.2736   16.5517 C   0  0  0  0  0  0  0  0  0  0  0  0
    3.8816   -9.1166   17.2493 C   0  0  0  0  0  0  0  0  0  0  0  0
   10.1297   -1.6575   23.2324 C   0  0  0  0  0  0  0  0  0  0  0  0
    9.4684   -1.6929   26.7263 F   0  0  0  0  0  0  0  0  0  0  0  0
    7.7963   -7.7906   17.9837 C   0  0  0  0  0  0  0  0  0  0  0  0
   10.5884   -3.0725   16.7902 O   0  0  0  0  0  0  0  0  0  0  0  0
   10.4323   -5.3494   20.3516 C   0  0  0  0  0  0  0  0  0  0  0  0
    7.1156   -7.5454   16.8218 C   0  0  0  0  0  0  0  0  0  0  0  0
   10.3885   -4.4388   19.2773 C   0  0  0  0  0  0  0  0  0  0  0  0
    4.5160   -9.3822   15.0841 C   0  0  0  0  0  0  0  0  0  0  0  0
  1  3  4  0
  1 24  4  0
  2  6  4  0
  2 15  4  0
  3  5  4  0
  3  6  4  0
  4 21  4  0
  4 29  4  0
  5 15  4  0
  5 28  1  0
  6 16  4  0
  7 18  4  0
  7 26  4  0
  8 18  1  0
  8 19  4  0
  8 22  4  0
  9 12  4  0
  9 19  4  0
 10 12  4  0
 10 22  4  0
 11 20  4  0
 11 21  4  0
 12 23  1  0
 13 20  4  0
 13 29  4  0
 14 17  4  0
 14 28  4  0
 15 25  2  0
 16 27  4  0
 17 18  4  0
 20 27  1  0
 24 27  4  0
 26 28  4  0
M  END
$$$$

 Created by Python create_sdf_string function

 29 33  0  0  0  0  0  0  0  0999 V2000
    8.8270   -7.0288   18.4251 C   0  0  0  0  0  0  0  0  0  0  0  0
    9.1576   -4.6236   15.8860 O   0  0  0  0  0  0  0  0  0  0  0  0
    9.1509   -5.9108   17.7177 C   0  0  0  0  0  0  0  0  0  0  0  0
    3.6373   -9.5349   16.0582 N   0  0  0  0  0  0  0  0  0  0  0  0
    9.9275   -4.8001   18.0438 N   0  0  0  0  0  0  0  0  0  0  0  0
    8.5908   -5.7425   16.4412 C   0  0  0  0  0  0  0  0  0  0  0  0
   10.5993   -4.8981   21.6068 C   0  0  0  0  0  0  0  0  0  0  0  0
   10.4258   -3.0106   23.0998 C   0  0  0  0  0  0  0  0  0  0  0  0
   10.2148   -3.4364   25.4200 C   0  0  0  0  0  0  0  0  0  0  0  0
    9.7853   -1.1840   24.4927 C   0  0  0  0  0  0  0  0  0  0  0  0
    5.0276   -8.5227   17.5352 C   0  0  0  0  0  0  0  0  0  0  0  0
    9.8187   -2.0895   25.5800 C   0  0  0  0  0  0  0  0  0  0  0  0
    5.6473   -8.7216   15.3158 C   0  0  0  0  0  0  0  0  0  0  0  0
   10.7581   -3.1233   19.4720 N   0  0  0  0  0  0  0  0  0  0  0  0
    9.9571   -4.0573   16.8866 C   0  0  0  0  0  0  0  0  0  0  0  0
    7.6213   -6.5618   16.0087 C   0  0  0  0  0  0  0  0  0  0  0  0
   10.8583   -2.6527   20.7222 C   0  0  0  0  0  0  0  0  0  0  0  0
   10.6412   -3.5089   21.7936 C   0  0  0  0  0  0  0  0  0  0  0  0
   10.4972   -3.8968   24.1589 C   0  0  0  0  0  0  0  0  0  0  0  0
    5.9260   -8.2736   16.5517 C   0  0  0  0  0  0  0  0  0  0  0  0
    3.8816   -9.1166   17.2493 C   0  0  0  0  0  0  0  0  0  0  0  0
   10.1297   -1.6575   23.2324 C   0  0  0  0  0  0  0  0  0  0  0  0
    9.4684   -1.6929   26.7263 F   0  0  0  0  0  0  0  0  0  0  0  0
    7.7963   -7.7906   17.9837 C   0  0  0  0  0  0  0  0  0  0  0  0
   10.5884   -3.0725   16.7902 O   0  0  0  0  0  0  0  0  0  0  0  0
   10.4323   -5.3494   20.3516 C   0  0  0  0  0  0  0  0  0  0  0  0
    7.1156   -7.5454   16.8218 C   0  0  0  0  0  0  0  0  0  0  0  0
   10.3885   -4.4388   19.2773 C   0  0  0  0  0  0  0  0  0  0  0  0
    4.5160   -9.3822   15.0841 C   0  0  0  0  0  0  0  0  0  0  0  0
  1  3  4  0
  1 24  4  0
  2  6  4  0
  2 15  4  0
  3  5  4  0
  3  6  4  0
  4 21  4  0
  4 29  4  0
  5 15  4  0
  5 28  1  0
  6 16  4  0
  7 18  4  0
  7 26  4  0
  8 18  1  0
  8 19  4  0
  8 22  4  0
  9 12  4  0
  9 19  4  0
 10 12  4  0
 10 22  4  0
 11 20  4  0
 11 21  4  0
 12 23  1  0
 13 20  4  0
 13 29  4  0
 14 17  4  0
 14 28  4  0
 15 25  2  0
 16 27  4  0
 17 18  4  0
 20 27  1  0
 24 27  4  0
 26 28  4  0
M  END
$$$$

 Created by Python create_sdf_string function

 29 33  0  0  0  0  0  0  0  0999 V2000
    8.8270   -7.0288   18.4251 C   0  0  0  0  0  0  0  0  0  0  0  0
    9.1576   -4.6236   15.8860 O   0  0  0  0  0  0  0  0  0  0  0  0
    9.1509   -5.9108   17.7177 C   0  0  0  0  0  0  0  0  0  0  0  0
    3.6373   -9.5349   16.0582 N   0  0  0  0  0  0  0  0  0  0  0  0
    9.9275   -4.8001   18.0438 N   0  0  0  0  0  0  0  0  0  0  0  0
    8.5908   -5.7425   16.4412 C   0  0  0  0  0  0  0  0  0  0  0  0
   10.5993   -4.8981   21.6068 C   0  0  0  0  0  0  0  0  0  0  0  0
   10.4258   -3.0106   23.0998 C   0  0  0  0  0  0  0  0  0  0  0  0
   10.2148   -3.4364   25.4200 C   0  0  0  0  0  0  0  0  0  0  0  0
    9.7853   -1.1840   24.4927 C   0  0  0  0  0  0  0  0  0  0  0  0
    5.0276   -8.5227   17.5352 C   0  0  0  0  0  0  0  0  0  0  0  0
    9.8187   -2.0895   25.5800 C   0  0  0  0  0  0  0  0  0  0  0  0
    5.6473   -8.7216   15.3158 C   0  0  0  0  0  0  0  0  0  0  0  0
   10.7581   -3.1233   19.4720 N   0  0  0  0  0  0  0  0  0  0  0  0
    9.9571   -4.0573   16.8866 C   0  0  0  0  0  0  0  0  0  0  0  0
    7.6213   -6.5618   16.0087 C   0  0  0  0  0  0  0  0  0  0  0  0
   10.8583   -2.6527   20.7222 C   0  0  0  0  0  0  0  0  0  0  0  0
   10.6412   -3.5089   21.7936 C   0  0  0  0  0  0  0  0  0  0  0  0
   10.4972   -3.8968   24.1589 C   0  0  0  0  0  0  0  0  0  0  0  0
    5.9260   -8.2736   16.5517 C   0  0  0  0  0  0  0  0  0  0  0  0
    3.8816   -9.1166   17.2493 C   0  0  0  0  0  0  0  0  0  0  0  0
   10.1297   -1.6575   23.2324 C   0  0  0  0  0  0  0  0  0  0  0  0
    9.4684   -1.6929   26.7263 F   0  0  0  0  0  0  0  0  0  0  0  0
    7.7963   -7.7906   17.9837 C   0  0  0  0  0  0  0  0  0  0  0  0
   10.5884   -3.0725   16.7902 O   0  0  0  0  0  0  0  0  0  0  0  0
   10.4323   -5.3494   20.3516 C   0  0  0  0  0  0  0  0  0  0  0  0
    7.1156   -7.5454   16.8218 C   0  0  0  0  0  0  0  0  0  0  0  0
   10.3885   -4.4388   19.2773 C   0  0  0  0  0  0  0  0  0  0  0  0
    4.5160   -9.3822   15.0841 C   0  0  0  0  0  0  0  0  0  0  0  0
  1  3  4  0
  1 24  4  0
  2  6  4  0
  2 15  4  0
  3  5  4  0
  3  6  4  0
  4 21  4  0
  4 29  4  0
  5 15  4  0
  5 28  1  0
  6 16  4  0
  7 18  4  0
  7 26  4  0
  8 18  1  0
  8 19  4  0
  8 22  4  0
  9 12  4  0
  9 19  4  0
 10 12  4  0
 10 22  4  0
 11 20  4  0
 11 21  4  0
 12 23  1  0
 13 20  4  0
 13 29  4  0
 14 17  4  0
 14 28  4  0
 15 25  2  0
 16 27  4  0
 17 18  4  0
 20 27  1  0
 24 27  4  0
 26 28  4  0
M  END
$$$$

 Created by Python create_sdf_string function

 29 33  0  0  0  0  0  0  0  0999 V2000
    8.8270   -7.0288   18.4251 C   0  0  0  0  0  0  0  0  0  0  0  0
    9.1576   -4.6236   15.8860 O   0  0  0  0  0  0  0  0  0  0  0  0
    9.1509   -5.9108   17.7177 C   0  0  0  0  0  0  0  0  0  0  0  0
    3.6373   -9.5349   16.0582 N   0  0  0  0  0  0  0  0  0  0  0  0
    9.9275   -4.8001   18.0438 N   0  0  0  0  0  0  0  0  0  0  0  0
    8.5908   -5.7425   16.4412 C   0  0  0  0  0  0  0  0  0  0  0  0
   10.5993   -4.8981   21.6068 C   0  0  0  0  0  0  0  0  0  0  0  0
   10.4258   -3.0106   23.0998 C   0  0  0  0  0  0  0  0  0  0  0  0
   10.2148   -3.4364   25.4200 C   0  0  0  0  0  0  0  0  0  0  0  0
    9.7853   -1.1840   24.4927 C   0  0  0  0  0  0  0  0  0  0  0  0
    5.0276   -8.5227   17.5352 C   0  0  0  0  0  0  0  0  0  0  0  0
    9.8187   -2.0895   25.5800 C   0  0  0  0  0  0  0  0  0  0  0  0
    5.6473   -8.7216   15.3158 C   0  0  0  0  0  0  0  0  0  0  0  0
   10.7581   -3.1233   19.4720 N   0  0  0  0  0  0  0  0  0  0  0  0
    9.9571   -4.0573   16.8866 C   0  0  0  0  0  0  0  0  0  0  0  0
    7.6213   -6.5618   16.0087 C   0  0  0  0  0  0  0  0  0  0  0  0
   10.8583   -2.6527   20.7222 C   0  0  0  0  0  0  0  0  0  0  0  0
   10.6412   -3.5089   21.7936 C   0  0  0  0  0  0  0  0  0  0  0  0
   10.4972   -3.8968   24.1589 C   0  0  0  0  0  0  0  0  0  0  0  0
    5.9260   -8.2736   16.5517 C   0  0  0  0  0  0  0  0  0  0  0  0
    3.8816   -9.1166   17.2493 C   0  0  0  0  0  0  0  0  0  0  0  0
   10.1297   -1.6575   23.2324 C   0  0  0  0  0  0  0  0  0  0  0  0
    9.4684   -1.6929   26.7263 F   0  0  0  0  0  0  0  0  0  0  0  0
    7.7963   -7.7906   17.9837 C   0  0  0  0  0  0  0  0  0  0  0  0
   10.5884   -3.0725   16.7902 O   0  0  0  0  0  0  0  0  0  0  0  0
   10.4323   -5.3494   20.3516 C   0  0  0  0  0  0  0  0  0  0  0  0
    7.1156   -7.5454   16.8218 C   0  0  0  0  0  0  0  0  0  0  0  0
   10.3885   -4.4388   19.2773 C   0  0  0  0  0  0  0  0  0  0  0  0
    4.5160   -9.3822   15.0841 C   0  0  0  0  0  0  0  0  0  0  0  0
  1  3  4  0
  1 24  4  0
  2  6  4  0
  2 15  4  0
  3  5  4  0
  3  6  4  0
  4 21  4  0
  4 29  4  0
  5 15  4  0
  5 28  1  0
  6 16  4  0
  7 18  4  0
  7 26  4  0
  8 18  1  0
  8 19  4  0
  8 22  4  0
  9 12  4  0
  9 19  4  0
 10 12  4  0
 10 22  4  0
 11 20  4  0
 11 21  4  0
 12 23  1  0
 13 20  4  0
 13 29  4  0
 14 17  4  0
 14 28  4  0
 15 25  2  0
 16 27  4  0
 17 18  4  0
 20 27  1  0
 24 27  4  0
 26 28  4  0
M  END
$$$$

 Created by Python create_sdf_string function

 29 33  0  0  0  0  0  0  0  0999 V2000
    8.8270   -7.0288   18.4251 C   0  0  0  0  0  0  0  0  0  0  0  0
    9.1576   -4.6236   15.8860 O   0  0  0  0  0  0  0  0  0  0  0  0
    9.1509   -5.9108   17.7177 C   0  0  0  0  0  0  0  0  0  0  0  0
    3.6373   -9.5349   16.0582 N   0  0  0  0  0  0  0  0  0  0  0  0
    9.9275   -4.8001   18.0438 N   0  0  0  0  0  0  0  0  0  0  0  0
    8.5908   -5.7425   16.4412 C   0  0  0  0  0  0  0  0  0  0  0  0
   10.5993   -4.8981   21.6068 C   0  0  0  0  0  0  0  0  0  0  0  0
   10.4258   -3.0106   23.0998 C   0  0  0  0  0  0  0  0  0  0  0  0
   10.2148   -3.4364   25.4200 C   0  0  0  0  0  0  0  0  0  0  0  0
    9.7853   -1.1840   24.4927 C   0  0  0  0  0  0  0  0  0  0  0  0
    5.0276   -8.5227   17.5352 C   0  0  0  0  0  0  0  0  0  0  0  0
    9.8187   -2.0895   25.5800 C   0  0  0  0  0  0  0  0  0  0  0  0
    5.6473   -8.7216   15.3158 C   0  0  0  0  0  0  0  0  0  0  0  0
   10.7581   -3.1233   19.4720 N   0  0  0  0  0  0  0  0  0  0  0  0
    9.9571   -4.0573   16.8866 C   0  0  0  0  0  0  0  0  0  0  0  0
    7.6213   -6.5618   16.0087 C   0  0  0  0  0  0  0  0  0  0  0  0
   10.8583   -2.6527   20.7222 C   0  0  0  0  0  0  0  0  0  0  0  0
   10.6412   -3.5089   21.7936 C   0  0  0  0  0  0  0  0  0  0  0  0
   10.4972   -3.8968   24.1589 C   0  0  0  0  0  0  0  0  0  0  0  0
    5.9260   -8.2736   16.5517 C   0  0  0  0  0  0  0  0  0  0  0  0
    3.8816   -9.1166   17.2493 C   0  0  0  0  0  0  0  0  0  0  0  0
   10.1297   -1.6575   23.2324 C   0  0  0  0  0  0  0  0  0  0  0  0
    9.4684   -1.6929   26.7263 F   0  0  0  0  0  0  0  0  0  0  0  0
    7.7963   -7.7906   17.9837 C   0  0  0  0  0  0  0  0  0  0  0  0
   10.5884   -3.0725   16.7902 O   0  0  0  0  0  0  0  0  0  0  0  0
   10.4323   -5.3494   20.3516 C   0  0  0  0  0  0  0  0  0  0  0  0
    7.1156   -7.5454   16.8218 C   0  0  0  0  0  0  0  0  0  0  0  0
   10.3885   -4.4388   19.2773 C   0  0  0  0  0  0  0  0  0  0  0  0
    4.5160   -9.3822   15.0841 C   0  0  0  0  0  0  0  0  0  0  0  0
  1  3  4  0
  1 24  4  0
  2  6  4  0
  2 15  4  0
  3  5  4  0
  3  6  4  0
  4 21  4  0
  4 29  4  0
  5 15  4  0
  5 28  1  0
  6 16  4  0
  7 18  4  0
  7 26  4  0
  8 18  1  0
  8 19  4  0
  8 22  4  0
  9 12  4  0
  9 19  4  0
 10 12  4  0
 10 22  4  0
 11 20  4  0
 11 21  4  0
 12 23  1  0
 13 20  4  0
 13 29  4  0
 14 17  4  0
 14 28  4  0
 15 25  2  0
 16 27  4  0
 17 18  4  0
 20 27  1  0
 24 27  4  0
 26 28  4  0
M  END
$$$$

 Created by Python create_sdf_string function

 29 33  0  0  0  0  0  0  0  0999 V2000
    8.8270   -7.0288   18.4251 C   0  0  0  0  0  0  0  0  0  0  0  0
    9.1576   -4.6236   15.8860 O   0  0  0  0  0  0  0  0  0  0  0  0
    9.1509   -5.9108   17.7177 C   0  0  0  0  0  0  0  0  0  0  0  0
    3.6373   -9.5349   16.0582 N   0  0  0  0  0  0  0  0  0  0  0  0
    9.9275   -4.8001   18.0438 N   0  0  0  0  0  0  0  0  0  0  0  0
    8.5908   -5.7425   16.4412 C   0  0  0  0  0  0  0  0  0  0  0  0
   10.5993   -4.8981   21.6068 C   0  0  0  0  0  0  0  0  0  0  0  0
   10.4258   -3.0106   23.0998 C   0  0  0  0  0  0  0  0  0  0  0  0
   10.2148   -3.4364   25.4200 C   0  0  0  0  0  0  0  0  0  0  0  0
    9.7853   -1.1840   24.4927 C   0  0  0  0  0  0  0  0  0  0  0  0
    5.0276   -8.5227   17.5352 C   0  0  0  0  0  0  0  0  0  0  0  0
    9.8187   -2.0895   25.5800 C   0  0  0  0  0  0  0  0  0  0  0  0
    5.6473   -8.7216   15.3158 C   0  0  0  0  0  0  0  0  0  0  0  0
   10.7581   -3.1233   19.4720 N   0  0  0  0  0  0  0  0  0  0  0  0
    9.9571   -4.0573   16.8866 C   0  0  0  0  0  0  0  0  0  0  0  0
    7.6213   -6.5618   16.0087 C   0  0  0  0  0  0  0  0  0  0  0  0
   10.8583   -2.6527   20.7222 C   0  0  0  0  0  0  0  0  0  0  0  0
   10.6412   -3.5089   21.7936 C   0  0  0  0  0  0  0  0  0  0  0  0
   10.4972   -3.8968   24.1589 C   0  0  0  0  0  0  0  0  0  0  0  0
    5.9260   -8.2736   16.5517 C   0  0  0  0  0  0  0  0  0  0  0  0
    3.8816   -9.1166   17.2493 C   0  0  0  0  0  0  0  0  0  0  0  0
   10.1297   -1.6575   23.2324 C   0  0  0  0  0  0  0  0  0  0  0  0
    9.4684   -1.6929   26.7263 F   0  0  0  0  0  0  0  0  0  0  0  0
    7.7963   -7.7906   17.9837 C   0  0  0  0  0  0  0  0  0  0  0  0
   10.5884   -3.0725   16.7902 O   0  0  0  0  0  0  0  0  0  0  0  0
   10.4323   -5.3494   20.3516 C   0  0  0  0  0  0  0  0  0  0  0  0
    7.1156   -7.5454   16.8218 C   0  0  0  0  0  0  0  0  0  0  0  0
   10.3885   -4.4388   19.2773 C   0  0  0  0  0  0  0  0  0  0  0  0
    4.5160   -9.3822   15.0841 C   0  0  0  0  0  0  0  0  0  0  0  0
  1  3  4  0
  1 24  4  0
  2  6  4  0
  2 15  4  0
  3  5  4  0
  3  6  4  0
  4 21  4  0
  4 29  4  0
  5 15  4  0
  5 28  1  0
  6 16  4  0
  7 18  4  0
  7 26  4  0
  8 18  1  0
  8 19  4  0
  8 22  4  0
  9 12  4  0
  9 19  4  0
 10 12  4  0
 10 22  4  0
 11 20  4  0
 11 21  4  0
 12 23  1  0
 13 20  4  0
 13 29  4  0
 14 17  4  0
 14 28  4  0
 15 25  2  0
 16 27  4  0
 17 18  4  0
 20 27  1  0
 24 27  4  0
 26 28  4  0
M  END
$$$$

 Created by Python create_sdf_string function

 29 33  0  0  0  0  0  0  0  0999 V2000
    8.8270   -7.0288   18.4251 C   0  0  0  0  0  0  0  0  0  0  0  0
    9.1576   -4.6236   15.8860 O   0  0  0  0  0  0  0  0  0  0  0  0
    9.1509   -5.9108   17.7177 C   0  0  0  0  0  0  0  0  0  0  0  0
    3.6373   -9.5349   16.0582 N   0  0  0  0  0  0  0  0  0  0  0  0
    9.9275   -4.8001   18.0438 N   0  0  0  0  0  0  0  0  0  0  0  0
    8.5908   -5.7425   16.4412 C   0  0  0  0  0  0  0  0  0  0  0  0
   10.5993   -4.8981   21.6068 C   0  0  0  0  0  0  0  0  0  0  0  0
   10.4258   -3.0106   23.0998 C   0  0  0  0  0  0  0  0  0  0  0  0
   10.2148   -3.4364   25.4200 C   0  0  0  0  0  0  0  0  0  0  0  0
    9.7853   -1.1840   24.4927 C   0  0  0  0  0  0  0  0  0  0  0  0
    5.0276   -8.5227   17.5352 C   0  0  0  0  0  0  0  0  0  0  0  0
    9.8187   -2.0895   25.5800 C   0  0  0  0  0  0  0  0  0  0  0  0
    5.6473   -8.7216   15.3158 C   0  0  0  0  0  0  0  0  0  0  0  0
   10.7581   -3.1233   19.4720 N   0  0  0  0  0  0  0  0  0  0  0  0
    9.9571   -4.0573   16.8866 C   0  0  0  0  0  0  0  0  0  0  0  0
    7.6213   -6.5618   16.0087 C   0  0  0  0  0  0  0  0  0  0  0  0
   10.8583   -2.6527   20.7222 C   0  0  0  0  0  0  0  0  0  0  0  0
   10.6412   -3.5089   21.7936 C   0  0  0  0  0  0  0  0  0  0  0  0
   10.4972   -3.8968   24.1589 C   0  0  0  0  0  0  0  0  0  0  0  0
    5.9260   -8.2736   16.5517 C   0  0  0  0  0  0  0  0  0  0  0  0
    3.8816   -9.1166   17.2493 C   0  0  0  0  0  0  0  0  0  0  0  0
   10.1297   -1.6575   23.2324 C   0  0  0  0  0  0  0  0  0  0  0  0
    9.4684   -1.6929   26.7263 F   0  0  0  0  0  0  0  0  0  0  0  0
    7.7963   -7.7906   17.9837 C   0  0  0  0  0  0  0  0  0  0  0  0
   10.5884   -3.0725   16.7902 O   0  0  0  0  0  0  0  0  0  0  0  0
   10.4323   -5.3494   20.3516 C   0  0  0  0  0  0  0  0  0  0  0  0
    7.1156   -7.5454   16.8218 C   0  0  0  0  0  0  0  0  0  0  0  0
   10.3885   -4.4388   19.2773 C   0  0  0  0  0  0  0  0  0  0  0  0
    4.5160   -9.3822   15.0841 C   0  0  0  0  0  0  0  0  0  0  0  0
  1  3  4  0
  1 24  4  0
  2  6  4  0
  2 15  4  0
  3  5  4  0
  3  6  4  0
  4 21  4  0
  4 29  4  0
  5 15  4  0
  5 28  1  0
  6 16  4  0
  7 18  4  0
  7 26  4  0
  8 18  1  0
  8 19  4  0
  8 22  4  0
  9 12  4  0
  9 19  4  0
 10 12  4  0
 10 22  4  0
 11 20  4  0
 11 21  4  0
 12 23  1  0
 13 20  4  0
 13 29  4  0
 14 17  4  0
 14 28  4  0
 15 25  2  0
 16 27  4  0
 17 18  4  0
 20 27  1  0
 24 27  4  0
 26 28  4  0
M  END
$$$$

 Created by Python create_sdf_string function

 29 33  0  0  0  0  0  0  0  0999 V2000
    8.8270   -7.0288   18.4251 C   0  0  0  0  0  0  0  0  0  0  0  0
    9.1576   -4.6236   15.8860 O   0  0  0  0  0  0  0  0  0  0  0  0
    9.1509   -5.9108   17.7177 C   0  0  0  0  0  0  0  0  0  0  0  0
    3.6373   -9.5349   16.0582 N   0  0  0  0  0  0  0  0  0  0  0  0
    9.9275   -4.8001   18.0438 N   0  0  0  0  0  0  0  0  0  0  0  0
    8.5908   -5.7425   16.4412 C   0  0  0  0  0  0  0  0  0  0  0  0
   10.5993   -4.8981   21.6068 C   0  0  0  0  0  0  0  0  0  0  0  0
   10.4258   -3.0106   23.0998 C   0  0  0  0  0  0  0  0  0  0  0  0
   10.2148   -3.4364   25.4200 C   0  0  0  0  0  0  0  0  0  0  0  0
    9.7853   -1.1840   24.4927 C   0  0  0  0  0  0  0  0  0  0  0  0
    5.0276   -8.5227   17.5352 C   0  0  0  0  0  0  0  0  0  0  0  0
    9.8187   -2.0895   25.5800 C   0  0  0  0  0  0  0  0  0  0  0  0
    5.6473   -8.7216   15.3158 C   0  0  0  0  0  0  0  0  0  0  0  0
   10.7581   -3.1233   19.4720 N   0  0  0  0  0  0  0  0  0  0  0  0
    9.9571   -4.0573   16.8866 C   0  0  0  0  0  0  0  0  0  0  0  0
    7.6213   -6.5618   16.0087 C   0  0  0  0  0  0  0  0  0  0  0  0
   10.8583   -2.6527   20.7222 C   0  0  0  0  0  0  0  0  0  0  0  0
   10.6412   -3.5089   21.7936 C   0  0  0  0  0  0  0  0  0  0  0  0
   10.4972   -3.8968   24.1589 C   0  0  0  0  0  0  0  0  0  0  0  0
    5.9260   -8.2736   16.5517 C   0  0  0  0  0  0  0  0  0  0  0  0
    3.8816   -9.1166   17.2493 C   0  0  0  0  0  0  0  0  0  0  0  0
   10.1297   -1.6575   23.2324 C   0  0  0  0  0  0  0  0  0  0  0  0
    9.4684   -1.6929   26.7263 F   0  0  0  0  0  0  0  0  0  0  0  0
    7.7963   -7.7906   17.9837 C   0  0  0  0  0  0  0  0  0  0  0  0
   10.5884   -3.0725   16.7902 O   0  0  0  0  0  0  0  0  0  0  0  0
   10.4323   -5.3494   20.3516 C   0  0  0  0  0  0  0  0  0  0  0  0
    7.1156   -7.5454   16.8218 C   0  0  0  0  0  0  0  0  0  0  0  0
   10.3885   -4.4388   19.2773 C   0  0  0  0  0  0  0  0  0  0  0  0
    4.5160   -9.3822   15.0841 C   0  0  0  0  0  0  0  0  0  0  0  0
  1  3  4  0
  1 24  4  0
  2  6  4  0
  2 15  4  0
  3  5  4  0
  3  6  4  0
  4 21  4  0
  4 29  4  0
  5 15  4  0
  5 28  1  0
  6 16  4  0
  7 18  4  0
  7 26  4  0
  8 18  1  0
  8 19  4  0
  8 22  4  0
  9 12  4  0
  9 19  4  0
 10 12  4  0
 10 22  4  0
 11 20  4  0
 11 21  4  0
 12 23  1  0
 13 20  4  0
 13 29  4  0
 14 17  4  0
 14 28  4  0
 15 25  2  0
 16 27  4  0
 17 18  4  0
 20 27  1  0
 24 27  4  0
 26 28  4  0
M  END
$$$$

 Created by Python create_sdf_string function

 29 33  0  0  0  0  0  0  0  0999 V2000
    8.8270   -7.0288   18.4251 C   0  0  0  0  0  0  0  0  0  0  0  0
    9.1576   -4.6236   15.8860 O   0  0  0  0  0  0  0  0  0  0  0  0
    9.1509   -5.9108   17.7177 C   0  0  0  0  0  0  0  0  0  0  0  0
    3.6373   -9.5349   16.0582 N   0  0  0  0  0  0  0  0  0  0  0  0
    9.9275   -4.8001   18.0438 N   0  0  0  0  0  0  0  0  0  0  0  0
    8.5908   -5.7425   16.4412 C   0  0  0  0  0  0  0  0  0  0  0  0
   10.5993   -4.8981   21.6068 C   0  0  0  0  0  0  0  0  0  0  0  0
   10.4258   -3.0106   23.0998 C   0  0  0  0  0  0  0  0  0  0  0  0
   10.2148   -3.4364   25.4200 C   0  0  0  0  0  0  0  0  0  0  0  0
    9.7853   -1.1840   24.4927 C   0  0  0  0  0  0  0  0  0  0  0  0
    5.0276   -8.5227   17.5352 C   0  0  0  0  0  0  0  0  0  0  0  0
    9.8187   -2.0895   25.5800 C   0  0  0  0  0  0  0  0  0  0  0  0
    5.6473   -8.7216   15.3158 C   0  0  0  0  0  0  0  0  0  0  0  0
   10.7581   -3.1233   19.4720 N   0  0  0  0  0  0  0  0  0  0  0  0
    9.9571   -4.0573   16.8866 C   0  0  0  0  0  0  0  0  0  0  0  0
    7.6213   -6.5618   16.0087 C   0  0  0  0  0  0  0  0  0  0  0  0
   10.8583   -2.6527   20.7222 C   0  0  0  0  0  0  0  0  0  0  0  0
   10.6412   -3.5089   21.7936 C   0  0  0  0  0  0  0  0  0  0  0  0
   10.4972   -3.8968   24.1589 C   0  0  0  0  0  0  0  0  0  0  0  0
    5.9260   -8.2736   16.5517 C   0  0  0  0  0  0  0  0  0  0  0  0
    3.8816   -9.1166   17.2493 C   0  0  0  0  0  0  0  0  0  0  0  0
   10.1297   -1.6575   23.2324 C   0  0  0  0  0  0  0  0  0  0  0  0
    9.4684   -1.6929   26.7263 F   0  0  0  0  0  0  0  0  0  0  0  0
    7.7963   -7.7906   17.9837 C   0  0  0  0  0  0  0  0  0  0  0  0
   10.5884   -3.0725   16.7902 O   0  0  0  0  0  0  0  0  0  0  0  0
   10.4323   -5.3494   20.3516 C   0  0  0  0  0  0  0  0  0  0  0  0
    7.1156   -7.5454   16.8218 C   0  0  0  0  0  0  0  0  0  0  0  0
   10.3885   -4.4388   19.2773 C   0  0  0  0  0  0  0  0  0  0  0  0
    4.5160   -9.3822   15.0841 C   0  0  0  0  0  0  0  0  0  0  0  0
  1  3  4  0
  1 24  4  0
  2  6  4  0
  2 15  4  0
  3  5  4  0
  3  6  4  0
  4 21  4  0
  4 29  4  0
  5 15  4  0
  5 28  1  0
  6 16  4  0
  7 18  4  0
  7 26  4  0
  8 18  1  0
  8 19  4  0
  8 22  4  0
  9 12  4  0
  9 19  4  0
 10 12  4  0
 10 22  4  0
 11 20  4  0
 11 21  4  0
 12 23  1  0
 13 20  4  0
 13 29  4  0
 14 17  4  0
 14 28  4  0
 15 25  2  0
 16 27  4  0
 17 18  4  0
 20 27  1  0
 24 27  4  0
 26 28  4  0
M  END
$$$$

 Created by Python create_sdf_string function

 29 33  0  0  0  0  0  0  0  0999 V2000
    8.8270   -7.0288   18.4251 C   0  0  0  0  0  0  0  0  0  0  0  0
    9.1576   -4.6236   15.8860 O   0  0  0  0  0  0  0  0  0  0  0  0
    9.1509   -5.9108   17.7177 C   0  0  0  0  0  0  0  0  0  0  0  0
    3.6373   -9.5349   16.0582 N   0  0  0  0  0  0  0  0  0  0  0  0
    9.9275   -4.8001   18.0438 N   0  0  0  0  0  0  0  0  0  0  0  0
    8.5908   -5.7425   16.4412 C   0  0  0  0  0  0  0  0  0  0  0  0
   10.5993   -4.8981   21.6068 C   0  0  0  0  0  0  0  0  0  0  0  0
   10.4258   -3.0106   23.0998 C   0  0  0  0  0  0  0  0  0  0  0  0
   10.2148   -3.4364   25.4200 C   0  0  0  0  0  0  0  0  0  0  0  0
    9.7853   -1.1840   24.4927 C   0  0  0  0  0  0  0  0  0  0  0  0
    5.0276   -8.5227   17.5352 C   0  0  0  0  0  0  0  0  0  0  0  0
    9.8187   -2.0895   25.5800 C   0  0  0  0  0  0  0  0  0  0  0  0
    5.6473   -8.7216   15.3158 C   0  0  0  0  0  0  0  0  0  0  0  0
   10.7581   -3.1233   19.4720 N   0  0  0  0  0  0  0  0  0  0  0  0
    9.9571   -4.0573   16.8866 C   0  0  0  0  0  0  0  0  0  0  0  0
    7.6213   -6.5618   16.0087 C   0  0  0  0  0  0  0  0  0  0  0  0
   10.8583   -2.6527   20.7222 C   0  0  0  0  0  0  0  0  0  0  0  0
   10.6412   -3.5089   21.7936 C   0  0  0  0  0  0  0  0  0  0  0  0
   10.4972   -3.8968   24.1589 C   0  0  0  0  0  0  0  0  0  0  0  0
    5.9260   -8.2736   16.5517 C   0  0  0  0  0  0  0  0  0  0  0  0
    3.8816   -9.1166   17.2493 C   0  0  0  0  0  0  0  0  0  0  0  0
   10.1297   -1.6575   23.2324 C   0  0  0  0  0  0  0  0  0  0  0  0
    9.4684   -1.6929   26.7263 F   0  0  0  0  0  0  0  0  0  0  0  0
    7.7963   -7.7906   17.9837 C   0  0  0  0  0  0  0  0  0  0  0  0
   10.5884   -3.0725   16.7902 O   0  0  0  0  0  0  0  0  0  0  0  0
   10.4323   -5.3494   20.3516 C   0  0  0  0  0  0  0  0  0  0  0  0
    7.1156   -7.5454   16.8218 C   0  0  0  0  0  0  0  0  0  0  0  0
   10.3885   -4.4388   19.2773 C   0  0  0  0  0  0  0  0  0  0  0  0
    4.5160   -9.3822   15.0841 C   0  0  0  0  0  0  0  0  0  0  0  0
  1  3  4  0
  1 24  4  0
  2  6  4  0
  2 15  4  0
  3  5  4  0
  3  6  4  0
  4 21  4  0
  4 29  4  0
  5 15  4  0
  5 28  1  0
  6 16  4  0
  7 18  4  0
  7 26  4  0
  8 18  1  0
  8 19  4  0
  8 22  4  0
  9 12  4  0
  9 19  4  0
 10 12  4  0
 10 22  4  0
 11 20  4  0
 11 21  4  0
 12 23  1  0
 13 20  4  0
 13 29  4  0
 14 17  4  0
 14 28  4  0
 15 25  2  0
 16 27  4  0
 17 18  4  0
 20 27  1  0
 24 27  4  0
 26 28  4  0
M  END
$$$$

 Created by Python create_sdf_string function

 29 33  0  0  0  0  0  0  0  0999 V2000
    8.8270   -7.0288   18.4251 C   0  0  0  0  0  0  0  0  0  0  0  0
    9.1576   -4.6236   15.8860 O   0  0  0  0  0  0  0  0  0  0  0  0
    9.1509   -5.9108   17.7177 C   0  0  0  0  0  0  0  0  0  0  0  0
    3.6373   -9.5349   16.0582 N   0  0  0  0  0  0  0  0  0  0  0  0
    9.9275   -4.8001   18.0438 N   0  0  0  0  0  0  0  0  0  0  0  0
    8.5908   -5.7425   16.4412 C   0  0  0  0  0  0  0  0  0  0  0  0
   10.5993   -4.8981   21.6068 C   0  0  0  0  0  0  0  0  0  0  0  0
   10.4258   -3.0106   23.0998 C   0  0  0  0  0  0  0  0  0  0  0  0
   10.2148   -3.4364   25.4200 C   0  0  0  0  0  0  0  0  0  0  0  0
    9.7853   -1.1840   24.4927 C   0  0  0  0  0  0  0  0  0  0  0  0
    5.0276   -8.5227   17.5352 C   0  0  0  0  0  0  0  0  0  0  0  0
    9.8187   -2.0895   25.5800 C   0  0  0  0  0  0  0  0  0  0  0  0
    5.6473   -8.7216   15.3158 C   0  0  0  0  0  0  0  0  0  0  0  0
   10.7581   -3.1233   19.4720 N   0  0  0  0  0  0  0  0  0  0  0  0
    9.9571   -4.0573   16.8866 C   0  0  0  0  0  0  0  0  0  0  0  0
    7.6213   -6.5618   16.0087 C   0  0  0  0  0  0  0  0  0  0  0  0
   10.8583   -2.6527   20.7222 C   0  0  0  0  0  0  0  0  0  0  0  0
   10.6412   -3.5089   21.7936 C   0  0  0  0  0  0  0  0  0  0  0  0
   10.4972   -3.8968   24.1589 C   0  0  0  0  0  0  0  0  0  0  0  0
    5.9260   -8.2736   16.5517 C   0  0  0  0  0  0  0  0  0  0  0  0
    3.8816   -9.1166   17.2493 C   0  0  0  0  0  0  0  0  0  0  0  0
   10.1297   -1.6575   23.2324 C   0  0  0  0  0  0  0  0  0  0  0  0
    9.4684   -1.6929   26.7263 F   0  0  0  0  0  0  0  0  0  0  0  0
    7.7963   -7.7906   17.9837 C   0  0  0  0  0  0  0  0  0  0  0  0
   10.5884   -3.0725   16.7902 O   0  0  0  0  0  0  0  0  0  0  0  0
   10.4323   -5.3494   20.3516 C   0  0  0  0  0  0  0  0  0  0  0  0
    7.1156   -7.5454   16.8218 C   0  0  0  0  0  0  0  0  0  0  0  0
   10.3885   -4.4388   19.2773 C   0  0  0  0  0  0  0  0  0  0  0  0
    4.5160   -9.3822   15.0841 C   0  0  0  0  0  0  0  0  0  0  0  0
  1  3  4  0
  1 24  4  0
  2  6  4  0
  2 15  4  0
  3  5  4  0
  3  6  4  0
  4 21  4  0
  4 29  4  0
  5 15  4  0
  5 28  1  0
  6 16  4  0
  7 18  4  0
  7 26  4  0
  8 18  1  0
  8 19  4  0
  8 22  4  0
  9 12  4  0
  9 19  4  0
 10 12  4  0
 10 22  4  0
 11 20  4  0
 11 21  4  0
 12 23  1  0
 13 20  4  0
 13 29  4  0
 14 17  4  0
 14 28  4  0
 15 25  2  0
 16 27  4  0
 17 18  4  0
 20 27  1  0
 24 27  4  0
 26 28  4  0
M  END
$$$$

 Created by Python create_sdf_string function

 29 33  0  0  0  0  0  0  0  0999 V2000
    8.8270   -7.0288   18.4251 C   0  0  0  0  0  0  0  0  0  0  0  0
    9.1576   -4.6236   15.8860 O   0  0  0  0  0  0  0  0  0  0  0  0
    9.1509   -5.9108   17.7177 C   0  0  0  0  0  0  0  0  0  0  0  0
    3.6373   -9.5349   16.0582 N   0  0  0  0  0  0  0  0  0  0  0  0
    9.9275   -4.8001   18.0438 N   0  0  0  0  0  0  0  0  0  0  0  0
    8.5908   -5.7425   16.4412 C   0  0  0  0  0  0  0  0  0  0  0  0
   10.5993   -4.8981   21.6068 C   0  0  0  0  0  0  0  0  0  0  0  0
   10.4258   -3.0106   23.0998 C   0  0  0  0  0  0  0  0  0  0  0  0
   10.2148   -3.4364   25.4200 C   0  0  0  0  0  0  0  0  0  0  0  0
    9.7853   -1.1840   24.4927 C   0  0  0  0  0  0  0  0  0  0  0  0
    5.0276   -8.5227   17.5352 C   0  0  0  0  0  0  0  0  0  0  0  0
    9.8187   -2.0895   25.5800 C   0  0  0  0  0  0  0  0  0  0  0  0
    5.6473   -8.7216   15.3158 C   0  0  0  0  0  0  0  0  0  0  0  0
   10.7581   -3.1233   19.4720 N   0  0  0  0  0  0  0  0  0  0  0  0
    9.9571   -4.0573   16.8866 C   0  0  0  0  0  0  0  0  0  0  0  0
    7.6213   -6.5618   16.0087 C   0  0  0  0  0  0  0  0  0  0  0  0
   10.8583   -2.6527   20.7222 C   0  0  0  0  0  0  0  0  0  0  0  0
   10.6412   -3.5089   21.7936 C   0  0  0  0  0  0  0  0  0  0  0  0
   10.4972   -3.8968   24.1589 C   0  0  0  0  0  0  0  0  0  0  0  0
    5.9260   -8.2736   16.5517 C   0  0  0  0  0  0  0  0  0  0  0  0
    3.8816   -9.1166   17.2493 C   0  0  0  0  0  0  0  0  0  0  0  0
   10.1297   -1.6575   23.2324 C   0  0  0  0  0  0  0  0  0  0  0  0
    9.4684   -1.6929   26.7263 F   0  0  0  0  0  0  0  0  0  0  0  0
    7.7963   -7.7906   17.9837 C   0  0  0  0  0  0  0  0  0  0  0  0
   10.5884   -3.0725   16.7902 O   0  0  0  0  0  0  0  0  0  0  0  0
   10.4323   -5.3494   20.3516 C   0  0  0  0  0  0  0  0  0  0  0  0
    7.1156   -7.5454   16.8218 C   0  0  0  0  0  0  0  0  0  0  0  0
   10.3885   -4.4388   19.2773 C   0  0  0  0  0  0  0  0  0  0  0  0
    4.5160   -9.3822   15.0841 C   0  0  0  0  0  0  0  0  0  0  0  0
  1  3  4  0
  1 24  4  0
  2  6  4  0
  2 15  4  0
  3  5  4  0
  3  6  4  0
  4 21  4  0
  4 29  4  0
  5 15  4  0
  5 28  1  0
  6 16  4  0
  7 18  4  0
  7 26  4  0
  8 18  1  0
  8 19  4  0
  8 22  4  0
  9 12  4  0
  9 19  4  0
 10 12  4  0
 10 22  4  0
 11 20  4  0
 11 21  4  0
 12 23  1  0
 13 20  4  0
 13 29  4  0
 14 17  4  0
 14 28  4  0
 15 25  2  0
 16 27  4  0
 17 18  4  0
 20 27  1  0
 24 27  4  0
 26 28  4  0
M  END
$$$$

 Created by Python create_sdf_string function

 29 33  0  0  0  0  0  0  0  0999 V2000
    8.8270   -7.0288   18.4251 C   0  0  0  0  0  0  0  0  0  0  0  0
    9.1576   -4.6236   15.8860 O   0  0  0  0  0  0  0  0  0  0  0  0
    9.1509   -5.9108   17.7177 C   0  0  0  0  0  0  0  0  0  0  0  0
    3.6373   -9.5349   16.0582 N   0  0  0  0  0  0  0  0  0  0  0  0
    9.9275   -4.8001   18.0438 N   0  0  0  0  0  0  0  0  0  0  0  0
    8.5908   -5.7425   16.4412 C   0  0  0  0  0  0  0  0  0  0  0  0
   10.5993   -4.8981   21.6068 C   0  0  0  0  0  0  0  0  0  0  0  0
   10.4258   -3.0106   23.0998 C   0  0  0  0  0  0  0  0  0  0  0  0
   10.2148   -3.4364   25.4200 C   0  0  0  0  0  0  0  0  0  0  0  0
    9.7853   -1.1840   24.4927 C   0  0  0  0  0  0  0  0  0  0  0  0
    5.0276   -8.5227   17.5352 C   0  0  0  0  0  0  0  0  0  0  0  0
    9.8187   -2.0895   25.5800 C   0  0  0  0  0  0  0  0  0  0  0  0
    5.6473   -8.7216   15.3158 C   0  0  0  0  0  0  0  0  0  0  0  0
   10.7581   -3.1233   19.4720 N   0  0  0  0  0  0  0  0  0  0  0  0
    9.9571   -4.0573   16.8866 C   0  0  0  0  0  0  0  0  0  0  0  0
    7.6213   -6.5618   16.0087 C   0  0  0  0  0  0  0  0  0  0  0  0
   10.8583   -2.6527   20.7222 C   0  0  0  0  0  0  0  0  0  0  0  0
   10.6412   -3.5089   21.7936 C   0  0  0  0  0  0  0  0  0  0  0  0
   10.4972   -3.8968   24.1589 C   0  0  0  0  0  0  0  0  0  0  0  0
    5.9260   -8.2736   16.5517 C   0  0  0  0  0  0  0  0  0  0  0  0
    3.8816   -9.1166   17.2493 C   0  0  0  0  0  0  0  0  0  0  0  0
   10.1297   -1.6575   23.2324 C   0  0  0  0  0  0  0  0  0  0  0  0
    9.4684   -1.6929   26.7263 F   0  0  0  0  0  0  0  0  0  0  0  0
    7.7963   -7.7906   17.9837 C   0  0  0  0  0  0  0  0  0  0  0  0
   10.5884   -3.0725   16.7902 O   0  0  0  0  0  0  0  0  0  0  0  0
   10.4323   -5.3494   20.3516 C   0  0  0  0  0  0  0  0  0  0  0  0
    7.1156   -7.5454   16.8218 C   0  0  0  0  0  0  0  0  0  0  0  0
   10.3885   -4.4388   19.2773 C   0  0  0  0  0  0  0  0  0  0  0  0
    4.5160   -9.3822   15.0841 C   0  0  0  0  0  0  0  0  0  0  0  0
  1  3  4  0
  1 24  4  0
  2  6  4  0
  2 15  4  0
  3  5  4  0
  3  6  4  0
  4 21  4  0
  4 29  4  0
  5 15  4  0
  5 28  1  0
  6 16  4  0
  7 18  4  0
  7 26  4  0
  8 18  1  0
  8 19  4  0
  8 22  4  0
  9 12  4  0
  9 19  4  0
 10 12  4  0
 10 22  4  0
 11 20  4  0
 11 21  4  0
 12 23  1  0
 13 20  4  0
 13 29  4  0
 14 17  4  0
 14 28  4  0
 15 25  2  0
 16 27  4  0
 17 18  4  0
 20 27  1  0
 24 27  4  0
 26 28  4  0
M  END
$$$$

 Created by Python create_sdf_string function

 29 33  0  0  0  0  0  0  0  0999 V2000
    8.8270   -7.0288   18.4251 C   0  0  0  0  0  0  0  0  0  0  0  0
    9.1576   -4.6236   15.8860 O   0  0  0  0  0  0  0  0  0  0  0  0
    9.1509   -5.9108   17.7177 C   0  0  0  0  0  0  0  0  0  0  0  0
    3.6373   -9.5349   16.0582 N   0  0  0  0  0  0  0  0  0  0  0  0
    9.9275   -4.8001   18.0438 N   0  0  0  0  0  0  0  0  0  0  0  0
    8.5908   -5.7425   16.4412 C   0  0  0  0  0  0  0  0  0  0  0  0
   10.5993   -4.8981   21.6068 C   0  0  0  0  0  0  0  0  0  0  0  0
   10.4258   -3.0106   23.0998 C   0  0  0  0  0  0  0  0  0  0  0  0
   10.2148   -3.4364   25.4200 C   0  0  0  0  0  0  0  0  0  0  0  0
    9.7853   -1.1840   24.4927 C   0  0  0  0  0  0  0  0  0  0  0  0
    5.0276   -8.5227   17.5352 C   0  0  0  0  0  0  0  0  0  0  0  0
    9.8187   -2.0895   25.5800 C   0  0  0  0  0  0  0  0  0  0  0  0
    5.6473   -8.7216   15.3158 C   0  0  0  0  0  0  0  0  0  0  0  0
   10.7581   -3.1233   19.4720 N   0  0  0  0  0  0  0  0  0  0  0  0
    9.9571   -4.0573   16.8866 C   0  0  0  0  0  0  0  0  0  0  0  0
    7.6213   -6.5618   16.0087 C   0  0  0  0  0  0  0  0  0  0  0  0
   10.8583   -2.6527   20.7222 C   0  0  0  0  0  0  0  0  0  0  0  0
   10.6412   -3.5089   21.7936 C   0  0  0  0  0  0  0  0  0  0  0  0
   10.4972   -3.8968   24.1589 C   0  0  0  0  0  0  0  0  0  0  0  0
    5.9260   -8.2736   16.5517 C   0  0  0  0  0  0  0  0  0  0  0  0
    3.8816   -9.1166   17.2493 C   0  0  0  0  0  0  0  0  0  0  0  0
   10.1297   -1.6575   23.2324 C   0  0  0  0  0  0  0  0  0  0  0  0
    9.4684   -1.6929   26.7263 F   0  0  0  0  0  0  0  0  0  0  0  0
    7.7963   -7.7906   17.9837 C   0  0  0  0  0  0  0  0  0  0  0  0
   10.5884   -3.0725   16.7902 O   0  0  0  0  0  0  0  0  0  0  0  0
   10.4323   -5.3494   20.3516 C   0  0  0  0  0  0  0  0  0  0  0  0
    7.1156   -7.5454   16.8218 C   0  0  0  0  0  0  0  0  0  0  0  0
   10.3885   -4.4388   19.2773 C   0  0  0  0  0  0  0  0  0  0  0  0
    4.5160   -9.3822   15.0841 C   0  0  0  0  0  0  0  0  0  0  0  0
  1  3  4  0
  1 24  4  0
  2  6  4  0
  2 15  4  0
  3  5  4  0
  3  6  4  0
  4 21  4  0
  4 29  4  0
  5 15  4  0
  5 28  1  0
  6 16  4  0
  7 18  4  0
  7 26  4  0
  8 18  1  0
  8 19  4  0
  8 22  4  0
  9 12  4  0
  9 19  4  0
 10 12  4  0
 10 22  4  0
 11 20  4  0
 11 21  4  0
 12 23  1  0
 13 20  4  0
 13 29  4  0
 14 17  4  0
 14 28  4  0
 15 25  2  0
 16 27  4  0
 17 18  4  0
 20 27  1  0
 24 27  4  0
 26 28  4  0
M  END
$$$$

 Created by Python create_sdf_string function

 29 33  0  0  0  0  0  0  0  0999 V2000
    8.8270   -7.0288   18.4251 C   0  0  0  0  0  0  0  0  0  0  0  0
    9.1576   -4.6236   15.8860 O   0  0  0  0  0  0  0  0  0  0  0  0
    9.1509   -5.9108   17.7177 C   0  0  0  0  0  0  0  0  0  0  0  0
    3.6373   -9.5349   16.0582 N   0  0  0  0  0  0  0  0  0  0  0  0
    9.9275   -4.8001   18.0438 N   0  0  0  0  0  0  0  0  0  0  0  0
    8.5908   -5.7425   16.4412 C   0  0  0  0  0  0  0  0  0  0  0  0
   10.5993   -4.8981   21.6068 C   0  0  0  0  0  0  0  0  0  0  0  0
   10.4258   -3.0106   23.0998 C   0  0  0  0  0  0  0  0  0  0  0  0
   10.2148   -3.4364   25.4200 C   0  0  0  0  0  0  0  0  0  0  0  0
    9.7853   -1.1840   24.4927 C   0  0  0  0  0  0  0  0  0  0  0  0
    5.0276   -8.5227   17.5352 C   0  0  0  0  0  0  0  0  0  0  0  0
    9.8187   -2.0895   25.5800 C   0  0  0  0  0  0  0  0  0  0  0  0
    5.6473   -8.7216   15.3158 C   0  0  0  0  0  0  0  0  0  0  0  0
   10.7581   -3.1233   19.4720 N   0  0  0  0  0  0  0  0  0  0  0  0
    9.9571   -4.0573   16.8866 C   0  0  0  0  0  0  0  0  0  0  0  0
    7.6213   -6.5618   16.0087 C   0  0  0  0  0  0  0  0  0  0  0  0
   10.8583   -2.6527   20.7222 C   0  0  0  0  0  0  0  0  0  0  0  0
   10.6412   -3.5089   21.7936 C   0  0  0  0  0  0  0  0  0  0  0  0
   10.4972   -3.8968   24.1589 C   0  0  0  0  0  0  0  0  0  0  0  0
    5.9260   -8.2736   16.5517 C   0  0  0  0  0  0  0  0  0  0  0  0
    3.8816   -9.1166   17.2493 C   0  0  0  0  0  0  0  0  0  0  0  0
   10.1297   -1.6575   23.2324 C   0  0  0  0  0  0  0  0  0  0  0  0
    9.4684   -1.6929   26.7263 F   0  0  0  0  0  0  0  0  0  0  0  0
    7.7963   -7.7906   17.9837 C   0  0  0  0  0  0  0  0  0  0  0  0
   10.5884   -3.0725   16.7902 O   0  0  0  0  0  0  0  0  0  0  0  0
   10.4323   -5.3494   20.3516 C   0  0  0  0  0  0  0  0  0  0  0  0
    7.1156   -7.5454   16.8218 C   0  0  0  0  0  0  0  0  0  0  0  0
   10.3885   -4.4388   19.2773 C   0  0  0  0  0  0  0  0  0  0  0  0
    4.5160   -9.3822   15.0841 C   0  0  0  0  0  0  0  0  0  0  0  0
  1  3  4  0
  1 24  4  0
  2  6  4  0
  2 15  4  0
  3  5  4  0
  3  6  4  0
  4 21  4  0
  4 29  4  0
  5 15  4  0
  5 28  1  0
  6 16  4  0
  7 18  4  0
  7 26  4  0
  8 18  1  0
  8 19  4  0
  8 22  4  0
  9 12  4  0
  9 19  4  0
 10 12  4  0
 10 22  4  0
 11 20  4  0
 11 21  4  0
 12 23  1  0
 13 20  4  0
 13 29  4  0
 14 17  4  0
 14 28  4  0
 15 25  2  0
 16 27  4  0
 17 18  4  0
 20 27  1  0
 24 27  4  0
 26 28  4  0
M  END
$$$$

 Created by Python create_sdf_string function

 29 33  0  0  0  0  0  0  0  0999 V2000
    8.8270   -7.0288   18.4251 C   0  0  0  0  0  0  0  0  0  0  0  0
    9.1576   -4.6236   15.8860 O   0  0  0  0  0  0  0  0  0  0  0  0
    9.1509   -5.9108   17.7177 C   0  0  0  0  0  0  0  0  0  0  0  0
    3.6373   -9.5349   16.0582 N   0  0  0  0  0  0  0  0  0  0  0  0
    9.9275   -4.8001   18.0438 N   0  0  0  0  0  0  0  0  0  0  0  0
    8.5908   -5.7425   16.4412 C   0  0  0  0  0  0  0  0  0  0  0  0
   10.5993   -4.8981   21.6068 C   0  0  0  0  0  0  0  0  0  0  0  0
   10.4258   -3.0106   23.0998 C   0  0  0  0  0  0  0  0  0  0  0  0
   10.2148   -3.4364   25.4200 C   0  0  0  0  0  0  0  0  0  0  0  0
    9.7853   -1.1840   24.4927 C   0  0  0  0  0  0  0  0  0  0  0  0
    5.0276   -8.5227   17.5352 C   0  0  0  0  0  0  0  0  0  0  0  0
    9.8187   -2.0895   25.5800 C   0  0  0  0  0  0  0  0  0  0  0  0
    5.6473   -8.7216   15.3158 C   0  0  0  0  0  0  0  0  0  0  0  0
   10.7581   -3.1233   19.4720 N   0  0  0  0  0  0  0  0  0  0  0  0
    9.9571   -4.0573   16.8866 C   0  0  0  0  0  0  0  0  0  0  0  0
    7.6213   -6.5618   16.0087 C   0  0  0  0  0  0  0  0  0  0  0  0
   10.8583   -2.6527   20.7222 C   0  0  0  0  0  0  0  0  0  0  0  0
   10.6412   -3.5089   21.7936 C   0  0  0  0  0  0  0  0  0  0  0  0
   10.4972   -3.8968   24.1589 C   0  0  0  0  0  0  0  0  0  0  0  0
    5.9260   -8.2736   16.5517 C   0  0  0  0  0  0  0  0  0  0  0  0
    3.8816   -9.1166   17.2493 C   0  0  0  0  0  0  0  0  0  0  0  0
   10.1297   -1.6575   23.2324 C   0  0  0  0  0  0  0  0  0  0  0  0
    9.4684   -1.6929   26.7263 F   0  0  0  0  0  0  0  0  0  0  0  0
    7.7963   -7.7906   17.9837 C   0  0  0  0  0  0  0  0  0  0  0  0
   10.5884   -3.0725   16.7902 O   0  0  0  0  0  0  0  0  0  0  0  0
   10.4323   -5.3494   20.3516 C   0  0  0  0  0  0  0  0  0  0  0  0
    7.1156   -7.5454   16.8218 C   0  0  0  0  0  0  0  0  0  0  0  0
   10.3885   -4.4388   19.2773 C   0  0  0  0  0  0  0  0  0  0  0  0
    4.5160   -9.3822   15.0841 C   0  0  0  0  0  0  0  0  0  0  0  0
  1  3  4  0
  1 24  4  0
  2  6  4  0
  2 15  4  0
  3  5  4  0
  3  6  4  0
  4 21  4  0
  4 29  4  0
  5 15  4  0
  5 28  1  0
  6 16  4  0
  7 18  4  0
  7 26  4  0
  8 18  1  0
  8 19  4  0
  8 22  4  0
  9 12  4  0
  9 19  4  0
 10 12  4  0
 10 22  4  0
 11 20  4  0
 11 21  4  0
 12 23  1  0
 13 20  4  0
 13 29  4  0
 14 17  4  0
 14 28  4  0
 15 25  2  0
 16 27  4  0
 17 18  4  0
 20 27  1  0
 24 27  4  0
 26 28  4  0
M  END
$$$$

 Created by Python create_sdf_string function

 29 33  0  0  0  0  0  0  0  0999 V2000
    8.8270   -7.0288   18.4251 C   0  0  0  0  0  0  0  0  0  0  0  0
    9.1576   -4.6236   15.8860 O   0  0  0  0  0  0  0  0  0  0  0  0
    9.1509   -5.9108   17.7177 C   0  0  0  0  0  0  0  0  0  0  0  0
    3.6373   -9.5349   16.0582 N   0  0  0  0  0  0  0  0  0  0  0  0
    9.9275   -4.8001   18.0438 N   0  0  0  0  0  0  0  0  0  0  0  0
    8.5908   -5.7425   16.4412 C   0  0  0  0  0  0  0  0  0  0  0  0
   10.5993   -4.8981   21.6068 C   0  0  0  0  0  0  0  0  0  0  0  0
   10.4258   -3.0106   23.0998 C   0  0  0  0  0  0  0  0  0  0  0  0
   10.2148   -3.4364   25.4200 C   0  0  0  0  0  0  0  0  0  0  0  0
    9.7853   -1.1840   24.4927 C   0  0  0  0  0  0  0  0  0  0  0  0
    5.0276   -8.5227   17.5352 C   0  0  0  0  0  0  0  0  0  0  0  0
    9.8187   -2.0895   25.5800 C   0  0  0  0  0  0  0  0  0  0  0  0
    5.6473   -8.7216   15.3158 C   0  0  0  0  0  0  0  0  0  0  0  0
   10.7581   -3.1233   19.4720 N   0  0  0  0  0  0  0  0  0  0  0  0
    9.9571   -4.0573   16.8866 C   0  0  0  0  0  0  0  0  0  0  0  0
    7.6213   -6.5618   16.0087 C   0  0  0  0  0  0  0  0  0  0  0  0
   10.8583   -2.6527   20.7222 C   0  0  0  0  0  0  0  0  0  0  0  0
   10.6412   -3.5089   21.7936 C   0  0  0  0  0  0  0  0  0  0  0  0
   10.4972   -3.8968   24.1589 C   0  0  0  0  0  0  0  0  0  0  0  0
    5.9260   -8.2736   16.5517 C   0  0  0  0  0  0  0  0  0  0  0  0
    3.8816   -9.1166   17.2493 C   0  0  0  0  0  0  0  0  0  0  0  0
   10.1297   -1.6575   23.2324 C   0  0  0  0  0  0  0  0  0  0  0  0
    9.4684   -1.6929   26.7263 F   0  0  0  0  0  0  0  0  0  0  0  0
    7.7963   -7.7906   17.9837 C   0  0  0  0  0  0  0  0  0  0  0  0
   10.5884   -3.0725   16.7902 O   0  0  0  0  0  0  0  0  0  0  0  0
   10.4323   -5.3494   20.3516 C   0  0  0  0  0  0  0  0  0  0  0  0
    7.1156   -7.5454   16.8218 C   0  0  0  0  0  0  0  0  0  0  0  0
   10.3885   -4.4388   19.2773 C   0  0  0  0  0  0  0  0  0  0  0  0
    4.5160   -9.3822   15.0841 C   0  0  0  0  0  0  0  0  0  0  0  0
  1  3  4  0
  1 24  4  0
  2  6  4  0
  2 15  4  0
  3  5  4  0
  3  6  4  0
  4 21  4  0
  4 29  4  0
  5 15  4  0
  5 28  1  0
  6 16  4  0
  7 18  4  0
  7 26  4  0
  8 18  1  0
  8 19  4  0
  8 22  4  0
  9 12  4  0
  9 19  4  0
 10 12  4  0
 10 22  4  0
 11 20  4  0
 11 21  4  0
 12 23  1  0
 13 20  4  0
 13 29  4  0
 14 17  4  0
 14 28  4  0
 15 25  2  0
 16 27  4  0
 17 18  4  0
 20 27  1  0
 24 27  4  0
 26 28  4  0
M  END
$$$$

 Created by Python create_sdf_string function

 29 33  0  0  0  0  0  0  0  0999 V2000
    8.8270   -7.0288   18.4251 C   0  0  0  0  0  0  0  0  0  0  0  0
    9.1576   -4.6236   15.8860 O   0  0  0  0  0  0  0  0  0  0  0  0
    9.1509   -5.9108   17.7177 C   0  0  0  0  0  0  0  0  0  0  0  0
    3.6373   -9.5349   16.0582 N   0  0  0  0  0  0  0  0  0  0  0  0
    9.9275   -4.8001   18.0438 N   0  0  0  0  0  0  0  0  0  0  0  0
    8.5908   -5.7425   16.4412 C   0  0  0  0  0  0  0  0  0  0  0  0
   10.5993   -4.8981   21.6068 C   0  0  0  0  0  0  0  0  0  0  0  0
   10.4258   -3.0106   23.0998 C   0  0  0  0  0  0  0  0  0  0  0  0
   10.2148   -3.4364   25.4200 C   0  0  0  0  0  0  0  0  0  0  0  0
    9.7853   -1.1840   24.4927 C   0  0  0  0  0  0  0  0  0  0  0  0
    5.0276   -8.5227   17.5352 C   0  0  0  0  0  0  0  0  0  0  0  0
    9.8187   -2.0895   25.5800 C   0  0  0  0  0  0  0  0  0  0  0  0
    5.6473   -8.7216   15.3158 C   0  0  0  0  0  0  0  0  0  0  0  0
   10.7581   -3.1233   19.4720 N   0  0  0  0  0  0  0  0  0  0  0  0
    9.9571   -4.0573   16.8866 C   0  0  0  0  0  0  0  0  0  0  0  0
    7.6213   -6.5618   16.0087 C   0  0  0  0  0  0  0  0  0  0  0  0
   10.8583   -2.6527   20.7222 C   0  0  0  0  0  0  0  0  0  0  0  0
   10.6412   -3.5089   21.7936 C   0  0  0  0  0  0  0  0  0  0  0  0
   10.4972   -3.8968   24.1589 C   0  0  0  0  0  0  0  0  0  0  0  0
    5.9260   -8.2736   16.5517 C   0  0  0  0  0  0  0  0  0  0  0  0
    3.8816   -9.1166   17.2493 C   0  0  0  0  0  0  0  0  0  0  0  0
   10.1297   -1.6575   23.2324 C   0  0  0  0  0  0  0  0  0  0  0  0
    9.4684   -1.6929   26.7263 F   0  0  0  0  0  0  0  0  0  0  0  0
    7.7963   -7.7906   17.9837 C   0  0  0  0  0  0  0  0  0  0  0  0
   10.5884   -3.0725   16.7902 O   0  0  0  0  0  0  0  0  0  0  0  0
   10.4323   -5.3494   20.3516 C   0  0  0  0  0  0  0  0  0  0  0  0
    7.1156   -7.5454   16.8218 C   0  0  0  0  0  0  0  0  0  0  0  0
   10.3885   -4.4388   19.2773 C   0  0  0  0  0  0  0  0  0  0  0  0
    4.5160   -9.3822   15.0841 C   0  0  0  0  0  0  0  0  0  0  0  0
  1  3  4  0
  1 24  4  0
  2  6  4  0
  2 15  4  0
  3  5  4  0
  3  6  4  0
  4 21  4  0
  4 29  4  0
  5 15  4  0
  5 28  1  0
  6 16  4  0
  7 18  4  0
  7 26  4  0
  8 18  1  0
  8 19  4  0
  8 22  4  0
  9 12  4  0
  9 19  4  0
 10 12  4  0
 10 22  4  0
 11 20  4  0
 11 21  4  0
 12 23  1  0
 13 20  4  0
 13 29  4  0
 14 17  4  0
 14 28  4  0
 15 25  2  0
 16 27  4  0
 17 18  4  0
 20 27  1  0
 24 27  4  0
 26 28  4  0
M  END
$$$$

 Created by Python create_sdf_string function

 29 33  0  0  0  0  0  0  0  0999 V2000
    8.8270   -7.0288   18.4251 C   0  0  0  0  0  0  0  0  0  0  0  0
    9.1576   -4.6236   15.8860 O   0  0  0  0  0  0  0  0  0  0  0  0
    9.1509   -5.9108   17.7177 C   0  0  0  0  0  0  0  0  0  0  0  0
    3.6373   -9.5349   16.0582 N   0  0  0  0  0  0  0  0  0  0  0  0
    9.9275   -4.8001   18.0438 N   0  0  0  0  0  0  0  0  0  0  0  0
    8.5908   -5.7425   16.4412 C   0  0  0  0  0  0  0  0  0  0  0  0
   10.5993   -4.8981   21.6068 C   0  0  0  0  0  0  0  0  0  0  0  0
   10.4258   -3.0106   23.0998 C   0  0  0  0  0  0  0  0  0  0  0  0
   10.2148   -3.4364   25.4200 C   0  0  0  0  0  0  0  0  0  0  0  0
    9.7853   -1.1840   24.4927 C   0  0  0  0  0  0  0  0  0  0  0  0
    5.0276   -8.5227   17.5352 C   0  0  0  0  0  0  0  0  0  0  0  0
    9.8187   -2.0895   25.5800 C   0  0  0  0  0  0  0  0  0  0  0  0
    5.6473   -8.7216   15.3158 C   0  0  0  0  0  0  0  0  0  0  0  0
   10.7581   -3.1233   19.4720 N   0  0  0  0  0  0  0  0  0  0  0  0
    9.9571   -4.0573   16.8866 C   0  0  0  0  0  0  0  0  0  0  0  0
    7.6213   -6.5618   16.0087 C   0  0  0  0  0  0  0  0  0  0  0  0
   10.8583   -2.6527   20.7222 C   0  0  0  0  0  0  0  0  0  0  0  0
   10.6412   -3.5089   21.7936 C   0  0  0  0  0  0  0  0  0  0  0  0
   10.4972   -3.8968   24.1589 C   0  0  0  0  0  0  0  0  0  0  0  0
    5.9260   -8.2736   16.5517 C   0  0  0  0  0  0  0  0  0  0  0  0
    3.8816   -9.1166   17.2493 C   0  0  0  0  0  0  0  0  0  0  0  0
   10.1297   -1.6575   23.2324 C   0  0  0  0  0  0  0  0  0  0  0  0
    9.4684   -1.6929   26.7263 F   0  0  0  0  0  0  0  0  0  0  0  0
    7.7963   -7.7906   17.9837 C   0  0  0  0  0  0  0  0  0  0  0  0
   10.5884   -3.0725   16.7902 O   0  0  0  0  0  0  0  0  0  0  0  0
   10.4323   -5.3494   20.3516 C   0  0  0  0  0  0  0  0  0  0  0  0
    7.1156   -7.5454   16.8218 C   0  0  0  0  0  0  0  0  0  0  0  0
   10.3885   -4.4388   19.2773 C   0  0  0  0  0  0  0  0  0  0  0  0
    4.5160   -9.3822   15.0841 C   0  0  0  0  0  0  0  0  0  0  0  0
  1  3  4  0
  1 24  4  0
  2  6  4  0
  2 15  4  0
  3  5  4  0
  3  6  4  0
  4 21  4  0
  4 29  4  0
  5 15  4  0
  5 28  1  0
  6 16  4  0
  7 18  4  0
  7 26  4  0
  8 18  1  0
  8 19  4  0
  8 22  4  0
  9 12  4  0
  9 19  4  0
 10 12  4  0
 10 22  4  0
 11 20  4  0
 11 21  4  0
 12 23  1  0
 13 20  4  0
 13 29  4  0
 14 17  4  0
 14 28  4  0
 15 25  2  0
 16 27  4  0
 17 18  4  0
 20 27  1  0
 24 27  4  0
 26 28  4  0
M  END
$$$$

 Created by Python create_sdf_string function

 29 33  0  0  0  0  0  0  0  0999 V2000
    8.8270   -7.0288   18.4251 C   0  0  0  0  0  0  0  0  0  0  0  0
    9.1576   -4.6236   15.8860 O   0  0  0  0  0  0  0  0  0  0  0  0
    9.1509   -5.9108   17.7177 C   0  0  0  0  0  0  0  0  0  0  0  0
    3.6373   -9.5349   16.0582 N   0  0  0  0  0  0  0  0  0  0  0  0
    9.9275   -4.8001   18.0438 N   0  0  0  0  0  0  0  0  0  0  0  0
    8.5908   -5.7425   16.4412 C   0  0  0  0  0  0  0  0  0  0  0  0
   10.5993   -4.8981   21.6068 C   0  0  0  0  0  0  0  0  0  0  0  0
   10.4258   -3.0106   23.0998 C   0  0  0  0  0  0  0  0  0  0  0  0
   10.2148   -3.4364   25.4200 C   0  0  0  0  0  0  0  0  0  0  0  0
    9.7853   -1.1840   24.4927 C   0  0  0  0  0  0  0  0  0  0  0  0
    5.0276   -8.5227   17.5352 C   0  0  0  0  0  0  0  0  0  0  0  0
    9.8187   -2.0895   25.5800 C   0  0  0  0  0  0  0  0  0  0  0  0
    5.6473   -8.7216   15.3158 C   0  0  0  0  0  0  0  0  0  0  0  0
   10.7581   -3.1233   19.4720 N   0  0  0  0  0  0  0  0  0  0  0  0
    9.9571   -4.0573   16.8866 C   0  0  0  0  0  0  0  0  0  0  0  0
    7.6213   -6.5618   16.0087 C   0  0  0  0  0  0  0  0  0  0  0  0
   10.8583   -2.6527   20.7222 C   0  0  0  0  0  0  0  0  0  0  0  0
   10.6412   -3.5089   21.7936 C   0  0  0  0  0  0  0  0  0  0  0  0
   10.4972   -3.8968   24.1589 C   0  0  0  0  0  0  0  0  0  0  0  0
    5.9260   -8.2736   16.5517 C   0  0  0  0  0  0  0  0  0  0  0  0
    3.8816   -9.1166   17.2493 C   0  0  0  0  0  0  0  0  0  0  0  0
   10.1297   -1.6575   23.2324 C   0  0  0  0  0  0  0  0  0  0  0  0
    9.4684   -1.6929   26.7263 F   0  0  0  0  0  0  0  0  0  0  0  0
    7.7963   -7.7906   17.9837 C   0  0  0  0  0  0  0  0  0  0  0  0
   10.5884   -3.0725   16.7902 O   0  0  0  0  0  0  0  0  0  0  0  0
   10.4323   -5.3494   20.3516 C   0  0  0  0  0  0  0  0  0  0  0  0
    7.1156   -7.5454   16.8218 C   0  0  0  0  0  0  0  0  0  0  0  0
   10.3885   -4.4388   19.2773 C   0  0  0  0  0  0  0  0  0  0  0  0
    4.5160   -9.3822   15.0841 C   0  0  0  0  0  0  0  0  0  0  0  0
  1  3  4  0
  1 24  4  0
  2  6  4  0
  2 15  4  0
  3  5  4  0
  3  6  4  0
  4 21  4  0
  4 29  4  0
  5 15  4  0
  5 28  1  0
  6 16  4  0
  7 18  4  0
  7 26  4  0
  8 18  1  0
  8 19  4  0
  8 22  4  0
  9 12  4  0
  9 19  4  0
 10 12  4  0
 10 22  4  0
 11 20  4  0
 11 21  4  0
 12 23  1  0
 13 20  4  0
 13 29  4  0
 14 17  4  0
 14 28  4  0
 15 25  2  0
 16 27  4  0
 17 18  4  0
 20 27  1  0
 24 27  4  0
 26 28  4  0
M  END
$$$$

 Created by Python create_sdf_string function

 29 33  0  0  0  0  0  0  0  0999 V2000
    8.8270   -7.0288   18.4251 C   0  0  0  0  0  0  0  0  0  0  0  0
    9.1576   -4.6236   15.8860 O   0  0  0  0  0  0  0  0  0  0  0  0
    9.1509   -5.9108   17.7177 C   0  0  0  0  0  0  0  0  0  0  0  0
    3.6373   -9.5349   16.0582 N   0  0  0  0  0  0  0  0  0  0  0  0
    9.9275   -4.8001   18.0438 N   0  0  0  0  0  0  0  0  0  0  0  0
    8.5908   -5.7425   16.4412 C   0  0  0  0  0  0  0  0  0  0  0  0
   10.5993   -4.8981   21.6068 C   0  0  0  0  0  0  0  0  0  0  0  0
   10.4258   -3.0106   23.0998 C   0  0  0  0  0  0  0  0  0  0  0  0
   10.2148   -3.4364   25.4200 C   0  0  0  0  0  0  0  0  0  0  0  0
    9.7853   -1.1840   24.4927 C   0  0  0  0  0  0  0  0  0  0  0  0
    5.0276   -8.5227   17.5352 C   0  0  0  0  0  0  0  0  0  0  0  0
    9.8187   -2.0895   25.5800 C   0  0  0  0  0  0  0  0  0  0  0  0
    5.6473   -8.7216   15.3158 C   0  0  0  0  0  0  0  0  0  0  0  0
   10.7581   -3.1233   19.4720 N   0  0  0  0  0  0  0  0  0  0  0  0
    9.9571   -4.0573   16.8866 C   0  0  0  0  0  0  0  0  0  0  0  0
    7.6213   -6.5618   16.0087 C   0  0  0  0  0  0  0  0  0  0  0  0
   10.8583   -2.6527   20.7222 C   0  0  0  0  0  0  0  0  0  0  0  0
   10.6412   -3.5089   21.7936 C   0  0  0  0  0  0  0  0  0  0  0  0
   10.4972   -3.8968   24.1589 C   0  0  0  0  0  0  0  0  0  0  0  0
    5.9260   -8.2736   16.5517 C   0  0  0  0  0  0  0  0  0  0  0  0
    3.8816   -9.1166   17.2493 C   0  0  0  0  0  0  0  0  0  0  0  0
   10.1297   -1.6575   23.2324 C   0  0  0  0  0  0  0  0  0  0  0  0
    9.4684   -1.6929   26.7263 F   0  0  0  0  0  0  0  0  0  0  0  0
    7.7963   -7.7906   17.9837 C   0  0  0  0  0  0  0  0  0  0  0  0
   10.5884   -3.0725   16.7902 O   0  0  0  0  0  0  0  0  0  0  0  0
   10.4323   -5.3494   20.3516 C   0  0  0  0  0  0  0  0  0  0  0  0
    7.1156   -7.5454   16.8218 C   0  0  0  0  0  0  0  0  0  0  0  0
   10.3885   -4.4388   19.2773 C   0  0  0  0  0  0  0  0  0  0  0  0
    4.5160   -9.3822   15.0841 C   0  0  0  0  0  0  0  0  0  0  0  0
  1  3  4  0
  1 24  4  0
  2  6  4  0
  2 15  4  0
  3  5  4  0
  3  6  4  0
  4 21  4  0
  4 29  4  0
  5 15  4  0
  5 28  1  0
  6 16  4  0
  7 18  4  0
  7 26  4  0
  8 18  1  0
  8 19  4  0
  8 22  4  0
  9 12  4  0
  9 19  4  0
 10 12  4  0
 10 22  4  0
 11 20  4  0
 11 21  4  0
 12 23  1  0
 13 20  4  0
 13 29  4  0
 14 17  4  0
 14 28  4  0
 15 25  2  0
 16 27  4  0
 17 18  4  0
 20 27  1  0
 24 27  4  0
 26 28  4  0
M  END
$$$$

 Created by Python create_sdf_string function

 29 33  0  0  0  0  0  0  0  0999 V2000
    8.8270   -7.0288   18.4251 C   0  0  0  0  0  0  0  0  0  0  0  0
    9.1576   -4.6236   15.8860 O   0  0  0  0  0  0  0  0  0  0  0  0
    9.1509   -5.9108   17.7177 C   0  0  0  0  0  0  0  0  0  0  0  0
    3.6373   -9.5349   16.0582 N   0  0  0  0  0  0  0  0  0  0  0  0
    9.9275   -4.8001   18.0438 N   0  0  0  0  0  0  0  0  0  0  0  0
    8.5908   -5.7425   16.4412 C   0  0  0  0  0  0  0  0  0  0  0  0
   10.5993   -4.8981   21.6068 C   0  0  0  0  0  0  0  0  0  0  0  0
   10.4258   -3.0106   23.0998 C   0  0  0  0  0  0  0  0  0  0  0  0
   10.2148   -3.4364   25.4200 C   0  0  0  0  0  0  0  0  0  0  0  0
    9.7853   -1.1840   24.4927 C   0  0  0  0  0  0  0  0  0  0  0  0
    5.0276   -8.5227   17.5352 C   0  0  0  0  0  0  0  0  0  0  0  0
    9.8187   -2.0895   25.5800 C   0  0  0  0  0  0  0  0  0  0  0  0
    5.6473   -8.7216   15.3158 C   0  0  0  0  0  0  0  0  0  0  0  0
   10.7581   -3.1233   19.4720 N   0  0  0  0  0  0  0  0  0  0  0  0
    9.9571   -4.0573   16.8866 C   0  0  0  0  0  0  0  0  0  0  0  0
    7.6213   -6.5618   16.0087 C   0  0  0  0  0  0  0  0  0  0  0  0
   10.8583   -2.6527   20.7222 C   0  0  0  0  0  0  0  0  0  0  0  0
   10.6412   -3.5089   21.7936 C   0  0  0  0  0  0  0  0  0  0  0  0
   10.4972   -3.8968   24.1589 C   0  0  0  0  0  0  0  0  0  0  0  0
    5.9260   -8.2736   16.5517 C   0  0  0  0  0  0  0  0  0  0  0  0
    3.8816   -9.1166   17.2493 C   0  0  0  0  0  0  0  0  0  0  0  0
   10.1297   -1.6575   23.2324 C   0  0  0  0  0  0  0  0  0  0  0  0
    9.4684   -1.6929   26.7263 F   0  0  0  0  0  0  0  0  0  0  0  0
    7.7963   -7.7906   17.9837 C   0  0  0  0  0  0  0  0  0  0  0  0
   10.5884   -3.0725   16.7902 O   0  0  0  0  0  0  0  0  0  0  0  0
   10.4323   -5.3494   20.3516 C   0  0  0  0  0  0  0  0  0  0  0  0
    7.1156   -7.5454   16.8218 C   0  0  0  0  0  0  0  0  0  0  0  0
   10.3885   -4.4388   19.2773 C   0  0  0  0  0  0  0  0  0  0  0  0
    4.5160   -9.3822   15.0841 C   0  0  0  0  0  0  0  0  0  0  0  0
  1  3  4  0
  1 24  4  0
  2  6  4  0
  2 15  4  0
  3  5  4  0
  3  6  4  0
  4 21  4  0
  4 29  4  0
  5 15  4  0
  5 28  1  0
  6 16  4  0
  7 18  4  0
  7 26  4  0
  8 18  1  0
  8 19  4  0
  8 22  4  0
  9 12  4  0
  9 19  4  0
 10 12  4  0
 10 22  4  0
 11 20  4  0
 11 21  4  0
 12 23  1  0
 13 20  4  0
 13 29  4  0
 14 17  4  0
 14 28  4  0
 15 25  2  0
 16 27  4  0
 17 18  4  0
 20 27  1  0
 24 27  4  0
 26 28  4  0
M  END
$$$$

 Created by Python create_sdf_string function

 29 33  0  0  0  0  0  0  0  0999 V2000
    8.8270   -7.0288   18.4251 C   0  0  0  0  0  0  0  0  0  0  0  0
    9.1576   -4.6236   15.8860 O   0  0  0  0  0  0  0  0  0  0  0  0
    9.1509   -5.9108   17.7177 C   0  0  0  0  0  0  0  0  0  0  0  0
    3.6373   -9.5349   16.0582 N   0  0  0  0  0  0  0  0  0  0  0  0
    9.9275   -4.8001   18.0438 N   0  0  0  0  0  0  0  0  0  0  0  0
    8.5908   -5.7425   16.4412 C   0  0  0  0  0  0  0  0  0  0  0  0
   10.5993   -4.8981   21.6068 C   0  0  0  0  0  0  0  0  0  0  0  0
   10.4258   -3.0106   23.0998 C   0  0  0  0  0  0  0  0  0  0  0  0
   10.2148   -3.4364   25.4200 C   0  0  0  0  0  0  0  0  0  0  0  0
    9.7853   -1.1840   24.4927 C   0  0  0  0  0  0  0  0  0  0  0  0
    5.0276   -8.5227   17.5352 C   0  0  0  0  0  0  0  0  0  0  0  0
    9.8187   -2.0895   25.5800 C   0  0  0  0  0  0  0  0  0  0  0  0
    5.6473   -8.7216   15.3158 C   0  0  0  0  0  0  0  0  0  0  0  0
   10.7581   -3.1233   19.4720 N   0  0  0  0  0  0  0  0  0  0  0  0
    9.9571   -4.0573   16.8866 C   0  0  0  0  0  0  0  0  0  0  0  0
    7.6213   -6.5618   16.0087 C   0  0  0  0  0  0  0  0  0  0  0  0
   10.8583   -2.6527   20.7222 C   0  0  0  0  0  0  0  0  0  0  0  0
   10.6412   -3.5089   21.7936 C   0  0  0  0  0  0  0  0  0  0  0  0
   10.4972   -3.8968   24.1589 C   0  0  0  0  0  0  0  0  0  0  0  0
    5.9260   -8.2736   16.5517 C   0  0  0  0  0  0  0  0  0  0  0  0
    3.8816   -9.1166   17.2493 C   0  0  0  0  0  0  0  0  0  0  0  0
   10.1297   -1.6575   23.2324 C   0  0  0  0  0  0  0  0  0  0  0  0
    9.4684   -1.6929   26.7263 F   0  0  0  0  0  0  0  0  0  0  0  0
    7.7963   -7.7906   17.9837 C   0  0  0  0  0  0  0  0  0  0  0  0
   10.5884   -3.0725   16.7902 O   0  0  0  0  0  0  0  0  0  0  0  0
   10.4323   -5.3494   20.3516 C   0  0  0  0  0  0  0  0  0  0  0  0
    7.1156   -7.5454   16.8218 C   0  0  0  0  0  0  0  0  0  0  0  0
   10.3885   -4.4388   19.2773 C   0  0  0  0  0  0  0  0  0  0  0  0
    4.5160   -9.3822   15.0841 C   0  0  0  0  0  0  0  0  0  0  0  0
  1  3  4  0
  1 24  4  0
  2  6  4  0
  2 15  4  0
  3  5  4  0
  3  6  4  0
  4 21  4  0
  4 29  4  0
  5 15  4  0
  5 28  1  0
  6 16  4  0
  7 18  4  0
  7 26  4  0
  8 18  1  0
  8 19  4  0
  8 22  4  0
  9 12  4  0
  9 19  4  0
 10 12  4  0
 10 22  4  0
 11 20  4  0
 11 21  4  0
 12 23  1  0
 13 20  4  0
 13 29  4  0
 14 17  4  0
 14 28  4  0
 15 25  2  0
 16 27  4  0
 17 18  4  0
 20 27  1  0
 24 27  4  0
 26 28  4  0
M  END
$$$$

 Created by Python create_sdf_string function

 29 33  0  0  0  0  0  0  0  0999 V2000
    8.8270   -7.0288   18.4251 C   0  0  0  0  0  0  0  0  0  0  0  0
    9.1576   -4.6236   15.8860 O   0  0  0  0  0  0  0  0  0  0  0  0
    9.1509   -5.9108   17.7177 C   0  0  0  0  0  0  0  0  0  0  0  0
    3.6373   -9.5349   16.0582 N   0  0  0  0  0  0  0  0  0  0  0  0
    9.9275   -4.8001   18.0438 N   0  0  0  0  0  0  0  0  0  0  0  0
    8.5908   -5.7425   16.4412 C   0  0  0  0  0  0  0  0  0  0  0  0
   10.5993   -4.8981   21.6068 C   0  0  0  0  0  0  0  0  0  0  0  0
   10.4258   -3.0106   23.0998 C   0  0  0  0  0  0  0  0  0  0  0  0
   10.2148   -3.4364   25.4200 C   0  0  0  0  0  0  0  0  0  0  0  0
    9.7853   -1.1840   24.4927 C   0  0  0  0  0  0  0  0  0  0  0  0
    5.0276   -8.5227   17.5352 C   0  0  0  0  0  0  0  0  0  0  0  0
    9.8187   -2.0895   25.5800 C   0  0  0  0  0  0  0  0  0  0  0  0
    5.6473   -8.7216   15.3158 C   0  0  0  0  0  0  0  0  0  0  0  0
   10.7581   -3.1233   19.4720 N   0  0  0  0  0  0  0  0  0  0  0  0
    9.9571   -4.0573   16.8866 C   0  0  0  0  0  0  0  0  0  0  0  0
    7.6213   -6.5618   16.0087 C   0  0  0  0  0  0  0  0  0  0  0  0
   10.8583   -2.6527   20.7222 C   0  0  0  0  0  0  0  0  0  0  0  0
   10.6412   -3.5089   21.7936 C   0  0  0  0  0  0  0  0  0  0  0  0
   10.4972   -3.8968   24.1589 C   0  0  0  0  0  0  0  0  0  0  0  0
    5.9260   -8.2736   16.5517 C   0  0  0  0  0  0  0  0  0  0  0  0
    3.8816   -9.1166   17.2493 C   0  0  0  0  0  0  0  0  0  0  0  0
   10.1297   -1.6575   23.2324 C   0  0  0  0  0  0  0  0  0  0  0  0
    9.4684   -1.6929   26.7263 F   0  0  0  0  0  0  0  0  0  0  0  0
    7.7963   -7.7906   17.9837 C   0  0  0  0  0  0  0  0  0  0  0  0
   10.5884   -3.0725   16.7902 O   0  0  0  0  0  0  0  0  0  0  0  0
   10.4323   -5.3494   20.3516 C   0  0  0  0  0  0  0  0  0  0  0  0
    7.1156   -7.5454   16.8218 C   0  0  0  0  0  0  0  0  0  0  0  0
   10.3885   -4.4388   19.2773 C   0  0  0  0  0  0  0  0  0  0  0  0
    4.5160   -9.3822   15.0841 C   0  0  0  0  0  0  0  0  0  0  0  0
  1  3  4  0
  1 24  4  0
  2  6  4  0
  2 15  4  0
  3  5  4  0
  3  6  4  0
  4 21  4  0
  4 29  4  0
  5 15  4  0
  5 28  1  0
  6 16  4  0
  7 18  4  0
  7 26  4  0
  8 18  1  0
  8 19  4  0
  8 22  4  0
  9 12  4  0
  9 19  4  0
 10 12  4  0
 10 22  4  0
 11 20  4  0
 11 21  4  0
 12 23  1  0
 13 20  4  0
 13 29  4  0
 14 17  4  0
 14 28  4  0
 15 25  2  0
 16 27  4  0
 17 18  4  0
 20 27  1  0
 24 27  4  0
 26 28  4  0
M  END
$$$$

 Created by Python create_sdf_string function

 29 33  0  0  0  0  0  0  0  0999 V2000
    8.8270   -7.0288   18.4251 C   0  0  0  0  0  0  0  0  0  0  0  0
    9.1576   -4.6236   15.8860 O   0  0  0  0  0  0  0  0  0  0  0  0
    9.1509   -5.9108   17.7177 C   0  0  0  0  0  0  0  0  0  0  0  0
    3.6373   -9.5349   16.0582 N   0  0  0  0  0  0  0  0  0  0  0  0
    9.9275   -4.8001   18.0438 N   0  0  0  0  0  0  0  0  0  0  0  0
    8.5908   -5.7425   16.4412 C   0  0  0  0  0  0  0  0  0  0  0  0
   10.5993   -4.8981   21.6068 C   0  0  0  0  0  0  0  0  0  0  0  0
   10.4258   -3.0106   23.0998 C   0  0  0  0  0  0  0  0  0  0  0  0
   10.2148   -3.4364   25.4200 C   0  0  0  0  0  0  0  0  0  0  0  0
    9.7853   -1.1840   24.4927 C   0  0  0  0  0  0  0  0  0  0  0  0
    5.0276   -8.5227   17.5352 C   0  0  0  0  0  0  0  0  0  0  0  0
    9.8187   -2.0895   25.5800 C   0  0  0  0  0  0  0  0  0  0  0  0
    5.6473   -8.7216   15.3158 C   0  0  0  0  0  0  0  0  0  0  0  0
   10.7581   -3.1233   19.4720 N   0  0  0  0  0  0  0  0  0  0  0  0
    9.9571   -4.0573   16.8866 C   0  0  0  0  0  0  0  0  0  0  0  0
    7.6213   -6.5618   16.0087 C   0  0  0  0  0  0  0  0  0  0  0  0
   10.8583   -2.6527   20.7222 C   0  0  0  0  0  0  0  0  0  0  0  0
   10.6412   -3.5089   21.7936 C   0  0  0  0  0  0  0  0  0  0  0  0
   10.4972   -3.8968   24.1589 C   0  0  0  0  0  0  0  0  0  0  0  0
    5.9260   -8.2736   16.5517 C   0  0  0  0  0  0  0  0  0  0  0  0
    3.8816   -9.1166   17.2493 C   0  0  0  0  0  0  0  0  0  0  0  0
   10.1297   -1.6575   23.2324 C   0  0  0  0  0  0  0  0  0  0  0  0
    9.4684   -1.6929   26.7263 F   0  0  0  0  0  0  0  0  0  0  0  0
    7.7963   -7.7906   17.9837 C   0  0  0  0  0  0  0  0  0  0  0  0
   10.5884   -3.0725   16.7902 O   0  0  0  0  0  0  0  0  0  0  0  0
   10.4323   -5.3494   20.3516 C   0  0  0  0  0  0  0  0  0  0  0  0
    7.1156   -7.5454   16.8218 C   0  0  0  0  0  0  0  0  0  0  0  0
   10.3885   -4.4388   19.2773 C   0  0  0  0  0  0  0  0  0  0  0  0
    4.5160   -9.3822   15.0841 C   0  0  0  0  0  0  0  0  0  0  0  0
  1  3  4  0
  1 24  4  0
  2  6  4  0
  2 15  4  0
  3  5  4  0
  3  6  4  0
  4 21  4  0
  4 29  4  0
  5 15  4  0
  5 28  1  0
  6 16  4  0
  7 18  4  0
  7 26  4  0
  8 18  1  0
  8 19  4  0
  8 22  4  0
  9 12  4  0
  9 19  4  0
 10 12  4  0
 10 22  4  0
 11 20  4  0
 11 21  4  0
 12 23  1  0
 13 20  4  0
 13 29  4  0
 14 17  4  0
 14 28  4  0
 15 25  2  0
 16 27  4  0
 17 18  4  0
 20 27  1  0
 24 27  4  0
 26 28  4  0
M  END
$$$$

 Created by Python create_sdf_string function

 29 33  0  0  0  0  0  0  0  0999 V2000
    8.8270   -7.0288   18.4251 C   0  0  0  0  0  0  0  0  0  0  0  0
    9.1576   -4.6236   15.8860 O   0  0  0  0  0  0  0  0  0  0  0  0
    9.1509   -5.9108   17.7177 C   0  0  0  0  0  0  0  0  0  0  0  0
    3.6373   -9.5349   16.0582 N   0  0  0  0  0  0  0  0  0  0  0  0
    9.9275   -4.8001   18.0438 N   0  0  0  0  0  0  0  0  0  0  0  0
    8.5908   -5.7425   16.4412 C   0  0  0  0  0  0  0  0  0  0  0  0
   10.5993   -4.8981   21.6068 C   0  0  0  0  0  0  0  0  0  0  0  0
   10.4258   -3.0106   23.0998 C   0  0  0  0  0  0  0  0  0  0  0  0
   10.2148   -3.4364   25.4200 C   0  0  0  0  0  0  0  0  0  0  0  0
    9.7853   -1.1840   24.4927 C   0  0  0  0  0  0  0  0  0  0  0  0
    5.0276   -8.5227   17.5352 C   0  0  0  0  0  0  0  0  0  0  0  0
    9.8187   -2.0895   25.5800 C   0  0  0  0  0  0  0  0  0  0  0  0
    5.6473   -8.7216   15.3158 C   0  0  0  0  0  0  0  0  0  0  0  0
   10.7581   -3.1233   19.4720 N   0  0  0  0  0  0  0  0  0  0  0  0
    9.9571   -4.0573   16.8866 C   0  0  0  0  0  0  0  0  0  0  0  0
    7.6213   -6.5618   16.0087 C   0  0  0  0  0  0  0  0  0  0  0  0
   10.8583   -2.6527   20.7222 C   0  0  0  0  0  0  0  0  0  0  0  0
   10.6412   -3.5089   21.7936 C   0  0  0  0  0  0  0  0  0  0  0  0
   10.4972   -3.8968   24.1589 C   0  0  0  0  0  0  0  0  0  0  0  0
    5.9260   -8.2736   16.5517 C   0  0  0  0  0  0  0  0  0  0  0  0
    3.8816   -9.1166   17.2493 C   0  0  0  0  0  0  0  0  0  0  0  0
   10.1297   -1.6575   23.2324 C   0  0  0  0  0  0  0  0  0  0  0  0
    9.4684   -1.6929   26.7263 F   0  0  0  0  0  0  0  0  0  0  0  0
    7.7963   -7.7906   17.9837 C   0  0  0  0  0  0  0  0  0  0  0  0
   10.5884   -3.0725   16.7902 O   0  0  0  0  0  0  0  0  0  0  0  0
   10.4323   -5.3494   20.3516 C   0  0  0  0  0  0  0  0  0  0  0  0
    7.1156   -7.5454   16.8218 C   0  0  0  0  0  0  0  0  0  0  0  0
   10.3885   -4.4388   19.2773 C   0  0  0  0  0  0  0  0  0  0  0  0
    4.5160   -9.3822   15.0841 C   0  0  0  0  0  0  0  0  0  0  0  0
  1  3  4  0
  1 24  4  0
  2  6  4  0
  2 15  4  0
  3  5  4  0
  3  6  4  0
  4 21  4  0
  4 29  4  0
  5 15  4  0
  5 28  1  0
  6 16  4  0
  7 18  4  0
  7 26  4  0
  8 18  1  0
  8 19  4  0
  8 22  4  0
  9 12  4  0
  9 19  4  0
 10 12  4  0
 10 22  4  0
 11 20  4  0
 11 21  4  0
 12 23  1  0
 13 20  4  0
 13 29  4  0
 14 17  4  0
 14 28  4  0
 15 25  2  0
 16 27  4  0
 17 18  4  0
 20 27  1  0
 24 27  4  0
 26 28  4  0
M  END
$$$$

 Created by Python create_sdf_string function

 29 33  0  0  0  0  0  0  0  0999 V2000
    8.8270   -7.0288   18.4251 C   0  0  0  0  0  0  0  0  0  0  0  0
    9.1576   -4.6236   15.8860 O   0  0  0  0  0  0  0  0  0  0  0  0
    9.1509   -5.9108   17.7177 C   0  0  0  0  0  0  0  0  0  0  0  0
    3.6373   -9.5349   16.0582 N   0  0  0  0  0  0  0  0  0  0  0  0
    9.9275   -4.8001   18.0438 N   0  0  0  0  0  0  0  0  0  0  0  0
    8.5908   -5.7425   16.4412 C   0  0  0  0  0  0  0  0  0  0  0  0
   10.5993   -4.8981   21.6068 C   0  0  0  0  0  0  0  0  0  0  0  0
   10.4258   -3.0106   23.0998 C   0  0  0  0  0  0  0  0  0  0  0  0
   10.2148   -3.4364   25.4200 C   0  0  0  0  0  0  0  0  0  0  0  0
    9.7853   -1.1840   24.4927 C   0  0  0  0  0  0  0  0  0  0  0  0
    5.0276   -8.5227   17.5352 C   0  0  0  0  0  0  0  0  0  0  0  0
    9.8187   -2.0895   25.5800 C   0  0  0  0  0  0  0  0  0  0  0  0
    5.6473   -8.7216   15.3158 C   0  0  0  0  0  0  0  0  0  0  0  0
   10.7581   -3.1233   19.4720 N   0  0  0  0  0  0  0  0  0  0  0  0
    9.9571   -4.0573   16.8866 C   0  0  0  0  0  0  0  0  0  0  0  0
    7.6213   -6.5618   16.0087 C   0  0  0  0  0  0  0  0  0  0  0  0
   10.8583   -2.6527   20.7222 C   0  0  0  0  0  0  0  0  0  0  0  0
   10.6412   -3.5089   21.7936 C   0  0  0  0  0  0  0  0  0  0  0  0
   10.4972   -3.8968   24.1589 C   0  0  0  0  0  0  0  0  0  0  0  0
    5.9260   -8.2736   16.5517 C   0  0  0  0  0  0  0  0  0  0  0  0
    3.8816   -9.1166   17.2493 C   0  0  0  0  0  0  0  0  0  0  0  0
   10.1297   -1.6575   23.2324 C   0  0  0  0  0  0  0  0  0  0  0  0
    9.4684   -1.6929   26.7263 F   0  0  0  0  0  0  0  0  0  0  0  0
    7.7963   -7.7906   17.9837 C   0  0  0  0  0  0  0  0  0  0  0  0
   10.5884   -3.0725   16.7902 O   0  0  0  0  0  0  0  0  0  0  0  0
   10.4323   -5.3494   20.3516 C   0  0  0  0  0  0  0  0  0  0  0  0
    7.1156   -7.5454   16.8218 C   0  0  0  0  0  0  0  0  0  0  0  0
   10.3885   -4.4388   19.2773 C   0  0  0  0  0  0  0  0  0  0  0  0
    4.5160   -9.3822   15.0841 C   0  0  0  0  0  0  0  0  0  0  0  0
  1  3  4  0
  1 24  4  0
  2  6  4  0
  2 15  4  0
  3  5  4  0
  3  6  4  0
  4 21  4  0
  4 29  4  0
  5 15  4  0
  5 28  1  0
  6 16  4  0
  7 18  4  0
  7 26  4  0
  8 18  1  0
  8 19  4  0
  8 22  4  0
  9 12  4  0
  9 19  4  0
 10 12  4  0
 10 22  4  0
 11 20  4  0
 11 21  4  0
 12 23  1  0
 13 20  4  0
 13 29  4  0
 14 17  4  0
 14 28  4  0
 15 25  2  0
 16 27  4  0
 17 18  4  0
 20 27  1  0
 24 27  4  0
 26 28  4  0
M  END
$$$$

 Created by Python create_sdf_string function

 29 33  0  0  0  0  0  0  0  0999 V2000
    8.8270   -7.0288   18.4251 C   0  0  0  0  0  0  0  0  0  0  0  0
    9.1576   -4.6236   15.8860 O   0  0  0  0  0  0  0  0  0  0  0  0
    9.1509   -5.9108   17.7177 C   0  0  0  0  0  0  0  0  0  0  0  0
    3.6373   -9.5349   16.0582 N   0  0  0  0  0  0  0  0  0  0  0  0
    9.9275   -4.8001   18.0438 N   0  0  0  0  0  0  0  0  0  0  0  0
    8.5908   -5.7425   16.4412 C   0  0  0  0  0  0  0  0  0  0  0  0
   10.5993   -4.8981   21.6068 C   0  0  0  0  0  0  0  0  0  0  0  0
   10.4258   -3.0106   23.0998 C   0  0  0  0  0  0  0  0  0  0  0  0
   10.2148   -3.4364   25.4200 C   0  0  0  0  0  0  0  0  0  0  0  0
    9.7853   -1.1840   24.4927 C   0  0  0  0  0  0  0  0  0  0  0  0
    5.0276   -8.5227   17.5352 C   0  0  0  0  0  0  0  0  0  0  0  0
    9.8187   -2.0895   25.5800 C   0  0  0  0  0  0  0  0  0  0  0  0
    5.6473   -8.7216   15.3158 C   0  0  0  0  0  0  0  0  0  0  0  0
   10.7581   -3.1233   19.4720 N   0  0  0  0  0  0  0  0  0  0  0  0
    9.9571   -4.0573   16.8866 C   0  0  0  0  0  0  0  0  0  0  0  0
    7.6213   -6.5618   16.0087 C   0  0  0  0  0  0  0  0  0  0  0  0
   10.8583   -2.6527   20.7222 C   0  0  0  0  0  0  0  0  0  0  0  0
   10.6412   -3.5089   21.7936 C   0  0  0  0  0  0  0  0  0  0  0  0
   10.4972   -3.8968   24.1589 C   0  0  0  0  0  0  0  0  0  0  0  0
    5.9260   -8.2736   16.5517 C   0  0  0  0  0  0  0  0  0  0  0  0
    3.8816   -9.1166   17.2493 C   0  0  0  0  0  0  0  0  0  0  0  0
   10.1297   -1.6575   23.2324 C   0  0  0  0  0  0  0  0  0  0  0  0
    9.4684   -1.6929   26.7263 F   0  0  0  0  0  0  0  0  0  0  0  0
    7.7963   -7.7906   17.9837 C   0  0  0  0  0  0  0  0  0  0  0  0
   10.5884   -3.0725   16.7902 O   0  0  0  0  0  0  0  0  0  0  0  0
   10.4323   -5.3494   20.3516 C   0  0  0  0  0  0  0  0  0  0  0  0
    7.1156   -7.5454   16.8218 C   0  0  0  0  0  0  0  0  0  0  0  0
   10.3885   -4.4388   19.2773 C   0  0  0  0  0  0  0  0  0  0  0  0
    4.5160   -9.3822   15.0841 C   0  0  0  0  0  0  0  0  0  0  0  0
  1  3  4  0
  1 24  4  0
  2  6  4  0
  2 15  4  0
  3  5  4  0
  3  6  4  0
  4 21  4  0
  4 29  4  0
  5 15  4  0
  5 28  1  0
  6 16  4  0
  7 18  4  0
  7 26  4  0
  8 18  1  0
  8 19  4  0
  8 22  4  0
  9 12  4  0
  9 19  4  0
 10 12  4  0
 10 22  4  0
 11 20  4  0
 11 21  4  0
 12 23  1  0
 13 20  4  0
 13 29  4  0
 14 17  4  0
 14 28  4  0
 15 25  2  0
 16 27  4  0
 17 18  4  0
 20 27  1  0
 24 27  4  0
 26 28  4  0
M  END
$$$$

 Created by Python create_sdf_string function

 29 33  0  0  0  0  0  0  0  0999 V2000
    8.8270   -7.0288   18.4251 C   0  0  0  0  0  0  0  0  0  0  0  0
    9.1576   -4.6236   15.8860 O   0  0  0  0  0  0  0  0  0  0  0  0
    9.1509   -5.9108   17.7177 C   0  0  0  0  0  0  0  0  0  0  0  0
    3.6373   -9.5349   16.0582 N   0  0  0  0  0  0  0  0  0  0  0  0
    9.9275   -4.8001   18.0438 N   0  0  0  0  0  0  0  0  0  0  0  0
    8.5908   -5.7425   16.4412 C   0  0  0  0  0  0  0  0  0  0  0  0
   10.5993   -4.8981   21.6068 C   0  0  0  0  0  0  0  0  0  0  0  0
   10.4258   -3.0106   23.0998 C   0  0  0  0  0  0  0  0  0  0  0  0
   10.2148   -3.4364   25.4200 C   0  0  0  0  0  0  0  0  0  0  0  0
    9.7853   -1.1840   24.4927 C   0  0  0  0  0  0  0  0  0  0  0  0
    5.0276   -8.5227   17.5352 C   0  0  0  0  0  0  0  0  0  0  0  0
    9.8187   -2.0895   25.5800 C   0  0  0  0  0  0  0  0  0  0  0  0
    5.6473   -8.7216   15.3158 C   0  0  0  0  0  0  0  0  0  0  0  0
   10.7581   -3.1233   19.4720 N   0  0  0  0  0  0  0  0  0  0  0  0
    9.9571   -4.0573   16.8866 C   0  0  0  0  0  0  0  0  0  0  0  0
    7.6213   -6.5618   16.0087 C   0  0  0  0  0  0  0  0  0  0  0  0
   10.8583   -2.6527   20.7222 C   0  0  0  0  0  0  0  0  0  0  0  0
   10.6412   -3.5089   21.7936 C   0  0  0  0  0  0  0  0  0  0  0  0
   10.4972   -3.8968   24.1589 C   0  0  0  0  0  0  0  0  0  0  0  0
    5.9260   -8.2736   16.5517 C   0  0  0  0  0  0  0  0  0  0  0  0
    3.8816   -9.1166   17.2493 C   0  0  0  0  0  0  0  0  0  0  0  0
   10.1297   -1.6575   23.2324 C   0  0  0  0  0  0  0  0  0  0  0  0
    9.4684   -1.6929   26.7263 F   0  0  0  0  0  0  0  0  0  0  0  0
    7.7963   -7.7906   17.9837 C   0  0  0  0  0  0  0  0  0  0  0  0
   10.5884   -3.0725   16.7902 O   0  0  0  0  0  0  0  0  0  0  0  0
   10.4323   -5.3494   20.3516 C   0  0  0  0  0  0  0  0  0  0  0  0
    7.1156   -7.5454   16.8218 C   0  0  0  0  0  0  0  0  0  0  0  0
   10.3885   -4.4388   19.2773 C   0  0  0  0  0  0  0  0  0  0  0  0
    4.5160   -9.3822   15.0841 C   0  0  0  0  0  0  0  0  0  0  0  0
  1  3  4  0
  1 24  4  0
  2  6  4  0
  2 15  4  0
  3  5  4  0
  3  6  4  0
  4 21  4  0
  4 29  4  0
  5 15  4  0
  5 28  1  0
  6 16  4  0
  7 18  4  0
  7 26  4  0
  8 18  1  0
  8 19  4  0
  8 22  4  0
  9 12  4  0
  9 19  4  0
 10 12  4  0
 10 22  4  0
 11 20  4  0
 11 21  4  0
 12 23  1  0
 13 20  4  0
 13 29  4  0
 14 17  4  0
 14 28  4  0
 15 25  2  0
 16 27  4  0
 17 18  4  0
 20 27  1  0
 24 27  4  0
 26 28  4  0
M  END
$$$$

 Created by Python create_sdf_string function

 29 33  0  0  0  0  0  0  0  0999 V2000
    8.8270   -7.0288   18.4251 C   0  0  0  0  0  0  0  0  0  0  0  0
    9.1576   -4.6236   15.8860 O   0  0  0  0  0  0  0  0  0  0  0  0
    9.1509   -5.9108   17.7177 C   0  0  0  0  0  0  0  0  0  0  0  0
    3.6373   -9.5349   16.0582 N   0  0  0  0  0  0  0  0  0  0  0  0
    9.9275   -4.8001   18.0438 N   0  0  0  0  0  0  0  0  0  0  0  0
    8.5908   -5.7425   16.4412 C   0  0  0  0  0  0  0  0  0  0  0  0
   10.5993   -4.8981   21.6068 C   0  0  0  0  0  0  0  0  0  0  0  0
   10.4258   -3.0106   23.0998 C   0  0  0  0  0  0  0  0  0  0  0  0
   10.2148   -3.4364   25.4200 C   0  0  0  0  0  0  0  0  0  0  0  0
    9.7853   -1.1840   24.4927 C   0  0  0  0  0  0  0  0  0  0  0  0
    5.0276   -8.5227   17.5352 C   0  0  0  0  0  0  0  0  0  0  0  0
    9.8187   -2.0895   25.5800 C   0  0  0  0  0  0  0  0  0  0  0  0
    5.6473   -8.7216   15.3158 C   0  0  0  0  0  0  0  0  0  0  0  0
   10.7581   -3.1233   19.4720 N   0  0  0  0  0  0  0  0  0  0  0  0
    9.9571   -4.0573   16.8866 C   0  0  0  0  0  0  0  0  0  0  0  0
    7.6213   -6.5618   16.0087 C   0  0  0  0  0  0  0  0  0  0  0  0
   10.8583   -2.6527   20.7222 C   0  0  0  0  0  0  0  0  0  0  0  0
   10.6412   -3.5089   21.7936 C   0  0  0  0  0  0  0  0  0  0  0  0
   10.4972   -3.8968   24.1589 C   0  0  0  0  0  0  0  0  0  0  0  0
    5.9260   -8.2736   16.5517 C   0  0  0  0  0  0  0  0  0  0  0  0
    3.8816   -9.1166   17.2493 C   0  0  0  0  0  0  0  0  0  0  0  0
   10.1297   -1.6575   23.2324 C   0  0  0  0  0  0  0  0  0  0  0  0
    9.4684   -1.6929   26.7263 F   0  0  0  0  0  0  0  0  0  0  0  0
    7.7963   -7.7906   17.9837 C   0  0  0  0  0  0  0  0  0  0  0  0
   10.5884   -3.0725   16.7902 O   0  0  0  0  0  0  0  0  0  0  0  0
   10.4323   -5.3494   20.3516 C   0  0  0  0  0  0  0  0  0  0  0  0
    7.1156   -7.5454   16.8218 C   0  0  0  0  0  0  0  0  0  0  0  0
   10.3885   -4.4388   19.2773 C   0  0  0  0  0  0  0  0  0  0  0  0
    4.5160   -9.3822   15.0841 C   0  0  0  0  0  0  0  0  0  0  0  0
  1  3  4  0
  1 24  4  0
  2  6  4  0
  2 15  4  0
  3  5  4  0
  3  6  4  0
  4 21  4  0
  4 29  4  0
  5 15  4  0
  5 28  1  0
  6 16  4  0
  7 18  4  0
  7 26  4  0
  8 18  1  0
  8 19  4  0
  8 22  4  0
  9 12  4  0
  9 19  4  0
 10 12  4  0
 10 22  4  0
 11 20  4  0
 11 21  4  0
 12 23  1  0
 13 20  4  0
 13 29  4  0
 14 17  4  0
 14 28  4  0
 15 25  2  0
 16 27  4  0
 17 18  4  0
 20 27  1  0
 24 27  4  0
 26 28  4  0
M  END
$$$$

 Created by Python create_sdf_string function

 29 33  0  0  0  0  0  0  0  0999 V2000
    8.8270   -7.0288   18.4251 C   0  0  0  0  0  0  0  0  0  0  0  0
    9.1576   -4.6236   15.8860 O   0  0  0  0  0  0  0  0  0  0  0  0
    9.1509   -5.9108   17.7177 C   0  0  0  0  0  0  0  0  0  0  0  0
    3.6373   -9.5349   16.0582 N   0  0  0  0  0  0  0  0  0  0  0  0
    9.9275   -4.8001   18.0438 N   0  0  0  0  0  0  0  0  0  0  0  0
    8.5908   -5.7425   16.4412 C   0  0  0  0  0  0  0  0  0  0  0  0
   10.5993   -4.8981   21.6068 C   0  0  0  0  0  0  0  0  0  0  0  0
   10.4258   -3.0106   23.0998 C   0  0  0  0  0  0  0  0  0  0  0  0
   10.2148   -3.4364   25.4200 C   0  0  0  0  0  0  0  0  0  0  0  0
    9.7853   -1.1840   24.4927 C   0  0  0  0  0  0  0  0  0  0  0  0
    5.0276   -8.5227   17.5352 C   0  0  0  0  0  0  0  0  0  0  0  0
    9.8187   -2.0895   25.5800 C   0  0  0  0  0  0  0  0  0  0  0  0
    5.6473   -8.7216   15.3158 C   0  0  0  0  0  0  0  0  0  0  0  0
   10.7581   -3.1233   19.4720 N   0  0  0  0  0  0  0  0  0  0  0  0
    9.9571   -4.0573   16.8866 C   0  0  0  0  0  0  0  0  0  0  0  0
    7.6213   -6.5618   16.0087 C   0  0  0  0  0  0  0  0  0  0  0  0
   10.8583   -2.6527   20.7222 C   0  0  0  0  0  0  0  0  0  0  0  0
   10.6412   -3.5089   21.7936 C   0  0  0  0  0  0  0  0  0  0  0  0
   10.4972   -3.8968   24.1589 C   0  0  0  0  0  0  0  0  0  0  0  0
    5.9260   -8.2736   16.5517 C   0  0  0  0  0  0  0  0  0  0  0  0
    3.8816   -9.1166   17.2493 C   0  0  0  0  0  0  0  0  0  0  0  0
   10.1297   -1.6575   23.2324 C   0  0  0  0  0  0  0  0  0  0  0  0
    9.4684   -1.6929   26.7263 F   0  0  0  0  0  0  0  0  0  0  0  0
    7.7963   -7.7906   17.9837 C   0  0  0  0  0  0  0  0  0  0  0  0
   10.5884   -3.0725   16.7902 O   0  0  0  0  0  0  0  0  0  0  0  0
   10.4323   -5.3494   20.3516 C   0  0  0  0  0  0  0  0  0  0  0  0
    7.1156   -7.5454   16.8218 C   0  0  0  0  0  0  0  0  0  0  0  0
   10.3885   -4.4388   19.2773 C   0  0  0  0  0  0  0  0  0  0  0  0
    4.5160   -9.3822   15.0841 C   0  0  0  0  0  0  0  0  0  0  0  0
  1  3  4  0
  1 24  4  0
  2  6  4  0
  2 15  4  0
  3  5  4  0
  3  6  4  0
  4 21  4  0
  4 29  4  0
  5 15  4  0
  5 28  1  0
  6 16  4  0
  7 18  4  0
  7 26  4  0
  8 18  1  0
  8 19  4  0
  8 22  4  0
  9 12  4  0
  9 19  4  0
 10 12  4  0
 10 22  4  0
 11 20  4  0
 11 21  4  0
 12 23  1  0
 13 20  4  0
 13 29  4  0
 14 17  4  0
 14 28  4  0
 15 25  2  0
 16 27  4  0
 17 18  4  0
 20 27  1  0
 24 27  4  0
 26 28  4  0
M  END
$$$$

 Created by Python create_sdf_string function

 29 33  0  0  0  0  0  0  0  0999 V2000
    8.8270   -7.0288   18.4251 C   0  0  0  0  0  0  0  0  0  0  0  0
    9.1576   -4.6236   15.8860 O   0  0  0  0  0  0  0  0  0  0  0  0
    9.1509   -5.9108   17.7177 C   0  0  0  0  0  0  0  0  0  0  0  0
    3.6373   -9.5349   16.0582 N   0  0  0  0  0  0  0  0  0  0  0  0
    9.9275   -4.8001   18.0438 N   0  0  0  0  0  0  0  0  0  0  0  0
    8.5908   -5.7425   16.4412 C   0  0  0  0  0  0  0  0  0  0  0  0
   10.5993   -4.8981   21.6068 C   0  0  0  0  0  0  0  0  0  0  0  0
   10.4258   -3.0106   23.0998 C   0  0  0  0  0  0  0  0  0  0  0  0
   10.2148   -3.4364   25.4200 C   0  0  0  0  0  0  0  0  0  0  0  0
    9.7853   -1.1840   24.4927 C   0  0  0  0  0  0  0  0  0  0  0  0
    5.0276   -8.5227   17.5352 C   0  0  0  0  0  0  0  0  0  0  0  0
    9.8187   -2.0895   25.5800 C   0  0  0  0  0  0  0  0  0  0  0  0
    5.6473   -8.7216   15.3158 C   0  0  0  0  0  0  0  0  0  0  0  0
   10.7581   -3.1233   19.4720 N   0  0  0  0  0  0  0  0  0  0  0  0
    9.9571   -4.0573   16.8866 C   0  0  0  0  0  0  0  0  0  0  0  0
    7.6213   -6.5618   16.0087 C   0  0  0  0  0  0  0  0  0  0  0  0
   10.8583   -2.6527   20.7222 C   0  0  0  0  0  0  0  0  0  0  0  0
   10.6412   -3.5089   21.7936 C   0  0  0  0  0  0  0  0  0  0  0  0
   10.4972   -3.8968   24.1589 C   0  0  0  0  0  0  0  0  0  0  0  0
    5.9260   -8.2736   16.5517 C   0  0  0  0  0  0  0  0  0  0  0  0
    3.8816   -9.1166   17.2493 C   0  0  0  0  0  0  0  0  0  0  0  0
   10.1297   -1.6575   23.2324 C   0  0  0  0  0  0  0  0  0  0  0  0
    9.4684   -1.6929   26.7263 F   0  0  0  0  0  0  0  0  0  0  0  0
    7.7963   -7.7906   17.9837 C   0  0  0  0  0  0  0  0  0  0  0  0
   10.5884   -3.0725   16.7902 O   0  0  0  0  0  0  0  0  0  0  0  0
   10.4323   -5.3494   20.3516 C   0  0  0  0  0  0  0  0  0  0  0  0
    7.1156   -7.5454   16.8218 C   0  0  0  0  0  0  0  0  0  0  0  0
   10.3885   -4.4388   19.2773 C   0  0  0  0  0  0  0  0  0  0  0  0
    4.5160   -9.3822   15.0841 C   0  0  0  0  0  0  0  0  0  0  0  0
  1  3  4  0
  1 24  4  0
  2  6  4  0
  2 15  4  0
  3  5  4  0
  3  6  4  0
  4 21  4  0
  4 29  4  0
  5 15  4  0
  5 28  1  0
  6 16  4  0
  7 18  4  0
  7 26  4  0
  8 18  1  0
  8 19  4  0
  8 22  4  0
  9 12  4  0
  9 19  4  0
 10 12  4  0
 10 22  4  0
 11 20  4  0
 11 21  4  0
 12 23  1  0
 13 20  4  0
 13 29  4  0
 14 17  4  0
 14 28  4  0
 15 25  2  0
 16 27  4  0
 17 18  4  0
 20 27  1  0
 24 27  4  0
 26 28  4  0
M  END
$$$$

 Created by Python create_sdf_string function

 29 33  0  0  0  0  0  0  0  0999 V2000
    8.8270   -7.0288   18.4251 C   0  0  0  0  0  0  0  0  0  0  0  0
    9.1576   -4.6236   15.8860 O   0  0  0  0  0  0  0  0  0  0  0  0
    9.1509   -5.9108   17.7177 C   0  0  0  0  0  0  0  0  0  0  0  0
    3.6373   -9.5349   16.0582 N   0  0  0  0  0  0  0  0  0  0  0  0
    9.9275   -4.8001   18.0438 N   0  0  0  0  0  0  0  0  0  0  0  0
    8.5908   -5.7425   16.4412 C   0  0  0  0  0  0  0  0  0  0  0  0
   10.5993   -4.8981   21.6068 C   0  0  0  0  0  0  0  0  0  0  0  0
   10.4258   -3.0106   23.0998 C   0  0  0  0  0  0  0  0  0  0  0  0
   10.2148   -3.4364   25.4200 C   0  0  0  0  0  0  0  0  0  0  0  0
    9.7853   -1.1840   24.4927 C   0  0  0  0  0  0  0  0  0  0  0  0
    5.0276   -8.5227   17.5352 C   0  0  0  0  0  0  0  0  0  0  0  0
    9.8187   -2.0895   25.5800 C   0  0  0  0  0  0  0  0  0  0  0  0
    5.6473   -8.7216   15.3158 C   0  0  0  0  0  0  0  0  0  0  0  0
   10.7581   -3.1233   19.4720 N   0  0  0  0  0  0  0  0  0  0  0  0
    9.9571   -4.0573   16.8866 C   0  0  0  0  0  0  0  0  0  0  0  0
    7.6213   -6.5618   16.0087 C   0  0  0  0  0  0  0  0  0  0  0  0
   10.8583   -2.6527   20.7222 C   0  0  0  0  0  0  0  0  0  0  0  0
   10.6412   -3.5089   21.7936 C   0  0  0  0  0  0  0  0  0  0  0  0
   10.4972   -3.8968   24.1589 C   0  0  0  0  0  0  0  0  0  0  0  0
    5.9260   -8.2736   16.5517 C   0  0  0  0  0  0  0  0  0  0  0  0
    3.8816   -9.1166   17.2493 C   0  0  0  0  0  0  0  0  0  0  0  0
   10.1297   -1.6575   23.2324 C   0  0  0  0  0  0  0  0  0  0  0  0
    9.4684   -1.6929   26.7263 F   0  0  0  0  0  0  0  0  0  0  0  0
    7.7963   -7.7906   17.9837 C   0  0  0  0  0  0  0  0  0  0  0  0
   10.5884   -3.0725   16.7902 O   0  0  0  0  0  0  0  0  0  0  0  0
   10.4323   -5.3494   20.3516 C   0  0  0  0  0  0  0  0  0  0  0  0
    7.1156   -7.5454   16.8218 C   0  0  0  0  0  0  0  0  0  0  0  0
   10.3885   -4.4388   19.2773 C   0  0  0  0  0  0  0  0  0  0  0  0
    4.5160   -9.3822   15.0841 C   0  0  0  0  0  0  0  0  0  0  0  0
  1  3  4  0
  1 24  4  0
  2  6  4  0
  2 15  4  0
  3  5  4  0
  3  6  4  0
  4 21  4  0
  4 29  4  0
  5 15  4  0
  5 28  1  0
  6 16  4  0
  7 18  4  0
  7 26  4  0
  8 18  1  0
  8 19  4  0
  8 22  4  0
  9 12  4  0
  9 19  4  0
 10 12  4  0
 10 22  4  0
 11 20  4  0
 11 21  4  0
 12 23  1  0
 13 20  4  0
 13 29  4  0
 14 17  4  0
 14 28  4  0
 15 25  2  0
 16 27  4  0
 17 18  4  0
 20 27  1  0
 24 27  4  0
 26 28  4  0
M  END
$$$$

 Created by Python create_sdf_string function

 29 33  0  0  0  0  0  0  0  0999 V2000
    8.8270   -7.0288   18.4251 C   0  0  0  0  0  0  0  0  0  0  0  0
    9.1576   -4.6236   15.8860 O   0  0  0  0  0  0  0  0  0  0  0  0
    9.1509   -5.9108   17.7177 C   0  0  0  0  0  0  0  0  0  0  0  0
    3.6373   -9.5349   16.0582 N   0  0  0  0  0  0  0  0  0  0  0  0
    9.9275   -4.8001   18.0438 N   0  0  0  0  0  0  0  0  0  0  0  0
    8.5908   -5.7425   16.4412 C   0  0  0  0  0  0  0  0  0  0  0  0
   10.5993   -4.8981   21.6068 C   0  0  0  0  0  0  0  0  0  0  0  0
   10.4258   -3.0106   23.0998 C   0  0  0  0  0  0  0  0  0  0  0  0
   10.2148   -3.4364   25.4200 C   0  0  0  0  0  0  0  0  0  0  0  0
    9.7853   -1.1840   24.4927 C   0  0  0  0  0  0  0  0  0  0  0  0
    5.0276   -8.5227   17.5352 C   0  0  0  0  0  0  0  0  0  0  0  0
    9.8187   -2.0895   25.5800 C   0  0  0  0  0  0  0  0  0  0  0  0
    5.6473   -8.7216   15.3158 C   0  0  0  0  0  0  0  0  0  0  0  0
   10.7581   -3.1233   19.4720 N   0  0  0  0  0  0  0  0  0  0  0  0
    9.9571   -4.0573   16.8866 C   0  0  0  0  0  0  0  0  0  0  0  0
    7.6213   -6.5618   16.0087 C   0  0  0  0  0  0  0  0  0  0  0  0
   10.8583   -2.6527   20.7222 C   0  0  0  0  0  0  0  0  0  0  0  0
   10.6412   -3.5089   21.7936 C   0  0  0  0  0  0  0  0  0  0  0  0
   10.4972   -3.8968   24.1589 C   0  0  0  0  0  0  0  0  0  0  0  0
    5.9260   -8.2736   16.5517 C   0  0  0  0  0  0  0  0  0  0  0  0
    3.8816   -9.1166   17.2493 C   0  0  0  0  0  0  0  0  0  0  0  0
   10.1297   -1.6575   23.2324 C   0  0  0  0  0  0  0  0  0  0  0  0
    9.4684   -1.6929   26.7263 F   0  0  0  0  0  0  0  0  0  0  0  0
    7.7963   -7.7906   17.9837 C   0  0  0  0  0  0  0  0  0  0  0  0
   10.5884   -3.0725   16.7902 O   0  0  0  0  0  0  0  0  0  0  0  0
   10.4323   -5.3494   20.3516 C   0  0  0  0  0  0  0  0  0  0  0  0
    7.1156   -7.5454   16.8218 C   0  0  0  0  0  0  0  0  0  0  0  0
   10.3885   -4.4388   19.2773 C   0  0  0  0  0  0  0  0  0  0  0  0
    4.5160   -9.3822   15.0841 C   0  0  0  0  0  0  0  0  0  0  0  0
  1  3  4  0
  1 24  4  0
  2  6  4  0
  2 15  4  0
  3  5  4  0
  3  6  4  0
  4 21  4  0
  4 29  4  0
  5 15  4  0
  5 28  1  0
  6 16  4  0
  7 18  4  0
  7 26  4  0
  8 18  1  0
  8 19  4  0
  8 22  4  0
  9 12  4  0
  9 19  4  0
 10 12  4  0
 10 22  4  0
 11 20  4  0
 11 21  4  0
 12 23  1  0
 13 20  4  0
 13 29  4  0
 14 17  4  0
 14 28  4  0
 15 25  2  0
 16 27  4  0
 17 18  4  0
 20 27  1  0
 24 27  4  0
 26 28  4  0
M  END
$$$$

 Created by Python create_sdf_string function

 29 33  0  0  0  0  0  0  0  0999 V2000
    8.8270   -7.0288   18.4251 C   0  0  0  0  0  0  0  0  0  0  0  0
    9.1576   -4.6236   15.8860 O   0  0  0  0  0  0  0  0  0  0  0  0
    9.1509   -5.9108   17.7177 C   0  0  0  0  0  0  0  0  0  0  0  0
    3.6373   -9.5349   16.0582 N   0  0  0  0  0  0  0  0  0  0  0  0
    9.9275   -4.8001   18.0438 N   0  0  0  0  0  0  0  0  0  0  0  0
    8.5908   -5.7425   16.4412 C   0  0  0  0  0  0  0  0  0  0  0  0
   10.5993   -4.8981   21.6068 C   0  0  0  0  0  0  0  0  0  0  0  0
   10.4258   -3.0106   23.0998 C   0  0  0  0  0  0  0  0  0  0  0  0
   10.2148   -3.4364   25.4200 C   0  0  0  0  0  0  0  0  0  0  0  0
    9.7853   -1.1840   24.4927 C   0  0  0  0  0  0  0  0  0  0  0  0
    5.0276   -8.5227   17.5352 C   0  0  0  0  0  0  0  0  0  0  0  0
    9.8187   -2.0895   25.5800 C   0  0  0  0  0  0  0  0  0  0  0  0
    5.6473   -8.7216   15.3158 C   0  0  0  0  0  0  0  0  0  0  0  0
   10.7581   -3.1233   19.4720 N   0  0  0  0  0  0  0  0  0  0  0  0
    9.9571   -4.0573   16.8866 C   0  0  0  0  0  0  0  0  0  0  0  0
    7.6213   -6.5618   16.0087 C   0  0  0  0  0  0  0  0  0  0  0  0
   10.8583   -2.6527   20.7222 C   0  0  0  0  0  0  0  0  0  0  0  0
   10.6412   -3.5089   21.7936 C   0  0  0  0  0  0  0  0  0  0  0  0
   10.4972   -3.8968   24.1589 C   0  0  0  0  0  0  0  0  0  0  0  0
    5.9260   -8.2736   16.5517 C   0  0  0  0  0  0  0  0  0  0  0  0
    3.8816   -9.1166   17.2493 C   0  0  0  0  0  0  0  0  0  0  0  0
   10.1297   -1.6575   23.2324 C   0  0  0  0  0  0  0  0  0  0  0  0
    9.4684   -1.6929   26.7263 F   0  0  0  0  0  0  0  0  0  0  0  0
    7.7963   -7.7906   17.9837 C   0  0  0  0  0  0  0  0  0  0  0  0
   10.5884   -3.0725   16.7902 O   0  0  0  0  0  0  0  0  0  0  0  0
   10.4323   -5.3494   20.3516 C   0  0  0  0  0  0  0  0  0  0  0  0
    7.1156   -7.5454   16.8218 C   0  0  0  0  0  0  0  0  0  0  0  0
   10.3885   -4.4388   19.2773 C   0  0  0  0  0  0  0  0  0  0  0  0
    4.5160   -9.3822   15.0841 C   0  0  0  0  0  0  0  0  0  0  0  0
  1  3  4  0
  1 24  4  0
  2  6  4  0
  2 15  4  0
  3  5  4  0
  3  6  4  0
  4 21  4  0
  4 29  4  0
  5 15  4  0
  5 28  1  0
  6 16  4  0
  7 18  4  0
  7 26  4  0
  8 18  1  0
  8 19  4  0
  8 22  4  0
  9 12  4  0
  9 19  4  0
 10 12  4  0
 10 22  4  0
 11 20  4  0
 11 21  4  0
 12 23  1  0
 13 20  4  0
 13 29  4  0
 14 17  4  0
 14 28  4  0
 15 25  2  0
 16 27  4  0
 17 18  4  0
 20 27  1  0
 24 27  4  0
 26 28  4  0
M  END
$$$$

 Created by Python create_sdf_string function

 29 33  0  0  0  0  0  0  0  0999 V2000
    8.8270   -7.0288   18.4251 C   0  0  0  0  0  0  0  0  0  0  0  0
    9.1576   -4.6236   15.8860 O   0  0  0  0  0  0  0  0  0  0  0  0
    9.1509   -5.9108   17.7177 C   0  0  0  0  0  0  0  0  0  0  0  0
    3.6373   -9.5349   16.0582 N   0  0  0  0  0  0  0  0  0  0  0  0
    9.9275   -4.8001   18.0438 N   0  0  0  0  0  0  0  0  0  0  0  0
    8.5908   -5.7425   16.4412 C   0  0  0  0  0  0  0  0  0  0  0  0
   10.5993   -4.8981   21.6068 C   0  0  0  0  0  0  0  0  0  0  0  0
   10.4258   -3.0106   23.0998 C   0  0  0  0  0  0  0  0  0  0  0  0
   10.2148   -3.4364   25.4200 C   0  0  0  0  0  0  0  0  0  0  0  0
    9.7853   -1.1840   24.4927 C   0  0  0  0  0  0  0  0  0  0  0  0
    5.0276   -8.5227   17.5352 C   0  0  0  0  0  0  0  0  0  0  0  0
    9.8187   -2.0895   25.5800 C   0  0  0  0  0  0  0  0  0  0  0  0
    5.6473   -8.7216   15.3158 C   0  0  0  0  0  0  0  0  0  0  0  0
   10.7581   -3.1233   19.4720 N   0  0  0  0  0  0  0  0  0  0  0  0
    9.9571   -4.0573   16.8866 C   0  0  0  0  0  0  0  0  0  0  0  0
    7.6213   -6.5618   16.0087 C   0  0  0  0  0  0  0  0  0  0  0  0
   10.8583   -2.6527   20.7222 C   0  0  0  0  0  0  0  0  0  0  0  0
   10.6412   -3.5089   21.7936 C   0  0  0  0  0  0  0  0  0  0  0  0
   10.4972   -3.8968   24.1589 C   0  0  0  0  0  0  0  0  0  0  0  0
    5.9260   -8.2736   16.5517 C   0  0  0  0  0  0  0  0  0  0  0  0
    3.8816   -9.1166   17.2493 C   0  0  0  0  0  0  0  0  0  0  0  0
   10.1297   -1.6575   23.2324 C   0  0  0  0  0  0  0  0  0  0  0  0
    9.4684   -1.6929   26.7263 F   0  0  0  0  0  0  0  0  0  0  0  0
    7.7963   -7.7906   17.9837 C   0  0  0  0  0  0  0  0  0  0  0  0
   10.5884   -3.0725   16.7902 O   0  0  0  0  0  0  0  0  0  0  0  0
   10.4323   -5.3494   20.3516 C   0  0  0  0  0  0  0  0  0  0  0  0
    7.1156   -7.5454   16.8218 C   0  0  0  0  0  0  0  0  0  0  0  0
   10.3885   -4.4388   19.2773 C   0  0  0  0  0  0  0  0  0  0  0  0
    4.5160   -9.3822   15.0841 C   0  0  0  0  0  0  0  0  0  0  0  0
  1  3  4  0
  1 24  4  0
  2  6  4  0
  2 15  4  0
  3  5  4  0
  3  6  4  0
  4 21  4  0
  4 29  4  0
  5 15  4  0
  5 28  1  0
  6 16  4  0
  7 18  4  0
  7 26  4  0
  8 18  1  0
  8 19  4  0
  8 22  4  0
  9 12  4  0
  9 19  4  0
 10 12  4  0
 10 22  4  0
 11 20  4  0
 11 21  4  0
 12 23  1  0
 13 20  4  0
 13 29  4  0
 14 17  4  0
 14 28  4  0
 15 25  2  0
 16 27  4  0
 17 18  4  0
 20 27  1  0
 24 27  4  0
 26 28  4  0
M  END
$$$$

 Created by Python create_sdf_string function

 29 33  0  0  0  0  0  0  0  0999 V2000
    8.8270   -7.0288   18.4251 C   0  0  0  0  0  0  0  0  0  0  0  0
    9.1576   -4.6236   15.8860 O   0  0  0  0  0  0  0  0  0  0  0  0
    9.1509   -5.9108   17.7177 C   0  0  0  0  0  0  0  0  0  0  0  0
    3.6373   -9.5349   16.0582 N   0  0  0  0  0  0  0  0  0  0  0  0
    9.9275   -4.8001   18.0438 N   0  0  0  0  0  0  0  0  0  0  0  0
    8.5908   -5.7425   16.4412 C   0  0  0  0  0  0  0  0  0  0  0  0
   10.5993   -4.8981   21.6068 C   0  0  0  0  0  0  0  0  0  0  0  0
   10.4258   -3.0106   23.0998 C   0  0  0  0  0  0  0  0  0  0  0  0
   10.2148   -3.4364   25.4200 C   0  0  0  0  0  0  0  0  0  0  0  0
    9.7853   -1.1840   24.4927 C   0  0  0  0  0  0  0  0  0  0  0  0
    5.0276   -8.5227   17.5352 C   0  0  0  0  0  0  0  0  0  0  0  0
    9.8187   -2.0895   25.5800 C   0  0  0  0  0  0  0  0  0  0  0  0
    5.6473   -8.7216   15.3158 C   0  0  0  0  0  0  0  0  0  0  0  0
   10.7581   -3.1233   19.4720 N   0  0  0  0  0  0  0  0  0  0  0  0
    9.9571   -4.0573   16.8866 C   0  0  0  0  0  0  0  0  0  0  0  0
    7.6213   -6.5618   16.0087 C   0  0  0  0  0  0  0  0  0  0  0  0
   10.8583   -2.6527   20.7222 C   0  0  0  0  0  0  0  0  0  0  0  0
   10.6412   -3.5089   21.7936 C   0  0  0  0  0  0  0  0  0  0  0  0
   10.4972   -3.8968   24.1589 C   0  0  0  0  0  0  0  0  0  0  0  0
    5.9260   -8.2736   16.5517 C   0  0  0  0  0  0  0  0  0  0  0  0
    3.8816   -9.1166   17.2493 C   0  0  0  0  0  0  0  0  0  0  0  0
   10.1297   -1.6575   23.2324 C   0  0  0  0  0  0  0  0  0  0  0  0
    9.4684   -1.6929   26.7263 F   0  0  0  0  0  0  0  0  0  0  0  0
    7.7963   -7.7906   17.9837 C   0  0  0  0  0  0  0  0  0  0  0  0
   10.5884   -3.0725   16.7902 O   0  0  0  0  0  0  0  0  0  0  0  0
   10.4323   -5.3494   20.3516 C   0  0  0  0  0  0  0  0  0  0  0  0
    7.1156   -7.5454   16.8218 C   0  0  0  0  0  0  0  0  0  0  0  0
   10.3885   -4.4388   19.2773 C   0  0  0  0  0  0  0  0  0  0  0  0
    4.5160   -9.3822   15.0841 C   0  0  0  0  0  0  0  0  0  0  0  0
  1  3  4  0
  1 24  4  0
  2  6  4  0
  2 15  4  0
  3  5  4  0
  3  6  4  0
  4 21  4  0
  4 29  4  0
  5 15  4  0
  5 28  1  0
  6 16  4  0
  7 18  4  0
  7 26  4  0
  8 18  1  0
  8 19  4  0
  8 22  4  0
  9 12  4  0
  9 19  4  0
 10 12  4  0
 10 22  4  0
 11 20  4  0
 11 21  4  0
 12 23  1  0
 13 20  4  0
 13 29  4  0
 14 17  4  0
 14 28  4  0
 15 25  2  0
 16 27  4  0
 17 18  4  0
 20 27  1  0
 24 27  4  0
 26 28  4  0
M  END
$$$$

 Created by Python create_sdf_string function

 29 33  0  0  0  0  0  0  0  0999 V2000
    8.8270   -7.0288   18.4251 C   0  0  0  0  0  0  0  0  0  0  0  0
    9.1576   -4.6236   15.8860 O   0  0  0  0  0  0  0  0  0  0  0  0
    9.1509   -5.9108   17.7177 C   0  0  0  0  0  0  0  0  0  0  0  0
    3.6373   -9.5349   16.0582 N   0  0  0  0  0  0  0  0  0  0  0  0
    9.9275   -4.8001   18.0438 N   0  0  0  0  0  0  0  0  0  0  0  0
    8.5908   -5.7425   16.4412 C   0  0  0  0  0  0  0  0  0  0  0  0
   10.5993   -4.8981   21.6068 C   0  0  0  0  0  0  0  0  0  0  0  0
   10.4258   -3.0106   23.0998 C   0  0  0  0  0  0  0  0  0  0  0  0
   10.2148   -3.4364   25.4200 C   0  0  0  0  0  0  0  0  0  0  0  0
    9.7853   -1.1840   24.4927 C   0  0  0  0  0  0  0  0  0  0  0  0
    5.0276   -8.5227   17.5352 C   0  0  0  0  0  0  0  0  0  0  0  0
    9.8187   -2.0895   25.5800 C   0  0  0  0  0  0  0  0  0  0  0  0
    5.6473   -8.7216   15.3158 C   0  0  0  0  0  0  0  0  0  0  0  0
   10.7581   -3.1233   19.4720 N   0  0  0  0  0  0  0  0  0  0  0  0
    9.9571   -4.0573   16.8866 C   0  0  0  0  0  0  0  0  0  0  0  0
    7.6213   -6.5618   16.0087 C   0  0  0  0  0  0  0  0  0  0  0  0
   10.8583   -2.6527   20.7222 C   0  0  0  0  0  0  0  0  0  0  0  0
   10.6412   -3.5089   21.7936 C   0  0  0  0  0  0  0  0  0  0  0  0
   10.4972   -3.8968   24.1589 C   0  0  0  0  0  0  0  0  0  0  0  0
    5.9260   -8.2736   16.5517 C   0  0  0  0  0  0  0  0  0  0  0  0
    3.8816   -9.1166   17.2493 C   0  0  0  0  0  0  0  0  0  0  0  0
   10.1297   -1.6575   23.2324 C   0  0  0  0  0  0  0  0  0  0  0  0
    9.4684   -1.6929   26.7263 F   0  0  0  0  0  0  0  0  0  0  0  0
    7.7963   -7.7906   17.9837 C   0  0  0  0  0  0  0  0  0  0  0  0
   10.5884   -3.0725   16.7902 O   0  0  0  0  0  0  0  0  0  0  0  0
   10.4323   -5.3494   20.3516 C   0  0  0  0  0  0  0  0  0  0  0  0
    7.1156   -7.5454   16.8218 C   0  0  0  0  0  0  0  0  0  0  0  0
   10.3885   -4.4388   19.2773 C   0  0  0  0  0  0  0  0  0  0  0  0
    4.5160   -9.3822   15.0841 C   0  0  0  0  0  0  0  0  0  0  0  0
  1  3  4  0
  1 24  4  0
  2  6  4  0
  2 15  4  0
  3  5  4  0
  3  6  4  0
  4 21  4  0
  4 29  4  0
  5 15  4  0
  5 28  1  0
  6 16  4  0
  7 18  4  0
  7 26  4  0
  8 18  1  0
  8 19  4  0
  8 22  4  0
  9 12  4  0
  9 19  4  0
 10 12  4  0
 10 22  4  0
 11 20  4  0
 11 21  4  0
 12 23  1  0
 13 20  4  0
 13 29  4  0
 14 17  4  0
 14 28  4  0
 15 25  2  0
 16 27  4  0
 17 18  4  0
 20 27  1  0
 24 27  4  0
 26 28  4  0
M  END
$$$$

 Created by Python create_sdf_string function

 29 33  0  0  0  0  0  0  0  0999 V2000
    8.8270   -7.0288   18.4251 C   0  0  0  0  0  0  0  0  0  0  0  0
    9.1576   -4.6236   15.8860 O   0  0  0  0  0  0  0  0  0  0  0  0
    9.1509   -5.9108   17.7177 C   0  0  0  0  0  0  0  0  0  0  0  0
    3.6373   -9.5349   16.0582 N   0  0  0  0  0  0  0  0  0  0  0  0
    9.9275   -4.8001   18.0438 N   0  0  0  0  0  0  0  0  0  0  0  0
    8.5908   -5.7425   16.4412 C   0  0  0  0  0  0  0  0  0  0  0  0
   10.5993   -4.8981   21.6068 C   0  0  0  0  0  0  0  0  0  0  0  0
   10.4258   -3.0106   23.0998 C   0  0  0  0  0  0  0  0  0  0  0  0
   10.2148   -3.4364   25.4200 C   0  0  0  0  0  0  0  0  0  0  0  0
    9.7853   -1.1840   24.4927 C   0  0  0  0  0  0  0  0  0  0  0  0
    5.0276   -8.5227   17.5352 C   0  0  0  0  0  0  0  0  0  0  0  0
    9.8187   -2.0895   25.5800 C   0  0  0  0  0  0  0  0  0  0  0  0
    5.6473   -8.7216   15.3158 C   0  0  0  0  0  0  0  0  0  0  0  0
   10.7581   -3.1233   19.4720 N   0  0  0  0  0  0  0  0  0  0  0  0
    9.9571   -4.0573   16.8866 C   0  0  0  0  0  0  0  0  0  0  0  0
    7.6213   -6.5618   16.0087 C   0  0  0  0  0  0  0  0  0  0  0  0
   10.8583   -2.6527   20.7222 C   0  0  0  0  0  0  0  0  0  0  0  0
   10.6412   -3.5089   21.7936 C   0  0  0  0  0  0  0  0  0  0  0  0
   10.4972   -3.8968   24.1589 C   0  0  0  0  0  0  0  0  0  0  0  0
    5.9260   -8.2736   16.5517 C   0  0  0  0  0  0  0  0  0  0  0  0
    3.8816   -9.1166   17.2493 C   0  0  0  0  0  0  0  0  0  0  0  0
   10.1297   -1.6575   23.2324 C   0  0  0  0  0  0  0  0  0  0  0  0
    9.4684   -1.6929   26.7263 F   0  0  0  0  0  0  0  0  0  0  0  0
    7.7963   -7.7906   17.9837 C   0  0  0  0  0  0  0  0  0  0  0  0
   10.5884   -3.0725   16.7902 O   0  0  0  0  0  0  0  0  0  0  0  0
   10.4323   -5.3494   20.3516 C   0  0  0  0  0  0  0  0  0  0  0  0
    7.1156   -7.5454   16.8218 C   0  0  0  0  0  0  0  0  0  0  0  0
   10.3885   -4.4388   19.2773 C   0  0  0  0  0  0  0  0  0  0  0  0
    4.5160   -9.3822   15.0841 C   0  0  0  0  0  0  0  0  0  0  0  0
  1  3  4  0
  1 24  4  0
  2  6  4  0
  2 15  4  0
  3  5  4  0
  3  6  4  0
  4 21  4  0
  4 29  4  0
  5 15  4  0
  5 28  1  0
  6 16  4  0
  7 18  4  0
  7 26  4  0
  8 18  1  0
  8 19  4  0
  8 22  4  0
  9 12  4  0
  9 19  4  0
 10 12  4  0
 10 22  4  0
 11 20  4  0
 11 21  4  0
 12 23  1  0
 13 20  4  0
 13 29  4  0
 14 17  4  0
 14 28  4  0
 15 25  2  0
 16 27  4  0
 17 18  4  0
 20 27  1  0
 24 27  4  0
 26 28  4  0
M  END
$$$$

 Created by Python create_sdf_string function

 29 33  0  0  0  0  0  0  0  0999 V2000
    8.8270   -7.0288   18.4251 C   0  0  0  0  0  0  0  0  0  0  0  0
    9.1576   -4.6236   15.8860 O   0  0  0  0  0  0  0  0  0  0  0  0
    9.1509   -5.9108   17.7177 C   0  0  0  0  0  0  0  0  0  0  0  0
    3.6373   -9.5349   16.0582 N   0  0  0  0  0  0  0  0  0  0  0  0
    9.9275   -4.8001   18.0438 N   0  0  0  0  0  0  0  0  0  0  0  0
    8.5908   -5.7425   16.4412 C   0  0  0  0  0  0  0  0  0  0  0  0
   10.5993   -4.8981   21.6068 C   0  0  0  0  0  0  0  0  0  0  0  0
   10.4258   -3.0106   23.0998 C   0  0  0  0  0  0  0  0  0  0  0  0
   10.2148   -3.4364   25.4200 C   0  0  0  0  0  0  0  0  0  0  0  0
    9.7853   -1.1840   24.4927 C   0  0  0  0  0  0  0  0  0  0  0  0
    5.0276   -8.5227   17.5352 C   0  0  0  0  0  0  0  0  0  0  0  0
    9.8187   -2.0895   25.5800 C   0  0  0  0  0  0  0  0  0  0  0  0
    5.6473   -8.7216   15.3158 C   0  0  0  0  0  0  0  0  0  0  0  0
   10.7581   -3.1233   19.4720 N   0  0  0  0  0  0  0  0  0  0  0  0
    9.9571   -4.0573   16.8866 C   0  0  0  0  0  0  0  0  0  0  0  0
    7.6213   -6.5618   16.0087 C   0  0  0  0  0  0  0  0  0  0  0  0
   10.8583   -2.6527   20.7222 C   0  0  0  0  0  0  0  0  0  0  0  0
   10.6412   -3.5089   21.7936 C   0  0  0  0  0  0  0  0  0  0  0  0
   10.4972   -3.8968   24.1589 C   0  0  0  0  0  0  0  0  0  0  0  0
    5.9260   -8.2736   16.5517 C   0  0  0  0  0  0  0  0  0  0  0  0
    3.8816   -9.1166   17.2493 C   0  0  0  0  0  0  0  0  0  0  0  0
   10.1297   -1.6575   23.2324 C   0  0  0  0  0  0  0  0  0  0  0  0
    9.4684   -1.6929   26.7263 F   0  0  0  0  0  0  0  0  0  0  0  0
    7.7963   -7.7906   17.9837 C   0  0  0  0  0  0  0  0  0  0  0  0
   10.5884   -3.0725   16.7902 O   0  0  0  0  0  0  0  0  0  0  0  0
   10.4323   -5.3494   20.3516 C   0  0  0  0  0  0  0  0  0  0  0  0
    7.1156   -7.5454   16.8218 C   0  0  0  0  0  0  0  0  0  0  0  0
   10.3885   -4.4388   19.2773 C   0  0  0  0  0  0  0  0  0  0  0  0
    4.5160   -9.3822   15.0841 C   0  0  0  0  0  0  0  0  0  0  0  0
  1  3  4  0
  1 24  4  0
  2  6  4  0
  2 15  4  0
  3  5  4  0
  3  6  4  0
  4 21  4  0
  4 29  4  0
  5 15  4  0
  5 28  1  0
  6 16  4  0
  7 18  4  0
  7 26  4  0
  8 18  1  0
  8 19  4  0
  8 22  4  0
  9 12  4  0
  9 19  4  0
 10 12  4  0
 10 22  4  0
 11 20  4  0
 11 21  4  0
 12 23  1  0
 13 20  4  0
 13 29  4  0
 14 17  4  0
 14 28  4  0
 15 25  2  0
 16 27  4  0
 17 18  4  0
 20 27  1  0
 24 27  4  0
 26 28  4  0
M  END
$$$$

 Created by Python create_sdf_string function

 29 33  0  0  0  0  0  0  0  0999 V2000
    8.8270   -7.0288   18.4251 C   0  0  0  0  0  0  0  0  0  0  0  0
    9.1576   -4.6236   15.8860 O   0  0  0  0  0  0  0  0  0  0  0  0
    9.1509   -5.9108   17.7177 C   0  0  0  0  0  0  0  0  0  0  0  0
    3.6373   -9.5349   16.0582 N   0  0  0  0  0  0  0  0  0  0  0  0
    9.9275   -4.8001   18.0438 N   0  0  0  0  0  0  0  0  0  0  0  0
    8.5908   -5.7425   16.4412 C   0  0  0  0  0  0  0  0  0  0  0  0
   10.5993   -4.8981   21.6068 C   0  0  0  0  0  0  0  0  0  0  0  0
   10.4258   -3.0106   23.0998 C   0  0  0  0  0  0  0  0  0  0  0  0
   10.2148   -3.4364   25.4200 C   0  0  0  0  0  0  0  0  0  0  0  0
    9.7853   -1.1840   24.4927 C   0  0  0  0  0  0  0  0  0  0  0  0
    5.0276   -8.5227   17.5352 C   0  0  0  0  0  0  0  0  0  0  0  0
    9.8187   -2.0895   25.5800 C   0  0  0  0  0  0  0  0  0  0  0  0
    5.6473   -8.7216   15.3158 C   0  0  0  0  0  0  0  0  0  0  0  0
   10.7581   -3.1233   19.4720 N   0  0  0  0  0  0  0  0  0  0  0  0
    9.9571   -4.0573   16.8866 C   0  0  0  0  0  0  0  0  0  0  0  0
    7.6213   -6.5618   16.0087 C   0  0  0  0  0  0  0  0  0  0  0  0
   10.8583   -2.6527   20.7222 C   0  0  0  0  0  0  0  0  0  0  0  0
   10.6412   -3.5089   21.7936 C   0  0  0  0  0  0  0  0  0  0  0  0
   10.4972   -3.8968   24.1589 C   0  0  0  0  0  0  0  0  0  0  0  0
    5.9260   -8.2736   16.5517 C   0  0  0  0  0  0  0  0  0  0  0  0
    3.8816   -9.1166   17.2493 C   0  0  0  0  0  0  0  0  0  0  0  0
   10.1297   -1.6575   23.2324 C   0  0  0  0  0  0  0  0  0  0  0  0
    9.4684   -1.6929   26.7263 F   0  0  0  0  0  0  0  0  0  0  0  0
    7.7963   -7.7906   17.9837 C   0  0  0  0  0  0  0  0  0  0  0  0
   10.5884   -3.0725   16.7902 O   0  0  0  0  0  0  0  0  0  0  0  0
   10.4323   -5.3494   20.3516 C   0  0  0  0  0  0  0  0  0  0  0  0
    7.1156   -7.5454   16.8218 C   0  0  0  0  0  0  0  0  0  0  0  0
   10.3885   -4.4388   19.2773 C   0  0  0  0  0  0  0  0  0  0  0  0
    4.5160   -9.3822   15.0841 C   0  0  0  0  0  0  0  0  0  0  0  0
  1  3  4  0
  1 24  4  0
  2  6  4  0
  2 15  4  0
  3  5  4  0
  3  6  4  0
  4 21  4  0
  4 29  4  0
  5 15  4  0
  5 28  1  0
  6 16  4  0
  7 18  4  0
  7 26  4  0
  8 18  1  0
  8 19  4  0
  8 22  4  0
  9 12  4  0
  9 19  4  0
 10 12  4  0
 10 22  4  0
 11 20  4  0
 11 21  4  0
 12 23  1  0
 13 20  4  0
 13 29  4  0
 14 17  4  0
 14 28  4  0
 15 25  2  0
 16 27  4  0
 17 18  4  0
 20 27  1  0
 24 27  4  0
 26 28  4  0
M  END
$$$$

 Created by Python create_sdf_string function

 29 33  0  0  0  0  0  0  0  0999 V2000
    8.8270   -7.0288   18.4251 C   0  0  0  0  0  0  0  0  0  0  0  0
    9.1576   -4.6236   15.8860 O   0  0  0  0  0  0  0  0  0  0  0  0
    9.1509   -5.9108   17.7177 C   0  0  0  0  0  0  0  0  0  0  0  0
    3.6373   -9.5349   16.0582 N   0  0  0  0  0  0  0  0  0  0  0  0
    9.9275   -4.8001   18.0438 N   0  0  0  0  0  0  0  0  0  0  0  0
    8.5908   -5.7425   16.4412 C   0  0  0  0  0  0  0  0  0  0  0  0
   10.5993   -4.8981   21.6068 C   0  0  0  0  0  0  0  0  0  0  0  0
   10.4258   -3.0106   23.0998 C   0  0  0  0  0  0  0  0  0  0  0  0
   10.2148   -3.4364   25.4200 C   0  0  0  0  0  0  0  0  0  0  0  0
    9.7853   -1.1840   24.4927 C   0  0  0  0  0  0  0  0  0  0  0  0
    5.0276   -8.5227   17.5352 C   0  0  0  0  0  0  0  0  0  0  0  0
    9.8187   -2.0895   25.5800 C   0  0  0  0  0  0  0  0  0  0  0  0
    5.6473   -8.7216   15.3158 C   0  0  0  0  0  0  0  0  0  0  0  0
   10.7581   -3.1233   19.4720 N   0  0  0  0  0  0  0  0  0  0  0  0
    9.9571   -4.0573   16.8866 C   0  0  0  0  0  0  0  0  0  0  0  0
    7.6213   -6.5618   16.0087 C   0  0  0  0  0  0  0  0  0  0  0  0
   10.8583   -2.6527   20.7222 C   0  0  0  0  0  0  0  0  0  0  0  0
   10.6412   -3.5089   21.7936 C   0  0  0  0  0  0  0  0  0  0  0  0
   10.4972   -3.8968   24.1589 C   0  0  0  0  0  0  0  0  0  0  0  0
    5.9260   -8.2736   16.5517 C   0  0  0  0  0  0  0  0  0  0  0  0
    3.8816   -9.1166   17.2493 C   0  0  0  0  0  0  0  0  0  0  0  0
   10.1297   -1.6575   23.2324 C   0  0  0  0  0  0  0  0  0  0  0  0
    9.4684   -1.6929   26.7263 F   0  0  0  0  0  0  0  0  0  0  0  0
    7.7963   -7.7906   17.9837 C   0  0  0  0  0  0  0  0  0  0  0  0
   10.5884   -3.0725   16.7902 O   0  0  0  0  0  0  0  0  0  0  0  0
   10.4323   -5.3494   20.3516 C   0  0  0  0  0  0  0  0  0  0  0  0
    7.1156   -7.5454   16.8218 C   0  0  0  0  0  0  0  0  0  0  0  0
   10.3885   -4.4388   19.2773 C   0  0  0  0  0  0  0  0  0  0  0  0
    4.5160   -9.3822   15.0841 C   0  0  0  0  0  0  0  0  0  0  0  0
  1  3  4  0
  1 24  4  0
  2  6  4  0
  2 15  4  0
  3  5  4  0
  3  6  4  0
  4 21  4  0
  4 29  4  0
  5 15  4  0
  5 28  1  0
  6 16  4  0
  7 18  4  0
  7 26  4  0
  8 18  1  0
  8 19  4  0
  8 22  4  0
  9 12  4  0
  9 19  4  0
 10 12  4  0
 10 22  4  0
 11 20  4  0
 11 21  4  0
 12 23  1  0
 13 20  4  0
 13 29  4  0
 14 17  4  0
 14 28  4  0
 15 25  2  0
 16 27  4  0
 17 18  4  0
 20 27  1  0
 24 27  4  0
 26 28  4  0
M  END
$$$$

 Created by Python create_sdf_string function

 29 33  0  0  0  0  0  0  0  0999 V2000
    8.8270   -7.0288   18.4251 C   0  0  0  0  0  0  0  0  0  0  0  0
    9.1576   -4.6236   15.8860 O   0  0  0  0  0  0  0  0  0  0  0  0
    9.1509   -5.9108   17.7177 C   0  0  0  0  0  0  0  0  0  0  0  0
    3.6373   -9.5349   16.0582 N   0  0  0  0  0  0  0  0  0  0  0  0
    9.9275   -4.8001   18.0438 N   0  0  0  0  0  0  0  0  0  0  0  0
    8.5908   -5.7425   16.4412 C   0  0  0  0  0  0  0  0  0  0  0  0
   10.5993   -4.8981   21.6068 C   0  0  0  0  0  0  0  0  0  0  0  0
   10.4258   -3.0106   23.0998 C   0  0  0  0  0  0  0  0  0  0  0  0
   10.2148   -3.4364   25.4200 C   0  0  0  0  0  0  0  0  0  0  0  0
    9.7853   -1.1840   24.4927 C   0  0  0  0  0  0  0  0  0  0  0  0
    5.0276   -8.5227   17.5352 C   0  0  0  0  0  0  0  0  0  0  0  0
    9.8187   -2.0895   25.5800 C   0  0  0  0  0  0  0  0  0  0  0  0
    5.6473   -8.7216   15.3158 C   0  0  0  0  0  0  0  0  0  0  0  0
   10.7581   -3.1233   19.4720 N   0  0  0  0  0  0  0  0  0  0  0  0
    9.9571   -4.0573   16.8866 C   0  0  0  0  0  0  0  0  0  0  0  0
    7.6213   -6.5618   16.0087 C   0  0  0  0  0  0  0  0  0  0  0  0
   10.8583   -2.6527   20.7222 C   0  0  0  0  0  0  0  0  0  0  0  0
   10.6412   -3.5089   21.7936 C   0  0  0  0  0  0  0  0  0  0  0  0
   10.4972   -3.8968   24.1589 C   0  0  0  0  0  0  0  0  0  0  0  0
    5.9260   -8.2736   16.5517 C   0  0  0  0  0  0  0  0  0  0  0  0
    3.8816   -9.1166   17.2493 C   0  0  0  0  0  0  0  0  0  0  0  0
   10.1297   -1.6575   23.2324 C   0  0  0  0  0  0  0  0  0  0  0  0
    9.4684   -1.6929   26.7263 F   0  0  0  0  0  0  0  0  0  0  0  0
    7.7963   -7.7906   17.9837 C   0  0  0  0  0  0  0  0  0  0  0  0
   10.5884   -3.0725   16.7902 O   0  0  0  0  0  0  0  0  0  0  0  0
   10.4323   -5.3494   20.3516 C   0  0  0  0  0  0  0  0  0  0  0  0
    7.1156   -7.5454   16.8218 C   0  0  0  0  0  0  0  0  0  0  0  0
   10.3885   -4.4388   19.2773 C   0  0  0  0  0  0  0  0  0  0  0  0
    4.5160   -9.3822   15.0841 C   0  0  0  0  0  0  0  0  0  0  0  0
  1  3  4  0
  1 24  4  0
  2  6  4  0
  2 15  4  0
  3  5  4  0
  3  6  4  0
  4 21  4  0
  4 29  4  0
  5 15  4  0
  5 28  1  0
  6 16  4  0
  7 18  4  0
  7 26  4  0
  8 18  1  0
  8 19  4  0
  8 22  4  0
  9 12  4  0
  9 19  4  0
 10 12  4  0
 10 22  4  0
 11 20  4  0
 11 21  4  0
 12 23  1  0
 13 20  4  0
 13 29  4  0
 14 17  4  0
 14 28  4  0
 15 25  2  0
 16 27  4  0
 17 18  4  0
 20 27  1  0
 24 27  4  0
 26 28  4  0
M  END
$$$$

 Created by Python create_sdf_string function

 29 33  0  0  0  0  0  0  0  0999 V2000
    8.8270   -7.0288   18.4251 C   0  0  0  0  0  0  0  0  0  0  0  0
    9.1576   -4.6236   15.8860 O   0  0  0  0  0  0  0  0  0  0  0  0
    9.1509   -5.9108   17.7177 C   0  0  0  0  0  0  0  0  0  0  0  0
    3.6373   -9.5349   16.0582 N   0  0  0  0  0  0  0  0  0  0  0  0
    9.9275   -4.8001   18.0438 N   0  0  0  0  0  0  0  0  0  0  0  0
    8.5908   -5.7425   16.4412 C   0  0  0  0  0  0  0  0  0  0  0  0
   10.5993   -4.8981   21.6068 C   0  0  0  0  0  0  0  0  0  0  0  0
   10.4258   -3.0106   23.0998 C   0  0  0  0  0  0  0  0  0  0  0  0
   10.2148   -3.4364   25.4200 C   0  0  0  0  0  0  0  0  0  0  0  0
    9.7853   -1.1840   24.4927 C   0  0  0  0  0  0  0  0  0  0  0  0
    5.0276   -8.5227   17.5352 C   0  0  0  0  0  0  0  0  0  0  0  0
    9.8187   -2.0895   25.5800 C   0  0  0  0  0  0  0  0  0  0  0  0
    5.6473   -8.7216   15.3158 C   0  0  0  0  0  0  0  0  0  0  0  0
   10.7581   -3.1233   19.4720 N   0  0  0  0  0  0  0  0  0  0  0  0
    9.9571   -4.0573   16.8866 C   0  0  0  0  0  0  0  0  0  0  0  0
    7.6213   -6.5618   16.0087 C   0  0  0  0  0  0  0  0  0  0  0  0
   10.8583   -2.6527   20.7222 C   0  0  0  0  0  0  0  0  0  0  0  0
   10.6412   -3.5089   21.7936 C   0  0  0  0  0  0  0  0  0  0  0  0
   10.4972   -3.8968   24.1589 C   0  0  0  0  0  0  0  0  0  0  0  0
    5.9260   -8.2736   16.5517 C   0  0  0  0  0  0  0  0  0  0  0  0
    3.8816   -9.1166   17.2493 C   0  0  0  0  0  0  0  0  0  0  0  0
   10.1297   -1.6575   23.2324 C   0  0  0  0  0  0  0  0  0  0  0  0
    9.4684   -1.6929   26.7263 F   0  0  0  0  0  0  0  0  0  0  0  0
    7.7963   -7.7906   17.9837 C   0  0  0  0  0  0  0  0  0  0  0  0
   10.5884   -3.0725   16.7902 O   0  0  0  0  0  0  0  0  0  0  0  0
   10.4323   -5.3494   20.3516 C   0  0  0  0  0  0  0  0  0  0  0  0
    7.1156   -7.5454   16.8218 C   0  0  0  0  0  0  0  0  0  0  0  0
   10.3885   -4.4388   19.2773 C   0  0  0  0  0  0  0  0  0  0  0  0
    4.5160   -9.3822   15.0841 C   0  0  0  0  0  0  0  0  0  0  0  0
  1  3  4  0
  1 24  4  0
  2  6  4  0
  2 15  4  0
  3  5  4  0
  3  6  4  0
  4 21  4  0
  4 29  4  0
  5 15  4  0
  5 28  1  0
  6 16  4  0
  7 18  4  0
  7 26  4  0
  8 18  1  0
  8 19  4  0
  8 22  4  0
  9 12  4  0
  9 19  4  0
 10 12  4  0
 10 22  4  0
 11 20  4  0
 11 21  4  0
 12 23  1  0
 13 20  4  0
 13 29  4  0
 14 17  4  0
 14 28  4  0
 15 25  2  0
 16 27  4  0
 17 18  4  0
 20 27  1  0
 24 27  4  0
 26 28  4  0
M  END
$$$$

 Created by Python create_sdf_string function

 29 33  0  0  0  0  0  0  0  0999 V2000
    8.8270   -7.0288   18.4251 C   0  0  0  0  0  0  0  0  0  0  0  0
    9.1576   -4.6236   15.8860 O   0  0  0  0  0  0  0  0  0  0  0  0
    9.1509   -5.9108   17.7177 C   0  0  0  0  0  0  0  0  0  0  0  0
    3.6373   -9.5349   16.0582 N   0  0  0  0  0  0  0  0  0  0  0  0
    9.9275   -4.8001   18.0438 N   0  0  0  0  0  0  0  0  0  0  0  0
    8.5908   -5.7425   16.4412 C   0  0  0  0  0  0  0  0  0  0  0  0
   10.5993   -4.8981   21.6068 C   0  0  0  0  0  0  0  0  0  0  0  0
   10.4258   -3.0106   23.0998 C   0  0  0  0  0  0  0  0  0  0  0  0
   10.2148   -3.4364   25.4200 C   0  0  0  0  0  0  0  0  0  0  0  0
    9.7853   -1.1840   24.4927 C   0  0  0  0  0  0  0  0  0  0  0  0
    5.0276   -8.5227   17.5352 C   0  0  0  0  0  0  0  0  0  0  0  0
    9.8187   -2.0895   25.5800 C   0  0  0  0  0  0  0  0  0  0  0  0
    5.6473   -8.7216   15.3158 C   0  0  0  0  0  0  0  0  0  0  0  0
   10.7581   -3.1233   19.4720 N   0  0  0  0  0  0  0  0  0  0  0  0
    9.9571   -4.0573   16.8866 C   0  0  0  0  0  0  0  0  0  0  0  0
    7.6213   -6.5618   16.0087 C   0  0  0  0  0  0  0  0  0  0  0  0
   10.8583   -2.6527   20.7222 C   0  0  0  0  0  0  0  0  0  0  0  0
   10.6412   -3.5089   21.7936 C   0  0  0  0  0  0  0  0  0  0  0  0
   10.4972   -3.8968   24.1589 C   0  0  0  0  0  0  0  0  0  0  0  0
    5.9260   -8.2736   16.5517 C   0  0  0  0  0  0  0  0  0  0  0  0
    3.8816   -9.1166   17.2493 C   0  0  0  0  0  0  0  0  0  0  0  0
   10.1297   -1.6575   23.2324 C   0  0  0  0  0  0  0  0  0  0  0  0
    9.4684   -1.6929   26.7263 F   0  0  0  0  0  0  0  0  0  0  0  0
    7.7963   -7.7906   17.9837 C   0  0  0  0  0  0  0  0  0  0  0  0
   10.5884   -3.0725   16.7902 O   0  0  0  0  0  0  0  0  0  0  0  0
   10.4323   -5.3494   20.3516 C   0  0  0  0  0  0  0  0  0  0  0  0
    7.1156   -7.5454   16.8218 C   0  0  0  0  0  0  0  0  0  0  0  0
   10.3885   -4.4388   19.2773 C   0  0  0  0  0  0  0  0  0  0  0  0
    4.5160   -9.3822   15.0841 C   0  0  0  0  0  0  0  0  0  0  0  0
  1  3  4  0
  1 24  4  0
  2  6  4  0
  2 15  4  0
  3  5  4  0
  3  6  4  0
  4 21  4  0
  4 29  4  0
  5 15  4  0
  5 28  1  0
  6 16  4  0
  7 18  4  0
  7 26  4  0
  8 18  1  0
  8 19  4  0
  8 22  4  0
  9 12  4  0
  9 19  4  0
 10 12  4  0
 10 22  4  0
 11 20  4  0
 11 21  4  0
 12 23  1  0
 13 20  4  0
 13 29  4  0
 14 17  4  0
 14 28  4  0
 15 25  2  0
 16 27  4  0
 17 18  4  0
 20 27  1  0
 24 27  4  0
 26 28  4  0
M  END
$$$$

 Created by Python create_sdf_string function

 29 33  0  0  0  0  0  0  0  0999 V2000
    8.8270   -7.0288   18.4251 C   0  0  0  0  0  0  0  0  0  0  0  0
    9.1576   -4.6236   15.8860 O   0  0  0  0  0  0  0  0  0  0  0  0
    9.1509   -5.9108   17.7177 C   0  0  0  0  0  0  0  0  0  0  0  0
    3.6373   -9.5349   16.0582 N   0  0  0  0  0  0  0  0  0  0  0  0
    9.9275   -4.8001   18.0438 N   0  0  0  0  0  0  0  0  0  0  0  0
    8.5908   -5.7425   16.4412 C   0  0  0  0  0  0  0  0  0  0  0  0
   10.5993   -4.8981   21.6068 C   0  0  0  0  0  0  0  0  0  0  0  0
   10.4258   -3.0106   23.0998 C   0  0  0  0  0  0  0  0  0  0  0  0
   10.2148   -3.4364   25.4200 C   0  0  0  0  0  0  0  0  0  0  0  0
    9.7853   -1.1840   24.4927 C   0  0  0  0  0  0  0  0  0  0  0  0
    5.0276   -8.5227   17.5352 C   0  0  0  0  0  0  0  0  0  0  0  0
    9.8187   -2.0895   25.5800 C   0  0  0  0  0  0  0  0  0  0  0  0
    5.6473   -8.7216   15.3158 C   0  0  0  0  0  0  0  0  0  0  0  0
   10.7581   -3.1233   19.4720 N   0  0  0  0  0  0  0  0  0  0  0  0
    9.9571   -4.0573   16.8866 C   0  0  0  0  0  0  0  0  0  0  0  0
    7.6213   -6.5618   16.0087 C   0  0  0  0  0  0  0  0  0  0  0  0
   10.8583   -2.6527   20.7222 C   0  0  0  0  0  0  0  0  0  0  0  0
   10.6412   -3.5089   21.7936 C   0  0  0  0  0  0  0  0  0  0  0  0
   10.4972   -3.8968   24.1589 C   0  0  0  0  0  0  0  0  0  0  0  0
    5.9260   -8.2736   16.5517 C   0  0  0  0  0  0  0  0  0  0  0  0
    3.8816   -9.1166   17.2493 C   0  0  0  0  0  0  0  0  0  0  0  0
   10.1297   -1.6575   23.2324 C   0  0  0  0  0  0  0  0  0  0  0  0
    9.4684   -1.6929   26.7263 F   0  0  0  0  0  0  0  0  0  0  0  0
    7.7963   -7.7906   17.9837 C   0  0  0  0  0  0  0  0  0  0  0  0
   10.5884   -3.0725   16.7902 O   0  0  0  0  0  0  0  0  0  0  0  0
   10.4323   -5.3494   20.3516 C   0  0  0  0  0  0  0  0  0  0  0  0
    7.1156   -7.5454   16.8218 C   0  0  0  0  0  0  0  0  0  0  0  0
   10.3885   -4.4388   19.2773 C   0  0  0  0  0  0  0  0  0  0  0  0
    4.5160   -9.3822   15.0841 C   0  0  0  0  0  0  0  0  0  0  0  0
  1  3  4  0
  1 24  4  0
  2  6  4  0
  2 15  4  0
  3  5  4  0
  3  6  4  0
  4 21  4  0
  4 29  4  0
  5 15  4  0
  5 28  1  0
  6 16  4  0
  7 18  4  0
  7 26  4  0
  8 18  1  0
  8 19  4  0
  8 22  4  0
  9 12  4  0
  9 19  4  0
 10 12  4  0
 10 22  4  0
 11 20  4  0
 11 21  4  0
 12 23  1  0
 13 20  4  0
 13 29  4  0
 14 17  4  0
 14 28  4  0
 15 25  2  0
 16 27  4  0
 17 18  4  0
 20 27  1  0
 24 27  4  0
 26 28  4  0
M  END
$$$$

 Created by Python create_sdf_string function

 29 33  0  0  0  0  0  0  0  0999 V2000
    8.8270   -7.0288   18.4251 C   0  0  0  0  0  0  0  0  0  0  0  0
    9.1576   -4.6236   15.8860 O   0  0  0  0  0  0  0  0  0  0  0  0
    9.1509   -5.9108   17.7177 C   0  0  0  0  0  0  0  0  0  0  0  0
    3.6373   -9.5349   16.0582 N   0  0  0  0  0  0  0  0  0  0  0  0
    9.9275   -4.8001   18.0438 N   0  0  0  0  0  0  0  0  0  0  0  0
    8.5908   -5.7425   16.4412 C   0  0  0  0  0  0  0  0  0  0  0  0
   10.5993   -4.8981   21.6068 C   0  0  0  0  0  0  0  0  0  0  0  0
   10.4258   -3.0106   23.0998 C   0  0  0  0  0  0  0  0  0  0  0  0
   10.2148   -3.4364   25.4200 C   0  0  0  0  0  0  0  0  0  0  0  0
    9.7853   -1.1840   24.4927 C   0  0  0  0  0  0  0  0  0  0  0  0
    5.0276   -8.5227   17.5352 C   0  0  0  0  0  0  0  0  0  0  0  0
    9.8187   -2.0895   25.5800 C   0  0  0  0  0  0  0  0  0  0  0  0
    5.6473   -8.7216   15.3158 C   0  0  0  0  0  0  0  0  0  0  0  0
   10.7581   -3.1233   19.4720 N   0  0  0  0  0  0  0  0  0  0  0  0
    9.9571   -4.0573   16.8866 C   0  0  0  0  0  0  0  0  0  0  0  0
    7.6213   -6.5618   16.0087 C   0  0  0  0  0  0  0  0  0  0  0  0
   10.8583   -2.6527   20.7222 C   0  0  0  0  0  0  0  0  0  0  0  0
   10.6412   -3.5089   21.7936 C   0  0  0  0  0  0  0  0  0  0  0  0
   10.4972   -3.8968   24.1589 C   0  0  0  0  0  0  0  0  0  0  0  0
    5.9260   -8.2736   16.5517 C   0  0  0  0  0  0  0  0  0  0  0  0
    3.8816   -9.1166   17.2493 C   0  0  0  0  0  0  0  0  0  0  0  0
   10.1297   -1.6575   23.2324 C   0  0  0  0  0  0  0  0  0  0  0  0
    9.4684   -1.6929   26.7263 F   0  0  0  0  0  0  0  0  0  0  0  0
    7.7963   -7.7906   17.9837 C   0  0  0  0  0  0  0  0  0  0  0  0
   10.5884   -3.0725   16.7902 O   0  0  0  0  0  0  0  0  0  0  0  0
   10.4323   -5.3494   20.3516 C   0  0  0  0  0  0  0  0  0  0  0  0
    7.1156   -7.5454   16.8218 C   0  0  0  0  0  0  0  0  0  0  0  0
   10.3885   -4.4388   19.2773 C   0  0  0  0  0  0  0  0  0  0  0  0
    4.5160   -9.3822   15.0841 C   0  0  0  0  0  0  0  0  0  0  0  0
  1  3  4  0
  1 24  4  0
  2  6  4  0
  2 15  4  0
  3  5  4  0
  3  6  4  0
  4 21  4  0
  4 29  4  0
  5 15  4  0
  5 28  1  0
  6 16  4  0
  7 18  4  0
  7 26  4  0
  8 18  1  0
  8 19  4  0
  8 22  4  0
  9 12  4  0
  9 19  4  0
 10 12  4  0
 10 22  4  0
 11 20  4  0
 11 21  4  0
 12 23  1  0
 13 20  4  0
 13 29  4  0
 14 17  4  0
 14 28  4  0
 15 25  2  0
 16 27  4  0
 17 18  4  0
 20 27  1  0
 24 27  4  0
 26 28  4  0
M  END
$$$$

 Created by Python create_sdf_string function

 29 33  0  0  0  0  0  0  0  0999 V2000
    8.8270   -7.0288   18.4251 C   0  0  0  0  0  0  0  0  0  0  0  0
    9.1576   -4.6236   15.8860 O   0  0  0  0  0  0  0  0  0  0  0  0
    9.1509   -5.9108   17.7177 C   0  0  0  0  0  0  0  0  0  0  0  0
    3.6373   -9.5349   16.0582 N   0  0  0  0  0  0  0  0  0  0  0  0
    9.9275   -4.8001   18.0438 N   0  0  0  0  0  0  0  0  0  0  0  0
    8.5908   -5.7425   16.4412 C   0  0  0  0  0  0  0  0  0  0  0  0
   10.5993   -4.8981   21.6068 C   0  0  0  0  0  0  0  0  0  0  0  0
   10.4258   -3.0106   23.0998 C   0  0  0  0  0  0  0  0  0  0  0  0
   10.2148   -3.4364   25.4200 C   0  0  0  0  0  0  0  0  0  0  0  0
    9.7853   -1.1840   24.4927 C   0  0  0  0  0  0  0  0  0  0  0  0
    5.0276   -8.5227   17.5352 C   0  0  0  0  0  0  0  0  0  0  0  0
    9.8187   -2.0895   25.5800 C   0  0  0  0  0  0  0  0  0  0  0  0
    5.6473   -8.7216   15.3158 C   0  0  0  0  0  0  0  0  0  0  0  0
   10.7581   -3.1233   19.4720 N   0  0  0  0  0  0  0  0  0  0  0  0
    9.9571   -4.0573   16.8866 C   0  0  0  0  0  0  0  0  0  0  0  0
    7.6213   -6.5618   16.0087 C   0  0  0  0  0  0  0  0  0  0  0  0
   10.8583   -2.6527   20.7222 C   0  0  0  0  0  0  0  0  0  0  0  0
   10.6412   -3.5089   21.7936 C   0  0  0  0  0  0  0  0  0  0  0  0
   10.4972   -3.8968   24.1589 C   0  0  0  0  0  0  0  0  0  0  0  0
    5.9260   -8.2736   16.5517 C   0  0  0  0  0  0  0  0  0  0  0  0
    3.8816   -9.1166   17.2493 C   0  0  0  0  0  0  0  0  0  0  0  0
   10.1297   -1.6575   23.2324 C   0  0  0  0  0  0  0  0  0  0  0  0
    9.4684   -1.6929   26.7263 F   0  0  0  0  0  0  0  0  0  0  0  0
    7.7963   -7.7906   17.9837 C   0  0  0  0  0  0  0  0  0  0  0  0
   10.5884   -3.0725   16.7902 O   0  0  0  0  0  0  0  0  0  0  0  0
   10.4323   -5.3494   20.3516 C   0  0  0  0  0  0  0  0  0  0  0  0
    7.1156   -7.5454   16.8218 C   0  0  0  0  0  0  0  0  0  0  0  0
   10.3885   -4.4388   19.2773 C   0  0  0  0  0  0  0  0  0  0  0  0
    4.5160   -9.3822   15.0841 C   0  0  0  0  0  0  0  0  0  0  0  0
  1  3  4  0
  1 24  4  0
  2  6  4  0
  2 15  4  0
  3  5  4  0
  3  6  4  0
  4 21  4  0
  4 29  4  0
  5 15  4  0
  5 28  1  0
  6 16  4  0
  7 18  4  0
  7 26  4  0
  8 18  1  0
  8 19  4  0
  8 22  4  0
  9 12  4  0
  9 19  4  0
 10 12  4  0
 10 22  4  0
 11 20  4  0
 11 21  4  0
 12 23  1  0
 13 20  4  0
 13 29  4  0
 14 17  4  0
 14 28  4  0
 15 25  2  0
 16 27  4  0
 17 18  4  0
 20 27  1  0
 24 27  4  0
 26 28  4  0
M  END
$$$$

 Created by Python create_sdf_string function

 29 33  0  0  0  0  0  0  0  0999 V2000
    8.8270   -7.0288   18.4251 C   0  0  0  0  0  0  0  0  0  0  0  0
    9.1576   -4.6236   15.8860 O   0  0  0  0  0  0  0  0  0  0  0  0
    9.1509   -5.9108   17.7177 C   0  0  0  0  0  0  0  0  0  0  0  0
    3.6373   -9.5349   16.0582 N   0  0  0  0  0  0  0  0  0  0  0  0
    9.9275   -4.8001   18.0438 N   0  0  0  0  0  0  0  0  0  0  0  0
    8.5908   -5.7425   16.4412 C   0  0  0  0  0  0  0  0  0  0  0  0
   10.5993   -4.8981   21.6068 C   0  0  0  0  0  0  0  0  0  0  0  0
   10.4258   -3.0106   23.0998 C   0  0  0  0  0  0  0  0  0  0  0  0
   10.2148   -3.4364   25.4200 C   0  0  0  0  0  0  0  0  0  0  0  0
    9.7853   -1.1840   24.4927 C   0  0  0  0  0  0  0  0  0  0  0  0
    5.0276   -8.5227   17.5352 C   0  0  0  0  0  0  0  0  0  0  0  0
    9.8187   -2.0895   25.5800 C   0  0  0  0  0  0  0  0  0  0  0  0
    5.6473   -8.7216   15.3158 C   0  0  0  0  0  0  0  0  0  0  0  0
   10.7581   -3.1233   19.4720 N   0  0  0  0  0  0  0  0  0  0  0  0
    9.9571   -4.0573   16.8866 C   0  0  0  0  0  0  0  0  0  0  0  0
    7.6213   -6.5618   16.0087 C   0  0  0  0  0  0  0  0  0  0  0  0
   10.8583   -2.6527   20.7222 C   0  0  0  0  0  0  0  0  0  0  0  0
   10.6412   -3.5089   21.7936 C   0  0  0  0  0  0  0  0  0  0  0  0
   10.4972   -3.8968   24.1589 C   0  0  0  0  0  0  0  0  0  0  0  0
    5.9260   -8.2736   16.5517 C   0  0  0  0  0  0  0  0  0  0  0  0
    3.8816   -9.1166   17.2493 C   0  0  0  0  0  0  0  0  0  0  0  0
   10.1297   -1.6575   23.2324 C   0  0  0  0  0  0  0  0  0  0  0  0
    9.4684   -1.6929   26.7263 F   0  0  0  0  0  0  0  0  0  0  0  0
    7.7963   -7.7906   17.9837 C   0  0  0  0  0  0  0  0  0  0  0  0
   10.5884   -3.0725   16.7902 O   0  0  0  0  0  0  0  0  0  0  0  0
   10.4323   -5.3494   20.3516 C   0  0  0  0  0  0  0  0  0  0  0  0
    7.1156   -7.5454   16.8218 C   0  0  0  0  0  0  0  0  0  0  0  0
   10.3885   -4.4388   19.2773 C   0  0  0  0  0  0  0  0  0  0  0  0
    4.5160   -9.3822   15.0841 C   0  0  0  0  0  0  0  0  0  0  0  0
  1  3  4  0
  1 24  4  0
  2  6  4  0
  2 15  4  0
  3  5  4  0
  3  6  4  0
  4 21  4  0
  4 29  4  0
  5 15  4  0
  5 28  1  0
  6 16  4  0
  7 18  4  0
  7 26  4  0
  8 18  1  0
  8 19  4  0
  8 22  4  0
  9 12  4  0
  9 19  4  0
 10 12  4  0
 10 22  4  0
 11 20  4  0
 11 21  4  0
 12 23  1  0
 13 20  4  0
 13 29  4  0
 14 17  4  0
 14 28  4  0
 15 25  2  0
 16 27  4  0
 17 18  4  0
 20 27  1  0
 24 27  4  0
 26 28  4  0
M  END
$$$$

 Created by Python create_sdf_string function

 29 33  0  0  0  0  0  0  0  0999 V2000
    8.8270   -7.0288   18.4251 C   0  0  0  0  0  0  0  0  0  0  0  0
    9.1576   -4.6236   15.8860 O   0  0  0  0  0  0  0  0  0  0  0  0
    9.1509   -5.9108   17.7177 C   0  0  0  0  0  0  0  0  0  0  0  0
    3.6373   -9.5349   16.0582 N   0  0  0  0  0  0  0  0  0  0  0  0
    9.9275   -4.8001   18.0438 N   0  0  0  0  0  0  0  0  0  0  0  0
    8.5908   -5.7425   16.4412 C   0  0  0  0  0  0  0  0  0  0  0  0
   10.5993   -4.8981   21.6068 C   0  0  0  0  0  0  0  0  0  0  0  0
   10.4258   -3.0106   23.0998 C   0  0  0  0  0  0  0  0  0  0  0  0
   10.2148   -3.4364   25.4200 C   0  0  0  0  0  0  0  0  0  0  0  0
    9.7853   -1.1840   24.4927 C   0  0  0  0  0  0  0  0  0  0  0  0
    5.0276   -8.5227   17.5352 C   0  0  0  0  0  0  0  0  0  0  0  0
    9.8187   -2.0895   25.5800 C   0  0  0  0  0  0  0  0  0  0  0  0
    5.6473   -8.7216   15.3158 C   0  0  0  0  0  0  0  0  0  0  0  0
   10.7581   -3.1233   19.4720 N   0  0  0  0  0  0  0  0  0  0  0  0
    9.9571   -4.0573   16.8866 C   0  0  0  0  0  0  0  0  0  0  0  0
    7.6213   -6.5618   16.0087 C   0  0  0  0  0  0  0  0  0  0  0  0
   10.8583   -2.6527   20.7222 C   0  0  0  0  0  0  0  0  0  0  0  0
   10.6412   -3.5089   21.7936 C   0  0  0  0  0  0  0  0  0  0  0  0
   10.4972   -3.8968   24.1589 C   0  0  0  0  0  0  0  0  0  0  0  0
    5.9260   -8.2736   16.5517 C   0  0  0  0  0  0  0  0  0  0  0  0
    3.8816   -9.1166   17.2493 C   0  0  0  0  0  0  0  0  0  0  0  0
   10.1297   -1.6575   23.2324 C   0  0  0  0  0  0  0  0  0  0  0  0
    9.4684   -1.6929   26.7263 F   0  0  0  0  0  0  0  0  0  0  0  0
    7.7963   -7.7906   17.9837 C   0  0  0  0  0  0  0  0  0  0  0  0
   10.5884   -3.0725   16.7902 O   0  0  0  0  0  0  0  0  0  0  0  0
   10.4323   -5.3494   20.3516 C   0  0  0  0  0  0  0  0  0  0  0  0
    7.1156   -7.5454   16.8218 C   0  0  0  0  0  0  0  0  0  0  0  0
   10.3885   -4.4388   19.2773 C   0  0  0  0  0  0  0  0  0  0  0  0
    4.5160   -9.3822   15.0841 C   0  0  0  0  0  0  0  0  0  0  0  0
  1  3  4  0
  1 24  4  0
  2  6  4  0
  2 15  4  0
  3  5  4  0
  3  6  4  0
  4 21  4  0
  4 29  4  0
  5 15  4  0
  5 28  1  0
  6 16  4  0
  7 18  4  0
  7 26  4  0
  8 18  1  0
  8 19  4  0
  8 22  4  0
  9 12  4  0
  9 19  4  0
 10 12  4  0
 10 22  4  0
 11 20  4  0
 11 21  4  0
 12 23  1  0
 13 20  4  0
 13 29  4  0
 14 17  4  0
 14 28  4  0
 15 25  2  0
 16 27  4  0
 17 18  4  0
 20 27  1  0
 24 27  4  0
 26 28  4  0
M  END
$$$$

 Created by Python create_sdf_string function

 29 33  0  0  0  0  0  0  0  0999 V2000
    8.8270   -7.0288   18.4251 C   0  0  0  0  0  0  0  0  0  0  0  0
    9.1576   -4.6236   15.8860 O   0  0  0  0  0  0  0  0  0  0  0  0
    9.1509   -5.9108   17.7177 C   0  0  0  0  0  0  0  0  0  0  0  0
    3.6373   -9.5349   16.0582 N   0  0  0  0  0  0  0  0  0  0  0  0
    9.9275   -4.8001   18.0438 N   0  0  0  0  0  0  0  0  0  0  0  0
    8.5908   -5.7425   16.4412 C   0  0  0  0  0  0  0  0  0  0  0  0
   10.5993   -4.8981   21.6068 C   0  0  0  0  0  0  0  0  0  0  0  0
   10.4258   -3.0106   23.0998 C   0  0  0  0  0  0  0  0  0  0  0  0
   10.2148   -3.4364   25.4200 C   0  0  0  0  0  0  0  0  0  0  0  0
    9.7853   -1.1840   24.4927 C   0  0  0  0  0  0  0  0  0  0  0  0
    5.0276   -8.5227   17.5352 C   0  0  0  0  0  0  0  0  0  0  0  0
    9.8187   -2.0895   25.5800 C   0  0  0  0  0  0  0  0  0  0  0  0
    5.6473   -8.7216   15.3158 C   0  0  0  0  0  0  0  0  0  0  0  0
   10.7581   -3.1233   19.4720 N   0  0  0  0  0  0  0  0  0  0  0  0
    9.9571   -4.0573   16.8866 C   0  0  0  0  0  0  0  0  0  0  0  0
    7.6213   -6.5618   16.0087 C   0  0  0  0  0  0  0  0  0  0  0  0
   10.8583   -2.6527   20.7222 C   0  0  0  0  0  0  0  0  0  0  0  0
   10.6412   -3.5089   21.7936 C   0  0  0  0  0  0  0  0  0  0  0  0
   10.4972   -3.8968   24.1589 C   0  0  0  0  0  0  0  0  0  0  0  0
    5.9260   -8.2736   16.5517 C   0  0  0  0  0  0  0  0  0  0  0  0
    3.8816   -9.1166   17.2493 C   0  0  0  0  0  0  0  0  0  0  0  0
   10.1297   -1.6575   23.2324 C   0  0  0  0  0  0  0  0  0  0  0  0
    9.4684   -1.6929   26.7263 F   0  0  0  0  0  0  0  0  0  0  0  0
    7.7963   -7.7906   17.9837 C   0  0  0  0  0  0  0  0  0  0  0  0
   10.5884   -3.0725   16.7902 O   0  0  0  0  0  0  0  0  0  0  0  0
   10.4323   -5.3494   20.3516 C   0  0  0  0  0  0  0  0  0  0  0  0
    7.1156   -7.5454   16.8218 C   0  0  0  0  0  0  0  0  0  0  0  0
   10.3885   -4.4388   19.2773 C   0  0  0  0  0  0  0  0  0  0  0  0
    4.5160   -9.3822   15.0841 C   0  0  0  0  0  0  0  0  0  0  0  0
  1  3  4  0
  1 24  4  0
  2  6  4  0
  2 15  4  0
  3  5  4  0
  3  6  4  0
  4 21  4  0
  4 29  4  0
  5 15  4  0
  5 28  1  0
  6 16  4  0
  7 18  4  0
  7 26  4  0
  8 18  1  0
  8 19  4  0
  8 22  4  0
  9 12  4  0
  9 19  4  0
 10 12  4  0
 10 22  4  0
 11 20  4  0
 11 21  4  0
 12 23  1  0
 13 20  4  0
 13 29  4  0
 14 17  4  0
 14 28  4  0
 15 25  2  0
 16 27  4  0
 17 18  4  0
 20 27  1  0
 24 27  4  0
 26 28  4  0
M  END
$$$$

 Created by Python create_sdf_string function

 29 33  0  0  0  0  0  0  0  0999 V2000
    8.8270   -7.0288   18.4251 C   0  0  0  0  0  0  0  0  0  0  0  0
    9.1576   -4.6236   15.8860 O   0  0  0  0  0  0  0  0  0  0  0  0
    9.1509   -5.9108   17.7177 C   0  0  0  0  0  0  0  0  0  0  0  0
    3.6373   -9.5349   16.0582 N   0  0  0  0  0  0  0  0  0  0  0  0
    9.9275   -4.8001   18.0438 N   0  0  0  0  0  0  0  0  0  0  0  0
    8.5908   -5.7425   16.4412 C   0  0  0  0  0  0  0  0  0  0  0  0
   10.5993   -4.8981   21.6068 C   0  0  0  0  0  0  0  0  0  0  0  0
   10.4258   -3.0106   23.0998 C   0  0  0  0  0  0  0  0  0  0  0  0
   10.2148   -3.4364   25.4200 C   0  0  0  0  0  0  0  0  0  0  0  0
    9.7853   -1.1840   24.4927 C   0  0  0  0  0  0  0  0  0  0  0  0
    5.0276   -8.5227   17.5352 C   0  0  0  0  0  0  0  0  0  0  0  0
    9.8187   -2.0895   25.5800 C   0  0  0  0  0  0  0  0  0  0  0  0
    5.6473   -8.7216   15.3158 C   0  0  0  0  0  0  0  0  0  0  0  0
   10.7581   -3.1233   19.4720 N   0  0  0  0  0  0  0  0  0  0  0  0
    9.9571   -4.0573   16.8866 C   0  0  0  0  0  0  0  0  0  0  0  0
    7.6213   -6.5618   16.0087 C   0  0  0  0  0  0  0  0  0  0  0  0
   10.8583   -2.6527   20.7222 C   0  0  0  0  0  0  0  0  0  0  0  0
   10.6412   -3.5089   21.7936 C   0  0  0  0  0  0  0  0  0  0  0  0
   10.4972   -3.8968   24.1589 C   0  0  0  0  0  0  0  0  0  0  0  0
    5.9260   -8.2736   16.5517 C   0  0  0  0  0  0  0  0  0  0  0  0
    3.8816   -9.1166   17.2493 C   0  0  0  0  0  0  0  0  0  0  0  0
   10.1297   -1.6575   23.2324 C   0  0  0  0  0  0  0  0  0  0  0  0
    9.4684   -1.6929   26.7263 F   0  0  0  0  0  0  0  0  0  0  0  0
    7.7963   -7.7906   17.9837 C   0  0  0  0  0  0  0  0  0  0  0  0
   10.5884   -3.0725   16.7902 O   0  0  0  0  0  0  0  0  0  0  0  0
   10.4323   -5.3494   20.3516 C   0  0  0  0  0  0  0  0  0  0  0  0
    7.1156   -7.5454   16.8218 C   0  0  0  0  0  0  0  0  0  0  0  0
   10.3885   -4.4388   19.2773 C   0  0  0  0  0  0  0  0  0  0  0  0
    4.5160   -9.3822   15.0841 C   0  0  0  0  0  0  0  0  0  0  0  0
  1  3  4  0
  1 24  4  0
  2  6  4  0
  2 15  4  0
  3  5  4  0
  3  6  4  0
  4 21  4  0
  4 29  4  0
  5 15  4  0
  5 28  1  0
  6 16  4  0
  7 18  4  0
  7 26  4  0
  8 18  1  0
  8 19  4  0
  8 22  4  0
  9 12  4  0
  9 19  4  0
 10 12  4  0
 10 22  4  0
 11 20  4  0
 11 21  4  0
 12 23  1  0
 13 20  4  0
 13 29  4  0
 14 17  4  0
 14 28  4  0
 15 25  2  0
 16 27  4  0
 17 18  4  0
 20 27  1  0
 24 27  4  0
 26 28  4  0
M  END
$$$$

 Created by Python create_sdf_string function

 29 33  0  0  0  0  0  0  0  0999 V2000
    8.8270   -7.0288   18.4251 C   0  0  0  0  0  0  0  0  0  0  0  0
    9.1576   -4.6236   15.8860 O   0  0  0  0  0  0  0  0  0  0  0  0
    9.1509   -5.9108   17.7177 C   0  0  0  0  0  0  0  0  0  0  0  0
    3.6373   -9.5349   16.0582 N   0  0  0  0  0  0  0  0  0  0  0  0
    9.9275   -4.8001   18.0438 N   0  0  0  0  0  0  0  0  0  0  0  0
    8.5908   -5.7425   16.4412 C   0  0  0  0  0  0  0  0  0  0  0  0
   10.5993   -4.8981   21.6068 C   0  0  0  0  0  0  0  0  0  0  0  0
   10.4258   -3.0106   23.0998 C   0  0  0  0  0  0  0  0  0  0  0  0
   10.2148   -3.4364   25.4200 C   0  0  0  0  0  0  0  0  0  0  0  0
    9.7853   -1.1840   24.4927 C   0  0  0  0  0  0  0  0  0  0  0  0
    5.0276   -8.5227   17.5352 C   0  0  0  0  0  0  0  0  0  0  0  0
    9.8187   -2.0895   25.5800 C   0  0  0  0  0  0  0  0  0  0  0  0
    5.6473   -8.7216   15.3158 C   0  0  0  0  0  0  0  0  0  0  0  0
   10.7581   -3.1233   19.4720 N   0  0  0  0  0  0  0  0  0  0  0  0
    9.9571   -4.0573   16.8866 C   0  0  0  0  0  0  0  0  0  0  0  0
    7.6213   -6.5618   16.0087 C   0  0  0  0  0  0  0  0  0  0  0  0
   10.8583   -2.6527   20.7222 C   0  0  0  0  0  0  0  0  0  0  0  0
   10.6412   -3.5089   21.7936 C   0  0  0  0  0  0  0  0  0  0  0  0
   10.4972   -3.8968   24.1589 C   0  0  0  0  0  0  0  0  0  0  0  0
    5.9260   -8.2736   16.5517 C   0  0  0  0  0  0  0  0  0  0  0  0
    3.8816   -9.1166   17.2493 C   0  0  0  0  0  0  0  0  0  0  0  0
   10.1297   -1.6575   23.2324 C   0  0  0  0  0  0  0  0  0  0  0  0
    9.4684   -1.6929   26.7263 F   0  0  0  0  0  0  0  0  0  0  0  0
    7.7963   -7.7906   17.9837 C   0  0  0  0  0  0  0  0  0  0  0  0
   10.5884   -3.0725   16.7902 O   0  0  0  0  0  0  0  0  0  0  0  0
   10.4323   -5.3494   20.3516 C   0  0  0  0  0  0  0  0  0  0  0  0
    7.1156   -7.5454   16.8218 C   0  0  0  0  0  0  0  0  0  0  0  0
   10.3885   -4.4388   19.2773 C   0  0  0  0  0  0  0  0  0  0  0  0
    4.5160   -9.3822   15.0841 C   0  0  0  0  0  0  0  0  0  0  0  0
  1  3  4  0
  1 24  4  0
  2  6  4  0
  2 15  4  0
  3  5  4  0
  3  6  4  0
  4 21  4  0
  4 29  4  0
  5 15  4  0
  5 28  1  0
  6 16  4  0
  7 18  4  0
  7 26  4  0
  8 18  1  0
  8 19  4  0
  8 22  4  0
  9 12  4  0
  9 19  4  0
 10 12  4  0
 10 22  4  0
 11 20  4  0
 11 21  4  0
 12 23  1  0
 13 20  4  0
 13 29  4  0
 14 17  4  0
 14 28  4  0
 15 25  2  0
 16 27  4  0
 17 18  4  0
 20 27  1  0
 24 27  4  0
 26 28  4  0
M  END
$$$$

 Created by Python create_sdf_string function

 29 33  0  0  0  0  0  0  0  0999 V2000
    8.8270   -7.0288   18.4251 C   0  0  0  0  0  0  0  0  0  0  0  0
    9.1576   -4.6236   15.8860 O   0  0  0  0  0  0  0  0  0  0  0  0
    9.1509   -5.9108   17.7177 C   0  0  0  0  0  0  0  0  0  0  0  0
    3.6373   -9.5349   16.0582 N   0  0  0  0  0  0  0  0  0  0  0  0
    9.9275   -4.8001   18.0438 N   0  0  0  0  0  0  0  0  0  0  0  0
    8.5908   -5.7425   16.4412 C   0  0  0  0  0  0  0  0  0  0  0  0
   10.5993   -4.8981   21.6068 C   0  0  0  0  0  0  0  0  0  0  0  0
   10.4258   -3.0106   23.0998 C   0  0  0  0  0  0  0  0  0  0  0  0
   10.2148   -3.4364   25.4200 C   0  0  0  0  0  0  0  0  0  0  0  0
    9.7853   -1.1840   24.4927 C   0  0  0  0  0  0  0  0  0  0  0  0
    5.0276   -8.5227   17.5352 C   0  0  0  0  0  0  0  0  0  0  0  0
    9.8187   -2.0895   25.5800 C   0  0  0  0  0  0  0  0  0  0  0  0
    5.6473   -8.7216   15.3158 C   0  0  0  0  0  0  0  0  0  0  0  0
   10.7581   -3.1233   19.4720 N   0  0  0  0  0  0  0  0  0  0  0  0
    9.9571   -4.0573   16.8866 C   0  0  0  0  0  0  0  0  0  0  0  0
    7.6213   -6.5618   16.0087 C   0  0  0  0  0  0  0  0  0  0  0  0
   10.8583   -2.6527   20.7222 C   0  0  0  0  0  0  0  0  0  0  0  0
   10.6412   -3.5089   21.7936 C   0  0  0  0  0  0  0  0  0  0  0  0
   10.4972   -3.8968   24.1589 C   0  0  0  0  0  0  0  0  0  0  0  0
    5.9260   -8.2736   16.5517 C   0  0  0  0  0  0  0  0  0  0  0  0
    3.8816   -9.1166   17.2493 C   0  0  0  0  0  0  0  0  0  0  0  0
   10.1297   -1.6575   23.2324 C   0  0  0  0  0  0  0  0  0  0  0  0
    9.4684   -1.6929   26.7263 F   0  0  0  0  0  0  0  0  0  0  0  0
    7.7963   -7.7906   17.9837 C   0  0  0  0  0  0  0  0  0  0  0  0
   10.5884   -3.0725   16.7902 O   0  0  0  0  0  0  0  0  0  0  0  0
   10.4323   -5.3494   20.3516 C   0  0  0  0  0  0  0  0  0  0  0  0
    7.1156   -7.5454   16.8218 C   0  0  0  0  0  0  0  0  0  0  0  0
   10.3885   -4.4388   19.2773 C   0  0  0  0  0  0  0  0  0  0  0  0
    4.5160   -9.3822   15.0841 C   0  0  0  0  0  0  0  0  0  0  0  0
  1  3  4  0
  1 24  4  0
  2  6  4  0
  2 15  4  0
  3  5  4  0
  3  6  4  0
  4 21  4  0
  4 29  4  0
  5 15  4  0
  5 28  1  0
  6 16  4  0
  7 18  4  0
  7 26  4  0
  8 18  1  0
  8 19  4  0
  8 22  4  0
  9 12  4  0
  9 19  4  0
 10 12  4  0
 10 22  4  0
 11 20  4  0
 11 21  4  0
 12 23  1  0
 13 20  4  0
 13 29  4  0
 14 17  4  0
 14 28  4  0
 15 25  2  0
 16 27  4  0
 17 18  4  0
 20 27  1  0
 24 27  4  0
 26 28  4  0
M  END
$$$$

 Created by Python create_sdf_string function

 29 33  0  0  0  0  0  0  0  0999 V2000
    8.8270   -7.0288   18.4251 C   0  0  0  0  0  0  0  0  0  0  0  0
    9.1576   -4.6236   15.8860 O   0  0  0  0  0  0  0  0  0  0  0  0
    9.1509   -5.9108   17.7177 C   0  0  0  0  0  0  0  0  0  0  0  0
    3.6373   -9.5349   16.0582 N   0  0  0  0  0  0  0  0  0  0  0  0
    9.9275   -4.8001   18.0438 N   0  0  0  0  0  0  0  0  0  0  0  0
    8.5908   -5.7425   16.4412 C   0  0  0  0  0  0  0  0  0  0  0  0
   10.5993   -4.8981   21.6068 C   0  0  0  0  0  0  0  0  0  0  0  0
   10.4258   -3.0106   23.0998 C   0  0  0  0  0  0  0  0  0  0  0  0
   10.2148   -3.4364   25.4200 C   0  0  0  0  0  0  0  0  0  0  0  0
    9.7853   -1.1840   24.4927 C   0  0  0  0  0  0  0  0  0  0  0  0
    5.0276   -8.5227   17.5352 C   0  0  0  0  0  0  0  0  0  0  0  0
    9.8187   -2.0895   25.5800 C   0  0  0  0  0  0  0  0  0  0  0  0
    5.6473   -8.7216   15.3158 C   0  0  0  0  0  0  0  0  0  0  0  0
   10.7581   -3.1233   19.4720 N   0  0  0  0  0  0  0  0  0  0  0  0
    9.9571   -4.0573   16.8866 C   0  0  0  0  0  0  0  0  0  0  0  0
    7.6213   -6.5618   16.0087 C   0  0  0  0  0  0  0  0  0  0  0  0
   10.8583   -2.6527   20.7222 C   0  0  0  0  0  0  0  0  0  0  0  0
   10.6412   -3.5089   21.7936 C   0  0  0  0  0  0  0  0  0  0  0  0
   10.4972   -3.8968   24.1589 C   0  0  0  0  0  0  0  0  0  0  0  0
    5.9260   -8.2736   16.5517 C   0  0  0  0  0  0  0  0  0  0  0  0
    3.8816   -9.1166   17.2493 C   0  0  0  0  0  0  0  0  0  0  0  0
   10.1297   -1.6575   23.2324 C   0  0  0  0  0  0  0  0  0  0  0  0
    9.4684   -1.6929   26.7263 F   0  0  0  0  0  0  0  0  0  0  0  0
    7.7963   -7.7906   17.9837 C   0  0  0  0  0  0  0  0  0  0  0  0
   10.5884   -3.0725   16.7902 O   0  0  0  0  0  0  0  0  0  0  0  0
   10.4323   -5.3494   20.3516 C   0  0  0  0  0  0  0  0  0  0  0  0
    7.1156   -7.5454   16.8218 C   0  0  0  0  0  0  0  0  0  0  0  0
   10.3885   -4.4388   19.2773 C   0  0  0  0  0  0  0  0  0  0  0  0
    4.5160   -9.3822   15.0841 C   0  0  0  0  0  0  0  0  0  0  0  0
  1  3  4  0
  1 24  4  0
  2  6  4  0
  2 15  4  0
  3  5  4  0
  3  6  4  0
  4 21  4  0
  4 29  4  0
  5 15  4  0
  5 28  1  0
  6 16  4  0
  7 18  4  0
  7 26  4  0
  8 18  1  0
  8 19  4  0
  8 22  4  0
  9 12  4  0
  9 19  4  0
 10 12  4  0
 10 22  4  0
 11 20  4  0
 11 21  4  0
 12 23  1  0
 13 20  4  0
 13 29  4  0
 14 17  4  0
 14 28  4  0
 15 25  2  0
 16 27  4  0
 17 18  4  0
 20 27  1  0
 24 27  4  0
 26 28  4  0
M  END
$$$$

 Created by Python create_sdf_string function

 29 33  0  0  0  0  0  0  0  0999 V2000
    8.8270   -7.0288   18.4251 C   0  0  0  0  0  0  0  0  0  0  0  0
    9.1576   -4.6236   15.8860 O   0  0  0  0  0  0  0  0  0  0  0  0
    9.1509   -5.9108   17.7177 C   0  0  0  0  0  0  0  0  0  0  0  0
    3.6373   -9.5349   16.0582 N   0  0  0  0  0  0  0  0  0  0  0  0
    9.9275   -4.8001   18.0438 N   0  0  0  0  0  0  0  0  0  0  0  0
    8.5908   -5.7425   16.4412 C   0  0  0  0  0  0  0  0  0  0  0  0
   10.5993   -4.8981   21.6068 C   0  0  0  0  0  0  0  0  0  0  0  0
   10.4258   -3.0106   23.0998 C   0  0  0  0  0  0  0  0  0  0  0  0
   10.2148   -3.4364   25.4200 C   0  0  0  0  0  0  0  0  0  0  0  0
    9.7853   -1.1840   24.4927 C   0  0  0  0  0  0  0  0  0  0  0  0
    5.0276   -8.5227   17.5352 C   0  0  0  0  0  0  0  0  0  0  0  0
    9.8187   -2.0895   25.5800 C   0  0  0  0  0  0  0  0  0  0  0  0
    5.6473   -8.7216   15.3158 C   0  0  0  0  0  0  0  0  0  0  0  0
   10.7581   -3.1233   19.4720 N   0  0  0  0  0  0  0  0  0  0  0  0
    9.9571   -4.0573   16.8866 C   0  0  0  0  0  0  0  0  0  0  0  0
    7.6213   -6.5618   16.0087 C   0  0  0  0  0  0  0  0  0  0  0  0
   10.8583   -2.6527   20.7222 C   0  0  0  0  0  0  0  0  0  0  0  0
   10.6412   -3.5089   21.7936 C   0  0  0  0  0  0  0  0  0  0  0  0
   10.4972   -3.8968   24.1589 C   0  0  0  0  0  0  0  0  0  0  0  0
    5.9260   -8.2736   16.5517 C   0  0  0  0  0  0  0  0  0  0  0  0
    3.8816   -9.1166   17.2493 C   0  0  0  0  0  0  0  0  0  0  0  0
   10.1297   -1.6575   23.2324 C   0  0  0  0  0  0  0  0  0  0  0  0
    9.4684   -1.6929   26.7263 F   0  0  0  0  0  0  0  0  0  0  0  0
    7.7963   -7.7906   17.9837 C   0  0  0  0  0  0  0  0  0  0  0  0
   10.5884   -3.0725   16.7902 O   0  0  0  0  0  0  0  0  0  0  0  0
   10.4323   -5.3494   20.3516 C   0  0  0  0  0  0  0  0  0  0  0  0
    7.1156   -7.5454   16.8218 C   0  0  0  0  0  0  0  0  0  0  0  0
   10.3885   -4.4388   19.2773 C   0  0  0  0  0  0  0  0  0  0  0  0
    4.5160   -9.3822   15.0841 C   0  0  0  0  0  0  0  0  0  0  0  0
  1  3  4  0
  1 24  4  0
  2  6  4  0
  2 15  4  0
  3  5  4  0
  3  6  4  0
  4 21  4  0
  4 29  4  0
  5 15  4  0
  5 28  1  0
  6 16  4  0
  7 18  4  0
  7 26  4  0
  8 18  1  0
  8 19  4  0
  8 22  4  0
  9 12  4  0
  9 19  4  0
 10 12  4  0
 10 22  4  0
 11 20  4  0
 11 21  4  0
 12 23  1  0
 13 20  4  0
 13 29  4  0
 14 17  4  0
 14 28  4  0
 15 25  2  0
 16 27  4  0
 17 18  4  0
 20 27  1  0
 24 27  4  0
 26 28  4  0
M  END
$$$$

 Created by Python create_sdf_string function

 29 33  0  0  0  0  0  0  0  0999 V2000
    8.8270   -7.0288   18.4251 C   0  0  0  0  0  0  0  0  0  0  0  0
    9.1576   -4.6236   15.8860 O   0  0  0  0  0  0  0  0  0  0  0  0
    9.1509   -5.9108   17.7177 C   0  0  0  0  0  0  0  0  0  0  0  0
    3.6373   -9.5349   16.0582 N   0  0  0  0  0  0  0  0  0  0  0  0
    9.9275   -4.8001   18.0438 N   0  0  0  0  0  0  0  0  0  0  0  0
    8.5908   -5.7425   16.4412 C   0  0  0  0  0  0  0  0  0  0  0  0
   10.5993   -4.8981   21.6068 C   0  0  0  0  0  0  0  0  0  0  0  0
   10.4258   -3.0106   23.0998 C   0  0  0  0  0  0  0  0  0  0  0  0
   10.2148   -3.4364   25.4200 C   0  0  0  0  0  0  0  0  0  0  0  0
    9.7853   -1.1840   24.4927 C   0  0  0  0  0  0  0  0  0  0  0  0
    5.0276   -8.5227   17.5352 C   0  0  0  0  0  0  0  0  0  0  0  0
    9.8187   -2.0895   25.5800 C   0  0  0  0  0  0  0  0  0  0  0  0
    5.6473   -8.7216   15.3158 C   0  0  0  0  0  0  0  0  0  0  0  0
   10.7581   -3.1233   19.4720 N   0  0  0  0  0  0  0  0  0  0  0  0
    9.9571   -4.0573   16.8866 C   0  0  0  0  0  0  0  0  0  0  0  0
    7.6213   -6.5618   16.0087 C   0  0  0  0  0  0  0  0  0  0  0  0
   10.8583   -2.6527   20.7222 C   0  0  0  0  0  0  0  0  0  0  0  0
   10.6412   -3.5089   21.7936 C   0  0  0  0  0  0  0  0  0  0  0  0
   10.4972   -3.8968   24.1589 C   0  0  0  0  0  0  0  0  0  0  0  0
    5.9260   -8.2736   16.5517 C   0  0  0  0  0  0  0  0  0  0  0  0
    3.8816   -9.1166   17.2493 C   0  0  0  0  0  0  0  0  0  0  0  0
   10.1297   -1.6575   23.2324 C   0  0  0  0  0  0  0  0  0  0  0  0
    9.4684   -1.6929   26.7263 F   0  0  0  0  0  0  0  0  0  0  0  0
    7.7963   -7.7906   17.9837 C   0  0  0  0  0  0  0  0  0  0  0  0
   10.5884   -3.0725   16.7902 O   0  0  0  0  0  0  0  0  0  0  0  0
   10.4323   -5.3494   20.3516 C   0  0  0  0  0  0  0  0  0  0  0  0
    7.1156   -7.5454   16.8218 C   0  0  0  0  0  0  0  0  0  0  0  0
   10.3885   -4.4388   19.2773 C   0  0  0  0  0  0  0  0  0  0  0  0
    4.5160   -9.3822   15.0841 C   0  0  0  0  0  0  0  0  0  0  0  0
  1  3  4  0
  1 24  4  0
  2  6  4  0
  2 15  4  0
  3  5  4  0
  3  6  4  0
  4 21  4  0
  4 29  4  0
  5 15  4  0
  5 28  1  0
  6 16  4  0
  7 18  4  0
  7 26  4  0
  8 18  1  0
  8 19  4  0
  8 22  4  0
  9 12  4  0
  9 19  4  0
 10 12  4  0
 10 22  4  0
 11 20  4  0
 11 21  4  0
 12 23  1  0
 13 20  4  0
 13 29  4  0
 14 17  4  0
 14 28  4  0
 15 25  2  0
 16 27  4  0
 17 18  4  0
 20 27  1  0
 24 27  4  0
 26 28  4  0
M  END
$$$$

 Created by Python create_sdf_string function

 29 33  0  0  0  0  0  0  0  0999 V2000
    8.8270   -7.0288   18.4251 C   0  0  0  0  0  0  0  0  0  0  0  0
    9.1576   -4.6236   15.8860 O   0  0  0  0  0  0  0  0  0  0  0  0
    9.1509   -5.9108   17.7177 C   0  0  0  0  0  0  0  0  0  0  0  0
    3.6373   -9.5349   16.0582 N   0  0  0  0  0  0  0  0  0  0  0  0
    9.9275   -4.8001   18.0438 N   0  0  0  0  0  0  0  0  0  0  0  0
    8.5908   -5.7425   16.4412 C   0  0  0  0  0  0  0  0  0  0  0  0
   10.5993   -4.8981   21.6068 C   0  0  0  0  0  0  0  0  0  0  0  0
   10.4258   -3.0106   23.0998 C   0  0  0  0  0  0  0  0  0  0  0  0
   10.2148   -3.4364   25.4200 C   0  0  0  0  0  0  0  0  0  0  0  0
    9.7853   -1.1840   24.4927 C   0  0  0  0  0  0  0  0  0  0  0  0
    5.0276   -8.5227   17.5352 C   0  0  0  0  0  0  0  0  0  0  0  0
    9.8187   -2.0895   25.5800 C   0  0  0  0  0  0  0  0  0  0  0  0
    5.6473   -8.7216   15.3158 C   0  0  0  0  0  0  0  0  0  0  0  0
   10.7581   -3.1233   19.4720 N   0  0  0  0  0  0  0  0  0  0  0  0
    9.9571   -4.0573   16.8866 C   0  0  0  0  0  0  0  0  0  0  0  0
    7.6213   -6.5618   16.0087 C   0  0  0  0  0  0  0  0  0  0  0  0
   10.8583   -2.6527   20.7222 C   0  0  0  0  0  0  0  0  0  0  0  0
   10.6412   -3.5089   21.7936 C   0  0  0  0  0  0  0  0  0  0  0  0
   10.4972   -3.8968   24.1589 C   0  0  0  0  0  0  0  0  0  0  0  0
    5.9260   -8.2736   16.5517 C   0  0  0  0  0  0  0  0  0  0  0  0
    3.8816   -9.1166   17.2493 C   0  0  0  0  0  0  0  0  0  0  0  0
   10.1297   -1.6575   23.2324 C   0  0  0  0  0  0  0  0  0  0  0  0
    9.4684   -1.6929   26.7263 F   0  0  0  0  0  0  0  0  0  0  0  0
    7.7963   -7.7906   17.9837 C   0  0  0  0  0  0  0  0  0  0  0  0
   10.5884   -3.0725   16.7902 O   0  0  0  0  0  0  0  0  0  0  0  0
   10.4323   -5.3494   20.3516 C   0  0  0  0  0  0  0  0  0  0  0  0
    7.1156   -7.5454   16.8218 C   0  0  0  0  0  0  0  0  0  0  0  0
   10.3885   -4.4388   19.2773 C   0  0  0  0  0  0  0  0  0  0  0  0
    4.5160   -9.3822   15.0841 C   0  0  0  0  0  0  0  0  0  0  0  0
  1  3  4  0
  1 24  4  0
  2  6  4  0
  2 15  4  0
  3  5  4  0
  3  6  4  0
  4 21  4  0
  4 29  4  0
  5 15  4  0
  5 28  1  0
  6 16  4  0
  7 18  4  0
  7 26  4  0
  8 18  1  0
  8 19  4  0
  8 22  4  0
  9 12  4  0
  9 19  4  0
 10 12  4  0
 10 22  4  0
 11 20  4  0
 11 21  4  0
 12 23  1  0
 13 20  4  0
 13 29  4  0
 14 17  4  0
 14 28  4  0
 15 25  2  0
 16 27  4  0
 17 18  4  0
 20 27  1  0
 24 27  4  0
 26 28  4  0
M  END
$$$$

 Created by Python create_sdf_string function

 29 33  0  0  0  0  0  0  0  0999 V2000
    8.8270   -7.0288   18.4251 C   0  0  0  0  0  0  0  0  0  0  0  0
    9.1576   -4.6236   15.8860 O   0  0  0  0  0  0  0  0  0  0  0  0
    9.1509   -5.9108   17.7177 C   0  0  0  0  0  0  0  0  0  0  0  0
    3.6373   -9.5349   16.0582 N   0  0  0  0  0  0  0  0  0  0  0  0
    9.9275   -4.8001   18.0438 N   0  0  0  0  0  0  0  0  0  0  0  0
    8.5908   -5.7425   16.4412 C   0  0  0  0  0  0  0  0  0  0  0  0
   10.5993   -4.8981   21.6068 C   0  0  0  0  0  0  0  0  0  0  0  0
   10.4258   -3.0106   23.0998 C   0  0  0  0  0  0  0  0  0  0  0  0
   10.2148   -3.4364   25.4200 C   0  0  0  0  0  0  0  0  0  0  0  0
    9.7853   -1.1840   24.4927 C   0  0  0  0  0  0  0  0  0  0  0  0
    5.0276   -8.5227   17.5352 C   0  0  0  0  0  0  0  0  0  0  0  0
    9.8187   -2.0895   25.5800 C   0  0  0  0  0  0  0  0  0  0  0  0
    5.6473   -8.7216   15.3158 C   0  0  0  0  0  0  0  0  0  0  0  0
   10.7581   -3.1233   19.4720 N   0  0  0  0  0  0  0  0  0  0  0  0
    9.9571   -4.0573   16.8866 C   0  0  0  0  0  0  0  0  0  0  0  0
    7.6213   -6.5618   16.0087 C   0  0  0  0  0  0  0  0  0  0  0  0
   10.8583   -2.6527   20.7222 C   0  0  0  0  0  0  0  0  0  0  0  0
   10.6412   -3.5089   21.7936 C   0  0  0  0  0  0  0  0  0  0  0  0
   10.4972   -3.8968   24.1589 C   0  0  0  0  0  0  0  0  0  0  0  0
    5.9260   -8.2736   16.5517 C   0  0  0  0  0  0  0  0  0  0  0  0
    3.8816   -9.1166   17.2493 C   0  0  0  0  0  0  0  0  0  0  0  0
   10.1297   -1.6575   23.2324 C   0  0  0  0  0  0  0  0  0  0  0  0
    9.4684   -1.6929   26.7263 F   0  0  0  0  0  0  0  0  0  0  0  0
    7.7963   -7.7906   17.9837 C   0  0  0  0  0  0  0  0  0  0  0  0
   10.5884   -3.0725   16.7902 O   0  0  0  0  0  0  0  0  0  0  0  0
   10.4323   -5.3494   20.3516 C   0  0  0  0  0  0  0  0  0  0  0  0
    7.1156   -7.5454   16.8218 C   0  0  0  0  0  0  0  0  0  0  0  0
   10.3885   -4.4388   19.2773 C   0  0  0  0  0  0  0  0  0  0  0  0
    4.5160   -9.3822   15.0841 C   0  0  0  0  0  0  0  0  0  0  0  0
  1  3  4  0
  1 24  4  0
  2  6  4  0
  2 15  4  0
  3  5  4  0
  3  6  4  0
  4 21  4  0
  4 29  4  0
  5 15  4  0
  5 28  1  0
  6 16  4  0
  7 18  4  0
  7 26  4  0
  8 18  1  0
  8 19  4  0
  8 22  4  0
  9 12  4  0
  9 19  4  0
 10 12  4  0
 10 22  4  0
 11 20  4  0
 11 21  4  0
 12 23  1  0
 13 20  4  0
 13 29  4  0
 14 17  4  0
 14 28  4  0
 15 25  2  0
 16 27  4  0
 17 18  4  0
 20 27  1  0
 24 27  4  0
 26 28  4  0
M  END
$$$$

 Created by Python create_sdf_string function

 29 33  0  0  0  0  0  0  0  0999 V2000
    8.8270   -7.0288   18.4251 C   0  0  0  0  0  0  0  0  0  0  0  0
    9.1576   -4.6236   15.8860 O   0  0  0  0  0  0  0  0  0  0  0  0
    9.1509   -5.9108   17.7177 C   0  0  0  0  0  0  0  0  0  0  0  0
    3.6373   -9.5349   16.0582 N   0  0  0  0  0  0  0  0  0  0  0  0
    9.9275   -4.8001   18.0438 N   0  0  0  0  0  0  0  0  0  0  0  0
    8.5908   -5.7425   16.4412 C   0  0  0  0  0  0  0  0  0  0  0  0
   10.5993   -4.8981   21.6068 C   0  0  0  0  0  0  0  0  0  0  0  0
   10.4258   -3.0106   23.0998 C   0  0  0  0  0  0  0  0  0  0  0  0
   10.2148   -3.4364   25.4200 C   0  0  0  0  0  0  0  0  0  0  0  0
    9.7853   -1.1840   24.4927 C   0  0  0  0  0  0  0  0  0  0  0  0
    5.0276   -8.5227   17.5352 C   0  0  0  0  0  0  0  0  0  0  0  0
    9.8187   -2.0895   25.5800 C   0  0  0  0  0  0  0  0  0  0  0  0
    5.6473   -8.7216   15.3158 C   0  0  0  0  0  0  0  0  0  0  0  0
   10.7581   -3.1233   19.4720 N   0  0  0  0  0  0  0  0  0  0  0  0
    9.9571   -4.0573   16.8866 C   0  0  0  0  0  0  0  0  0  0  0  0
    7.6213   -6.5618   16.0087 C   0  0  0  0  0  0  0  0  0  0  0  0
   10.8583   -2.6527   20.7222 C   0  0  0  0  0  0  0  0  0  0  0  0
   10.6412   -3.5089   21.7936 C   0  0  0  0  0  0  0  0  0  0  0  0
   10.4972   -3.8968   24.1589 C   0  0  0  0  0  0  0  0  0  0  0  0
    5.9260   -8.2736   16.5517 C   0  0  0  0  0  0  0  0  0  0  0  0
    3.8816   -9.1166   17.2493 C   0  0  0  0  0  0  0  0  0  0  0  0
   10.1297   -1.6575   23.2324 C   0  0  0  0  0  0  0  0  0  0  0  0
    9.4684   -1.6929   26.7263 F   0  0  0  0  0  0  0  0  0  0  0  0
    7.7963   -7.7906   17.9837 C   0  0  0  0  0  0  0  0  0  0  0  0
   10.5884   -3.0725   16.7902 O   0  0  0  0  0  0  0  0  0  0  0  0
   10.4323   -5.3494   20.3516 C   0  0  0  0  0  0  0  0  0  0  0  0
    7.1156   -7.5454   16.8218 C   0  0  0  0  0  0  0  0  0  0  0  0
   10.3885   -4.4388   19.2773 C   0  0  0  0  0  0  0  0  0  0  0  0
    4.5160   -9.3822   15.0841 C   0  0  0  0  0  0  0  0  0  0  0  0
  1  3  4  0
  1 24  4  0
  2  6  4  0
  2 15  4  0
  3  5  4  0
  3  6  4  0
  4 21  4  0
  4 29  4  0
  5 15  4  0
  5 28  1  0
  6 16  4  0
  7 18  4  0
  7 26  4  0
  8 18  1  0
  8 19  4  0
  8 22  4  0
  9 12  4  0
  9 19  4  0
 10 12  4  0
 10 22  4  0
 11 20  4  0
 11 21  4  0
 12 23  1  0
 13 20  4  0
 13 29  4  0
 14 17  4  0
 14 28  4  0
 15 25  2  0
 16 27  4  0
 17 18  4  0
 20 27  1  0
 24 27  4  0
 26 28  4  0
M  END
$$$$

 Created by Python create_sdf_string function

 29 33  0  0  0  0  0  0  0  0999 V2000
    8.8270   -7.0288   18.4251 C   0  0  0  0  0  0  0  0  0  0  0  0
    9.1576   -4.6236   15.8860 O   0  0  0  0  0  0  0  0  0  0  0  0
    9.1509   -5.9108   17.7177 C   0  0  0  0  0  0  0  0  0  0  0  0
    3.6373   -9.5349   16.0582 N   0  0  0  0  0  0  0  0  0  0  0  0
    9.9275   -4.8001   18.0438 N   0  0  0  0  0  0  0  0  0  0  0  0
    8.5908   -5.7425   16.4412 C   0  0  0  0  0  0  0  0  0  0  0  0
   10.5993   -4.8981   21.6068 C   0  0  0  0  0  0  0  0  0  0  0  0
   10.4258   -3.0106   23.0998 C   0  0  0  0  0  0  0  0  0  0  0  0
   10.2148   -3.4364   25.4200 C   0  0  0  0  0  0  0  0  0  0  0  0
    9.7853   -1.1840   24.4927 C   0  0  0  0  0  0  0  0  0  0  0  0
    5.0276   -8.5227   17.5352 C   0  0  0  0  0  0  0  0  0  0  0  0
    9.8187   -2.0895   25.5800 C   0  0  0  0  0  0  0  0  0  0  0  0
    5.6473   -8.7216   15.3158 C   0  0  0  0  0  0  0  0  0  0  0  0
   10.7581   -3.1233   19.4720 N   0  0  0  0  0  0  0  0  0  0  0  0
    9.9571   -4.0573   16.8866 C   0  0  0  0  0  0  0  0  0  0  0  0
    7.6213   -6.5618   16.0087 C   0  0  0  0  0  0  0  0  0  0  0  0
   10.8583   -2.6527   20.7222 C   0  0  0  0  0  0  0  0  0  0  0  0
   10.6412   -3.5089   21.7936 C   0  0  0  0  0  0  0  0  0  0  0  0
   10.4972   -3.8968   24.1589 C   0  0  0  0  0  0  0  0  0  0  0  0
    5.9260   -8.2736   16.5517 C   0  0  0  0  0  0  0  0  0  0  0  0
    3.8816   -9.1166   17.2493 C   0  0  0  0  0  0  0  0  0  0  0  0
   10.1297   -1.6575   23.2324 C   0  0  0  0  0  0  0  0  0  0  0  0
    9.4684   -1.6929   26.7263 F   0  0  0  0  0  0  0  0  0  0  0  0
    7.7963   -7.7906   17.9837 C   0  0  0  0  0  0  0  0  0  0  0  0
   10.5884   -3.0725   16.7902 O   0  0  0  0  0  0  0  0  0  0  0  0
   10.4323   -5.3494   20.3516 C   0  0  0  0  0  0  0  0  0  0  0  0
    7.1156   -7.5454   16.8218 C   0  0  0  0  0  0  0  0  0  0  0  0
   10.3885   -4.4388   19.2773 C   0  0  0  0  0  0  0  0  0  0  0  0
    4.5160   -9.3822   15.0841 C   0  0  0  0  0  0  0  0  0  0  0  0
  1  3  4  0
  1 24  4  0
  2  6  4  0
  2 15  4  0
  3  5  4  0
  3  6  4  0
  4 21  4  0
  4 29  4  0
  5 15  4  0
  5 28  1  0
  6 16  4  0
  7 18  4  0
  7 26  4  0
  8 18  1  0
  8 19  4  0
  8 22  4  0
  9 12  4  0
  9 19  4  0
 10 12  4  0
 10 22  4  0
 11 20  4  0
 11 21  4  0
 12 23  1  0
 13 20  4  0
 13 29  4  0
 14 17  4  0
 14 28  4  0
 15 25  2  0
 16 27  4  0
 17 18  4  0
 20 27  1  0
 24 27  4  0
 26 28  4  0
M  END
$$$$

 Created by Python create_sdf_string function

 29 33  0  0  0  0  0  0  0  0999 V2000
    8.8270   -7.0288   18.4251 C   0  0  0  0  0  0  0  0  0  0  0  0
    9.1576   -4.6236   15.8860 O   0  0  0  0  0  0  0  0  0  0  0  0
    9.1509   -5.9108   17.7177 C   0  0  0  0  0  0  0  0  0  0  0  0
    3.6373   -9.5349   16.0582 N   0  0  0  0  0  0  0  0  0  0  0  0
    9.9275   -4.8001   18.0438 N   0  0  0  0  0  0  0  0  0  0  0  0
    8.5908   -5.7425   16.4412 C   0  0  0  0  0  0  0  0  0  0  0  0
   10.5993   -4.8981   21.6068 C   0  0  0  0  0  0  0  0  0  0  0  0
   10.4258   -3.0106   23.0998 C   0  0  0  0  0  0  0  0  0  0  0  0
   10.2148   -3.4364   25.4200 C   0  0  0  0  0  0  0  0  0  0  0  0
    9.7853   -1.1840   24.4927 C   0  0  0  0  0  0  0  0  0  0  0  0
    5.0276   -8.5227   17.5352 C   0  0  0  0  0  0  0  0  0  0  0  0
    9.8187   -2.0895   25.5800 C   0  0  0  0  0  0  0  0  0  0  0  0
    5.6473   -8.7216   15.3158 C   0  0  0  0  0  0  0  0  0  0  0  0
   10.7581   -3.1233   19.4720 N   0  0  0  0  0  0  0  0  0  0  0  0
    9.9571   -4.0573   16.8866 C   0  0  0  0  0  0  0  0  0  0  0  0
    7.6213   -6.5618   16.0087 C   0  0  0  0  0  0  0  0  0  0  0  0
   10.8583   -2.6527   20.7222 C   0  0  0  0  0  0  0  0  0  0  0  0
   10.6412   -3.5089   21.7936 C   0  0  0  0  0  0  0  0  0  0  0  0
   10.4972   -3.8968   24.1589 C   0  0  0  0  0  0  0  0  0  0  0  0
    5.9260   -8.2736   16.5517 C   0  0  0  0  0  0  0  0  0  0  0  0
    3.8816   -9.1166   17.2493 C   0  0  0  0  0  0  0  0  0  0  0  0
   10.1297   -1.6575   23.2324 C   0  0  0  0  0  0  0  0  0  0  0  0
    9.4684   -1.6929   26.7263 F   0  0  0  0  0  0  0  0  0  0  0  0
    7.7963   -7.7906   17.9837 C   0  0  0  0  0  0  0  0  0  0  0  0
   10.5884   -3.0725   16.7902 O   0  0  0  0  0  0  0  0  0  0  0  0
   10.4323   -5.3494   20.3516 C   0  0  0  0  0  0  0  0  0  0  0  0
    7.1156   -7.5454   16.8218 C   0  0  0  0  0  0  0  0  0  0  0  0
   10.3885   -4.4388   19.2773 C   0  0  0  0  0  0  0  0  0  0  0  0
    4.5160   -9.3822   15.0841 C   0  0  0  0  0  0  0  0  0  0  0  0
  1  3  4  0
  1 24  4  0
  2  6  4  0
  2 15  4  0
  3  5  4  0
  3  6  4  0
  4 21  4  0
  4 29  4  0
  5 15  4  0
  5 28  1  0
  6 16  4  0
  7 18  4  0
  7 26  4  0
  8 18  1  0
  8 19  4  0
  8 22  4  0
  9 12  4  0
  9 19  4  0
 10 12  4  0
 10 22  4  0
 11 20  4  0
 11 21  4  0
 12 23  1  0
 13 20  4  0
 13 29  4  0
 14 17  4  0
 14 28  4  0
 15 25  2  0
 16 27  4  0
 17 18  4  0
 20 27  1  0
 24 27  4  0
 26 28  4  0
M  END
$$$$

 Created by Python create_sdf_string function

 29 33  0  0  0  0  0  0  0  0999 V2000
    8.8270   -7.0288   18.4251 C   0  0  0  0  0  0  0  0  0  0  0  0
    9.1576   -4.6236   15.8860 O   0  0  0  0  0  0  0  0  0  0  0  0
    9.1509   -5.9108   17.7177 C   0  0  0  0  0  0  0  0  0  0  0  0
    3.6373   -9.5349   16.0582 N   0  0  0  0  0  0  0  0  0  0  0  0
    9.9275   -4.8001   18.0438 N   0  0  0  0  0  0  0  0  0  0  0  0
    8.5908   -5.7425   16.4412 C   0  0  0  0  0  0  0  0  0  0  0  0
   10.5993   -4.8981   21.6068 C   0  0  0  0  0  0  0  0  0  0  0  0
   10.4258   -3.0106   23.0998 C   0  0  0  0  0  0  0  0  0  0  0  0
   10.2148   -3.4364   25.4200 C   0  0  0  0  0  0  0  0  0  0  0  0
    9.7853   -1.1840   24.4927 C   0  0  0  0  0  0  0  0  0  0  0  0
    5.0276   -8.5227   17.5352 C   0  0  0  0  0  0  0  0  0  0  0  0
    9.8187   -2.0895   25.5800 C   0  0  0  0  0  0  0  0  0  0  0  0
    5.6473   -8.7216   15.3158 C   0  0  0  0  0  0  0  0  0  0  0  0
   10.7581   -3.1233   19.4720 N   0  0  0  0  0  0  0  0  0  0  0  0
    9.9571   -4.0573   16.8866 C   0  0  0  0  0  0  0  0  0  0  0  0
    7.6213   -6.5618   16.0087 C   0  0  0  0  0  0  0  0  0  0  0  0
   10.8583   -2.6527   20.7222 C   0  0  0  0  0  0  0  0  0  0  0  0
   10.6412   -3.5089   21.7936 C   0  0  0  0  0  0  0  0  0  0  0  0
   10.4972   -3.8968   24.1589 C   0  0  0  0  0  0  0  0  0  0  0  0
    5.9260   -8.2736   16.5517 C   0  0  0  0  0  0  0  0  0  0  0  0
    3.8816   -9.1166   17.2493 C   0  0  0  0  0  0  0  0  0  0  0  0
   10.1297   -1.6575   23.2324 C   0  0  0  0  0  0  0  0  0  0  0  0
    9.4684   -1.6929   26.7263 F   0  0  0  0  0  0  0  0  0  0  0  0
    7.7963   -7.7906   17.9837 C   0  0  0  0  0  0  0  0  0  0  0  0
   10.5884   -3.0725   16.7902 O   0  0  0  0  0  0  0  0  0  0  0  0
   10.4323   -5.3494   20.3516 C   0  0  0  0  0  0  0  0  0  0  0  0
    7.1156   -7.5454   16.8218 C   0  0  0  0  0  0  0  0  0  0  0  0
   10.3885   -4.4388   19.2773 C   0  0  0  0  0  0  0  0  0  0  0  0
    4.5160   -9.3822   15.0841 C   0  0  0  0  0  0  0  0  0  0  0  0
  1  3  4  0
  1 24  4  0
  2  6  4  0
  2 15  4  0
  3  5  4  0
  3  6  4  0
  4 21  4  0
  4 29  4  0
  5 15  4  0
  5 28  1  0
  6 16  4  0
  7 18  4  0
  7 26  4  0
  8 18  1  0
  8 19  4  0
  8 22  4  0
  9 12  4  0
  9 19  4  0
 10 12  4  0
 10 22  4  0
 11 20  4  0
 11 21  4  0
 12 23  1  0
 13 20  4  0
 13 29  4  0
 14 17  4  0
 14 28  4  0
 15 25  2  0
 16 27  4  0
 17 18  4  0
 20 27  1  0
 24 27  4  0
 26 28  4  0
M  END
$$$$

 Created by Python create_sdf_string function

 29 33  0  0  0  0  0  0  0  0999 V2000
    8.8270   -7.0288   18.4251 C   0  0  0  0  0  0  0  0  0  0  0  0
    9.1576   -4.6236   15.8860 O   0  0  0  0  0  0  0  0  0  0  0  0
    9.1509   -5.9108   17.7177 C   0  0  0  0  0  0  0  0  0  0  0  0
    3.6373   -9.5349   16.0582 N   0  0  0  0  0  0  0  0  0  0  0  0
    9.9275   -4.8001   18.0438 N   0  0  0  0  0  0  0  0  0  0  0  0
    8.5908   -5.7425   16.4412 C   0  0  0  0  0  0  0  0  0  0  0  0
   10.5993   -4.8981   21.6068 C   0  0  0  0  0  0  0  0  0  0  0  0
   10.4258   -3.0106   23.0998 C   0  0  0  0  0  0  0  0  0  0  0  0
   10.2148   -3.4364   25.4200 C   0  0  0  0  0  0  0  0  0  0  0  0
    9.7853   -1.1840   24.4927 C   0  0  0  0  0  0  0  0  0  0  0  0
    5.0276   -8.5227   17.5352 C   0  0  0  0  0  0  0  0  0  0  0  0
    9.8187   -2.0895   25.5800 C   0  0  0  0  0  0  0  0  0  0  0  0
    5.6473   -8.7216   15.3158 C   0  0  0  0  0  0  0  0  0  0  0  0
   10.7581   -3.1233   19.4720 N   0  0  0  0  0  0  0  0  0  0  0  0
    9.9571   -4.0573   16.8866 C   0  0  0  0  0  0  0  0  0  0  0  0
    7.6213   -6.5618   16.0087 C   0  0  0  0  0  0  0  0  0  0  0  0
   10.8583   -2.6527   20.7222 C   0  0  0  0  0  0  0  0  0  0  0  0
   10.6412   -3.5089   21.7936 C   0  0  0  0  0  0  0  0  0  0  0  0
   10.4972   -3.8968   24.1589 C   0  0  0  0  0  0  0  0  0  0  0  0
    5.9260   -8.2736   16.5517 C   0  0  0  0  0  0  0  0  0  0  0  0
    3.8816   -9.1166   17.2493 C   0  0  0  0  0  0  0  0  0  0  0  0
   10.1297   -1.6575   23.2324 C   0  0  0  0  0  0  0  0  0  0  0  0
    9.4684   -1.6929   26.7263 F   0  0  0  0  0  0  0  0  0  0  0  0
    7.7963   -7.7906   17.9837 C   0  0  0  0  0  0  0  0  0  0  0  0
   10.5884   -3.0725   16.7902 O   0  0  0  0  0  0  0  0  0  0  0  0
   10.4323   -5.3494   20.3516 C   0  0  0  0  0  0  0  0  0  0  0  0
    7.1156   -7.5454   16.8218 C   0  0  0  0  0  0  0  0  0  0  0  0
   10.3885   -4.4388   19.2773 C   0  0  0  0  0  0  0  0  0  0  0  0
    4.5160   -9.3822   15.0841 C   0  0  0  0  0  0  0  0  0  0  0  0
  1  3  4  0
  1 24  4  0
  2  6  4  0
  2 15  4  0
  3  5  4  0
  3  6  4  0
  4 21  4  0
  4 29  4  0
  5 15  4  0
  5 28  1  0
  6 16  4  0
  7 18  4  0
  7 26  4  0
  8 18  1  0
  8 19  4  0
  8 22  4  0
  9 12  4  0
  9 19  4  0
 10 12  4  0
 10 22  4  0
 11 20  4  0
 11 21  4  0
 12 23  1  0
 13 20  4  0
 13 29  4  0
 14 17  4  0
 14 28  4  0
 15 25  2  0
 16 27  4  0
 17 18  4  0
 20 27  1  0
 24 27  4  0
 26 28  4  0
M  END
$$$$

 Created by Python create_sdf_string function

 29 33  0  0  0  0  0  0  0  0999 V2000
    8.8270   -7.0288   18.4251 C   0  0  0  0  0  0  0  0  0  0  0  0
    9.1576   -4.6236   15.8860 O   0  0  0  0  0  0  0  0  0  0  0  0
    9.1509   -5.9108   17.7177 C   0  0  0  0  0  0  0  0  0  0  0  0
    3.6373   -9.5349   16.0582 N   0  0  0  0  0  0  0  0  0  0  0  0
    9.9275   -4.8001   18.0438 N   0  0  0  0  0  0  0  0  0  0  0  0
    8.5908   -5.7425   16.4412 C   0  0  0  0  0  0  0  0  0  0  0  0
   10.5993   -4.8981   21.6068 C   0  0  0  0  0  0  0  0  0  0  0  0
   10.4258   -3.0106   23.0998 C   0  0  0  0  0  0  0  0  0  0  0  0
   10.2148   -3.4364   25.4200 C   0  0  0  0  0  0  0  0  0  0  0  0
    9.7853   -1.1840   24.4927 C   0  0  0  0  0  0  0  0  0  0  0  0
    5.0276   -8.5227   17.5352 C   0  0  0  0  0  0  0  0  0  0  0  0
    9.8187   -2.0895   25.5800 C   0  0  0  0  0  0  0  0  0  0  0  0
    5.6473   -8.7216   15.3158 C   0  0  0  0  0  0  0  0  0  0  0  0
   10.7581   -3.1233   19.4720 N   0  0  0  0  0  0  0  0  0  0  0  0
    9.9571   -4.0573   16.8866 C   0  0  0  0  0  0  0  0  0  0  0  0
    7.6213   -6.5618   16.0087 C   0  0  0  0  0  0  0  0  0  0  0  0
   10.8583   -2.6527   20.7222 C   0  0  0  0  0  0  0  0  0  0  0  0
   10.6412   -3.5089   21.7936 C   0  0  0  0  0  0  0  0  0  0  0  0
   10.4972   -3.8968   24.1589 C   0  0  0  0  0  0  0  0  0  0  0  0
    5.9260   -8.2736   16.5517 C   0  0  0  0  0  0  0  0  0  0  0  0
    3.8816   -9.1166   17.2493 C   0  0  0  0  0  0  0  0  0  0  0  0
   10.1297   -1.6575   23.2324 C   0  0  0  0  0  0  0  0  0  0  0  0
    9.4684   -1.6929   26.7263 F   0  0  0  0  0  0  0  0  0  0  0  0
    7.7963   -7.7906   17.9837 C   0  0  0  0  0  0  0  0  0  0  0  0
   10.5884   -3.0725   16.7902 O   0  0  0  0  0  0  0  0  0  0  0  0
   10.4323   -5.3494   20.3516 C   0  0  0  0  0  0  0  0  0  0  0  0
    7.1156   -7.5454   16.8218 C   0  0  0  0  0  0  0  0  0  0  0  0
   10.3885   -4.4388   19.2773 C   0  0  0  0  0  0  0  0  0  0  0  0
    4.5160   -9.3822   15.0841 C   0  0  0  0  0  0  0  0  0  0  0  0
  1  3  4  0
  1 24  4  0
  2  6  4  0
  2 15  4  0
  3  5  4  0
  3  6  4  0
  4 21  4  0
  4 29  4  0
  5 15  4  0
  5 28  1  0
  6 16  4  0
  7 18  4  0
  7 26  4  0
  8 18  1  0
  8 19  4  0
  8 22  4  0
  9 12  4  0
  9 19  4  0
 10 12  4  0
 10 22  4  0
 11 20  4  0
 11 21  4  0
 12 23  1  0
 13 20  4  0
 13 29  4  0
 14 17  4  0
 14 28  4  0
 15 25  2  0
 16 27  4  0
 17 18  4  0
 20 27  1  0
 24 27  4  0
 26 28  4  0
M  END
$$$$

 Created by Python create_sdf_string function

 29 33  0  0  0  0  0  0  0  0999 V2000
    8.8270   -7.0288   18.4251 C   0  0  0  0  0  0  0  0  0  0  0  0
    9.1576   -4.6236   15.8860 O   0  0  0  0  0  0  0  0  0  0  0  0
    9.1509   -5.9108   17.7177 C   0  0  0  0  0  0  0  0  0  0  0  0
    3.6373   -9.5349   16.0582 N   0  0  0  0  0  0  0  0  0  0  0  0
    9.9275   -4.8001   18.0438 N   0  0  0  0  0  0  0  0  0  0  0  0
    8.5908   -5.7425   16.4412 C   0  0  0  0  0  0  0  0  0  0  0  0
   10.5993   -4.8981   21.6068 C   0  0  0  0  0  0  0  0  0  0  0  0
   10.4258   -3.0106   23.0998 C   0  0  0  0  0  0  0  0  0  0  0  0
   10.2148   -3.4364   25.4200 C   0  0  0  0  0  0  0  0  0  0  0  0
    9.7853   -1.1840   24.4927 C   0  0  0  0  0  0  0  0  0  0  0  0
    5.0276   -8.5227   17.5352 C   0  0  0  0  0  0  0  0  0  0  0  0
    9.8187   -2.0895   25.5800 C   0  0  0  0  0  0  0  0  0  0  0  0
    5.6473   -8.7216   15.3158 C   0  0  0  0  0  0  0  0  0  0  0  0
   10.7581   -3.1233   19.4720 N   0  0  0  0  0  0  0  0  0  0  0  0
    9.9571   -4.0573   16.8866 C   0  0  0  0  0  0  0  0  0  0  0  0
    7.6213   -6.5618   16.0087 C   0  0  0  0  0  0  0  0  0  0  0  0
   10.8583   -2.6527   20.7222 C   0  0  0  0  0  0  0  0  0  0  0  0
   10.6412   -3.5089   21.7936 C   0  0  0  0  0  0  0  0  0  0  0  0
   10.4972   -3.8968   24.1589 C   0  0  0  0  0  0  0  0  0  0  0  0
    5.9260   -8.2736   16.5517 C   0  0  0  0  0  0  0  0  0  0  0  0
    3.8816   -9.1166   17.2493 C   0  0  0  0  0  0  0  0  0  0  0  0
   10.1297   -1.6575   23.2324 C   0  0  0  0  0  0  0  0  0  0  0  0
    9.4684   -1.6929   26.7263 F   0  0  0  0  0  0  0  0  0  0  0  0
    7.7963   -7.7906   17.9837 C   0  0  0  0  0  0  0  0  0  0  0  0
   10.5884   -3.0725   16.7902 O   0  0  0  0  0  0  0  0  0  0  0  0
   10.4323   -5.3494   20.3516 C   0  0  0  0  0  0  0  0  0  0  0  0
    7.1156   -7.5454   16.8218 C   0  0  0  0  0  0  0  0  0  0  0  0
   10.3885   -4.4388   19.2773 C   0  0  0  0  0  0  0  0  0  0  0  0
    4.5160   -9.3822   15.0841 C   0  0  0  0  0  0  0  0  0  0  0  0
  1  3  4  0
  1 24  4  0
  2  6  4  0
  2 15  4  0
  3  5  4  0
  3  6  4  0
  4 21  4  0
  4 29  4  0
  5 15  4  0
  5 28  1  0
  6 16  4  0
  7 18  4  0
  7 26  4  0
  8 18  1  0
  8 19  4  0
  8 22  4  0
  9 12  4  0
  9 19  4  0
 10 12  4  0
 10 22  4  0
 11 20  4  0
 11 21  4  0
 12 23  1  0
 13 20  4  0
 13 29  4  0
 14 17  4  0
 14 28  4  0
 15 25  2  0
 16 27  4  0
 17 18  4  0
 20 27  1  0
 24 27  4  0
 26 28  4  0
M  END
$$$$

 Created by Python create_sdf_string function

 29 33  0  0  0  0  0  0  0  0999 V2000
    8.8270   -7.0288   18.4251 C   0  0  0  0  0  0  0  0  0  0  0  0
    9.1576   -4.6236   15.8860 O   0  0  0  0  0  0  0  0  0  0  0  0
    9.1509   -5.9108   17.7177 C   0  0  0  0  0  0  0  0  0  0  0  0
    3.6373   -9.5349   16.0582 N   0  0  0  0  0  0  0  0  0  0  0  0
    9.9275   -4.8001   18.0438 N   0  0  0  0  0  0  0  0  0  0  0  0
    8.5908   -5.7425   16.4412 C   0  0  0  0  0  0  0  0  0  0  0  0
   10.5993   -4.8981   21.6068 C   0  0  0  0  0  0  0  0  0  0  0  0
   10.4258   -3.0106   23.0998 C   0  0  0  0  0  0  0  0  0  0  0  0
   10.2148   -3.4364   25.4200 C   0  0  0  0  0  0  0  0  0  0  0  0
    9.7853   -1.1840   24.4927 C   0  0  0  0  0  0  0  0  0  0  0  0
    5.0276   -8.5227   17.5352 C   0  0  0  0  0  0  0  0  0  0  0  0
    9.8187   -2.0895   25.5800 C   0  0  0  0  0  0  0  0  0  0  0  0
    5.6473   -8.7216   15.3158 C   0  0  0  0  0  0  0  0  0  0  0  0
   10.7581   -3.1233   19.4720 N   0  0  0  0  0  0  0  0  0  0  0  0
    9.9571   -4.0573   16.8866 C   0  0  0  0  0  0  0  0  0  0  0  0
    7.6213   -6.5618   16.0087 C   0  0  0  0  0  0  0  0  0  0  0  0
   10.8583   -2.6527   20.7222 C   0  0  0  0  0  0  0  0  0  0  0  0
   10.6412   -3.5089   21.7936 C   0  0  0  0  0  0  0  0  0  0  0  0
   10.4972   -3.8968   24.1589 C   0  0  0  0  0  0  0  0  0  0  0  0
    5.9260   -8.2736   16.5517 C   0  0  0  0  0  0  0  0  0  0  0  0
    3.8816   -9.1166   17.2493 C   0  0  0  0  0  0  0  0  0  0  0  0
   10.1297   -1.6575   23.2324 C   0  0  0  0  0  0  0  0  0  0  0  0
    9.4684   -1.6929   26.7263 F   0  0  0  0  0  0  0  0  0  0  0  0
    7.7963   -7.7906   17.9837 C   0  0  0  0  0  0  0  0  0  0  0  0
   10.5884   -3.0725   16.7902 O   0  0  0  0  0  0  0  0  0  0  0  0
   10.4323   -5.3494   20.3516 C   0  0  0  0  0  0  0  0  0  0  0  0
    7.1156   -7.5454   16.8218 C   0  0  0  0  0  0  0  0  0  0  0  0
   10.3885   -4.4388   19.2773 C   0  0  0  0  0  0  0  0  0  0  0  0
    4.5160   -9.3822   15.0841 C   0  0  0  0  0  0  0  0  0  0  0  0
  1  3  4  0
  1 24  4  0
  2  6  4  0
  2 15  4  0
  3  5  4  0
  3  6  4  0
  4 21  4  0
  4 29  4  0
  5 15  4  0
  5 28  1  0
  6 16  4  0
  7 18  4  0
  7 26  4  0
  8 18  1  0
  8 19  4  0
  8 22  4  0
  9 12  4  0
  9 19  4  0
 10 12  4  0
 10 22  4  0
 11 20  4  0
 11 21  4  0
 12 23  1  0
 13 20  4  0
 13 29  4  0
 14 17  4  0
 14 28  4  0
 15 25  2  0
 16 27  4  0
 17 18  4  0
 20 27  1  0
 24 27  4  0
 26 28  4  0
M  END
$$$$

 Created by Python create_sdf_string function

 29 33  0  0  0  0  0  0  0  0999 V2000
    8.8270   -7.0288   18.4251 C   0  0  0  0  0  0  0  0  0  0  0  0
    9.1576   -4.6236   15.8860 O   0  0  0  0  0  0  0  0  0  0  0  0
    9.1509   -5.9108   17.7177 C   0  0  0  0  0  0  0  0  0  0  0  0
    3.6373   -9.5349   16.0582 N   0  0  0  0  0  0  0  0  0  0  0  0
    9.9275   -4.8001   18.0438 N   0  0  0  0  0  0  0  0  0  0  0  0
    8.5908   -5.7425   16.4412 C   0  0  0  0  0  0  0  0  0  0  0  0
   10.5993   -4.8981   21.6068 C   0  0  0  0  0  0  0  0  0  0  0  0
   10.4258   -3.0106   23.0998 C   0  0  0  0  0  0  0  0  0  0  0  0
   10.2148   -3.4364   25.4200 C   0  0  0  0  0  0  0  0  0  0  0  0
    9.7853   -1.1840   24.4927 C   0  0  0  0  0  0  0  0  0  0  0  0
    5.0276   -8.5227   17.5352 C   0  0  0  0  0  0  0  0  0  0  0  0
    9.8187   -2.0895   25.5800 C   0  0  0  0  0  0  0  0  0  0  0  0
    5.6473   -8.7216   15.3158 C   0  0  0  0  0  0  0  0  0  0  0  0
   10.7581   -3.1233   19.4720 N   0  0  0  0  0  0  0  0  0  0  0  0
    9.9571   -4.0573   16.8866 C   0  0  0  0  0  0  0  0  0  0  0  0
    7.6213   -6.5618   16.0087 C   0  0  0  0  0  0  0  0  0  0  0  0
   10.8583   -2.6527   20.7222 C   0  0  0  0  0  0  0  0  0  0  0  0
   10.6412   -3.5089   21.7936 C   0  0  0  0  0  0  0  0  0  0  0  0
   10.4972   -3.8968   24.1589 C   0  0  0  0  0  0  0  0  0  0  0  0
    5.9260   -8.2736   16.5517 C   0  0  0  0  0  0  0  0  0  0  0  0
    3.8816   -9.1166   17.2493 C   0  0  0  0  0  0  0  0  0  0  0  0
   10.1297   -1.6575   23.2324 C   0  0  0  0  0  0  0  0  0  0  0  0
    9.4684   -1.6929   26.7263 F   0  0  0  0  0  0  0  0  0  0  0  0
    7.7963   -7.7906   17.9837 C   0  0  0  0  0  0  0  0  0  0  0  0
   10.5884   -3.0725   16.7902 O   0  0  0  0  0  0  0  0  0  0  0  0
   10.4323   -5.3494   20.3516 C   0  0  0  0  0  0  0  0  0  0  0  0
    7.1156   -7.5454   16.8218 C   0  0  0  0  0  0  0  0  0  0  0  0
   10.3885   -4.4388   19.2773 C   0  0  0  0  0  0  0  0  0  0  0  0
    4.5160   -9.3822   15.0841 C   0  0  0  0  0  0  0  0  0  0  0  0
  1  3  4  0
  1 24  4  0
  2  6  4  0
  2 15  4  0
  3  5  4  0
  3  6  4  0
  4 21  4  0
  4 29  4  0
  5 15  4  0
  5 28  1  0
  6 16  4  0
  7 18  4  0
  7 26  4  0
  8 18  1  0
  8 19  4  0
  8 22  4  0
  9 12  4  0
  9 19  4  0
 10 12  4  0
 10 22  4  0
 11 20  4  0
 11 21  4  0
 12 23  1  0
 13 20  4  0
 13 29  4  0
 14 17  4  0
 14 28  4  0
 15 25  2  0
 16 27  4  0
 17 18  4  0
 20 27  1  0
 24 27  4  0
 26 28  4  0
M  END
$$$$

 Created by Python create_sdf_string function

 29 33  0  0  0  0  0  0  0  0999 V2000
    8.8270   -7.0288   18.4251 C   0  0  0  0  0  0  0  0  0  0  0  0
    9.1576   -4.6236   15.8860 O   0  0  0  0  0  0  0  0  0  0  0  0
    9.1509   -5.9108   17.7177 C   0  0  0  0  0  0  0  0  0  0  0  0
    3.6373   -9.5349   16.0582 N   0  0  0  0  0  0  0  0  0  0  0  0
    9.9275   -4.8001   18.0438 N   0  0  0  0  0  0  0  0  0  0  0  0
    8.5908   -5.7425   16.4412 C   0  0  0  0  0  0  0  0  0  0  0  0
   10.5993   -4.8981   21.6068 C   0  0  0  0  0  0  0  0  0  0  0  0
   10.4258   -3.0106   23.0998 C   0  0  0  0  0  0  0  0  0  0  0  0
   10.2148   -3.4364   25.4200 C   0  0  0  0  0  0  0  0  0  0  0  0
    9.7853   -1.1840   24.4927 C   0  0  0  0  0  0  0  0  0  0  0  0
    5.0276   -8.5227   17.5352 C   0  0  0  0  0  0  0  0  0  0  0  0
    9.8187   -2.0895   25.5800 C   0  0  0  0  0  0  0  0  0  0  0  0
    5.6473   -8.7216   15.3158 C   0  0  0  0  0  0  0  0  0  0  0  0
   10.7581   -3.1233   19.4720 N   0  0  0  0  0  0  0  0  0  0  0  0
    9.9571   -4.0573   16.8866 C   0  0  0  0  0  0  0  0  0  0  0  0
    7.6213   -6.5618   16.0087 C   0  0  0  0  0  0  0  0  0  0  0  0
   10.8583   -2.6527   20.7222 C   0  0  0  0  0  0  0  0  0  0  0  0
   10.6412   -3.5089   21.7936 C   0  0  0  0  0  0  0  0  0  0  0  0
   10.4972   -3.8968   24.1589 C   0  0  0  0  0  0  0  0  0  0  0  0
    5.9260   -8.2736   16.5517 C   0  0  0  0  0  0  0  0  0  0  0  0
    3.8816   -9.1166   17.2493 C   0  0  0  0  0  0  0  0  0  0  0  0
   10.1297   -1.6575   23.2324 C   0  0  0  0  0  0  0  0  0  0  0  0
    9.4684   -1.6929   26.7263 F   0  0  0  0  0  0  0  0  0  0  0  0
    7.7963   -7.7906   17.9837 C   0  0  0  0  0  0  0  0  0  0  0  0
   10.5884   -3.0725   16.7902 O   0  0  0  0  0  0  0  0  0  0  0  0
   10.4323   -5.3494   20.3516 C   0  0  0  0  0  0  0  0  0  0  0  0
    7.1156   -7.5454   16.8218 C   0  0  0  0  0  0  0  0  0  0  0  0
   10.3885   -4.4388   19.2773 C   0  0  0  0  0  0  0  0  0  0  0  0
    4.5160   -9.3822   15.0841 C   0  0  0  0  0  0  0  0  0  0  0  0
  1  3  4  0
  1 24  4  0
  2  6  4  0
  2 15  4  0
  3  5  4  0
  3  6  4  0
  4 21  4  0
  4 29  4  0
  5 15  4  0
  5 28  1  0
  6 16  4  0
  7 18  4  0
  7 26  4  0
  8 18  1  0
  8 19  4  0
  8 22  4  0
  9 12  4  0
  9 19  4  0
 10 12  4  0
 10 22  4  0
 11 20  4  0
 11 21  4  0
 12 23  1  0
 13 20  4  0
 13 29  4  0
 14 17  4  0
 14 28  4  0
 15 25  2  0
 16 27  4  0
 17 18  4  0
 20 27  1  0
 24 27  4  0
 26 28  4  0
M  END
$$$$

 Created by Python create_sdf_string function

 29 33  0  0  0  0  0  0  0  0999 V2000
    8.8270   -7.0288   18.4251 C   0  0  0  0  0  0  0  0  0  0  0  0
    9.1576   -4.6236   15.8860 O   0  0  0  0  0  0  0  0  0  0  0  0
    9.1509   -5.9108   17.7177 C   0  0  0  0  0  0  0  0  0  0  0  0
    3.6373   -9.5349   16.0582 N   0  0  0  0  0  0  0  0  0  0  0  0
    9.9275   -4.8001   18.0438 N   0  0  0  0  0  0  0  0  0  0  0  0
    8.5908   -5.7425   16.4412 C   0  0  0  0  0  0  0  0  0  0  0  0
   10.5993   -4.8981   21.6068 C   0  0  0  0  0  0  0  0  0  0  0  0
   10.4258   -3.0106   23.0998 C   0  0  0  0  0  0  0  0  0  0  0  0
   10.2148   -3.4364   25.4200 C   0  0  0  0  0  0  0  0  0  0  0  0
    9.7853   -1.1840   24.4927 C   0  0  0  0  0  0  0  0  0  0  0  0
    5.0276   -8.5227   17.5352 C   0  0  0  0  0  0  0  0  0  0  0  0
    9.8187   -2.0895   25.5800 C   0  0  0  0  0  0  0  0  0  0  0  0
    5.6473   -8.7216   15.3158 C   0  0  0  0  0  0  0  0  0  0  0  0
   10.7581   -3.1233   19.4720 N   0  0  0  0  0  0  0  0  0  0  0  0
    9.9571   -4.0573   16.8866 C   0  0  0  0  0  0  0  0  0  0  0  0
    7.6213   -6.5618   16.0087 C   0  0  0  0  0  0  0  0  0  0  0  0
   10.8583   -2.6527   20.7222 C   0  0  0  0  0  0  0  0  0  0  0  0
   10.6412   -3.5089   21.7936 C   0  0  0  0  0  0  0  0  0  0  0  0
   10.4972   -3.8968   24.1589 C   0  0  0  0  0  0  0  0  0  0  0  0
    5.9260   -8.2736   16.5517 C   0  0  0  0  0  0  0  0  0  0  0  0
    3.8816   -9.1166   17.2493 C   0  0  0  0  0  0  0  0  0  0  0  0
   10.1297   -1.6575   23.2324 C   0  0  0  0  0  0  0  0  0  0  0  0
    9.4684   -1.6929   26.7263 F   0  0  0  0  0  0  0  0  0  0  0  0
    7.7963   -7.7906   17.9837 C   0  0  0  0  0  0  0  0  0  0  0  0
   10.5884   -3.0725   16.7902 O   0  0  0  0  0  0  0  0  0  0  0  0
   10.4323   -5.3494   20.3516 C   0  0  0  0  0  0  0  0  0  0  0  0
    7.1156   -7.5454   16.8218 C   0  0  0  0  0  0  0  0  0  0  0  0
   10.3885   -4.4388   19.2773 C   0  0  0  0  0  0  0  0  0  0  0  0
    4.5160   -9.3822   15.0841 C   0  0  0  0  0  0  0  0  0  0  0  0
  1  3  4  0
  1 24  4  0
  2  6  4  0
  2 15  4  0
  3  5  4  0
  3  6  4  0
  4 21  4  0
  4 29  4  0
  5 15  4  0
  5 28  1  0
  6 16  4  0
  7 18  4  0
  7 26  4  0
  8 18  1  0
  8 19  4  0
  8 22  4  0
  9 12  4  0
  9 19  4  0
 10 12  4  0
 10 22  4  0
 11 20  4  0
 11 21  4  0
 12 23  1  0
 13 20  4  0
 13 29  4  0
 14 17  4  0
 14 28  4  0
 15 25  2  0
 16 27  4  0
 17 18  4  0
 20 27  1  0
 24 27  4  0
 26 28  4  0
M  END
$$$$

 Created by Python create_sdf_string function

 29 33  0  0  0  0  0  0  0  0999 V2000
    8.8270   -7.0288   18.4251 C   0  0  0  0  0  0  0  0  0  0  0  0
    9.1576   -4.6236   15.8860 O   0  0  0  0  0  0  0  0  0  0  0  0
    9.1509   -5.9108   17.7177 C   0  0  0  0  0  0  0  0  0  0  0  0
    3.6373   -9.5349   16.0582 N   0  0  0  0  0  0  0  0  0  0  0  0
    9.9275   -4.8001   18.0438 N   0  0  0  0  0  0  0  0  0  0  0  0
    8.5908   -5.7425   16.4412 C   0  0  0  0  0  0  0  0  0  0  0  0
   10.5993   -4.8981   21.6068 C   0  0  0  0  0  0  0  0  0  0  0  0
   10.4258   -3.0106   23.0998 C   0  0  0  0  0  0  0  0  0  0  0  0
   10.2148   -3.4364   25.4200 C   0  0  0  0  0  0  0  0  0  0  0  0
    9.7853   -1.1840   24.4927 C   0  0  0  0  0  0  0  0  0  0  0  0
    5.0276   -8.5227   17.5352 C   0  0  0  0  0  0  0  0  0  0  0  0
    9.8187   -2.0895   25.5800 C   0  0  0  0  0  0  0  0  0  0  0  0
    5.6473   -8.7216   15.3158 C   0  0  0  0  0  0  0  0  0  0  0  0
   10.7581   -3.1233   19.4720 N   0  0  0  0  0  0  0  0  0  0  0  0
    9.9571   -4.0573   16.8866 C   0  0  0  0  0  0  0  0  0  0  0  0
    7.6213   -6.5618   16.0087 C   0  0  0  0  0  0  0  0  0  0  0  0
   10.8583   -2.6527   20.7222 C   0  0  0  0  0  0  0  0  0  0  0  0
   10.6412   -3.5089   21.7936 C   0  0  0  0  0  0  0  0  0  0  0  0
   10.4972   -3.8968   24.1589 C   0  0  0  0  0  0  0  0  0  0  0  0
    5.9260   -8.2736   16.5517 C   0  0  0  0  0  0  0  0  0  0  0  0
    3.8816   -9.1166   17.2493 C   0  0  0  0  0  0  0  0  0  0  0  0
   10.1297   -1.6575   23.2324 C   0  0  0  0  0  0  0  0  0  0  0  0
    9.4684   -1.6929   26.7263 F   0  0  0  0  0  0  0  0  0  0  0  0
    7.7963   -7.7906   17.9837 C   0  0  0  0  0  0  0  0  0  0  0  0
   10.5884   -3.0725   16.7902 O   0  0  0  0  0  0  0  0  0  0  0  0
   10.4323   -5.3494   20.3516 C   0  0  0  0  0  0  0  0  0  0  0  0
    7.1156   -7.5454   16.8218 C   0  0  0  0  0  0  0  0  0  0  0  0
   10.3885   -4.4388   19.2773 C   0  0  0  0  0  0  0  0  0  0  0  0
    4.5160   -9.3822   15.0841 C   0  0  0  0  0  0  0  0  0  0  0  0
  1  3  4  0
  1 24  4  0
  2  6  4  0
  2 15  4  0
  3  5  4  0
  3  6  4  0
  4 21  4  0
  4 29  4  0
  5 15  4  0
  5 28  1  0
  6 16  4  0
  7 18  4  0
  7 26  4  0
  8 18  1  0
  8 19  4  0
  8 22  4  0
  9 12  4  0
  9 19  4  0
 10 12  4  0
 10 22  4  0
 11 20  4  0
 11 21  4  0
 12 23  1  0
 13 20  4  0
 13 29  4  0
 14 17  4  0
 14 28  4  0
 15 25  2  0
 16 27  4  0
 17 18  4  0
 20 27  1  0
 24 27  4  0
 26 28  4  0
M  END
$$$$

 Created by Python create_sdf_string function

 29 33  0  0  0  0  0  0  0  0999 V2000
    8.8270   -7.0288   18.4251 C   0  0  0  0  0  0  0  0  0  0  0  0
    9.1576   -4.6236   15.8860 O   0  0  0  0  0  0  0  0  0  0  0  0
    9.1509   -5.9108   17.7177 C   0  0  0  0  0  0  0  0  0  0  0  0
    3.6373   -9.5349   16.0582 N   0  0  0  0  0  0  0  0  0  0  0  0
    9.9275   -4.8001   18.0438 N   0  0  0  0  0  0  0  0  0  0  0  0
    8.5908   -5.7425   16.4412 C   0  0  0  0  0  0  0  0  0  0  0  0
   10.5993   -4.8981   21.6068 C   0  0  0  0  0  0  0  0  0  0  0  0
   10.4258   -3.0106   23.0998 C   0  0  0  0  0  0  0  0  0  0  0  0
   10.2148   -3.4364   25.4200 C   0  0  0  0  0  0  0  0  0  0  0  0
    9.7853   -1.1840   24.4927 C   0  0  0  0  0  0  0  0  0  0  0  0
    5.0276   -8.5227   17.5352 C   0  0  0  0  0  0  0  0  0  0  0  0
    9.8187   -2.0895   25.5800 C   0  0  0  0  0  0  0  0  0  0  0  0
    5.6473   -8.7216   15.3158 C   0  0  0  0  0  0  0  0  0  0  0  0
   10.7581   -3.1233   19.4720 N   0  0  0  0  0  0  0  0  0  0  0  0
    9.9571   -4.0573   16.8866 C   0  0  0  0  0  0  0  0  0  0  0  0
    7.6213   -6.5618   16.0087 C   0  0  0  0  0  0  0  0  0  0  0  0
   10.8583   -2.6527   20.7222 C   0  0  0  0  0  0  0  0  0  0  0  0
   10.6412   -3.5089   21.7936 C   0  0  0  0  0  0  0  0  0  0  0  0
   10.4972   -3.8968   24.1589 C   0  0  0  0  0  0  0  0  0  0  0  0
    5.9260   -8.2736   16.5517 C   0  0  0  0  0  0  0  0  0  0  0  0
    3.8816   -9.1166   17.2493 C   0  0  0  0  0  0  0  0  0  0  0  0
   10.1297   -1.6575   23.2324 C   0  0  0  0  0  0  0  0  0  0  0  0
    9.4684   -1.6929   26.7263 F   0  0  0  0  0  0  0  0  0  0  0  0
    7.7963   -7.7906   17.9837 C   0  0  0  0  0  0  0  0  0  0  0  0
   10.5884   -3.0725   16.7902 O   0  0  0  0  0  0  0  0  0  0  0  0
   10.4323   -5.3494   20.3516 C   0  0  0  0  0  0  0  0  0  0  0  0
    7.1156   -7.5454   16.8218 C   0  0  0  0  0  0  0  0  0  0  0  0
   10.3885   -4.4388   19.2773 C   0  0  0  0  0  0  0  0  0  0  0  0
    4.5160   -9.3822   15.0841 C   0  0  0  0  0  0  0  0  0  0  0  0
  1  3  4  0
  1 24  4  0
  2  6  4  0
  2 15  4  0
  3  5  4  0
  3  6  4  0
  4 21  4  0
  4 29  4  0
  5 15  4  0
  5 28  1  0
  6 16  4  0
  7 18  4  0
  7 26  4  0
  8 18  1  0
  8 19  4  0
  8 22  4  0
  9 12  4  0
  9 19  4  0
 10 12  4  0
 10 22  4  0
 11 20  4  0
 11 21  4  0
 12 23  1  0
 13 20  4  0
 13 29  4  0
 14 17  4  0
 14 28  4  0
 15 25  2  0
 16 27  4  0
 17 18  4  0
 20 27  1  0
 24 27  4  0
 26 28  4  0
M  END
$$$$

 Created by Python create_sdf_string function

 29 33  0  0  0  0  0  0  0  0999 V2000
    8.8270   -7.0288   18.4251 C   0  0  0  0  0  0  0  0  0  0  0  0
    9.1576   -4.6236   15.8860 O   0  0  0  0  0  0  0  0  0  0  0  0
    9.1509   -5.9108   17.7177 C   0  0  0  0  0  0  0  0  0  0  0  0
    3.6373   -9.5349   16.0582 N   0  0  0  0  0  0  0  0  0  0  0  0
    9.9275   -4.8001   18.0438 N   0  0  0  0  0  0  0  0  0  0  0  0
    8.5908   -5.7425   16.4412 C   0  0  0  0  0  0  0  0  0  0  0  0
   10.5993   -4.8981   21.6068 C   0  0  0  0  0  0  0  0  0  0  0  0
   10.4258   -3.0106   23.0998 C   0  0  0  0  0  0  0  0  0  0  0  0
   10.2148   -3.4364   25.4200 C   0  0  0  0  0  0  0  0  0  0  0  0
    9.7853   -1.1840   24.4927 C   0  0  0  0  0  0  0  0  0  0  0  0
    5.0276   -8.5227   17.5352 C   0  0  0  0  0  0  0  0  0  0  0  0
    9.8187   -2.0895   25.5800 C   0  0  0  0  0  0  0  0  0  0  0  0
    5.6473   -8.7216   15.3158 C   0  0  0  0  0  0  0  0  0  0  0  0
   10.7581   -3.1233   19.4720 N   0  0  0  0  0  0  0  0  0  0  0  0
    9.9571   -4.0573   16.8866 C   0  0  0  0  0  0  0  0  0  0  0  0
    7.6213   -6.5618   16.0087 C   0  0  0  0  0  0  0  0  0  0  0  0
   10.8583   -2.6527   20.7222 C   0  0  0  0  0  0  0  0  0  0  0  0
   10.6412   -3.5089   21.7936 C   0  0  0  0  0  0  0  0  0  0  0  0
   10.4972   -3.8968   24.1589 C   0  0  0  0  0  0  0  0  0  0  0  0
    5.9260   -8.2736   16.5517 C   0  0  0  0  0  0  0  0  0  0  0  0
    3.8816   -9.1166   17.2493 C   0  0  0  0  0  0  0  0  0  0  0  0
   10.1297   -1.6575   23.2324 C   0  0  0  0  0  0  0  0  0  0  0  0
    9.4684   -1.6929   26.7263 F   0  0  0  0  0  0  0  0  0  0  0  0
    7.7963   -7.7906   17.9837 C   0  0  0  0  0  0  0  0  0  0  0  0
   10.5884   -3.0725   16.7902 O   0  0  0  0  0  0  0  0  0  0  0  0
   10.4323   -5.3494   20.3516 C   0  0  0  0  0  0  0  0  0  0  0  0
    7.1156   -7.5454   16.8218 C   0  0  0  0  0  0  0  0  0  0  0  0
   10.3885   -4.4388   19.2773 C   0  0  0  0  0  0  0  0  0  0  0  0
    4.5160   -9.3822   15.0841 C   0  0  0  0  0  0  0  0  0  0  0  0
  1  3  4  0
  1 24  4  0
  2  6  4  0
  2 15  4  0
  3  5  4  0
  3  6  4  0
  4 21  4  0
  4 29  4  0
  5 15  4  0
  5 28  1  0
  6 16  4  0
  7 18  4  0
  7 26  4  0
  8 18  1  0
  8 19  4  0
  8 22  4  0
  9 12  4  0
  9 19  4  0
 10 12  4  0
 10 22  4  0
 11 20  4  0
 11 21  4  0
 12 23  1  0
 13 20  4  0
 13 29  4  0
 14 17  4  0
 14 28  4  0
 15 25  2  0
 16 27  4  0
 17 18  4  0
 20 27  1  0
 24 27  4  0
 26 28  4  0
M  END
$$$$

 Created by Python create_sdf_string function

 29 33  0  0  0  0  0  0  0  0999 V2000
    8.8270   -7.0288   18.4251 C   0  0  0  0  0  0  0  0  0  0  0  0
    9.1576   -4.6236   15.8860 O   0  0  0  0  0  0  0  0  0  0  0  0
    9.1509   -5.9108   17.7177 C   0  0  0  0  0  0  0  0  0  0  0  0
    3.6373   -9.5349   16.0582 N   0  0  0  0  0  0  0  0  0  0  0  0
    9.9275   -4.8001   18.0438 N   0  0  0  0  0  0  0  0  0  0  0  0
    8.5908   -5.7425   16.4412 C   0  0  0  0  0  0  0  0  0  0  0  0
   10.5993   -4.8981   21.6068 C   0  0  0  0  0  0  0  0  0  0  0  0
   10.4258   -3.0106   23.0998 C   0  0  0  0  0  0  0  0  0  0  0  0
   10.2148   -3.4364   25.4200 C   0  0  0  0  0  0  0  0  0  0  0  0
    9.7853   -1.1840   24.4927 C   0  0  0  0  0  0  0  0  0  0  0  0
    5.0276   -8.5227   17.5352 C   0  0  0  0  0  0  0  0  0  0  0  0
    9.8187   -2.0895   25.5800 C   0  0  0  0  0  0  0  0  0  0  0  0
    5.6473   -8.7216   15.3158 C   0  0  0  0  0  0  0  0  0  0  0  0
   10.7581   -3.1233   19.4720 N   0  0  0  0  0  0  0  0  0  0  0  0
    9.9571   -4.0573   16.8866 C   0  0  0  0  0  0  0  0  0  0  0  0
    7.6213   -6.5618   16.0087 C   0  0  0  0  0  0  0  0  0  0  0  0
   10.8583   -2.6527   20.7222 C   0  0  0  0  0  0  0  0  0  0  0  0
   10.6412   -3.5089   21.7936 C   0  0  0  0  0  0  0  0  0  0  0  0
   10.4972   -3.8968   24.1589 C   0  0  0  0  0  0  0  0  0  0  0  0
    5.9260   -8.2736   16.5517 C   0  0  0  0  0  0  0  0  0  0  0  0
    3.8816   -9.1166   17.2493 C   0  0  0  0  0  0  0  0  0  0  0  0
   10.1297   -1.6575   23.2324 C   0  0  0  0  0  0  0  0  0  0  0  0
    9.4684   -1.6929   26.7263 F   0  0  0  0  0  0  0  0  0  0  0  0
    7.7963   -7.7906   17.9837 C   0  0  0  0  0  0  0  0  0  0  0  0
   10.5884   -3.0725   16.7902 O   0  0  0  0  0  0  0  0  0  0  0  0
   10.4323   -5.3494   20.3516 C   0  0  0  0  0  0  0  0  0  0  0  0
    7.1156   -7.5454   16.8218 C   0  0  0  0  0  0  0  0  0  0  0  0
   10.3885   -4.4388   19.2773 C   0  0  0  0  0  0  0  0  0  0  0  0
    4.5160   -9.3822   15.0841 C   0  0  0  0  0  0  0  0  0  0  0  0
  1  3  4  0
  1 24  4  0
  2  6  4  0
  2 15  4  0
  3  5  4  0
  3  6  4  0
  4 21  4  0
  4 29  4  0
  5 15  4  0
  5 28  1  0
  6 16  4  0
  7 18  4  0
  7 26  4  0
  8 18  1  0
  8 19  4  0
  8 22  4  0
  9 12  4  0
  9 19  4  0
 10 12  4  0
 10 22  4  0
 11 20  4  0
 11 21  4  0
 12 23  1  0
 13 20  4  0
 13 29  4  0
 14 17  4  0
 14 28  4  0
 15 25  2  0
 16 27  4  0
 17 18  4  0
 20 27  1  0
 24 27  4  0
 26 28  4  0
M  END
$$$$

 Created by Python create_sdf_string function

 29 33  0  0  0  0  0  0  0  0999 V2000
    8.8270   -7.0288   18.4251 C   0  0  0  0  0  0  0  0  0  0  0  0
    9.1576   -4.6236   15.8860 O   0  0  0  0  0  0  0  0  0  0  0  0
    9.1509   -5.9108   17.7177 C   0  0  0  0  0  0  0  0  0  0  0  0
    3.6373   -9.5349   16.0582 N   0  0  0  0  0  0  0  0  0  0  0  0
    9.9275   -4.8001   18.0438 N   0  0  0  0  0  0  0  0  0  0  0  0
    8.5908   -5.7425   16.4412 C   0  0  0  0  0  0  0  0  0  0  0  0
   10.5993   -4.8981   21.6068 C   0  0  0  0  0  0  0  0  0  0  0  0
   10.4258   -3.0106   23.0998 C   0  0  0  0  0  0  0  0  0  0  0  0
   10.2148   -3.4364   25.4200 C   0  0  0  0  0  0  0  0  0  0  0  0
    9.7853   -1.1840   24.4927 C   0  0  0  0  0  0  0  0  0  0  0  0
    5.0276   -8.5227   17.5352 C   0  0  0  0  0  0  0  0  0  0  0  0
    9.8187   -2.0895   25.5800 C   0  0  0  0  0  0  0  0  0  0  0  0
    5.6473   -8.7216   15.3158 C   0  0  0  0  0  0  0  0  0  0  0  0
   10.7581   -3.1233   19.4720 N   0  0  0  0  0  0  0  0  0  0  0  0
    9.9571   -4.0573   16.8866 C   0  0  0  0  0  0  0  0  0  0  0  0
    7.6213   -6.5618   16.0087 C   0  0  0  0  0  0  0  0  0  0  0  0
   10.8583   -2.6527   20.7222 C   0  0  0  0  0  0  0  0  0  0  0  0
   10.6412   -3.5089   21.7936 C   0  0  0  0  0  0  0  0  0  0  0  0
   10.4972   -3.8968   24.1589 C   0  0  0  0  0  0  0  0  0  0  0  0
    5.9260   -8.2736   16.5517 C   0  0  0  0  0  0  0  0  0  0  0  0
    3.8816   -9.1166   17.2493 C   0  0  0  0  0  0  0  0  0  0  0  0
   10.1297   -1.6575   23.2324 C   0  0  0  0  0  0  0  0  0  0  0  0
    9.4684   -1.6929   26.7263 F   0  0  0  0  0  0  0  0  0  0  0  0
    7.7963   -7.7906   17.9837 C   0  0  0  0  0  0  0  0  0  0  0  0
   10.5884   -3.0725   16.7902 O   0  0  0  0  0  0  0  0  0  0  0  0
   10.4323   -5.3494   20.3516 C   0  0  0  0  0  0  0  0  0  0  0  0
    7.1156   -7.5454   16.8218 C   0  0  0  0  0  0  0  0  0  0  0  0
   10.3885   -4.4388   19.2773 C   0  0  0  0  0  0  0  0  0  0  0  0
    4.5160   -9.3822   15.0841 C   0  0  0  0  0  0  0  0  0  0  0  0
  1  3  4  0
  1 24  4  0
  2  6  4  0
  2 15  4  0
  3  5  4  0
  3  6  4  0
  4 21  4  0
  4 29  4  0
  5 15  4  0
  5 28  1  0
  6 16  4  0
  7 18  4  0
  7 26  4  0
  8 18  1  0
  8 19  4  0
  8 22  4  0
  9 12  4  0
  9 19  4  0
 10 12  4  0
 10 22  4  0
 11 20  4  0
 11 21  4  0
 12 23  1  0
 13 20  4  0
 13 29  4  0
 14 17  4  0
 14 28  4  0
 15 25  2  0
 16 27  4  0
 17 18  4  0
 20 27  1  0
 24 27  4  0
 26 28  4  0
M  END
$$$$

 Created by Python create_sdf_string function

 29 33  0  0  0  0  0  0  0  0999 V2000
    8.8270   -7.0288   18.4251 C   0  0  0  0  0  0  0  0  0  0  0  0
    9.1576   -4.6236   15.8860 O   0  0  0  0  0  0  0  0  0  0  0  0
    9.1509   -5.9108   17.7177 C   0  0  0  0  0  0  0  0  0  0  0  0
    3.6373   -9.5349   16.0582 N   0  0  0  0  0  0  0  0  0  0  0  0
    9.9275   -4.8001   18.0438 N   0  0  0  0  0  0  0  0  0  0  0  0
    8.5908   -5.7425   16.4412 C   0  0  0  0  0  0  0  0  0  0  0  0
   10.5993   -4.8981   21.6068 C   0  0  0  0  0  0  0  0  0  0  0  0
   10.4258   -3.0106   23.0998 C   0  0  0  0  0  0  0  0  0  0  0  0
   10.2148   -3.4364   25.4200 C   0  0  0  0  0  0  0  0  0  0  0  0
    9.7853   -1.1840   24.4927 C   0  0  0  0  0  0  0  0  0  0  0  0
    5.0276   -8.5227   17.5352 C   0  0  0  0  0  0  0  0  0  0  0  0
    9.8187   -2.0895   25.5800 C   0  0  0  0  0  0  0  0  0  0  0  0
    5.6473   -8.7216   15.3158 C   0  0  0  0  0  0  0  0  0  0  0  0
   10.7581   -3.1233   19.4720 N   0  0  0  0  0  0  0  0  0  0  0  0
    9.9571   -4.0573   16.8866 C   0  0  0  0  0  0  0  0  0  0  0  0
    7.6213   -6.5618   16.0087 C   0  0  0  0  0  0  0  0  0  0  0  0
   10.8583   -2.6527   20.7222 C   0  0  0  0  0  0  0  0  0  0  0  0
   10.6412   -3.5089   21.7936 C   0  0  0  0  0  0  0  0  0  0  0  0
   10.4972   -3.8968   24.1589 C   0  0  0  0  0  0  0  0  0  0  0  0
    5.9260   -8.2736   16.5517 C   0  0  0  0  0  0  0  0  0  0  0  0
    3.8816   -9.1166   17.2493 C   0  0  0  0  0  0  0  0  0  0  0  0
   10.1297   -1.6575   23.2324 C   0  0  0  0  0  0  0  0  0  0  0  0
    9.4684   -1.6929   26.7263 F   0  0  0  0  0  0  0  0  0  0  0  0
    7.7963   -7.7906   17.9837 C   0  0  0  0  0  0  0  0  0  0  0  0
   10.5884   -3.0725   16.7902 O   0  0  0  0  0  0  0  0  0  0  0  0
   10.4323   -5.3494   20.3516 C   0  0  0  0  0  0  0  0  0  0  0  0
    7.1156   -7.5454   16.8218 C   0  0  0  0  0  0  0  0  0  0  0  0
   10.3885   -4.4388   19.2773 C   0  0  0  0  0  0  0  0  0  0  0  0
    4.5160   -9.3822   15.0841 C   0  0  0  0  0  0  0  0  0  0  0  0
  1  3  4  0
  1 24  4  0
  2  6  4  0
  2 15  4  0
  3  5  4  0
  3  6  4  0
  4 21  4  0
  4 29  4  0
  5 15  4  0
  5 28  1  0
  6 16  4  0
  7 18  4  0
  7 26  4  0
  8 18  1  0
  8 19  4  0
  8 22  4  0
  9 12  4  0
  9 19  4  0
 10 12  4  0
 10 22  4  0
 11 20  4  0
 11 21  4  0
 12 23  1  0
 13 20  4  0
 13 29  4  0
 14 17  4  0
 14 28  4  0
 15 25  2  0
 16 27  4  0
 17 18  4  0
 20 27  1  0
 24 27  4  0
 26 28  4  0
M  END
$$$$

 Created by Python create_sdf_string function

 29 33  0  0  0  0  0  0  0  0999 V2000
    8.8270   -7.0288   18.4251 C   0  0  0  0  0  0  0  0  0  0  0  0
    9.1576   -4.6236   15.8860 O   0  0  0  0  0  0  0  0  0  0  0  0
    9.1509   -5.9108   17.7177 C   0  0  0  0  0  0  0  0  0  0  0  0
    3.6373   -9.5349   16.0582 N   0  0  0  0  0  0  0  0  0  0  0  0
    9.9275   -4.8001   18.0438 N   0  0  0  0  0  0  0  0  0  0  0  0
    8.5908   -5.7425   16.4412 C   0  0  0  0  0  0  0  0  0  0  0  0
   10.5993   -4.8981   21.6068 C   0  0  0  0  0  0  0  0  0  0  0  0
   10.4258   -3.0106   23.0998 C   0  0  0  0  0  0  0  0  0  0  0  0
   10.2148   -3.4364   25.4200 C   0  0  0  0  0  0  0  0  0  0  0  0
    9.7853   -1.1840   24.4927 C   0  0  0  0  0  0  0  0  0  0  0  0
    5.0276   -8.5227   17.5352 C   0  0  0  0  0  0  0  0  0  0  0  0
    9.8187   -2.0895   25.5800 C   0  0  0  0  0  0  0  0  0  0  0  0
    5.6473   -8.7216   15.3158 C   0  0  0  0  0  0  0  0  0  0  0  0
   10.7581   -3.1233   19.4720 N   0  0  0  0  0  0  0  0  0  0  0  0
    9.9571   -4.0573   16.8866 C   0  0  0  0  0  0  0  0  0  0  0  0
    7.6213   -6.5618   16.0087 C   0  0  0  0  0  0  0  0  0  0  0  0
   10.8583   -2.6527   20.7222 C   0  0  0  0  0  0  0  0  0  0  0  0
   10.6412   -3.5089   21.7936 C   0  0  0  0  0  0  0  0  0  0  0  0
   10.4972   -3.8968   24.1589 C   0  0  0  0  0  0  0  0  0  0  0  0
    5.9260   -8.2736   16.5517 C   0  0  0  0  0  0  0  0  0  0  0  0
    3.8816   -9.1166   17.2493 C   0  0  0  0  0  0  0  0  0  0  0  0
   10.1297   -1.6575   23.2324 C   0  0  0  0  0  0  0  0  0  0  0  0
    9.4684   -1.6929   26.7263 F   0  0  0  0  0  0  0  0  0  0  0  0
    7.7963   -7.7906   17.9837 C   0  0  0  0  0  0  0  0  0  0  0  0
   10.5884   -3.0725   16.7902 O   0  0  0  0  0  0  0  0  0  0  0  0
   10.4323   -5.3494   20.3516 C   0  0  0  0  0  0  0  0  0  0  0  0
    7.1156   -7.5454   16.8218 C   0  0  0  0  0  0  0  0  0  0  0  0
   10.3885   -4.4388   19.2773 C   0  0  0  0  0  0  0  0  0  0  0  0
    4.5160   -9.3822   15.0841 C   0  0  0  0  0  0  0  0  0  0  0  0
  1  3  4  0
  1 24  4  0
  2  6  4  0
  2 15  4  0
  3  5  4  0
  3  6  4  0
  4 21  4  0
  4 29  4  0
  5 15  4  0
  5 28  1  0
  6 16  4  0
  7 18  4  0
  7 26  4  0
  8 18  1  0
  8 19  4  0
  8 22  4  0
  9 12  4  0
  9 19  4  0
 10 12  4  0
 10 22  4  0
 11 20  4  0
 11 21  4  0
 12 23  1  0
 13 20  4  0
 13 29  4  0
 14 17  4  0
 14 28  4  0
 15 25  2  0
 16 27  4  0
 17 18  4  0
 20 27  1  0
 24 27  4  0
 26 28  4  0
M  END
$$$$

 Created by Python create_sdf_string function

 29 33  0  0  0  0  0  0  0  0999 V2000
    8.8270   -7.0288   18.4251 C   0  0  0  0  0  0  0  0  0  0  0  0
    9.1576   -4.6236   15.8860 O   0  0  0  0  0  0  0  0  0  0  0  0
    9.1509   -5.9108   17.7177 C   0  0  0  0  0  0  0  0  0  0  0  0
    3.6373   -9.5349   16.0582 N   0  0  0  0  0  0  0  0  0  0  0  0
    9.9275   -4.8001   18.0438 N   0  0  0  0  0  0  0  0  0  0  0  0
    8.5908   -5.7425   16.4412 C   0  0  0  0  0  0  0  0  0  0  0  0
   10.5993   -4.8981   21.6068 C   0  0  0  0  0  0  0  0  0  0  0  0
   10.4258   -3.0106   23.0998 C   0  0  0  0  0  0  0  0  0  0  0  0
   10.2148   -3.4364   25.4200 C   0  0  0  0  0  0  0  0  0  0  0  0
    9.7853   -1.1840   24.4927 C   0  0  0  0  0  0  0  0  0  0  0  0
    5.0276   -8.5227   17.5352 C   0  0  0  0  0  0  0  0  0  0  0  0
    9.8187   -2.0895   25.5800 C   0  0  0  0  0  0  0  0  0  0  0  0
    5.6473   -8.7216   15.3158 C   0  0  0  0  0  0  0  0  0  0  0  0
   10.7581   -3.1233   19.4720 N   0  0  0  0  0  0  0  0  0  0  0  0
    9.9571   -4.0573   16.8866 C   0  0  0  0  0  0  0  0  0  0  0  0
    7.6213   -6.5618   16.0087 C   0  0  0  0  0  0  0  0  0  0  0  0
   10.8583   -2.6527   20.7222 C   0  0  0  0  0  0  0  0  0  0  0  0
   10.6412   -3.5089   21.7936 C   0  0  0  0  0  0  0  0  0  0  0  0
   10.4972   -3.8968   24.1589 C   0  0  0  0  0  0  0  0  0  0  0  0
    5.9260   -8.2736   16.5517 C   0  0  0  0  0  0  0  0  0  0  0  0
    3.8816   -9.1166   17.2493 C   0  0  0  0  0  0  0  0  0  0  0  0
   10.1297   -1.6575   23.2324 C   0  0  0  0  0  0  0  0  0  0  0  0
    9.4684   -1.6929   26.7263 F   0  0  0  0  0  0  0  0  0  0  0  0
    7.7963   -7.7906   17.9837 C   0  0  0  0  0  0  0  0  0  0  0  0
   10.5884   -3.0725   16.7902 O   0  0  0  0  0  0  0  0  0  0  0  0
   10.4323   -5.3494   20.3516 C   0  0  0  0  0  0  0  0  0  0  0  0
    7.1156   -7.5454   16.8218 C   0  0  0  0  0  0  0  0  0  0  0  0
   10.3885   -4.4388   19.2773 C   0  0  0  0  0  0  0  0  0  0  0  0
    4.5160   -9.3822   15.0841 C   0  0  0  0  0  0  0  0  0  0  0  0
  1  3  4  0
  1 24  4  0
  2  6  4  0
  2 15  4  0
  3  5  4  0
  3  6  4  0
  4 21  4  0
  4 29  4  0
  5 15  4  0
  5 28  1  0
  6 16  4  0
  7 18  4  0
  7 26  4  0
  8 18  1  0
  8 19  4  0
  8 22  4  0
  9 12  4  0
  9 19  4  0
 10 12  4  0
 10 22  4  0
 11 20  4  0
 11 21  4  0
 12 23  1  0
 13 20  4  0
 13 29  4  0
 14 17  4  0
 14 28  4  0
 15 25  2  0
 16 27  4  0
 17 18  4  0
 20 27  1  0
 24 27  4  0
 26 28  4  0
M  END
$$$$

 Created by Python create_sdf_string function

 29 33  0  0  0  0  0  0  0  0999 V2000
    8.8270   -7.0288   18.4251 C   0  0  0  0  0  0  0  0  0  0  0  0
    9.1576   -4.6236   15.8860 O   0  0  0  0  0  0  0  0  0  0  0  0
    9.1509   -5.9108   17.7177 C   0  0  0  0  0  0  0  0  0  0  0  0
    3.6373   -9.5349   16.0582 N   0  0  0  0  0  0  0  0  0  0  0  0
    9.9275   -4.8001   18.0438 N   0  0  0  0  0  0  0  0  0  0  0  0
    8.5908   -5.7425   16.4412 C   0  0  0  0  0  0  0  0  0  0  0  0
   10.5993   -4.8981   21.6068 C   0  0  0  0  0  0  0  0  0  0  0  0
   10.4258   -3.0106   23.0998 C   0  0  0  0  0  0  0  0  0  0  0  0
   10.2148   -3.4364   25.4200 C   0  0  0  0  0  0  0  0  0  0  0  0
    9.7853   -1.1840   24.4927 C   0  0  0  0  0  0  0  0  0  0  0  0
    5.0276   -8.5227   17.5352 C   0  0  0  0  0  0  0  0  0  0  0  0
    9.8187   -2.0895   25.5800 C   0  0  0  0  0  0  0  0  0  0  0  0
    5.6473   -8.7216   15.3158 C   0  0  0  0  0  0  0  0  0  0  0  0
   10.7581   -3.1233   19.4720 N   0  0  0  0  0  0  0  0  0  0  0  0
    9.9571   -4.0573   16.8866 C   0  0  0  0  0  0  0  0  0  0  0  0
    7.6213   -6.5618   16.0087 C   0  0  0  0  0  0  0  0  0  0  0  0
   10.8583   -2.6527   20.7222 C   0  0  0  0  0  0  0  0  0  0  0  0
   10.6412   -3.5089   21.7936 C   0  0  0  0  0  0  0  0  0  0  0  0
   10.4972   -3.8968   24.1589 C   0  0  0  0  0  0  0  0  0  0  0  0
    5.9260   -8.2736   16.5517 C   0  0  0  0  0  0  0  0  0  0  0  0
    3.8816   -9.1166   17.2493 C   0  0  0  0  0  0  0  0  0  0  0  0
   10.1297   -1.6575   23.2324 C   0  0  0  0  0  0  0  0  0  0  0  0
    9.4684   -1.6929   26.7263 F   0  0  0  0  0  0  0  0  0  0  0  0
    7.7963   -7.7906   17.9837 C   0  0  0  0  0  0  0  0  0  0  0  0
   10.5884   -3.0725   16.7902 O   0  0  0  0  0  0  0  0  0  0  0  0
   10.4323   -5.3494   20.3516 C   0  0  0  0  0  0  0  0  0  0  0  0
    7.1156   -7.5454   16.8218 C   0  0  0  0  0  0  0  0  0  0  0  0
   10.3885   -4.4388   19.2773 C   0  0  0  0  0  0  0  0  0  0  0  0
    4.5160   -9.3822   15.0841 C   0  0  0  0  0  0  0  0  0  0  0  0
  1  3  4  0
  1 24  4  0
  2  6  4  0
  2 15  4  0
  3  5  4  0
  3  6  4  0
  4 21  4  0
  4 29  4  0
  5 15  4  0
  5 28  1  0
  6 16  4  0
  7 18  4  0
  7 26  4  0
  8 18  1  0
  8 19  4  0
  8 22  4  0
  9 12  4  0
  9 19  4  0
 10 12  4  0
 10 22  4  0
 11 20  4  0
 11 21  4  0
 12 23  1  0
 13 20  4  0
 13 29  4  0
 14 17  4  0
 14 28  4  0
 15 25  2  0
 16 27  4  0
 17 18  4  0
 20 27  1  0
 24 27  4  0
 26 28  4  0
M  END
$$$$

 Created by Python create_sdf_string function

 29 33  0  0  0  0  0  0  0  0999 V2000
    8.8270   -7.0288   18.4251 C   0  0  0  0  0  0  0  0  0  0  0  0
    9.1576   -4.6236   15.8860 O   0  0  0  0  0  0  0  0  0  0  0  0
    9.1509   -5.9108   17.7177 C   0  0  0  0  0  0  0  0  0  0  0  0
    3.6373   -9.5349   16.0582 N   0  0  0  0  0  0  0  0  0  0  0  0
    9.9275   -4.8001   18.0438 N   0  0  0  0  0  0  0  0  0  0  0  0
    8.5908   -5.7425   16.4412 C   0  0  0  0  0  0  0  0  0  0  0  0
   10.5993   -4.8981   21.6068 C   0  0  0  0  0  0  0  0  0  0  0  0
   10.4258   -3.0106   23.0998 C   0  0  0  0  0  0  0  0  0  0  0  0
   10.2148   -3.4364   25.4200 C   0  0  0  0  0  0  0  0  0  0  0  0
    9.7853   -1.1840   24.4927 C   0  0  0  0  0  0  0  0  0  0  0  0
    5.0276   -8.5227   17.5352 C   0  0  0  0  0  0  0  0  0  0  0  0
    9.8187   -2.0895   25.5800 C   0  0  0  0  0  0  0  0  0  0  0  0
    5.6473   -8.7216   15.3158 C   0  0  0  0  0  0  0  0  0  0  0  0
   10.7581   -3.1233   19.4720 N   0  0  0  0  0  0  0  0  0  0  0  0
    9.9571   -4.0573   16.8866 C   0  0  0  0  0  0  0  0  0  0  0  0
    7.6213   -6.5618   16.0087 C   0  0  0  0  0  0  0  0  0  0  0  0
   10.8583   -2.6527   20.7222 C   0  0  0  0  0  0  0  0  0  0  0  0
   10.6412   -3.5089   21.7936 C   0  0  0  0  0  0  0  0  0  0  0  0
   10.4972   -3.8968   24.1589 C   0  0  0  0  0  0  0  0  0  0  0  0
    5.9260   -8.2736   16.5517 C   0  0  0  0  0  0  0  0  0  0  0  0
    3.8816   -9.1166   17.2493 C   0  0  0  0  0  0  0  0  0  0  0  0
   10.1297   -1.6575   23.2324 C   0  0  0  0  0  0  0  0  0  0  0  0
    9.4684   -1.6929   26.7263 F   0  0  0  0  0  0  0  0  0  0  0  0
    7.7963   -7.7906   17.9837 C   0  0  0  0  0  0  0  0  0  0  0  0
   10.5884   -3.0725   16.7902 O   0  0  0  0  0  0  0  0  0  0  0  0
   10.4323   -5.3494   20.3516 C   0  0  0  0  0  0  0  0  0  0  0  0
    7.1156   -7.5454   16.8218 C   0  0  0  0  0  0  0  0  0  0  0  0
   10.3885   -4.4388   19.2773 C   0  0  0  0  0  0  0  0  0  0  0  0
    4.5160   -9.3822   15.0841 C   0  0  0  0  0  0  0  0  0  0  0  0
  1  3  4  0
  1 24  4  0
  2  6  4  0
  2 15  4  0
  3  5  4  0
  3  6  4  0
  4 21  4  0
  4 29  4  0
  5 15  4  0
  5 28  1  0
  6 16  4  0
  7 18  4  0
  7 26  4  0
  8 18  1  0
  8 19  4  0
  8 22  4  0
  9 12  4  0
  9 19  4  0
 10 12  4  0
 10 22  4  0
 11 20  4  0
 11 21  4  0
 12 23  1  0
 13 20  4  0
 13 29  4  0
 14 17  4  0
 14 28  4  0
 15 25  2  0
 16 27  4  0
 17 18  4  0
 20 27  1  0
 24 27  4  0
 26 28  4  0
M  END
$$$$

 Created by Python create_sdf_string function

 29 33  0  0  0  0  0  0  0  0999 V2000
    8.8270   -7.0288   18.4251 C   0  0  0  0  0  0  0  0  0  0  0  0
    9.1576   -4.6236   15.8860 O   0  0  0  0  0  0  0  0  0  0  0  0
    9.1509   -5.9108   17.7177 C   0  0  0  0  0  0  0  0  0  0  0  0
    3.6373   -9.5349   16.0582 N   0  0  0  0  0  0  0  0  0  0  0  0
    9.9275   -4.8001   18.0438 N   0  0  0  0  0  0  0  0  0  0  0  0
    8.5908   -5.7425   16.4412 C   0  0  0  0  0  0  0  0  0  0  0  0
   10.5993   -4.8981   21.6068 C   0  0  0  0  0  0  0  0  0  0  0  0
   10.4258   -3.0106   23.0998 C   0  0  0  0  0  0  0  0  0  0  0  0
   10.2148   -3.4364   25.4200 C   0  0  0  0  0  0  0  0  0  0  0  0
    9.7853   -1.1840   24.4927 C   0  0  0  0  0  0  0  0  0  0  0  0
    5.0276   -8.5227   17.5352 C   0  0  0  0  0  0  0  0  0  0  0  0
    9.8187   -2.0895   25.5800 C   0  0  0  0  0  0  0  0  0  0  0  0
    5.6473   -8.7216   15.3158 C   0  0  0  0  0  0  0  0  0  0  0  0
   10.7581   -3.1233   19.4720 N   0  0  0  0  0  0  0  0  0  0  0  0
    9.9571   -4.0573   16.8866 C   0  0  0  0  0  0  0  0  0  0  0  0
    7.6213   -6.5618   16.0087 C   0  0  0  0  0  0  0  0  0  0  0  0
   10.8583   -2.6527   20.7222 C   0  0  0  0  0  0  0  0  0  0  0  0
   10.6412   -3.5089   21.7936 C   0  0  0  0  0  0  0  0  0  0  0  0
   10.4972   -3.8968   24.1589 C   0  0  0  0  0  0  0  0  0  0  0  0
    5.9260   -8.2736   16.5517 C   0  0  0  0  0  0  0  0  0  0  0  0
    3.8816   -9.1166   17.2493 C   0  0  0  0  0  0  0  0  0  0  0  0
   10.1297   -1.6575   23.2324 C   0  0  0  0  0  0  0  0  0  0  0  0
    9.4684   -1.6929   26.7263 F   0  0  0  0  0  0  0  0  0  0  0  0
    7.7963   -7.7906   17.9837 C   0  0  0  0  0  0  0  0  0  0  0  0
   10.5884   -3.0725   16.7902 O   0  0  0  0  0  0  0  0  0  0  0  0
   10.4323   -5.3494   20.3516 C   0  0  0  0  0  0  0  0  0  0  0  0
    7.1156   -7.5454   16.8218 C   0  0  0  0  0  0  0  0  0  0  0  0
   10.3885   -4.4388   19.2773 C   0  0  0  0  0  0  0  0  0  0  0  0
    4.5160   -9.3822   15.0841 C   0  0  0  0  0  0  0  0  0  0  0  0
  1  3  4  0
  1 24  4  0
  2  6  4  0
  2 15  4  0
  3  5  4  0
  3  6  4  0
  4 21  4  0
  4 29  4  0
  5 15  4  0
  5 28  1  0
  6 16  4  0
  7 18  4  0
  7 26  4  0
  8 18  1  0
  8 19  4  0
  8 22  4  0
  9 12  4  0
  9 19  4  0
 10 12  4  0
 10 22  4  0
 11 20  4  0
 11 21  4  0
 12 23  1  0
 13 20  4  0
 13 29  4  0
 14 17  4  0
 14 28  4  0
 15 25  2  0
 16 27  4  0
 17 18  4  0
 20 27  1  0
 24 27  4  0
 26 28  4  0
M  END
$$$$

 Created by Python create_sdf_string function

 29 33  0  0  0  0  0  0  0  0999 V2000
    8.8270   -7.0288   18.4251 C   0  0  0  0  0  0  0  0  0  0  0  0
    9.1576   -4.6236   15.8860 O   0  0  0  0  0  0  0  0  0  0  0  0
    9.1509   -5.9108   17.7177 C   0  0  0  0  0  0  0  0  0  0  0  0
    3.6373   -9.5349   16.0582 N   0  0  0  0  0  0  0  0  0  0  0  0
    9.9275   -4.8001   18.0438 N   0  0  0  0  0  0  0  0  0  0  0  0
    8.5908   -5.7425   16.4412 C   0  0  0  0  0  0  0  0  0  0  0  0
   10.5993   -4.8981   21.6068 C   0  0  0  0  0  0  0  0  0  0  0  0
   10.4258   -3.0106   23.0998 C   0  0  0  0  0  0  0  0  0  0  0  0
   10.2148   -3.4364   25.4200 C   0  0  0  0  0  0  0  0  0  0  0  0
    9.7853   -1.1840   24.4927 C   0  0  0  0  0  0  0  0  0  0  0  0
    5.0276   -8.5227   17.5352 C   0  0  0  0  0  0  0  0  0  0  0  0
    9.8187   -2.0895   25.5800 C   0  0  0  0  0  0  0  0  0  0  0  0
    5.6473   -8.7216   15.3158 C   0  0  0  0  0  0  0  0  0  0  0  0
   10.7581   -3.1233   19.4720 N   0  0  0  0  0  0  0  0  0  0  0  0
    9.9571   -4.0573   16.8866 C   0  0  0  0  0  0  0  0  0  0  0  0
    7.6213   -6.5618   16.0087 C   0  0  0  0  0  0  0  0  0  0  0  0
   10.8583   -2.6527   20.7222 C   0  0  0  0  0  0  0  0  0  0  0  0
   10.6412   -3.5089   21.7936 C   0  0  0  0  0  0  0  0  0  0  0  0
   10.4972   -3.8968   24.1589 C   0  0  0  0  0  0  0  0  0  0  0  0
    5.9260   -8.2736   16.5517 C   0  0  0  0  0  0  0  0  0  0  0  0
    3.8816   -9.1166   17.2493 C   0  0  0  0  0  0  0  0  0  0  0  0
   10.1297   -1.6575   23.2324 C   0  0  0  0  0  0  0  0  0  0  0  0
    9.4684   -1.6929   26.7263 F   0  0  0  0  0  0  0  0  0  0  0  0
    7.7963   -7.7906   17.9837 C   0  0  0  0  0  0  0  0  0  0  0  0
   10.5884   -3.0725   16.7902 O   0  0  0  0  0  0  0  0  0  0  0  0
   10.4323   -5.3494   20.3516 C   0  0  0  0  0  0  0  0  0  0  0  0
    7.1156   -7.5454   16.8218 C   0  0  0  0  0  0  0  0  0  0  0  0
   10.3885   -4.4388   19.2773 C   0  0  0  0  0  0  0  0  0  0  0  0
    4.5160   -9.3822   15.0841 C   0  0  0  0  0  0  0  0  0  0  0  0
  1  3  4  0
  1 24  4  0
  2  6  4  0
  2 15  4  0
  3  5  4  0
  3  6  4  0
  4 21  4  0
  4 29  4  0
  5 15  4  0
  5 28  1  0
  6 16  4  0
  7 18  4  0
  7 26  4  0
  8 18  1  0
  8 19  4  0
  8 22  4  0
  9 12  4  0
  9 19  4  0
 10 12  4  0
 10 22  4  0
 11 20  4  0
 11 21  4  0
 12 23  1  0
 13 20  4  0
 13 29  4  0
 14 17  4  0
 14 28  4  0
 15 25  2  0
 16 27  4  0
 17 18  4  0
 20 27  1  0
 24 27  4  0
 26 28  4  0
M  END
$$$$

 Created by Python create_sdf_string function

 29 33  0  0  0  0  0  0  0  0999 V2000
    8.8270   -7.0288   18.4251 C   0  0  0  0  0  0  0  0  0  0  0  0
    9.1576   -4.6236   15.8860 O   0  0  0  0  0  0  0  0  0  0  0  0
    9.1509   -5.9108   17.7177 C   0  0  0  0  0  0  0  0  0  0  0  0
    3.6373   -9.5349   16.0582 N   0  0  0  0  0  0  0  0  0  0  0  0
    9.9275   -4.8001   18.0438 N   0  0  0  0  0  0  0  0  0  0  0  0
    8.5908   -5.7425   16.4412 C   0  0  0  0  0  0  0  0  0  0  0  0
   10.5993   -4.8981   21.6068 C   0  0  0  0  0  0  0  0  0  0  0  0
   10.4258   -3.0106   23.0998 C   0  0  0  0  0  0  0  0  0  0  0  0
   10.2148   -3.4364   25.4200 C   0  0  0  0  0  0  0  0  0  0  0  0
    9.7853   -1.1840   24.4927 C   0  0  0  0  0  0  0  0  0  0  0  0
    5.0276   -8.5227   17.5352 C   0  0  0  0  0  0  0  0  0  0  0  0
    9.8187   -2.0895   25.5800 C   0  0  0  0  0  0  0  0  0  0  0  0
    5.6473   -8.7216   15.3158 C   0  0  0  0  0  0  0  0  0  0  0  0
   10.7581   -3.1233   19.4720 N   0  0  0  0  0  0  0  0  0  0  0  0
    9.9571   -4.0573   16.8866 C   0  0  0  0  0  0  0  0  0  0  0  0
    7.6213   -6.5618   16.0087 C   0  0  0  0  0  0  0  0  0  0  0  0
   10.8583   -2.6527   20.7222 C   0  0  0  0  0  0  0  0  0  0  0  0
   10.6412   -3.5089   21.7936 C   0  0  0  0  0  0  0  0  0  0  0  0
   10.4972   -3.8968   24.1589 C   0  0  0  0  0  0  0  0  0  0  0  0
    5.9260   -8.2736   16.5517 C   0  0  0  0  0  0  0  0  0  0  0  0
    3.8816   -9.1166   17.2493 C   0  0  0  0  0  0  0  0  0  0  0  0
   10.1297   -1.6575   23.2324 C   0  0  0  0  0  0  0  0  0  0  0  0
    9.4684   -1.6929   26.7263 F   0  0  0  0  0  0  0  0  0  0  0  0
    7.7963   -7.7906   17.9837 C   0  0  0  0  0  0  0  0  0  0  0  0
   10.5884   -3.0725   16.7902 O   0  0  0  0  0  0  0  0  0  0  0  0
   10.4323   -5.3494   20.3516 C   0  0  0  0  0  0  0  0  0  0  0  0
    7.1156   -7.5454   16.8218 C   0  0  0  0  0  0  0  0  0  0  0  0
   10.3885   -4.4388   19.2773 C   0  0  0  0  0  0  0  0  0  0  0  0
    4.5160   -9.3822   15.0841 C   0  0  0  0  0  0  0  0  0  0  0  0
  1  3  4  0
  1 24  4  0
  2  6  4  0
  2 15  4  0
  3  5  4  0
  3  6  4  0
  4 21  4  0
  4 29  4  0
  5 15  4  0
  5 28  1  0
  6 16  4  0
  7 18  4  0
  7 26  4  0
  8 18  1  0
  8 19  4  0
  8 22  4  0
  9 12  4  0
  9 19  4  0
 10 12  4  0
 10 22  4  0
 11 20  4  0
 11 21  4  0
 12 23  1  0
 13 20  4  0
 13 29  4  0
 14 17  4  0
 14 28  4  0
 15 25  2  0
 16 27  4  0
 17 18  4  0
 20 27  1  0
 24 27  4  0
 26 28  4  0
M  END
$$$$

 Created by Python create_sdf_string function

 29 33  0  0  0  0  0  0  0  0999 V2000
    8.8270   -7.0288   18.4251 C   0  0  0  0  0  0  0  0  0  0  0  0
    9.1576   -4.6236   15.8860 O   0  0  0  0  0  0  0  0  0  0  0  0
    9.1509   -5.9108   17.7177 C   0  0  0  0  0  0  0  0  0  0  0  0
    3.6373   -9.5349   16.0582 N   0  0  0  0  0  0  0  0  0  0  0  0
    9.9275   -4.8001   18.0438 N   0  0  0  0  0  0  0  0  0  0  0  0
    8.5908   -5.7425   16.4412 C   0  0  0  0  0  0  0  0  0  0  0  0
   10.5993   -4.8981   21.6068 C   0  0  0  0  0  0  0  0  0  0  0  0
   10.4258   -3.0106   23.0998 C   0  0  0  0  0  0  0  0  0  0  0  0
   10.2148   -3.4364   25.4200 C   0  0  0  0  0  0  0  0  0  0  0  0
    9.7853   -1.1840   24.4927 C   0  0  0  0  0  0  0  0  0  0  0  0
    5.0276   -8.5227   17.5352 C   0  0  0  0  0  0  0  0  0  0  0  0
    9.8187   -2.0895   25.5800 C   0  0  0  0  0  0  0  0  0  0  0  0
    5.6473   -8.7216   15.3158 C   0  0  0  0  0  0  0  0  0  0  0  0
   10.7581   -3.1233   19.4720 N   0  0  0  0  0  0  0  0  0  0  0  0
    9.9571   -4.0573   16.8866 C   0  0  0  0  0  0  0  0  0  0  0  0
    7.6213   -6.5618   16.0087 C   0  0  0  0  0  0  0  0  0  0  0  0
   10.8583   -2.6527   20.7222 C   0  0  0  0  0  0  0  0  0  0  0  0
   10.6412   -3.5089   21.7936 C   0  0  0  0  0  0  0  0  0  0  0  0
   10.4972   -3.8968   24.1589 C   0  0  0  0  0  0  0  0  0  0  0  0
    5.9260   -8.2736   16.5517 C   0  0  0  0  0  0  0  0  0  0  0  0
    3.8816   -9.1166   17.2493 C   0  0  0  0  0  0  0  0  0  0  0  0
   10.1297   -1.6575   23.2324 C   0  0  0  0  0  0  0  0  0  0  0  0
    9.4684   -1.6929   26.7263 F   0  0  0  0  0  0  0  0  0  0  0  0
    7.7963   -7.7906   17.9837 C   0  0  0  0  0  0  0  0  0  0  0  0
   10.5884   -3.0725   16.7902 O   0  0  0  0  0  0  0  0  0  0  0  0
   10.4323   -5.3494   20.3516 C   0  0  0  0  0  0  0  0  0  0  0  0
    7.1156   -7.5454   16.8218 C   0  0  0  0  0  0  0  0  0  0  0  0
   10.3885   -4.4388   19.2773 C   0  0  0  0  0  0  0  0  0  0  0  0
    4.5160   -9.3822   15.0841 C   0  0  0  0  0  0  0  0  0  0  0  0
  1  3  4  0
  1 24  4  0
  2  6  4  0
  2 15  4  0
  3  5  4  0
  3  6  4  0
  4 21  4  0
  4 29  4  0
  5 15  4  0
  5 28  1  0
  6 16  4  0
  7 18  4  0
  7 26  4  0
  8 18  1  0
  8 19  4  0
  8 22  4  0
  9 12  4  0
  9 19  4  0
 10 12  4  0
 10 22  4  0
 11 20  4  0
 11 21  4  0
 12 23  1  0
 13 20  4  0
 13 29  4  0
 14 17  4  0
 14 28  4  0
 15 25  2  0
 16 27  4  0
 17 18  4  0
 20 27  1  0
 24 27  4  0
 26 28  4  0
M  END
$$$$

 Created by Python create_sdf_string function

 29 33  0  0  0  0  0  0  0  0999 V2000
    8.8270   -7.0288   18.4251 C   0  0  0  0  0  0  0  0  0  0  0  0
    9.1576   -4.6236   15.8860 O   0  0  0  0  0  0  0  0  0  0  0  0
    9.1509   -5.9108   17.7177 C   0  0  0  0  0  0  0  0  0  0  0  0
    3.6373   -9.5349   16.0582 N   0  0  0  0  0  0  0  0  0  0  0  0
    9.9275   -4.8001   18.0438 N   0  0  0  0  0  0  0  0  0  0  0  0
    8.5908   -5.7425   16.4412 C   0  0  0  0  0  0  0  0  0  0  0  0
   10.5993   -4.8981   21.6068 C   0  0  0  0  0  0  0  0  0  0  0  0
   10.4258   -3.0106   23.0998 C   0  0  0  0  0  0  0  0  0  0  0  0
   10.2148   -3.4364   25.4200 C   0  0  0  0  0  0  0  0  0  0  0  0
    9.7853   -1.1840   24.4927 C   0  0  0  0  0  0  0  0  0  0  0  0
    5.0276   -8.5227   17.5352 C   0  0  0  0  0  0  0  0  0  0  0  0
    9.8187   -2.0895   25.5800 C   0  0  0  0  0  0  0  0  0  0  0  0
    5.6473   -8.7216   15.3158 C   0  0  0  0  0  0  0  0  0  0  0  0
   10.7581   -3.1233   19.4720 N   0  0  0  0  0  0  0  0  0  0  0  0
    9.9571   -4.0573   16.8866 C   0  0  0  0  0  0  0  0  0  0  0  0
    7.6213   -6.5618   16.0087 C   0  0  0  0  0  0  0  0  0  0  0  0
   10.8583   -2.6527   20.7222 C   0  0  0  0  0  0  0  0  0  0  0  0
   10.6412   -3.5089   21.7936 C   0  0  0  0  0  0  0  0  0  0  0  0
   10.4972   -3.8968   24.1589 C   0  0  0  0  0  0  0  0  0  0  0  0
    5.9260   -8.2736   16.5517 C   0  0  0  0  0  0  0  0  0  0  0  0
    3.8816   -9.1166   17.2493 C   0  0  0  0  0  0  0  0  0  0  0  0
   10.1297   -1.6575   23.2324 C   0  0  0  0  0  0  0  0  0  0  0  0
    9.4684   -1.6929   26.7263 F   0  0  0  0  0  0  0  0  0  0  0  0
    7.7963   -7.7906   17.9837 C   0  0  0  0  0  0  0  0  0  0  0  0
   10.5884   -3.0725   16.7902 O   0  0  0  0  0  0  0  0  0  0  0  0
   10.4323   -5.3494   20.3516 C   0  0  0  0  0  0  0  0  0  0  0  0
    7.1156   -7.5454   16.8218 C   0  0  0  0  0  0  0  0  0  0  0  0
   10.3885   -4.4388   19.2773 C   0  0  0  0  0  0  0  0  0  0  0  0
    4.5160   -9.3822   15.0841 C   0  0  0  0  0  0  0  0  0  0  0  0
  1  3  4  0
  1 24  4  0
  2  6  4  0
  2 15  4  0
  3  5  4  0
  3  6  4  0
  4 21  4  0
  4 29  4  0
  5 15  4  0
  5 28  1  0
  6 16  4  0
  7 18  4  0
  7 26  4  0
  8 18  1  0
  8 19  4  0
  8 22  4  0
  9 12  4  0
  9 19  4  0
 10 12  4  0
 10 22  4  0
 11 20  4  0
 11 21  4  0
 12 23  1  0
 13 20  4  0
 13 29  4  0
 14 17  4  0
 14 28  4  0
 15 25  2  0
 16 27  4  0
 17 18  4  0
 20 27  1  0
 24 27  4  0
 26 28  4  0
M  END
$$$$

 Created by Python create_sdf_string function

 29 33  0  0  0  0  0  0  0  0999 V2000
    8.8270   -7.0288   18.4251 C   0  0  0  0  0  0  0  0  0  0  0  0
    9.1576   -4.6236   15.8860 O   0  0  0  0  0  0  0  0  0  0  0  0
    9.1509   -5.9108   17.7177 C   0  0  0  0  0  0  0  0  0  0  0  0
    3.6373   -9.5349   16.0582 N   0  0  0  0  0  0  0  0  0  0  0  0
    9.9275   -4.8001   18.0438 N   0  0  0  0  0  0  0  0  0  0  0  0
    8.5908   -5.7425   16.4412 C   0  0  0  0  0  0  0  0  0  0  0  0
   10.5993   -4.8981   21.6068 C   0  0  0  0  0  0  0  0  0  0  0  0
   10.4258   -3.0106   23.0998 C   0  0  0  0  0  0  0  0  0  0  0  0
   10.2148   -3.4364   25.4200 C   0  0  0  0  0  0  0  0  0  0  0  0
    9.7853   -1.1840   24.4927 C   0  0  0  0  0  0  0  0  0  0  0  0
    5.0276   -8.5227   17.5352 C   0  0  0  0  0  0  0  0  0  0  0  0
    9.8187   -2.0895   25.5800 C   0  0  0  0  0  0  0  0  0  0  0  0
    5.6473   -8.7216   15.3158 C   0  0  0  0  0  0  0  0  0  0  0  0
   10.7581   -3.1233   19.4720 N   0  0  0  0  0  0  0  0  0  0  0  0
    9.9571   -4.0573   16.8866 C   0  0  0  0  0  0  0  0  0  0  0  0
    7.6213   -6.5618   16.0087 C   0  0  0  0  0  0  0  0  0  0  0  0
   10.8583   -2.6527   20.7222 C   0  0  0  0  0  0  0  0  0  0  0  0
   10.6412   -3.5089   21.7936 C   0  0  0  0  0  0  0  0  0  0  0  0
   10.4972   -3.8968   24.1589 C   0  0  0  0  0  0  0  0  0  0  0  0
    5.9260   -8.2736   16.5517 C   0  0  0  0  0  0  0  0  0  0  0  0
    3.8816   -9.1166   17.2493 C   0  0  0  0  0  0  0  0  0  0  0  0
   10.1297   -1.6575   23.2324 C   0  0  0  0  0  0  0  0  0  0  0  0
    9.4684   -1.6929   26.7263 F   0  0  0  0  0  0  0  0  0  0  0  0
    7.7963   -7.7906   17.9837 C   0  0  0  0  0  0  0  0  0  0  0  0
   10.5884   -3.0725   16.7902 O   0  0  0  0  0  0  0  0  0  0  0  0
   10.4323   -5.3494   20.3516 C   0  0  0  0  0  0  0  0  0  0  0  0
    7.1156   -7.5454   16.8218 C   0  0  0  0  0  0  0  0  0  0  0  0
   10.3885   -4.4388   19.2773 C   0  0  0  0  0  0  0  0  0  0  0  0
    4.5160   -9.3822   15.0841 C   0  0  0  0  0  0  0  0  0  0  0  0
  1  3  4  0
  1 24  4  0
  2  6  4  0
  2 15  4  0
  3  5  4  0
  3  6  4  0
  4 21  4  0
  4 29  4  0
  5 15  4  0
  5 28  1  0
  6 16  4  0
  7 18  4  0
  7 26  4  0
  8 18  1  0
  8 19  4  0
  8 22  4  0
  9 12  4  0
  9 19  4  0
 10 12  4  0
 10 22  4  0
 11 20  4  0
 11 21  4  0
 12 23  1  0
 13 20  4  0
 13 29  4  0
 14 17  4  0
 14 28  4  0
 15 25  2  0
 16 27  4  0
 17 18  4  0
 20 27  1  0
 24 27  4  0
 26 28  4  0
M  END
$$$$

 Created by Python create_sdf_string function

 29 33  0  0  0  0  0  0  0  0999 V2000
    8.8270   -7.0288   18.4251 C   0  0  0  0  0  0  0  0  0  0  0  0
    9.1576   -4.6236   15.8860 O   0  0  0  0  0  0  0  0  0  0  0  0
    9.1509   -5.9108   17.7177 C   0  0  0  0  0  0  0  0  0  0  0  0
    3.6373   -9.5349   16.0582 N   0  0  0  0  0  0  0  0  0  0  0  0
    9.9275   -4.8001   18.0438 N   0  0  0  0  0  0  0  0  0  0  0  0
    8.5908   -5.7425   16.4412 C   0  0  0  0  0  0  0  0  0  0  0  0
   10.5993   -4.8981   21.6068 C   0  0  0  0  0  0  0  0  0  0  0  0
   10.4258   -3.0106   23.0998 C   0  0  0  0  0  0  0  0  0  0  0  0
   10.2148   -3.4364   25.4200 C   0  0  0  0  0  0  0  0  0  0  0  0
    9.7853   -1.1840   24.4927 C   0  0  0  0  0  0  0  0  0  0  0  0
    5.0276   -8.5227   17.5352 C   0  0  0  0  0  0  0  0  0  0  0  0
    9.8187   -2.0895   25.5800 C   0  0  0  0  0  0  0  0  0  0  0  0
    5.6473   -8.7216   15.3158 C   0  0  0  0  0  0  0  0  0  0  0  0
   10.7581   -3.1233   19.4720 N   0  0  0  0  0  0  0  0  0  0  0  0
    9.9571   -4.0573   16.8866 C   0  0  0  0  0  0  0  0  0  0  0  0
    7.6213   -6.5618   16.0087 C   0  0  0  0  0  0  0  0  0  0  0  0
   10.8583   -2.6527   20.7222 C   0  0  0  0  0  0  0  0  0  0  0  0
   10.6412   -3.5089   21.7936 C   0  0  0  0  0  0  0  0  0  0  0  0
   10.4972   -3.8968   24.1589 C   0  0  0  0  0  0  0  0  0  0  0  0
    5.9260   -8.2736   16.5517 C   0  0  0  0  0  0  0  0  0  0  0  0
    3.8816   -9.1166   17.2493 C   0  0  0  0  0  0  0  0  0  0  0  0
   10.1297   -1.6575   23.2324 C   0  0  0  0  0  0  0  0  0  0  0  0
    9.4684   -1.6929   26.7263 F   0  0  0  0  0  0  0  0  0  0  0  0
    7.7963   -7.7906   17.9837 C   0  0  0  0  0  0  0  0  0  0  0  0
   10.5884   -3.0725   16.7902 O   0  0  0  0  0  0  0  0  0  0  0  0
   10.4323   -5.3494   20.3516 C   0  0  0  0  0  0  0  0  0  0  0  0
    7.1156   -7.5454   16.8218 C   0  0  0  0  0  0  0  0  0  0  0  0
   10.3885   -4.4388   19.2773 C   0  0  0  0  0  0  0  0  0  0  0  0
    4.5160   -9.3822   15.0841 C   0  0  0  0  0  0  0  0  0  0  0  0
  1  3  4  0
  1 24  4  0
  2  6  4  0
  2 15  4  0
  3  5  4  0
  3  6  4  0
  4 21  4  0
  4 29  4  0
  5 15  4  0
  5 28  1  0
  6 16  4  0
  7 18  4  0
  7 26  4  0
  8 18  1  0
  8 19  4  0
  8 22  4  0
  9 12  4  0
  9 19  4  0
 10 12  4  0
 10 22  4  0
 11 20  4  0
 11 21  4  0
 12 23  1  0
 13 20  4  0
 13 29  4  0
 14 17  4  0
 14 28  4  0
 15 25  2  0
 16 27  4  0
 17 18  4  0
 20 27  1  0
 24 27  4  0
 26 28  4  0
M  END
$$$$

 Created by Python create_sdf_string function

 29 33  0  0  0  0  0  0  0  0999 V2000
    8.8270   -7.0288   18.4251 C   0  0  0  0  0  0  0  0  0  0  0  0
    9.1576   -4.6236   15.8860 O   0  0  0  0  0  0  0  0  0  0  0  0
    9.1509   -5.9108   17.7177 C   0  0  0  0  0  0  0  0  0  0  0  0
    3.6373   -9.5349   16.0582 N   0  0  0  0  0  0  0  0  0  0  0  0
    9.9275   -4.8001   18.0438 N   0  0  0  0  0  0  0  0  0  0  0  0
    8.5908   -5.7425   16.4412 C   0  0  0  0  0  0  0  0  0  0  0  0
   10.5993   -4.8981   21.6068 C   0  0  0  0  0  0  0  0  0  0  0  0
   10.4258   -3.0106   23.0998 C   0  0  0  0  0  0  0  0  0  0  0  0
   10.2148   -3.4364   25.4200 C   0  0  0  0  0  0  0  0  0  0  0  0
    9.7853   -1.1840   24.4927 C   0  0  0  0  0  0  0  0  0  0  0  0
    5.0276   -8.5227   17.5352 C   0  0  0  0  0  0  0  0  0  0  0  0
    9.8187   -2.0895   25.5800 C   0  0  0  0  0  0  0  0  0  0  0  0
    5.6473   -8.7216   15.3158 C   0  0  0  0  0  0  0  0  0  0  0  0
   10.7581   -3.1233   19.4720 N   0  0  0  0  0  0  0  0  0  0  0  0
    9.9571   -4.0573   16.8866 C   0  0  0  0  0  0  0  0  0  0  0  0
    7.6213   -6.5618   16.0087 C   0  0  0  0  0  0  0  0  0  0  0  0
   10.8583   -2.6527   20.7222 C   0  0  0  0  0  0  0  0  0  0  0  0
   10.6412   -3.5089   21.7936 C   0  0  0  0  0  0  0  0  0  0  0  0
   10.4972   -3.8968   24.1589 C   0  0  0  0  0  0  0  0  0  0  0  0
    5.9260   -8.2736   16.5517 C   0  0  0  0  0  0  0  0  0  0  0  0
    3.8816   -9.1166   17.2493 C   0  0  0  0  0  0  0  0  0  0  0  0
   10.1297   -1.6575   23.2324 C   0  0  0  0  0  0  0  0  0  0  0  0
    9.4684   -1.6929   26.7263 F   0  0  0  0  0  0  0  0  0  0  0  0
    7.7963   -7.7906   17.9837 C   0  0  0  0  0  0  0  0  0  0  0  0
   10.5884   -3.0725   16.7902 O   0  0  0  0  0  0  0  0  0  0  0  0
   10.4323   -5.3494   20.3516 C   0  0  0  0  0  0  0  0  0  0  0  0
    7.1156   -7.5454   16.8218 C   0  0  0  0  0  0  0  0  0  0  0  0
   10.3885   -4.4388   19.2773 C   0  0  0  0  0  0  0  0  0  0  0  0
    4.5160   -9.3822   15.0841 C   0  0  0  0  0  0  0  0  0  0  0  0
  1  3  4  0
  1 24  4  0
  2  6  4  0
  2 15  4  0
  3  5  4  0
  3  6  4  0
  4 21  4  0
  4 29  4  0
  5 15  4  0
  5 28  1  0
  6 16  4  0
  7 18  4  0
  7 26  4  0
  8 18  1  0
  8 19  4  0
  8 22  4  0
  9 12  4  0
  9 19  4  0
 10 12  4  0
 10 22  4  0
 11 20  4  0
 11 21  4  0
 12 23  1  0
 13 20  4  0
 13 29  4  0
 14 17  4  0
 14 28  4  0
 15 25  2  0
 16 27  4  0
 17 18  4  0
 20 27  1  0
 24 27  4  0
 26 28  4  0
M  END
$$$$

 Created by Python create_sdf_string function

 29 33  0  0  0  0  0  0  0  0999 V2000
    8.8270   -7.0288   18.4251 C   0  0  0  0  0  0  0  0  0  0  0  0
    9.1576   -4.6236   15.8860 O   0  0  0  0  0  0  0  0  0  0  0  0
    9.1509   -5.9108   17.7177 C   0  0  0  0  0  0  0  0  0  0  0  0
    3.6373   -9.5349   16.0582 N   0  0  0  0  0  0  0  0  0  0  0  0
    9.9275   -4.8001   18.0438 N   0  0  0  0  0  0  0  0  0  0  0  0
    8.5908   -5.7425   16.4412 C   0  0  0  0  0  0  0  0  0  0  0  0
   10.5993   -4.8981   21.6068 C   0  0  0  0  0  0  0  0  0  0  0  0
   10.4258   -3.0106   23.0998 C   0  0  0  0  0  0  0  0  0  0  0  0
   10.2148   -3.4364   25.4200 C   0  0  0  0  0  0  0  0  0  0  0  0
    9.7853   -1.1840   24.4927 C   0  0  0  0  0  0  0  0  0  0  0  0
    5.0276   -8.5227   17.5352 C   0  0  0  0  0  0  0  0  0  0  0  0
    9.8187   -2.0895   25.5800 C   0  0  0  0  0  0  0  0  0  0  0  0
    5.6473   -8.7216   15.3158 C   0  0  0  0  0  0  0  0  0  0  0  0
   10.7581   -3.1233   19.4720 N   0  0  0  0  0  0  0  0  0  0  0  0
    9.9571   -4.0573   16.8866 C   0  0  0  0  0  0  0  0  0  0  0  0
    7.6213   -6.5618   16.0087 C   0  0  0  0  0  0  0  0  0  0  0  0
   10.8583   -2.6527   20.7222 C   0  0  0  0  0  0  0  0  0  0  0  0
   10.6412   -3.5089   21.7936 C   0  0  0  0  0  0  0  0  0  0  0  0
   10.4972   -3.8968   24.1589 C   0  0  0  0  0  0  0  0  0  0  0  0
    5.9260   -8.2736   16.5517 C   0  0  0  0  0  0  0  0  0  0  0  0
    3.8816   -9.1166   17.2493 C   0  0  0  0  0  0  0  0  0  0  0  0
   10.1297   -1.6575   23.2324 C   0  0  0  0  0  0  0  0  0  0  0  0
    9.4684   -1.6929   26.7263 F   0  0  0  0  0  0  0  0  0  0  0  0
    7.7963   -7.7906   17.9837 C   0  0  0  0  0  0  0  0  0  0  0  0
   10.5884   -3.0725   16.7902 O   0  0  0  0  0  0  0  0  0  0  0  0
   10.4323   -5.3494   20.3516 C   0  0  0  0  0  0  0  0  0  0  0  0
    7.1156   -7.5454   16.8218 C   0  0  0  0  0  0  0  0  0  0  0  0
   10.3885   -4.4388   19.2773 C   0  0  0  0  0  0  0  0  0  0  0  0
    4.5160   -9.3822   15.0841 C   0  0  0  0  0  0  0  0  0  0  0  0
  1  3  4  0
  1 24  4  0
  2  6  4  0
  2 15  4  0
  3  5  4  0
  3  6  4  0
  4 21  4  0
  4 29  4  0
  5 15  4  0
  5 28  1  0
  6 16  4  0
  7 18  4  0
  7 26  4  0
  8 18  1  0
  8 19  4  0
  8 22  4  0
  9 12  4  0
  9 19  4  0
 10 12  4  0
 10 22  4  0
 11 20  4  0
 11 21  4  0
 12 23  1  0
 13 20  4  0
 13 29  4  0
 14 17  4  0
 14 28  4  0
 15 25  2  0
 16 27  4  0
 17 18  4  0
 20 27  1  0
 24 27  4  0
 26 28  4  0
M  END
$$$$

 Created by Python create_sdf_string function

 29 33  0  0  0  0  0  0  0  0999 V2000
    8.8270   -7.0288   18.4251 C   0  0  0  0  0  0  0  0  0  0  0  0
    9.1576   -4.6236   15.8860 O   0  0  0  0  0  0  0  0  0  0  0  0
    9.1509   -5.9108   17.7177 C   0  0  0  0  0  0  0  0  0  0  0  0
    3.6373   -9.5349   16.0582 N   0  0  0  0  0  0  0  0  0  0  0  0
    9.9275   -4.8001   18.0438 N   0  0  0  0  0  0  0  0  0  0  0  0
    8.5908   -5.7425   16.4412 C   0  0  0  0  0  0  0  0  0  0  0  0
   10.5993   -4.8981   21.6068 C   0  0  0  0  0  0  0  0  0  0  0  0
   10.4258   -3.0106   23.0998 C   0  0  0  0  0  0  0  0  0  0  0  0
   10.2148   -3.4364   25.4200 C   0  0  0  0  0  0  0  0  0  0  0  0
    9.7853   -1.1840   24.4927 C   0  0  0  0  0  0  0  0  0  0  0  0
    5.0276   -8.5227   17.5352 C   0  0  0  0  0  0  0  0  0  0  0  0
    9.8187   -2.0895   25.5800 C   0  0  0  0  0  0  0  0  0  0  0  0
    5.6473   -8.7216   15.3158 C   0  0  0  0  0  0  0  0  0  0  0  0
   10.7581   -3.1233   19.4720 N   0  0  0  0  0  0  0  0  0  0  0  0
    9.9571   -4.0573   16.8866 C   0  0  0  0  0  0  0  0  0  0  0  0
    7.6213   -6.5618   16.0087 C   0  0  0  0  0  0  0  0  0  0  0  0
   10.8583   -2.6527   20.7222 C   0  0  0  0  0  0  0  0  0  0  0  0
   10.6412   -3.5089   21.7936 C   0  0  0  0  0  0  0  0  0  0  0  0
   10.4972   -3.8968   24.1589 C   0  0  0  0  0  0  0  0  0  0  0  0
    5.9260   -8.2736   16.5517 C   0  0  0  0  0  0  0  0  0  0  0  0
    3.8816   -9.1166   17.2493 C   0  0  0  0  0  0  0  0  0  0  0  0
   10.1297   -1.6575   23.2324 C   0  0  0  0  0  0  0  0  0  0  0  0
    9.4684   -1.6929   26.7263 F   0  0  0  0  0  0  0  0  0  0  0  0
    7.7963   -7.7906   17.9837 C   0  0  0  0  0  0  0  0  0  0  0  0
   10.5884   -3.0725   16.7902 O   0  0  0  0  0  0  0  0  0  0  0  0
   10.4323   -5.3494   20.3516 C   0  0  0  0  0  0  0  0  0  0  0  0
    7.1156   -7.5454   16.8218 C   0  0  0  0  0  0  0  0  0  0  0  0
   10.3885   -4.4388   19.2773 C   0  0  0  0  0  0  0  0  0  0  0  0
    4.5160   -9.3822   15.0841 C   0  0  0  0  0  0  0  0  0  0  0  0
  1  3  4  0
  1 24  4  0
  2  6  4  0
  2 15  4  0
  3  5  4  0
  3  6  4  0
  4 21  4  0
  4 29  4  0
  5 15  4  0
  5 28  1  0
  6 16  4  0
  7 18  4  0
  7 26  4  0
  8 18  1  0
  8 19  4  0
  8 22  4  0
  9 12  4  0
  9 19  4  0
 10 12  4  0
 10 22  4  0
 11 20  4  0
 11 21  4  0
 12 23  1  0
 13 20  4  0
 13 29  4  0
 14 17  4  0
 14 28  4  0
 15 25  2  0
 16 27  4  0
 17 18  4  0
 20 27  1  0
 24 27  4  0
 26 28  4  0
M  END
$$$$

 Created by Python create_sdf_string function

 29 33  0  0  0  0  0  0  0  0999 V2000
    8.8270   -7.0288   18.4251 C   0  0  0  0  0  0  0  0  0  0  0  0
    9.1576   -4.6236   15.8860 O   0  0  0  0  0  0  0  0  0  0  0  0
    9.1509   -5.9108   17.7177 C   0  0  0  0  0  0  0  0  0  0  0  0
    3.6373   -9.5349   16.0582 N   0  0  0  0  0  0  0  0  0  0  0  0
    9.9275   -4.8001   18.0438 N   0  0  0  0  0  0  0  0  0  0  0  0
    8.5908   -5.7425   16.4412 C   0  0  0  0  0  0  0  0  0  0  0  0
   10.5993   -4.8981   21.6068 C   0  0  0  0  0  0  0  0  0  0  0  0
   10.4258   -3.0106   23.0998 C   0  0  0  0  0  0  0  0  0  0  0  0
   10.2148   -3.4364   25.4200 C   0  0  0  0  0  0  0  0  0  0  0  0
    9.7853   -1.1840   24.4927 C   0  0  0  0  0  0  0  0  0  0  0  0
    5.0276   -8.5227   17.5352 C   0  0  0  0  0  0  0  0  0  0  0  0
    9.8187   -2.0895   25.5800 C   0  0  0  0  0  0  0  0  0  0  0  0
    5.6473   -8.7216   15.3158 C   0  0  0  0  0  0  0  0  0  0  0  0
   10.7581   -3.1233   19.4720 N   0  0  0  0  0  0  0  0  0  0  0  0
    9.9571   -4.0573   16.8866 C   0  0  0  0  0  0  0  0  0  0  0  0
    7.6213   -6.5618   16.0087 C   0  0  0  0  0  0  0  0  0  0  0  0
   10.8583   -2.6527   20.7222 C   0  0  0  0  0  0  0  0  0  0  0  0
   10.6412   -3.5089   21.7936 C   0  0  0  0  0  0  0  0  0  0  0  0
   10.4972   -3.8968   24.1589 C   0  0  0  0  0  0  0  0  0  0  0  0
    5.9260   -8.2736   16.5517 C   0  0  0  0  0  0  0  0  0  0  0  0
    3.8816   -9.1166   17.2493 C   0  0  0  0  0  0  0  0  0  0  0  0
   10.1297   -1.6575   23.2324 C   0  0  0  0  0  0  0  0  0  0  0  0
    9.4684   -1.6929   26.7263 F   0  0  0  0  0  0  0  0  0  0  0  0
    7.7963   -7.7906   17.9837 C   0  0  0  0  0  0  0  0  0  0  0  0
   10.5884   -3.0725   16.7902 O   0  0  0  0  0  0  0  0  0  0  0  0
   10.4323   -5.3494   20.3516 C   0  0  0  0  0  0  0  0  0  0  0  0
    7.1156   -7.5454   16.8218 C   0  0  0  0  0  0  0  0  0  0  0  0
   10.3885   -4.4388   19.2773 C   0  0  0  0  0  0  0  0  0  0  0  0
    4.5160   -9.3822   15.0841 C   0  0  0  0  0  0  0  0  0  0  0  0
  1  3  4  0
  1 24  4  0
  2  6  4  0
  2 15  4  0
  3  5  4  0
  3  6  4  0
  4 21  4  0
  4 29  4  0
  5 15  4  0
  5 28  1  0
  6 16  4  0
  7 18  4  0
  7 26  4  0
  8 18  1  0
  8 19  4  0
  8 22  4  0
  9 12  4  0
  9 19  4  0
 10 12  4  0
 10 22  4  0
 11 20  4  0
 11 21  4  0
 12 23  1  0
 13 20  4  0
 13 29  4  0
 14 17  4  0
 14 28  4  0
 15 25  2  0
 16 27  4  0
 17 18  4  0
 20 27  1  0
 24 27  4  0
 26 28  4  0
M  END
$$$$

 Created by Python create_sdf_string function

 29 33  0  0  0  0  0  0  0  0999 V2000
    8.8270   -7.0288   18.4251 C   0  0  0  0  0  0  0  0  0  0  0  0
    9.1576   -4.6236   15.8860 O   0  0  0  0  0  0  0  0  0  0  0  0
    9.1509   -5.9108   17.7177 C   0  0  0  0  0  0  0  0  0  0  0  0
    3.6373   -9.5349   16.0582 N   0  0  0  0  0  0  0  0  0  0  0  0
    9.9275   -4.8001   18.0438 N   0  0  0  0  0  0  0  0  0  0  0  0
    8.5908   -5.7425   16.4412 C   0  0  0  0  0  0  0  0  0  0  0  0
   10.5993   -4.8981   21.6068 C   0  0  0  0  0  0  0  0  0  0  0  0
   10.4258   -3.0106   23.0998 C   0  0  0  0  0  0  0  0  0  0  0  0
   10.2148   -3.4364   25.4200 C   0  0  0  0  0  0  0  0  0  0  0  0
    9.7853   -1.1840   24.4927 C   0  0  0  0  0  0  0  0  0  0  0  0
    5.0276   -8.5227   17.5352 C   0  0  0  0  0  0  0  0  0  0  0  0
    9.8187   -2.0895   25.5800 C   0  0  0  0  0  0  0  0  0  0  0  0
    5.6473   -8.7216   15.3158 C   0  0  0  0  0  0  0  0  0  0  0  0
   10.7581   -3.1233   19.4720 N   0  0  0  0  0  0  0  0  0  0  0  0
    9.9571   -4.0573   16.8866 C   0  0  0  0  0  0  0  0  0  0  0  0
    7.6213   -6.5618   16.0087 C   0  0  0  0  0  0  0  0  0  0  0  0
   10.8583   -2.6527   20.7222 C   0  0  0  0  0  0  0  0  0  0  0  0
   10.6412   -3.5089   21.7936 C   0  0  0  0  0  0  0  0  0  0  0  0
   10.4972   -3.8968   24.1589 C   0  0  0  0  0  0  0  0  0  0  0  0
    5.9260   -8.2736   16.5517 C   0  0  0  0  0  0  0  0  0  0  0  0
    3.8816   -9.1166   17.2493 C   0  0  0  0  0  0  0  0  0  0  0  0
   10.1297   -1.6575   23.2324 C   0  0  0  0  0  0  0  0  0  0  0  0
    9.4684   -1.6929   26.7263 F   0  0  0  0  0  0  0  0  0  0  0  0
    7.7963   -7.7906   17.9837 C   0  0  0  0  0  0  0  0  0  0  0  0
   10.5884   -3.0725   16.7902 O   0  0  0  0  0  0  0  0  0  0  0  0
   10.4323   -5.3494   20.3516 C   0  0  0  0  0  0  0  0  0  0  0  0
    7.1156   -7.5454   16.8218 C   0  0  0  0  0  0  0  0  0  0  0  0
   10.3885   -4.4388   19.2773 C   0  0  0  0  0  0  0  0  0  0  0  0
    4.5160   -9.3822   15.0841 C   0  0  0  0  0  0  0  0  0  0  0  0
  1  3  4  0
  1 24  4  0
  2  6  4  0
  2 15  4  0
  3  5  4  0
  3  6  4  0
  4 21  4  0
  4 29  4  0
  5 15  4  0
  5 28  1  0
  6 16  4  0
  7 18  4  0
  7 26  4  0
  8 18  1  0
  8 19  4  0
  8 22  4  0
  9 12  4  0
  9 19  4  0
 10 12  4  0
 10 22  4  0
 11 20  4  0
 11 21  4  0
 12 23  1  0
 13 20  4  0
 13 29  4  0
 14 17  4  0
 14 28  4  0
 15 25  2  0
 16 27  4  0
 17 18  4  0
 20 27  1  0
 24 27  4  0
 26 28  4  0
M  END
$$$$

 Created by Python create_sdf_string function

 29 33  0  0  0  0  0  0  0  0999 V2000
    8.8270   -7.0288   18.4251 C   0  0  0  0  0  0  0  0  0  0  0  0
    9.1576   -4.6236   15.8860 O   0  0  0  0  0  0  0  0  0  0  0  0
    9.1509   -5.9108   17.7177 C   0  0  0  0  0  0  0  0  0  0  0  0
    3.6373   -9.5349   16.0582 N   0  0  0  0  0  0  0  0  0  0  0  0
    9.9275   -4.8001   18.0438 N   0  0  0  0  0  0  0  0  0  0  0  0
    8.5908   -5.7425   16.4412 C   0  0  0  0  0  0  0  0  0  0  0  0
   10.5993   -4.8981   21.6068 C   0  0  0  0  0  0  0  0  0  0  0  0
   10.4258   -3.0106   23.0998 C   0  0  0  0  0  0  0  0  0  0  0  0
   10.2148   -3.4364   25.4200 C   0  0  0  0  0  0  0  0  0  0  0  0
    9.7853   -1.1840   24.4927 C   0  0  0  0  0  0  0  0  0  0  0  0
    5.0276   -8.5227   17.5352 C   0  0  0  0  0  0  0  0  0  0  0  0
    9.8187   -2.0895   25.5800 C   0  0  0  0  0  0  0  0  0  0  0  0
    5.6473   -8.7216   15.3158 C   0  0  0  0  0  0  0  0  0  0  0  0
   10.7581   -3.1233   19.4720 N   0  0  0  0  0  0  0  0  0  0  0  0
    9.9571   -4.0573   16.8866 C   0  0  0  0  0  0  0  0  0  0  0  0
    7.6213   -6.5618   16.0087 C   0  0  0  0  0  0  0  0  0  0  0  0
   10.8583   -2.6527   20.7222 C   0  0  0  0  0  0  0  0  0  0  0  0
   10.6412   -3.5089   21.7936 C   0  0  0  0  0  0  0  0  0  0  0  0
   10.4972   -3.8968   24.1589 C   0  0  0  0  0  0  0  0  0  0  0  0
    5.9260   -8.2736   16.5517 C   0  0  0  0  0  0  0  0  0  0  0  0
    3.8816   -9.1166   17.2493 C   0  0  0  0  0  0  0  0  0  0  0  0
   10.1297   -1.6575   23.2324 C   0  0  0  0  0  0  0  0  0  0  0  0
    9.4684   -1.6929   26.7263 F   0  0  0  0  0  0  0  0  0  0  0  0
    7.7963   -7.7906   17.9837 C   0  0  0  0  0  0  0  0  0  0  0  0
   10.5884   -3.0725   16.7902 O   0  0  0  0  0  0  0  0  0  0  0  0
   10.4323   -5.3494   20.3516 C   0  0  0  0  0  0  0  0  0  0  0  0
    7.1156   -7.5454   16.8218 C   0  0  0  0  0  0  0  0  0  0  0  0
   10.3885   -4.4388   19.2773 C   0  0  0  0  0  0  0  0  0  0  0  0
    4.5160   -9.3822   15.0841 C   0  0  0  0  0  0  0  0  0  0  0  0
  1  3  4  0
  1 24  4  0
  2  6  4  0
  2 15  4  0
  3  5  4  0
  3  6  4  0
  4 21  4  0
  4 29  4  0
  5 15  4  0
  5 28  1  0
  6 16  4  0
  7 18  4  0
  7 26  4  0
  8 18  1  0
  8 19  4  0
  8 22  4  0
  9 12  4  0
  9 19  4  0
 10 12  4  0
 10 22  4  0
 11 20  4  0
 11 21  4  0
 12 23  1  0
 13 20  4  0
 13 29  4  0
 14 17  4  0
 14 28  4  0
 15 25  2  0
 16 27  4  0
 17 18  4  0
 20 27  1  0
 24 27  4  0
 26 28  4  0
M  END
$$$$

 Created by Python create_sdf_string function

 29 33  0  0  0  0  0  0  0  0999 V2000
    8.8270   -7.0288   18.4251 C   0  0  0  0  0  0  0  0  0  0  0  0
    9.1576   -4.6236   15.8860 O   0  0  0  0  0  0  0  0  0  0  0  0
    9.1509   -5.9108   17.7177 C   0  0  0  0  0  0  0  0  0  0  0  0
    3.6373   -9.5349   16.0582 N   0  0  0  0  0  0  0  0  0  0  0  0
    9.9275   -4.8001   18.0438 N   0  0  0  0  0  0  0  0  0  0  0  0
    8.5908   -5.7425   16.4412 C   0  0  0  0  0  0  0  0  0  0  0  0
   10.5993   -4.8981   21.6068 C   0  0  0  0  0  0  0  0  0  0  0  0
   10.4258   -3.0106   23.0998 C   0  0  0  0  0  0  0  0  0  0  0  0
   10.2148   -3.4364   25.4200 C   0  0  0  0  0  0  0  0  0  0  0  0
    9.7853   -1.1840   24.4927 C   0  0  0  0  0  0  0  0  0  0  0  0
    5.0276   -8.5227   17.5352 C   0  0  0  0  0  0  0  0  0  0  0  0
    9.8187   -2.0895   25.5800 C   0  0  0  0  0  0  0  0  0  0  0  0
    5.6473   -8.7216   15.3158 C   0  0  0  0  0  0  0  0  0  0  0  0
   10.7581   -3.1233   19.4720 N   0  0  0  0  0  0  0  0  0  0  0  0
    9.9571   -4.0573   16.8866 C   0  0  0  0  0  0  0  0  0  0  0  0
    7.6213   -6.5618   16.0087 C   0  0  0  0  0  0  0  0  0  0  0  0
   10.8583   -2.6527   20.7222 C   0  0  0  0  0  0  0  0  0  0  0  0
   10.6412   -3.5089   21.7936 C   0  0  0  0  0  0  0  0  0  0  0  0
   10.4972   -3.8968   24.1589 C   0  0  0  0  0  0  0  0  0  0  0  0
    5.9260   -8.2736   16.5517 C   0  0  0  0  0  0  0  0  0  0  0  0
    3.8816   -9.1166   17.2493 C   0  0  0  0  0  0  0  0  0  0  0  0
   10.1297   -1.6575   23.2324 C   0  0  0  0  0  0  0  0  0  0  0  0
    9.4684   -1.6929   26.7263 F   0  0  0  0  0  0  0  0  0  0  0  0
    7.7963   -7.7906   17.9837 C   0  0  0  0  0  0  0  0  0  0  0  0
   10.5884   -3.0725   16.7902 O   0  0  0  0  0  0  0  0  0  0  0  0
   10.4323   -5.3494   20.3516 C   0  0  0  0  0  0  0  0  0  0  0  0
    7.1156   -7.5454   16.8218 C   0  0  0  0  0  0  0  0  0  0  0  0
   10.3885   -4.4388   19.2773 C   0  0  0  0  0  0  0  0  0  0  0  0
    4.5160   -9.3822   15.0841 C   0  0  0  0  0  0  0  0  0  0  0  0
  1  3  4  0
  1 24  4  0
  2  6  4  0
  2 15  4  0
  3  5  4  0
  3  6  4  0
  4 21  4  0
  4 29  4  0
  5 15  4  0
  5 28  1  0
  6 16  4  0
  7 18  4  0
  7 26  4  0
  8 18  1  0
  8 19  4  0
  8 22  4  0
  9 12  4  0
  9 19  4  0
 10 12  4  0
 10 22  4  0
 11 20  4  0
 11 21  4  0
 12 23  1  0
 13 20  4  0
 13 29  4  0
 14 17  4  0
 14 28  4  0
 15 25  2  0
 16 27  4  0
 17 18  4  0
 20 27  1  0
 24 27  4  0
 26 28  4  0
M  END
$$$$

 Created by Python create_sdf_string function

 29 33  0  0  0  0  0  0  0  0999 V2000
    8.8270   -7.0288   18.4251 C   0  0  0  0  0  0  0  0  0  0  0  0
    9.1576   -4.6236   15.8860 O   0  0  0  0  0  0  0  0  0  0  0  0
    9.1509   -5.9108   17.7177 C   0  0  0  0  0  0  0  0  0  0  0  0
    3.6373   -9.5349   16.0582 N   0  0  0  0  0  0  0  0  0  0  0  0
    9.9275   -4.8001   18.0438 N   0  0  0  0  0  0  0  0  0  0  0  0
    8.5908   -5.7425   16.4412 C   0  0  0  0  0  0  0  0  0  0  0  0
   10.5993   -4.8981   21.6068 C   0  0  0  0  0  0  0  0  0  0  0  0
   10.4258   -3.0106   23.0998 C   0  0  0  0  0  0  0  0  0  0  0  0
   10.2148   -3.4364   25.4200 C   0  0  0  0  0  0  0  0  0  0  0  0
    9.7853   -1.1840   24.4927 C   0  0  0  0  0  0  0  0  0  0  0  0
    5.0276   -8.5227   17.5352 C   0  0  0  0  0  0  0  0  0  0  0  0
    9.8187   -2.0895   25.5800 C   0  0  0  0  0  0  0  0  0  0  0  0
    5.6473   -8.7216   15.3158 C   0  0  0  0  0  0  0  0  0  0  0  0
   10.7581   -3.1233   19.4720 N   0  0  0  0  0  0  0  0  0  0  0  0
    9.9571   -4.0573   16.8866 C   0  0  0  0  0  0  0  0  0  0  0  0
    7.6213   -6.5618   16.0087 C   0  0  0  0  0  0  0  0  0  0  0  0
   10.8583   -2.6527   20.7222 C   0  0  0  0  0  0  0  0  0  0  0  0
   10.6412   -3.5089   21.7936 C   0  0  0  0  0  0  0  0  0  0  0  0
   10.4972   -3.8968   24.1589 C   0  0  0  0  0  0  0  0  0  0  0  0
    5.9260   -8.2736   16.5517 C   0  0  0  0  0  0  0  0  0  0  0  0
    3.8816   -9.1166   17.2493 C   0  0  0  0  0  0  0  0  0  0  0  0
   10.1297   -1.6575   23.2324 C   0  0  0  0  0  0  0  0  0  0  0  0
    9.4684   -1.6929   26.7263 F   0  0  0  0  0  0  0  0  0  0  0  0
    7.7963   -7.7906   17.9837 C   0  0  0  0  0  0  0  0  0  0  0  0
   10.5884   -3.0725   16.7902 O   0  0  0  0  0  0  0  0  0  0  0  0
   10.4323   -5.3494   20.3516 C   0  0  0  0  0  0  0  0  0  0  0  0
    7.1156   -7.5454   16.8218 C   0  0  0  0  0  0  0  0  0  0  0  0
   10.3885   -4.4388   19.2773 C   0  0  0  0  0  0  0  0  0  0  0  0
    4.5160   -9.3822   15.0841 C   0  0  0  0  0  0  0  0  0  0  0  0
  1  3  4  0
  1 24  4  0
  2  6  4  0
  2 15  4  0
  3  5  4  0
  3  6  4  0
  4 21  4  0
  4 29  4  0
  5 15  4  0
  5 28  1  0
  6 16  4  0
  7 18  4  0
  7 26  4  0
  8 18  1  0
  8 19  4  0
  8 22  4  0
  9 12  4  0
  9 19  4  0
 10 12  4  0
 10 22  4  0
 11 20  4  0
 11 21  4  0
 12 23  1  0
 13 20  4  0
 13 29  4  0
 14 17  4  0
 14 28  4  0
 15 25  2  0
 16 27  4  0
 17 18  4  0
 20 27  1  0
 24 27  4  0
 26 28  4  0
M  END
$$$$

 Created by Python create_sdf_string function

 29 33  0  0  0  0  0  0  0  0999 V2000
    8.8270   -7.0288   18.4251 C   0  0  0  0  0  0  0  0  0  0  0  0
    9.1576   -4.6236   15.8860 O   0  0  0  0  0  0  0  0  0  0  0  0
    9.1509   -5.9108   17.7177 C   0  0  0  0  0  0  0  0  0  0  0  0
    3.6373   -9.5349   16.0582 N   0  0  0  0  0  0  0  0  0  0  0  0
    9.9275   -4.8001   18.0438 N   0  0  0  0  0  0  0  0  0  0  0  0
    8.5908   -5.7425   16.4412 C   0  0  0  0  0  0  0  0  0  0  0  0
   10.5993   -4.8981   21.6068 C   0  0  0  0  0  0  0  0  0  0  0  0
   10.4258   -3.0106   23.0998 C   0  0  0  0  0  0  0  0  0  0  0  0
   10.2148   -3.4364   25.4200 C   0  0  0  0  0  0  0  0  0  0  0  0
    9.7853   -1.1840   24.4927 C   0  0  0  0  0  0  0  0  0  0  0  0
    5.0276   -8.5227   17.5352 C   0  0  0  0  0  0  0  0  0  0  0  0
    9.8187   -2.0895   25.5800 C   0  0  0  0  0  0  0  0  0  0  0  0
    5.6473   -8.7216   15.3158 C   0  0  0  0  0  0  0  0  0  0  0  0
   10.7581   -3.1233   19.4720 N   0  0  0  0  0  0  0  0  0  0  0  0
    9.9571   -4.0573   16.8866 C   0  0  0  0  0  0  0  0  0  0  0  0
    7.6213   -6.5618   16.0087 C   0  0  0  0  0  0  0  0  0  0  0  0
   10.8583   -2.6527   20.7222 C   0  0  0  0  0  0  0  0  0  0  0  0
   10.6412   -3.5089   21.7936 C   0  0  0  0  0  0  0  0  0  0  0  0
   10.4972   -3.8968   24.1589 C   0  0  0  0  0  0  0  0  0  0  0  0
    5.9260   -8.2736   16.5517 C   0  0  0  0  0  0  0  0  0  0  0  0
    3.8816   -9.1166   17.2493 C   0  0  0  0  0  0  0  0  0  0  0  0
   10.1297   -1.6575   23.2324 C   0  0  0  0  0  0  0  0  0  0  0  0
    9.4684   -1.6929   26.7263 F   0  0  0  0  0  0  0  0  0  0  0  0
    7.7963   -7.7906   17.9837 C   0  0  0  0  0  0  0  0  0  0  0  0
   10.5884   -3.0725   16.7902 O   0  0  0  0  0  0  0  0  0  0  0  0
   10.4323   -5.3494   20.3516 C   0  0  0  0  0  0  0  0  0  0  0  0
    7.1156   -7.5454   16.8218 C   0  0  0  0  0  0  0  0  0  0  0  0
   10.3885   -4.4388   19.2773 C   0  0  0  0  0  0  0  0  0  0  0  0
    4.5160   -9.3822   15.0841 C   0  0  0  0  0  0  0  0  0  0  0  0
  1  3  4  0
  1 24  4  0
  2  6  4  0
  2 15  4  0
  3  5  4  0
  3  6  4  0
  4 21  4  0
  4 29  4  0
  5 15  4  0
  5 28  1  0
  6 16  4  0
  7 18  4  0
  7 26  4  0
  8 18  1  0
  8 19  4  0
  8 22  4  0
  9 12  4  0
  9 19  4  0
 10 12  4  0
 10 22  4  0
 11 20  4  0
 11 21  4  0
 12 23  1  0
 13 20  4  0
 13 29  4  0
 14 17  4  0
 14 28  4  0
 15 25  2  0
 16 27  4  0
 17 18  4  0
 20 27  1  0
 24 27  4  0
 26 28  4  0
M  END
$$$$

 Created by Python create_sdf_string function

 29 33  0  0  0  0  0  0  0  0999 V2000
    8.8270   -7.0288   18.4251 C   0  0  0  0  0  0  0  0  0  0  0  0
    9.1576   -4.6236   15.8860 O   0  0  0  0  0  0  0  0  0  0  0  0
    9.1509   -5.9108   17.7177 C   0  0  0  0  0  0  0  0  0  0  0  0
    3.6373   -9.5349   16.0582 N   0  0  0  0  0  0  0  0  0  0  0  0
    9.9275   -4.8001   18.0438 N   0  0  0  0  0  0  0  0  0  0  0  0
    8.5908   -5.7425   16.4412 C   0  0  0  0  0  0  0  0  0  0  0  0
   10.5993   -4.8981   21.6068 C   0  0  0  0  0  0  0  0  0  0  0  0
   10.4258   -3.0106   23.0998 C   0  0  0  0  0  0  0  0  0  0  0  0
   10.2148   -3.4364   25.4200 C   0  0  0  0  0  0  0  0  0  0  0  0
    9.7853   -1.1840   24.4927 C   0  0  0  0  0  0  0  0  0  0  0  0
    5.0276   -8.5227   17.5352 C   0  0  0  0  0  0  0  0  0  0  0  0
    9.8187   -2.0895   25.5800 C   0  0  0  0  0  0  0  0  0  0  0  0
    5.6473   -8.7216   15.3158 C   0  0  0  0  0  0  0  0  0  0  0  0
   10.7581   -3.1233   19.4720 N   0  0  0  0  0  0  0  0  0  0  0  0
    9.9571   -4.0573   16.8866 C   0  0  0  0  0  0  0  0  0  0  0  0
    7.6213   -6.5618   16.0087 C   0  0  0  0  0  0  0  0  0  0  0  0
   10.8583   -2.6527   20.7222 C   0  0  0  0  0  0  0  0  0  0  0  0
   10.6412   -3.5089   21.7936 C   0  0  0  0  0  0  0  0  0  0  0  0
   10.4972   -3.8968   24.1589 C   0  0  0  0  0  0  0  0  0  0  0  0
    5.9260   -8.2736   16.5517 C   0  0  0  0  0  0  0  0  0  0  0  0
    3.8816   -9.1166   17.2493 C   0  0  0  0  0  0  0  0  0  0  0  0
   10.1297   -1.6575   23.2324 C   0  0  0  0  0  0  0  0  0  0  0  0
    9.4684   -1.6929   26.7263 F   0  0  0  0  0  0  0  0  0  0  0  0
    7.7963   -7.7906   17.9837 C   0  0  0  0  0  0  0  0  0  0  0  0
   10.5884   -3.0725   16.7902 O   0  0  0  0  0  0  0  0  0  0  0  0
   10.4323   -5.3494   20.3516 C   0  0  0  0  0  0  0  0  0  0  0  0
    7.1156   -7.5454   16.8218 C   0  0  0  0  0  0  0  0  0  0  0  0
   10.3885   -4.4388   19.2773 C   0  0  0  0  0  0  0  0  0  0  0  0
    4.5160   -9.3822   15.0841 C   0  0  0  0  0  0  0  0  0  0  0  0
  1  3  4  0
  1 24  4  0
  2  6  4  0
  2 15  4  0
  3  5  4  0
  3  6  4  0
  4 21  4  0
  4 29  4  0
  5 15  4  0
  5 28  1  0
  6 16  4  0
  7 18  4  0
  7 26  4  0
  8 18  1  0
  8 19  4  0
  8 22  4  0
  9 12  4  0
  9 19  4  0
 10 12  4  0
 10 22  4  0
 11 20  4  0
 11 21  4  0
 12 23  1  0
 13 20  4  0
 13 29  4  0
 14 17  4  0
 14 28  4  0
 15 25  2  0
 16 27  4  0
 17 18  4  0
 20 27  1  0
 24 27  4  0
 26 28  4  0
M  END
$$$$

 Created by Python create_sdf_string function

 29 33  0  0  0  0  0  0  0  0999 V2000
    8.8270   -7.0288   18.4251 C   0  0  0  0  0  0  0  0  0  0  0  0
    9.1576   -4.6236   15.8860 O   0  0  0  0  0  0  0  0  0  0  0  0
    9.1509   -5.9108   17.7177 C   0  0  0  0  0  0  0  0  0  0  0  0
    3.6373   -9.5349   16.0582 N   0  0  0  0  0  0  0  0  0  0  0  0
    9.9275   -4.8001   18.0438 N   0  0  0  0  0  0  0  0  0  0  0  0
    8.5908   -5.7425   16.4412 C   0  0  0  0  0  0  0  0  0  0  0  0
   10.5993   -4.8981   21.6068 C   0  0  0  0  0  0  0  0  0  0  0  0
   10.4258   -3.0106   23.0998 C   0  0  0  0  0  0  0  0  0  0  0  0
   10.2148   -3.4364   25.4200 C   0  0  0  0  0  0  0  0  0  0  0  0
    9.7853   -1.1840   24.4927 C   0  0  0  0  0  0  0  0  0  0  0  0
    5.0276   -8.5227   17.5352 C   0  0  0  0  0  0  0  0  0  0  0  0
    9.8187   -2.0895   25.5800 C   0  0  0  0  0  0  0  0  0  0  0  0
    5.6473   -8.7216   15.3158 C   0  0  0  0  0  0  0  0  0  0  0  0
   10.7581   -3.1233   19.4720 N   0  0  0  0  0  0  0  0  0  0  0  0
    9.9571   -4.0573   16.8866 C   0  0  0  0  0  0  0  0  0  0  0  0
    7.6213   -6.5618   16.0087 C   0  0  0  0  0  0  0  0  0  0  0  0
   10.8583   -2.6527   20.7222 C   0  0  0  0  0  0  0  0  0  0  0  0
   10.6412   -3.5089   21.7936 C   0  0  0  0  0  0  0  0  0  0  0  0
   10.4972   -3.8968   24.1589 C   0  0  0  0  0  0  0  0  0  0  0  0
    5.9260   -8.2736   16.5517 C   0  0  0  0  0  0  0  0  0  0  0  0
    3.8816   -9.1166   17.2493 C   0  0  0  0  0  0  0  0  0  0  0  0
   10.1297   -1.6575   23.2324 C   0  0  0  0  0  0  0  0  0  0  0  0
    9.4684   -1.6929   26.7263 F   0  0  0  0  0  0  0  0  0  0  0  0
    7.7963   -7.7906   17.9837 C   0  0  0  0  0  0  0  0  0  0  0  0
   10.5884   -3.0725   16.7902 O   0  0  0  0  0  0  0  0  0  0  0  0
   10.4323   -5.3494   20.3516 C   0  0  0  0  0  0  0  0  0  0  0  0
    7.1156   -7.5454   16.8218 C   0  0  0  0  0  0  0  0  0  0  0  0
   10.3885   -4.4388   19.2773 C   0  0  0  0  0  0  0  0  0  0  0  0
    4.5160   -9.3822   15.0841 C   0  0  0  0  0  0  0  0  0  0  0  0
  1  3  4  0
  1 24  4  0
  2  6  4  0
  2 15  4  0
  3  5  4  0
  3  6  4  0
  4 21  4  0
  4 29  4  0
  5 15  4  0
  5 28  1  0
  6 16  4  0
  7 18  4  0
  7 26  4  0
  8 18  1  0
  8 19  4  0
  8 22  4  0
  9 12  4  0
  9 19  4  0
 10 12  4  0
 10 22  4  0
 11 20  4  0
 11 21  4  0
 12 23  1  0
 13 20  4  0
 13 29  4  0
 14 17  4  0
 14 28  4  0
 15 25  2  0
 16 27  4  0
 17 18  4  0
 20 27  1  0
 24 27  4  0
 26 28  4  0
M  END
$$$$

 Created by Python create_sdf_string function

 29 33  0  0  0  0  0  0  0  0999 V2000
    8.8270   -7.0288   18.4251 C   0  0  0  0  0  0  0  0  0  0  0  0
    9.1576   -4.6236   15.8860 O   0  0  0  0  0  0  0  0  0  0  0  0
    9.1509   -5.9108   17.7177 C   0  0  0  0  0  0  0  0  0  0  0  0
    3.6373   -9.5349   16.0582 N   0  0  0  0  0  0  0  0  0  0  0  0
    9.9275   -4.8001   18.0438 N   0  0  0  0  0  0  0  0  0  0  0  0
    8.5908   -5.7425   16.4412 C   0  0  0  0  0  0  0  0  0  0  0  0
   10.5993   -4.8981   21.6068 C   0  0  0  0  0  0  0  0  0  0  0  0
   10.4258   -3.0106   23.0998 C   0  0  0  0  0  0  0  0  0  0  0  0
   10.2148   -3.4364   25.4200 C   0  0  0  0  0  0  0  0  0  0  0  0
    9.7853   -1.1840   24.4927 C   0  0  0  0  0  0  0  0  0  0  0  0
    5.0276   -8.5227   17.5352 C   0  0  0  0  0  0  0  0  0  0  0  0
    9.8187   -2.0895   25.5800 C   0  0  0  0  0  0  0  0  0  0  0  0
    5.6473   -8.7216   15.3158 C   0  0  0  0  0  0  0  0  0  0  0  0
   10.7581   -3.1233   19.4720 N   0  0  0  0  0  0  0  0  0  0  0  0
    9.9571   -4.0573   16.8866 C   0  0  0  0  0  0  0  0  0  0  0  0
    7.6213   -6.5618   16.0087 C   0  0  0  0  0  0  0  0  0  0  0  0
   10.8583   -2.6527   20.7222 C   0  0  0  0  0  0  0  0  0  0  0  0
   10.6412   -3.5089   21.7936 C   0  0  0  0  0  0  0  0  0  0  0  0
   10.4972   -3.8968   24.1589 C   0  0  0  0  0  0  0  0  0  0  0  0
    5.9260   -8.2736   16.5517 C   0  0  0  0  0  0  0  0  0  0  0  0
    3.8816   -9.1166   17.2493 C   0  0  0  0  0  0  0  0  0  0  0  0
   10.1297   -1.6575   23.2324 C   0  0  0  0  0  0  0  0  0  0  0  0
    9.4684   -1.6929   26.7263 F   0  0  0  0  0  0  0  0  0  0  0  0
    7.7963   -7.7906   17.9837 C   0  0  0  0  0  0  0  0  0  0  0  0
   10.5884   -3.0725   16.7902 O   0  0  0  0  0  0  0  0  0  0  0  0
   10.4323   -5.3494   20.3516 C   0  0  0  0  0  0  0  0  0  0  0  0
    7.1156   -7.5454   16.8218 C   0  0  0  0  0  0  0  0  0  0  0  0
   10.3885   -4.4388   19.2773 C   0  0  0  0  0  0  0  0  0  0  0  0
    4.5160   -9.3822   15.0841 C   0  0  0  0  0  0  0  0  0  0  0  0
  1  3  4  0
  1 24  4  0
  2  6  4  0
  2 15  4  0
  3  5  4  0
  3  6  4  0
  4 21  4  0
  4 29  4  0
  5 15  4  0
  5 28  1  0
  6 16  4  0
  7 18  4  0
  7 26  4  0
  8 18  1  0
  8 19  4  0
  8 22  4  0
  9 12  4  0
  9 19  4  0
 10 12  4  0
 10 22  4  0
 11 20  4  0
 11 21  4  0
 12 23  1  0
 13 20  4  0
 13 29  4  0
 14 17  4  0
 14 28  4  0
 15 25  2  0
 16 27  4  0
 17 18  4  0
 20 27  1  0
 24 27  4  0
 26 28  4  0
M  END
$$$$

 Created by Python create_sdf_string function

 29 33  0  0  0  0  0  0  0  0999 V2000
    8.8270   -7.0288   18.4251 C   0  0  0  0  0  0  0  0  0  0  0  0
    9.1576   -4.6236   15.8860 O   0  0  0  0  0  0  0  0  0  0  0  0
    9.1509   -5.9108   17.7177 C   0  0  0  0  0  0  0  0  0  0  0  0
    3.6373   -9.5349   16.0582 N   0  0  0  0  0  0  0  0  0  0  0  0
    9.9275   -4.8001   18.0438 N   0  0  0  0  0  0  0  0  0  0  0  0
    8.5908   -5.7425   16.4412 C   0  0  0  0  0  0  0  0  0  0  0  0
   10.5993   -4.8981   21.6068 C   0  0  0  0  0  0  0  0  0  0  0  0
   10.4258   -3.0106   23.0998 C   0  0  0  0  0  0  0  0  0  0  0  0
   10.2148   -3.4364   25.4200 C   0  0  0  0  0  0  0  0  0  0  0  0
    9.7853   -1.1840   24.4927 C   0  0  0  0  0  0  0  0  0  0  0  0
    5.0276   -8.5227   17.5352 C   0  0  0  0  0  0  0  0  0  0  0  0
    9.8187   -2.0895   25.5800 C   0  0  0  0  0  0  0  0  0  0  0  0
    5.6473   -8.7216   15.3158 C   0  0  0  0  0  0  0  0  0  0  0  0
   10.7581   -3.1233   19.4720 N   0  0  0  0  0  0  0  0  0  0  0  0
    9.9571   -4.0573   16.8866 C   0  0  0  0  0  0  0  0  0  0  0  0
    7.6213   -6.5618   16.0087 C   0  0  0  0  0  0  0  0  0  0  0  0
   10.8583   -2.6527   20.7222 C   0  0  0  0  0  0  0  0  0  0  0  0
   10.6412   -3.5089   21.7936 C   0  0  0  0  0  0  0  0  0  0  0  0
   10.4972   -3.8968   24.1589 C   0  0  0  0  0  0  0  0  0  0  0  0
    5.9260   -8.2736   16.5517 C   0  0  0  0  0  0  0  0  0  0  0  0
    3.8816   -9.1166   17.2493 C   0  0  0  0  0  0  0  0  0  0  0  0
   10.1297   -1.6575   23.2324 C   0  0  0  0  0  0  0  0  0  0  0  0
    9.4684   -1.6929   26.7263 F   0  0  0  0  0  0  0  0  0  0  0  0
    7.7963   -7.7906   17.9837 C   0  0  0  0  0  0  0  0  0  0  0  0
   10.5884   -3.0725   16.7902 O   0  0  0  0  0  0  0  0  0  0  0  0
   10.4323   -5.3494   20.3516 C   0  0  0  0  0  0  0  0  0  0  0  0
    7.1156   -7.5454   16.8218 C   0  0  0  0  0  0  0  0  0  0  0  0
   10.3885   -4.4388   19.2773 C   0  0  0  0  0  0  0  0  0  0  0  0
    4.5160   -9.3822   15.0841 C   0  0  0  0  0  0  0  0  0  0  0  0
  1  3  4  0
  1 24  4  0
  2  6  4  0
  2 15  4  0
  3  5  4  0
  3  6  4  0
  4 21  4  0
  4 29  4  0
  5 15  4  0
  5 28  1  0
  6 16  4  0
  7 18  4  0
  7 26  4  0
  8 18  1  0
  8 19  4  0
  8 22  4  0
  9 12  4  0
  9 19  4  0
 10 12  4  0
 10 22  4  0
 11 20  4  0
 11 21  4  0
 12 23  1  0
 13 20  4  0
 13 29  4  0
 14 17  4  0
 14 28  4  0
 15 25  2  0
 16 27  4  0
 17 18  4  0
 20 27  1  0
 24 27  4  0
 26 28  4  0
M  END
$$$$

 Created by Python create_sdf_string function

 29 33  0  0  0  0  0  0  0  0999 V2000
    8.8270   -7.0288   18.4251 C   0  0  0  0  0  0  0  0  0  0  0  0
    9.1576   -4.6236   15.8860 O   0  0  0  0  0  0  0  0  0  0  0  0
    9.1509   -5.9108   17.7177 C   0  0  0  0  0  0  0  0  0  0  0  0
    3.6373   -9.5349   16.0582 N   0  0  0  0  0  0  0  0  0  0  0  0
    9.9275   -4.8001   18.0438 N   0  0  0  0  0  0  0  0  0  0  0  0
    8.5908   -5.7425   16.4412 C   0  0  0  0  0  0  0  0  0  0  0  0
   10.5993   -4.8981   21.6068 C   0  0  0  0  0  0  0  0  0  0  0  0
   10.4258   -3.0106   23.0998 C   0  0  0  0  0  0  0  0  0  0  0  0
   10.2148   -3.4364   25.4200 C   0  0  0  0  0  0  0  0  0  0  0  0
    9.7853   -1.1840   24.4927 C   0  0  0  0  0  0  0  0  0  0  0  0
    5.0276   -8.5227   17.5352 C   0  0  0  0  0  0  0  0  0  0  0  0
    9.8187   -2.0895   25.5800 C   0  0  0  0  0  0  0  0  0  0  0  0
    5.6473   -8.7216   15.3158 C   0  0  0  0  0  0  0  0  0  0  0  0
   10.7581   -3.1233   19.4720 N   0  0  0  0  0  0  0  0  0  0  0  0
    9.9571   -4.0573   16.8866 C   0  0  0  0  0  0  0  0  0  0  0  0
    7.6213   -6.5618   16.0087 C   0  0  0  0  0  0  0  0  0  0  0  0
   10.8583   -2.6527   20.7222 C   0  0  0  0  0  0  0  0  0  0  0  0
   10.6412   -3.5089   21.7936 C   0  0  0  0  0  0  0  0  0  0  0  0
   10.4972   -3.8968   24.1589 C   0  0  0  0  0  0  0  0  0  0  0  0
    5.9260   -8.2736   16.5517 C   0  0  0  0  0  0  0  0  0  0  0  0
    3.8816   -9.1166   17.2493 C   0  0  0  0  0  0  0  0  0  0  0  0
   10.1297   -1.6575   23.2324 C   0  0  0  0  0  0  0  0  0  0  0  0
    9.4684   -1.6929   26.7263 F   0  0  0  0  0  0  0  0  0  0  0  0
    7.7963   -7.7906   17.9837 C   0  0  0  0  0  0  0  0  0  0  0  0
   10.5884   -3.0725   16.7902 O   0  0  0  0  0  0  0  0  0  0  0  0
   10.4323   -5.3494   20.3516 C   0  0  0  0  0  0  0  0  0  0  0  0
    7.1156   -7.5454   16.8218 C   0  0  0  0  0  0  0  0  0  0  0  0
   10.3885   -4.4388   19.2773 C   0  0  0  0  0  0  0  0  0  0  0  0
    4.5160   -9.3822   15.0841 C   0  0  0  0  0  0  0  0  0  0  0  0
  1  3  4  0
  1 24  4  0
  2  6  4  0
  2 15  4  0
  3  5  4  0
  3  6  4  0
  4 21  4  0
  4 29  4  0
  5 15  4  0
  5 28  1  0
  6 16  4  0
  7 18  4  0
  7 26  4  0
  8 18  1  0
  8 19  4  0
  8 22  4  0
  9 12  4  0
  9 19  4  0
 10 12  4  0
 10 22  4  0
 11 20  4  0
 11 21  4  0
 12 23  1  0
 13 20  4  0
 13 29  4  0
 14 17  4  0
 14 28  4  0
 15 25  2  0
 16 27  4  0
 17 18  4  0
 20 27  1  0
 24 27  4  0
 26 28  4  0
M  END
$$$$

 Created by Python create_sdf_string function

 29 33  0  0  0  0  0  0  0  0999 V2000
    8.8270   -7.0288   18.4251 C   0  0  0  0  0  0  0  0  0  0  0  0
    9.1576   -4.6236   15.8860 O   0  0  0  0  0  0  0  0  0  0  0  0
    9.1509   -5.9108   17.7177 C   0  0  0  0  0  0  0  0  0  0  0  0
    3.6373   -9.5349   16.0582 N   0  0  0  0  0  0  0  0  0  0  0  0
    9.9275   -4.8001   18.0438 N   0  0  0  0  0  0  0  0  0  0  0  0
    8.5908   -5.7425   16.4412 C   0  0  0  0  0  0  0  0  0  0  0  0
   10.5993   -4.8981   21.6068 C   0  0  0  0  0  0  0  0  0  0  0  0
   10.4258   -3.0106   23.0998 C   0  0  0  0  0  0  0  0  0  0  0  0
   10.2148   -3.4364   25.4200 C   0  0  0  0  0  0  0  0  0  0  0  0
    9.7853   -1.1840   24.4927 C   0  0  0  0  0  0  0  0  0  0  0  0
    5.0276   -8.5227   17.5352 C   0  0  0  0  0  0  0  0  0  0  0  0
    9.8187   -2.0895   25.5800 C   0  0  0  0  0  0  0  0  0  0  0  0
    5.6473   -8.7216   15.3158 C   0  0  0  0  0  0  0  0  0  0  0  0
   10.7581   -3.1233   19.4720 N   0  0  0  0  0  0  0  0  0  0  0  0
    9.9571   -4.0573   16.8866 C   0  0  0  0  0  0  0  0  0  0  0  0
    7.6213   -6.5618   16.0087 C   0  0  0  0  0  0  0  0  0  0  0  0
   10.8583   -2.6527   20.7222 C   0  0  0  0  0  0  0  0  0  0  0  0
   10.6412   -3.5089   21.7936 C   0  0  0  0  0  0  0  0  0  0  0  0
   10.4972   -3.8968   24.1589 C   0  0  0  0  0  0  0  0  0  0  0  0
    5.9260   -8.2736   16.5517 C   0  0  0  0  0  0  0  0  0  0  0  0
    3.8816   -9.1166   17.2493 C   0  0  0  0  0  0  0  0  0  0  0  0
   10.1297   -1.6575   23.2324 C   0  0  0  0  0  0  0  0  0  0  0  0
    9.4684   -1.6929   26.7263 F   0  0  0  0  0  0  0  0  0  0  0  0
    7.7963   -7.7906   17.9837 C   0  0  0  0  0  0  0  0  0  0  0  0
   10.5884   -3.0725   16.7902 O   0  0  0  0  0  0  0  0  0  0  0  0
   10.4323   -5.3494   20.3516 C   0  0  0  0  0  0  0  0  0  0  0  0
    7.1156   -7.5454   16.8218 C   0  0  0  0  0  0  0  0  0  0  0  0
   10.3885   -4.4388   19.2773 C   0  0  0  0  0  0  0  0  0  0  0  0
    4.5160   -9.3822   15.0841 C   0  0  0  0  0  0  0  0  0  0  0  0
  1  3  4  0
  1 24  4  0
  2  6  4  0
  2 15  4  0
  3  5  4  0
  3  6  4  0
  4 21  4  0
  4 29  4  0
  5 15  4  0
  5 28  1  0
  6 16  4  0
  7 18  4  0
  7 26  4  0
  8 18  1  0
  8 19  4  0
  8 22  4  0
  9 12  4  0
  9 19  4  0
 10 12  4  0
 10 22  4  0
 11 20  4  0
 11 21  4  0
 12 23  1  0
 13 20  4  0
 13 29  4  0
 14 17  4  0
 14 28  4  0
 15 25  2  0
 16 27  4  0
 17 18  4  0
 20 27  1  0
 24 27  4  0
 26 28  4  0
M  END
$$$$

 Created by Python create_sdf_string function

 29 33  0  0  0  0  0  0  0  0999 V2000
    8.8270   -7.0288   18.4251 C   0  0  0  0  0  0  0  0  0  0  0  0
    9.1576   -4.6236   15.8860 O   0  0  0  0  0  0  0  0  0  0  0  0
    9.1509   -5.9108   17.7177 C   0  0  0  0  0  0  0  0  0  0  0  0
    3.6373   -9.5349   16.0582 N   0  0  0  0  0  0  0  0  0  0  0  0
    9.9275   -4.8001   18.0438 N   0  0  0  0  0  0  0  0  0  0  0  0
    8.5908   -5.7425   16.4412 C   0  0  0  0  0  0  0  0  0  0  0  0
   10.5993   -4.8981   21.6068 C   0  0  0  0  0  0  0  0  0  0  0  0
   10.4258   -3.0106   23.0998 C   0  0  0  0  0  0  0  0  0  0  0  0
   10.2148   -3.4364   25.4200 C   0  0  0  0  0  0  0  0  0  0  0  0
    9.7853   -1.1840   24.4927 C   0  0  0  0  0  0  0  0  0  0  0  0
    5.0276   -8.5227   17.5352 C   0  0  0  0  0  0  0  0  0  0  0  0
    9.8187   -2.0895   25.5800 C   0  0  0  0  0  0  0  0  0  0  0  0
    5.6473   -8.7216   15.3158 C   0  0  0  0  0  0  0  0  0  0  0  0
   10.7581   -3.1233   19.4720 N   0  0  0  0  0  0  0  0  0  0  0  0
    9.9571   -4.0573   16.8866 C   0  0  0  0  0  0  0  0  0  0  0  0
    7.6213   -6.5618   16.0087 C   0  0  0  0  0  0  0  0  0  0  0  0
   10.8583   -2.6527   20.7222 C   0  0  0  0  0  0  0  0  0  0  0  0
   10.6412   -3.5089   21.7936 C   0  0  0  0  0  0  0  0  0  0  0  0
   10.4972   -3.8968   24.1589 C   0  0  0  0  0  0  0  0  0  0  0  0
    5.9260   -8.2736   16.5517 C   0  0  0  0  0  0  0  0  0  0  0  0
    3.8816   -9.1166   17.2493 C   0  0  0  0  0  0  0  0  0  0  0  0
   10.1297   -1.6575   23.2324 C   0  0  0  0  0  0  0  0  0  0  0  0
    9.4684   -1.6929   26.7263 F   0  0  0  0  0  0  0  0  0  0  0  0
    7.7963   -7.7906   17.9837 C   0  0  0  0  0  0  0  0  0  0  0  0
   10.5884   -3.0725   16.7902 O   0  0  0  0  0  0  0  0  0  0  0  0
   10.4323   -5.3494   20.3516 C   0  0  0  0  0  0  0  0  0  0  0  0
    7.1156   -7.5454   16.8218 C   0  0  0  0  0  0  0  0  0  0  0  0
   10.3885   -4.4388   19.2773 C   0  0  0  0  0  0  0  0  0  0  0  0
    4.5160   -9.3822   15.0841 C   0  0  0  0  0  0  0  0  0  0  0  0
  1  3  4  0
  1 24  4  0
  2  6  4  0
  2 15  4  0
  3  5  4  0
  3  6  4  0
  4 21  4  0
  4 29  4  0
  5 15  4  0
  5 28  1  0
  6 16  4  0
  7 18  4  0
  7 26  4  0
  8 18  1  0
  8 19  4  0
  8 22  4  0
  9 12  4  0
  9 19  4  0
 10 12  4  0
 10 22  4  0
 11 20  4  0
 11 21  4  0
 12 23  1  0
 13 20  4  0
 13 29  4  0
 14 17  4  0
 14 28  4  0
 15 25  2  0
 16 27  4  0
 17 18  4  0
 20 27  1  0
 24 27  4  0
 26 28  4  0
M  END
$$$$

 Created by Python create_sdf_string function

 29 33  0  0  0  0  0  0  0  0999 V2000
    8.8270   -7.0288   18.4251 C   0  0  0  0  0  0  0  0  0  0  0  0
    9.1576   -4.6236   15.8860 O   0  0  0  0  0  0  0  0  0  0  0  0
    9.1509   -5.9108   17.7177 C   0  0  0  0  0  0  0  0  0  0  0  0
    3.6373   -9.5349   16.0582 N   0  0  0  0  0  0  0  0  0  0  0  0
    9.9275   -4.8001   18.0438 N   0  0  0  0  0  0  0  0  0  0  0  0
    8.5908   -5.7425   16.4412 C   0  0  0  0  0  0  0  0  0  0  0  0
   10.5993   -4.8981   21.6068 C   0  0  0  0  0  0  0  0  0  0  0  0
   10.4258   -3.0106   23.0998 C   0  0  0  0  0  0  0  0  0  0  0  0
   10.2148   -3.4364   25.4200 C   0  0  0  0  0  0  0  0  0  0  0  0
    9.7853   -1.1840   24.4927 C   0  0  0  0  0  0  0  0  0  0  0  0
    5.0276   -8.5227   17.5352 C   0  0  0  0  0  0  0  0  0  0  0  0
    9.8187   -2.0895   25.5800 C   0  0  0  0  0  0  0  0  0  0  0  0
    5.6473   -8.7216   15.3158 C   0  0  0  0  0  0  0  0  0  0  0  0
   10.7581   -3.1233   19.4720 N   0  0  0  0  0  0  0  0  0  0  0  0
    9.9571   -4.0573   16.8866 C   0  0  0  0  0  0  0  0  0  0  0  0
    7.6213   -6.5618   16.0087 C   0  0  0  0  0  0  0  0  0  0  0  0
   10.8583   -2.6527   20.7222 C   0  0  0  0  0  0  0  0  0  0  0  0
   10.6412   -3.5089   21.7936 C   0  0  0  0  0  0  0  0  0  0  0  0
   10.4972   -3.8968   24.1589 C   0  0  0  0  0  0  0  0  0  0  0  0
    5.9260   -8.2736   16.5517 C   0  0  0  0  0  0  0  0  0  0  0  0
    3.8816   -9.1166   17.2493 C   0  0  0  0  0  0  0  0  0  0  0  0
   10.1297   -1.6575   23.2324 C   0  0  0  0  0  0  0  0  0  0  0  0
    9.4684   -1.6929   26.7263 F   0  0  0  0  0  0  0  0  0  0  0  0
    7.7963   -7.7906   17.9837 C   0  0  0  0  0  0  0  0  0  0  0  0
   10.5884   -3.0725   16.7902 O   0  0  0  0  0  0  0  0  0  0  0  0
   10.4323   -5.3494   20.3516 C   0  0  0  0  0  0  0  0  0  0  0  0
    7.1156   -7.5454   16.8218 C   0  0  0  0  0  0  0  0  0  0  0  0
   10.3885   -4.4388   19.2773 C   0  0  0  0  0  0  0  0  0  0  0  0
    4.5160   -9.3822   15.0841 C   0  0  0  0  0  0  0  0  0  0  0  0
  1  3  4  0
  1 24  4  0
  2  6  4  0
  2 15  4  0
  3  5  4  0
  3  6  4  0
  4 21  4  0
  4 29  4  0
  5 15  4  0
  5 28  1  0
  6 16  4  0
  7 18  4  0
  7 26  4  0
  8 18  1  0
  8 19  4  0
  8 22  4  0
  9 12  4  0
  9 19  4  0
 10 12  4  0
 10 22  4  0
 11 20  4  0
 11 21  4  0
 12 23  1  0
 13 20  4  0
 13 29  4  0
 14 17  4  0
 14 28  4  0
 15 25  2  0
 16 27  4  0
 17 18  4  0
 20 27  1  0
 24 27  4  0
 26 28  4  0
M  END
$$$$

 Created by Python create_sdf_string function

 29 33  0  0  0  0  0  0  0  0999 V2000
    8.8270   -7.0288   18.4251 C   0  0  0  0  0  0  0  0  0  0  0  0
    9.1576   -4.6236   15.8860 O   0  0  0  0  0  0  0  0  0  0  0  0
    9.1509   -5.9108   17.7177 C   0  0  0  0  0  0  0  0  0  0  0  0
    3.6373   -9.5349   16.0582 N   0  0  0  0  0  0  0  0  0  0  0  0
    9.9275   -4.8001   18.0438 N   0  0  0  0  0  0  0  0  0  0  0  0
    8.5908   -5.7425   16.4412 C   0  0  0  0  0  0  0  0  0  0  0  0
   10.5993   -4.8981   21.6068 C   0  0  0  0  0  0  0  0  0  0  0  0
   10.4258   -3.0106   23.0998 C   0  0  0  0  0  0  0  0  0  0  0  0
   10.2148   -3.4364   25.4200 C   0  0  0  0  0  0  0  0  0  0  0  0
    9.7853   -1.1840   24.4927 C   0  0  0  0  0  0  0  0  0  0  0  0
    5.0276   -8.5227   17.5352 C   0  0  0  0  0  0  0  0  0  0  0  0
    9.8187   -2.0895   25.5800 C   0  0  0  0  0  0  0  0  0  0  0  0
    5.6473   -8.7216   15.3158 C   0  0  0  0  0  0  0  0  0  0  0  0
   10.7581   -3.1233   19.4720 N   0  0  0  0  0  0  0  0  0  0  0  0
    9.9571   -4.0573   16.8866 C   0  0  0  0  0  0  0  0  0  0  0  0
    7.6213   -6.5618   16.0087 C   0  0  0  0  0  0  0  0  0  0  0  0
   10.8583   -2.6527   20.7222 C   0  0  0  0  0  0  0  0  0  0  0  0
   10.6412   -3.5089   21.7936 C   0  0  0  0  0  0  0  0  0  0  0  0
   10.4972   -3.8968   24.1589 C   0  0  0  0  0  0  0  0  0  0  0  0
    5.9260   -8.2736   16.5517 C   0  0  0  0  0  0  0  0  0  0  0  0
    3.8816   -9.1166   17.2493 C   0  0  0  0  0  0  0  0  0  0  0  0
   10.1297   -1.6575   23.2324 C   0  0  0  0  0  0  0  0  0  0  0  0
    9.4684   -1.6929   26.7263 F   0  0  0  0  0  0  0  0  0  0  0  0
    7.7963   -7.7906   17.9837 C   0  0  0  0  0  0  0  0  0  0  0  0
   10.5884   -3.0725   16.7902 O   0  0  0  0  0  0  0  0  0  0  0  0
   10.4323   -5.3494   20.3516 C   0  0  0  0  0  0  0  0  0  0  0  0
    7.1156   -7.5454   16.8218 C   0  0  0  0  0  0  0  0  0  0  0  0
   10.3885   -4.4388   19.2773 C   0  0  0  0  0  0  0  0  0  0  0  0
    4.5160   -9.3822   15.0841 C   0  0  0  0  0  0  0  0  0  0  0  0
  1  3  4  0
  1 24  4  0
  2  6  4  0
  2 15  4  0
  3  5  4  0
  3  6  4  0
  4 21  4  0
  4 29  4  0
  5 15  4  0
  5 28  1  0
  6 16  4  0
  7 18  4  0
  7 26  4  0
  8 18  1  0
  8 19  4  0
  8 22  4  0
  9 12  4  0
  9 19  4  0
 10 12  4  0
 10 22  4  0
 11 20  4  0
 11 21  4  0
 12 23  1  0
 13 20  4  0
 13 29  4  0
 14 17  4  0
 14 28  4  0
 15 25  2  0
 16 27  4  0
 17 18  4  0
 20 27  1  0
 24 27  4  0
 26 28  4  0
M  END
$$$$

 Created by Python create_sdf_string function

 29 33  0  0  0  0  0  0  0  0999 V2000
    8.8270   -7.0288   18.4251 C   0  0  0  0  0  0  0  0  0  0  0  0
    9.1576   -4.6236   15.8860 O   0  0  0  0  0  0  0  0  0  0  0  0
    9.1509   -5.9108   17.7177 C   0  0  0  0  0  0  0  0  0  0  0  0
    3.6373   -9.5349   16.0582 N   0  0  0  0  0  0  0  0  0  0  0  0
    9.9275   -4.8001   18.0438 N   0  0  0  0  0  0  0  0  0  0  0  0
    8.5908   -5.7425   16.4412 C   0  0  0  0  0  0  0  0  0  0  0  0
   10.5993   -4.8981   21.6068 C   0  0  0  0  0  0  0  0  0  0  0  0
   10.4258   -3.0106   23.0998 C   0  0  0  0  0  0  0  0  0  0  0  0
   10.2148   -3.4364   25.4200 C   0  0  0  0  0  0  0  0  0  0  0  0
    9.7853   -1.1840   24.4927 C   0  0  0  0  0  0  0  0  0  0  0  0
    5.0276   -8.5227   17.5352 C   0  0  0  0  0  0  0  0  0  0  0  0
    9.8187   -2.0895   25.5800 C   0  0  0  0  0  0  0  0  0  0  0  0
    5.6473   -8.7216   15.3158 C   0  0  0  0  0  0  0  0  0  0  0  0
   10.7581   -3.1233   19.4720 N   0  0  0  0  0  0  0  0  0  0  0  0
    9.9571   -4.0573   16.8866 C   0  0  0  0  0  0  0  0  0  0  0  0
    7.6213   -6.5618   16.0087 C   0  0  0  0  0  0  0  0  0  0  0  0
   10.8583   -2.6527   20.7222 C   0  0  0  0  0  0  0  0  0  0  0  0
   10.6412   -3.5089   21.7936 C   0  0  0  0  0  0  0  0  0  0  0  0
   10.4972   -3.8968   24.1589 C   0  0  0  0  0  0  0  0  0  0  0  0
    5.9260   -8.2736   16.5517 C   0  0  0  0  0  0  0  0  0  0  0  0
    3.8816   -9.1166   17.2493 C   0  0  0  0  0  0  0  0  0  0  0  0
   10.1297   -1.6575   23.2324 C   0  0  0  0  0  0  0  0  0  0  0  0
    9.4684   -1.6929   26.7263 F   0  0  0  0  0  0  0  0  0  0  0  0
    7.7963   -7.7906   17.9837 C   0  0  0  0  0  0  0  0  0  0  0  0
   10.5884   -3.0725   16.7902 O   0  0  0  0  0  0  0  0  0  0  0  0
   10.4323   -5.3494   20.3516 C   0  0  0  0  0  0  0  0  0  0  0  0
    7.1156   -7.5454   16.8218 C   0  0  0  0  0  0  0  0  0  0  0  0
   10.3885   -4.4388   19.2773 C   0  0  0  0  0  0  0  0  0  0  0  0
    4.5160   -9.3822   15.0841 C   0  0  0  0  0  0  0  0  0  0  0  0
  1  3  4  0
  1 24  4  0
  2  6  4  0
  2 15  4  0
  3  5  4  0
  3  6  4  0
  4 21  4  0
  4 29  4  0
  5 15  4  0
  5 28  1  0
  6 16  4  0
  7 18  4  0
  7 26  4  0
  8 18  1  0
  8 19  4  0
  8 22  4  0
  9 12  4  0
  9 19  4  0
 10 12  4  0
 10 22  4  0
 11 20  4  0
 11 21  4  0
 12 23  1  0
 13 20  4  0
 13 29  4  0
 14 17  4  0
 14 28  4  0
 15 25  2  0
 16 27  4  0
 17 18  4  0
 20 27  1  0
 24 27  4  0
 26 28  4  0
M  END
$$$$

 Created by Python create_sdf_string function

 29 33  0  0  0  0  0  0  0  0999 V2000
    8.8270   -7.0288   18.4251 C   0  0  0  0  0  0  0  0  0  0  0  0
    9.1576   -4.6236   15.8860 O   0  0  0  0  0  0  0  0  0  0  0  0
    9.1509   -5.9108   17.7177 C   0  0  0  0  0  0  0  0  0  0  0  0
    3.6373   -9.5349   16.0582 N   0  0  0  0  0  0  0  0  0  0  0  0
    9.9275   -4.8001   18.0438 N   0  0  0  0  0  0  0  0  0  0  0  0
    8.5908   -5.7425   16.4412 C   0  0  0  0  0  0  0  0  0  0  0  0
   10.5993   -4.8981   21.6068 C   0  0  0  0  0  0  0  0  0  0  0  0
   10.4258   -3.0106   23.0998 C   0  0  0  0  0  0  0  0  0  0  0  0
   10.2148   -3.4364   25.4200 C   0  0  0  0  0  0  0  0  0  0  0  0
    9.7853   -1.1840   24.4927 C   0  0  0  0  0  0  0  0  0  0  0  0
    5.0276   -8.5227   17.5352 C   0  0  0  0  0  0  0  0  0  0  0  0
    9.8187   -2.0895   25.5800 C   0  0  0  0  0  0  0  0  0  0  0  0
    5.6473   -8.7216   15.3158 C   0  0  0  0  0  0  0  0  0  0  0  0
   10.7581   -3.1233   19.4720 N   0  0  0  0  0  0  0  0  0  0  0  0
    9.9571   -4.0573   16.8866 C   0  0  0  0  0  0  0  0  0  0  0  0
    7.6213   -6.5618   16.0087 C   0  0  0  0  0  0  0  0  0  0  0  0
   10.8583   -2.6527   20.7222 C   0  0  0  0  0  0  0  0  0  0  0  0
   10.6412   -3.5089   21.7936 C   0  0  0  0  0  0  0  0  0  0  0  0
   10.4972   -3.8968   24.1589 C   0  0  0  0  0  0  0  0  0  0  0  0
    5.9260   -8.2736   16.5517 C   0  0  0  0  0  0  0  0  0  0  0  0
    3.8816   -9.1166   17.2493 C   0  0  0  0  0  0  0  0  0  0  0  0
   10.1297   -1.6575   23.2324 C   0  0  0  0  0  0  0  0  0  0  0  0
    9.4684   -1.6929   26.7263 F   0  0  0  0  0  0  0  0  0  0  0  0
    7.7963   -7.7906   17.9837 C   0  0  0  0  0  0  0  0  0  0  0  0
   10.5884   -3.0725   16.7902 O   0  0  0  0  0  0  0  0  0  0  0  0
   10.4323   -5.3494   20.3516 C   0  0  0  0  0  0  0  0  0  0  0  0
    7.1156   -7.5454   16.8218 C   0  0  0  0  0  0  0  0  0  0  0  0
   10.3885   -4.4388   19.2773 C   0  0  0  0  0  0  0  0  0  0  0  0
    4.5160   -9.3822   15.0841 C   0  0  0  0  0  0  0  0  0  0  0  0
  1  3  4  0
  1 24  4  0
  2  6  4  0
  2 15  4  0
  3  5  4  0
  3  6  4  0
  4 21  4  0
  4 29  4  0
  5 15  4  0
  5 28  1  0
  6 16  4  0
  7 18  4  0
  7 26  4  0
  8 18  1  0
  8 19  4  0
  8 22  4  0
  9 12  4  0
  9 19  4  0
 10 12  4  0
 10 22  4  0
 11 20  4  0
 11 21  4  0
 12 23  1  0
 13 20  4  0
 13 29  4  0
 14 17  4  0
 14 28  4  0
 15 25  2  0
 16 27  4  0
 17 18  4  0
 20 27  1  0
 24 27  4  0
 26 28  4  0
M  END
$$$$

 Created by Python create_sdf_string function

 29 33  0  0  0  0  0  0  0  0999 V2000
    8.8270   -7.0288   18.4251 C   0  0  0  0  0  0  0  0  0  0  0  0
    9.1576   -4.6236   15.8860 O   0  0  0  0  0  0  0  0  0  0  0  0
    9.1509   -5.9108   17.7177 C   0  0  0  0  0  0  0  0  0  0  0  0
    3.6373   -9.5349   16.0582 N   0  0  0  0  0  0  0  0  0  0  0  0
    9.9275   -4.8001   18.0438 N   0  0  0  0  0  0  0  0  0  0  0  0
    8.5908   -5.7425   16.4412 C   0  0  0  0  0  0  0  0  0  0  0  0
   10.5993   -4.8981   21.6068 C   0  0  0  0  0  0  0  0  0  0  0  0
   10.4258   -3.0106   23.0998 C   0  0  0  0  0  0  0  0  0  0  0  0
   10.2148   -3.4364   25.4200 C   0  0  0  0  0  0  0  0  0  0  0  0
    9.7853   -1.1840   24.4927 C   0  0  0  0  0  0  0  0  0  0  0  0
    5.0276   -8.5227   17.5352 C   0  0  0  0  0  0  0  0  0  0  0  0
    9.8187   -2.0895   25.5800 C   0  0  0  0  0  0  0  0  0  0  0  0
    5.6473   -8.7216   15.3158 C   0  0  0  0  0  0  0  0  0  0  0  0
   10.7581   -3.1233   19.4720 N   0  0  0  0  0  0  0  0  0  0  0  0
    9.9571   -4.0573   16.8866 C   0  0  0  0  0  0  0  0  0  0  0  0
    7.6213   -6.5618   16.0087 C   0  0  0  0  0  0  0  0  0  0  0  0
   10.8583   -2.6527   20.7222 C   0  0  0  0  0  0  0  0  0  0  0  0
   10.6412   -3.5089   21.7936 C   0  0  0  0  0  0  0  0  0  0  0  0
   10.4972   -3.8968   24.1589 C   0  0  0  0  0  0  0  0  0  0  0  0
    5.9260   -8.2736   16.5517 C   0  0  0  0  0  0  0  0  0  0  0  0
    3.8816   -9.1166   17.2493 C   0  0  0  0  0  0  0  0  0  0  0  0
   10.1297   -1.6575   23.2324 C   0  0  0  0  0  0  0  0  0  0  0  0
    9.4684   -1.6929   26.7263 F   0  0  0  0  0  0  0  0  0  0  0  0
    7.7963   -7.7906   17.9837 C   0  0  0  0  0  0  0  0  0  0  0  0
   10.5884   -3.0725   16.7902 O   0  0  0  0  0  0  0  0  0  0  0  0
   10.4323   -5.3494   20.3516 C   0  0  0  0  0  0  0  0  0  0  0  0
    7.1156   -7.5454   16.8218 C   0  0  0  0  0  0  0  0  0  0  0  0
   10.3885   -4.4388   19.2773 C   0  0  0  0  0  0  0  0  0  0  0  0
    4.5160   -9.3822   15.0841 C   0  0  0  0  0  0  0  0  0  0  0  0
  1  3  4  0
  1 24  4  0
  2  6  4  0
  2 15  4  0
  3  5  4  0
  3  6  4  0
  4 21  4  0
  4 29  4  0
  5 15  4  0
  5 28  1  0
  6 16  4  0
  7 18  4  0
  7 26  4  0
  8 18  1  0
  8 19  4  0
  8 22  4  0
  9 12  4  0
  9 19  4  0
 10 12  4  0
 10 22  4  0
 11 20  4  0
 11 21  4  0
 12 23  1  0
 13 20  4  0
 13 29  4  0
 14 17  4  0
 14 28  4  0
 15 25  2  0
 16 27  4  0
 17 18  4  0
 20 27  1  0
 24 27  4  0
 26 28  4  0
M  END
$$$$

 Created by Python create_sdf_string function

 29 33  0  0  0  0  0  0  0  0999 V2000
    8.8270   -7.0288   18.4251 C   0  0  0  0  0  0  0  0  0  0  0  0
    9.1576   -4.6236   15.8860 O   0  0  0  0  0  0  0  0  0  0  0  0
    9.1509   -5.9108   17.7177 C   0  0  0  0  0  0  0  0  0  0  0  0
    3.6373   -9.5349   16.0582 N   0  0  0  0  0  0  0  0  0  0  0  0
    9.9275   -4.8001   18.0438 N   0  0  0  0  0  0  0  0  0  0  0  0
    8.5908   -5.7425   16.4412 C   0  0  0  0  0  0  0  0  0  0  0  0
   10.5993   -4.8981   21.6068 C   0  0  0  0  0  0  0  0  0  0  0  0
   10.4258   -3.0106   23.0998 C   0  0  0  0  0  0  0  0  0  0  0  0
   10.2148   -3.4364   25.4200 C   0  0  0  0  0  0  0  0  0  0  0  0
    9.7853   -1.1840   24.4927 C   0  0  0  0  0  0  0  0  0  0  0  0
    5.0276   -8.5227   17.5352 C   0  0  0  0  0  0  0  0  0  0  0  0
    9.8187   -2.0895   25.5800 C   0  0  0  0  0  0  0  0  0  0  0  0
    5.6473   -8.7216   15.3158 C   0  0  0  0  0  0  0  0  0  0  0  0
   10.7581   -3.1233   19.4720 N   0  0  0  0  0  0  0  0  0  0  0  0
    9.9571   -4.0573   16.8866 C   0  0  0  0  0  0  0  0  0  0  0  0
    7.6213   -6.5618   16.0087 C   0  0  0  0  0  0  0  0  0  0  0  0
   10.8583   -2.6527   20.7222 C   0  0  0  0  0  0  0  0  0  0  0  0
   10.6412   -3.5089   21.7936 C   0  0  0  0  0  0  0  0  0  0  0  0
   10.4972   -3.8968   24.1589 C   0  0  0  0  0  0  0  0  0  0  0  0
    5.9260   -8.2736   16.5517 C   0  0  0  0  0  0  0  0  0  0  0  0
    3.8816   -9.1166   17.2493 C   0  0  0  0  0  0  0  0  0  0  0  0
   10.1297   -1.6575   23.2324 C   0  0  0  0  0  0  0  0  0  0  0  0
    9.4684   -1.6929   26.7263 F   0  0  0  0  0  0  0  0  0  0  0  0
    7.7963   -7.7906   17.9837 C   0  0  0  0  0  0  0  0  0  0  0  0
   10.5884   -3.0725   16.7902 O   0  0  0  0  0  0  0  0  0  0  0  0
   10.4323   -5.3494   20.3516 C   0  0  0  0  0  0  0  0  0  0  0  0
    7.1156   -7.5454   16.8218 C   0  0  0  0  0  0  0  0  0  0  0  0
   10.3885   -4.4388   19.2773 C   0  0  0  0  0  0  0  0  0  0  0  0
    4.5160   -9.3822   15.0841 C   0  0  0  0  0  0  0  0  0  0  0  0
  1  3  4  0
  1 24  4  0
  2  6  4  0
  2 15  4  0
  3  5  4  0
  3  6  4  0
  4 21  4  0
  4 29  4  0
  5 15  4  0
  5 28  1  0
  6 16  4  0
  7 18  4  0
  7 26  4  0
  8 18  1  0
  8 19  4  0
  8 22  4  0
  9 12  4  0
  9 19  4  0
 10 12  4  0
 10 22  4  0
 11 20  4  0
 11 21  4  0
 12 23  1  0
 13 20  4  0
 13 29  4  0
 14 17  4  0
 14 28  4  0
 15 25  2  0
 16 27  4  0
 17 18  4  0
 20 27  1  0
 24 27  4  0
 26 28  4  0
M  END
$$$$

 Created by Python create_sdf_string function

 29 33  0  0  0  0  0  0  0  0999 V2000
    8.8270   -7.0288   18.4251 C   0  0  0  0  0  0  0  0  0  0  0  0
    9.1576   -4.6236   15.8860 O   0  0  0  0  0  0  0  0  0  0  0  0
    9.1509   -5.9108   17.7177 C   0  0  0  0  0  0  0  0  0  0  0  0
    3.6373   -9.5349   16.0582 N   0  0  0  0  0  0  0  0  0  0  0  0
    9.9275   -4.8001   18.0438 N   0  0  0  0  0  0  0  0  0  0  0  0
    8.5908   -5.7425   16.4412 C   0  0  0  0  0  0  0  0  0  0  0  0
   10.5993   -4.8981   21.6068 C   0  0  0  0  0  0  0  0  0  0  0  0
   10.4258   -3.0106   23.0998 C   0  0  0  0  0  0  0  0  0  0  0  0
   10.2148   -3.4364   25.4200 C   0  0  0  0  0  0  0  0  0  0  0  0
    9.7853   -1.1840   24.4927 C   0  0  0  0  0  0  0  0  0  0  0  0
    5.0276   -8.5227   17.5352 C   0  0  0  0  0  0  0  0  0  0  0  0
    9.8187   -2.0895   25.5800 C   0  0  0  0  0  0  0  0  0  0  0  0
    5.6473   -8.7216   15.3158 C   0  0  0  0  0  0  0  0  0  0  0  0
   10.7581   -3.1233   19.4720 N   0  0  0  0  0  0  0  0  0  0  0  0
    9.9571   -4.0573   16.8866 C   0  0  0  0  0  0  0  0  0  0  0  0
    7.6213   -6.5618   16.0087 C   0  0  0  0  0  0  0  0  0  0  0  0
   10.8583   -2.6527   20.7222 C   0  0  0  0  0  0  0  0  0  0  0  0
   10.6412   -3.5089   21.7936 C   0  0  0  0  0  0  0  0  0  0  0  0
   10.4972   -3.8968   24.1589 C   0  0  0  0  0  0  0  0  0  0  0  0
    5.9260   -8.2736   16.5517 C   0  0  0  0  0  0  0  0  0  0  0  0
    3.8816   -9.1166   17.2493 C   0  0  0  0  0  0  0  0  0  0  0  0
   10.1297   -1.6575   23.2324 C   0  0  0  0  0  0  0  0  0  0  0  0
    9.4684   -1.6929   26.7263 F   0  0  0  0  0  0  0  0  0  0  0  0
    7.7963   -7.7906   17.9837 C   0  0  0  0  0  0  0  0  0  0  0  0
   10.5884   -3.0725   16.7902 O   0  0  0  0  0  0  0  0  0  0  0  0
   10.4323   -5.3494   20.3516 C   0  0  0  0  0  0  0  0  0  0  0  0
    7.1156   -7.5454   16.8218 C   0  0  0  0  0  0  0  0  0  0  0  0
   10.3885   -4.4388   19.2773 C   0  0  0  0  0  0  0  0  0  0  0  0
    4.5160   -9.3822   15.0841 C   0  0  0  0  0  0  0  0  0  0  0  0
  1  3  4  0
  1 24  4  0
  2  6  4  0
  2 15  4  0
  3  5  4  0
  3  6  4  0
  4 21  4  0
  4 29  4  0
  5 15  4  0
  5 28  1  0
  6 16  4  0
  7 18  4  0
  7 26  4  0
  8 18  1  0
  8 19  4  0
  8 22  4  0
  9 12  4  0
  9 19  4  0
 10 12  4  0
 10 22  4  0
 11 20  4  0
 11 21  4  0
 12 23  1  0
 13 20  4  0
 13 29  4  0
 14 17  4  0
 14 28  4  0
 15 25  2  0
 16 27  4  0
 17 18  4  0
 20 27  1  0
 24 27  4  0
 26 28  4  0
M  END
$$$$

 Created by Python create_sdf_string function

 29 33  0  0  0  0  0  0  0  0999 V2000
    8.8270   -7.0288   18.4251 C   0  0  0  0  0  0  0  0  0  0  0  0
    9.1576   -4.6236   15.8860 O   0  0  0  0  0  0  0  0  0  0  0  0
    9.1509   -5.9108   17.7177 C   0  0  0  0  0  0  0  0  0  0  0  0
    3.6373   -9.5349   16.0582 N   0  0  0  0  0  0  0  0  0  0  0  0
    9.9275   -4.8001   18.0438 N   0  0  0  0  0  0  0  0  0  0  0  0
    8.5908   -5.7425   16.4412 C   0  0  0  0  0  0  0  0  0  0  0  0
   10.5993   -4.8981   21.6068 C   0  0  0  0  0  0  0  0  0  0  0  0
   10.4258   -3.0106   23.0998 C   0  0  0  0  0  0  0  0  0  0  0  0
   10.2148   -3.4364   25.4200 C   0  0  0  0  0  0  0  0  0  0  0  0
    9.7853   -1.1840   24.4927 C   0  0  0  0  0  0  0  0  0  0  0  0
    5.0276   -8.5227   17.5352 C   0  0  0  0  0  0  0  0  0  0  0  0
    9.8187   -2.0895   25.5800 C   0  0  0  0  0  0  0  0  0  0  0  0
    5.6473   -8.7216   15.3158 C   0  0  0  0  0  0  0  0  0  0  0  0
   10.7581   -3.1233   19.4720 N   0  0  0  0  0  0  0  0  0  0  0  0
    9.9571   -4.0573   16.8866 C   0  0  0  0  0  0  0  0  0  0  0  0
    7.6213   -6.5618   16.0087 C   0  0  0  0  0  0  0  0  0  0  0  0
   10.8583   -2.6527   20.7222 C   0  0  0  0  0  0  0  0  0  0  0  0
   10.6412   -3.5089   21.7936 C   0  0  0  0  0  0  0  0  0  0  0  0
   10.4972   -3.8968   24.1589 C   0  0  0  0  0  0  0  0  0  0  0  0
    5.9260   -8.2736   16.5517 C   0  0  0  0  0  0  0  0  0  0  0  0
    3.8816   -9.1166   17.2493 C   0  0  0  0  0  0  0  0  0  0  0  0
   10.1297   -1.6575   23.2324 C   0  0  0  0  0  0  0  0  0  0  0  0
    9.4684   -1.6929   26.7263 F   0  0  0  0  0  0  0  0  0  0  0  0
    7.7963   -7.7906   17.9837 C   0  0  0  0  0  0  0  0  0  0  0  0
   10.5884   -3.0725   16.7902 O   0  0  0  0  0  0  0  0  0  0  0  0
   10.4323   -5.3494   20.3516 C   0  0  0  0  0  0  0  0  0  0  0  0
    7.1156   -7.5454   16.8218 C   0  0  0  0  0  0  0  0  0  0  0  0
   10.3885   -4.4388   19.2773 C   0  0  0  0  0  0  0  0  0  0  0  0
    4.5160   -9.3822   15.0841 C   0  0  0  0  0  0  0  0  0  0  0  0
  1  3  4  0
  1 24  4  0
  2  6  4  0
  2 15  4  0
  3  5  4  0
  3  6  4  0
  4 21  4  0
  4 29  4  0
  5 15  4  0
  5 28  1  0
  6 16  4  0
  7 18  4  0
  7 26  4  0
  8 18  1  0
  8 19  4  0
  8 22  4  0
  9 12  4  0
  9 19  4  0
 10 12  4  0
 10 22  4  0
 11 20  4  0
 11 21  4  0
 12 23  1  0
 13 20  4  0
 13 29  4  0
 14 17  4  0
 14 28  4  0
 15 25  2  0
 16 27  4  0
 17 18  4  0
 20 27  1  0
 24 27  4  0
 26 28  4  0
M  END
$$$$

 Created by Python create_sdf_string function

 29 33  0  0  0  0  0  0  0  0999 V2000
    8.8270   -7.0288   18.4251 C   0  0  0  0  0  0  0  0  0  0  0  0
    9.1576   -4.6236   15.8860 O   0  0  0  0  0  0  0  0  0  0  0  0
    9.1509   -5.9108   17.7177 C   0  0  0  0  0  0  0  0  0  0  0  0
    3.6373   -9.5349   16.0582 N   0  0  0  0  0  0  0  0  0  0  0  0
    9.9275   -4.8001   18.0438 N   0  0  0  0  0  0  0  0  0  0  0  0
    8.5908   -5.7425   16.4412 C   0  0  0  0  0  0  0  0  0  0  0  0
   10.5993   -4.8981   21.6068 C   0  0  0  0  0  0  0  0  0  0  0  0
   10.4258   -3.0106   23.0998 C   0  0  0  0  0  0  0  0  0  0  0  0
   10.2148   -3.4364   25.4200 C   0  0  0  0  0  0  0  0  0  0  0  0
    9.7853   -1.1840   24.4927 C   0  0  0  0  0  0  0  0  0  0  0  0
    5.0276   -8.5227   17.5352 C   0  0  0  0  0  0  0  0  0  0  0  0
    9.8187   -2.0895   25.5800 C   0  0  0  0  0  0  0  0  0  0  0  0
    5.6473   -8.7216   15.3158 C   0  0  0  0  0  0  0  0  0  0  0  0
   10.7581   -3.1233   19.4720 N   0  0  0  0  0  0  0  0  0  0  0  0
    9.9571   -4.0573   16.8866 C   0  0  0  0  0  0  0  0  0  0  0  0
    7.6213   -6.5618   16.0087 C   0  0  0  0  0  0  0  0  0  0  0  0
   10.8583   -2.6527   20.7222 C   0  0  0  0  0  0  0  0  0  0  0  0
   10.6412   -3.5089   21.7936 C   0  0  0  0  0  0  0  0  0  0  0  0
   10.4972   -3.8968   24.1589 C   0  0  0  0  0  0  0  0  0  0  0  0
    5.9260   -8.2736   16.5517 C   0  0  0  0  0  0  0  0  0  0  0  0
    3.8816   -9.1166   17.2493 C   0  0  0  0  0  0  0  0  0  0  0  0
   10.1297   -1.6575   23.2324 C   0  0  0  0  0  0  0  0  0  0  0  0
    9.4684   -1.6929   26.7263 F   0  0  0  0  0  0  0  0  0  0  0  0
    7.7963   -7.7906   17.9837 C   0  0  0  0  0  0  0  0  0  0  0  0
   10.5884   -3.0725   16.7902 O   0  0  0  0  0  0  0  0  0  0  0  0
   10.4323   -5.3494   20.3516 C   0  0  0  0  0  0  0  0  0  0  0  0
    7.1156   -7.5454   16.8218 C   0  0  0  0  0  0  0  0  0  0  0  0
   10.3885   -4.4388   19.2773 C   0  0  0  0  0  0  0  0  0  0  0  0
    4.5160   -9.3822   15.0841 C   0  0  0  0  0  0  0  0  0  0  0  0
  1  3  4  0
  1 24  4  0
  2  6  4  0
  2 15  4  0
  3  5  4  0
  3  6  4  0
  4 21  4  0
  4 29  4  0
  5 15  4  0
  5 28  1  0
  6 16  4  0
  7 18  4  0
  7 26  4  0
  8 18  1  0
  8 19  4  0
  8 22  4  0
  9 12  4  0
  9 19  4  0
 10 12  4  0
 10 22  4  0
 11 20  4  0
 11 21  4  0
 12 23  1  0
 13 20  4  0
 13 29  4  0
 14 17  4  0
 14 28  4  0
 15 25  2  0
 16 27  4  0
 17 18  4  0
 20 27  1  0
 24 27  4  0
 26 28  4  0
M  END
$$$$

 Created by Python create_sdf_string function

 29 33  0  0  0  0  0  0  0  0999 V2000
    8.8270   -7.0288   18.4251 C   0  0  0  0  0  0  0  0  0  0  0  0
    9.1576   -4.6236   15.8860 O   0  0  0  0  0  0  0  0  0  0  0  0
    9.1509   -5.9108   17.7177 C   0  0  0  0  0  0  0  0  0  0  0  0
    3.6373   -9.5349   16.0582 N   0  0  0  0  0  0  0  0  0  0  0  0
    9.9275   -4.8001   18.0438 N   0  0  0  0  0  0  0  0  0  0  0  0
    8.5908   -5.7425   16.4412 C   0  0  0  0  0  0  0  0  0  0  0  0
   10.5993   -4.8981   21.6068 C   0  0  0  0  0  0  0  0  0  0  0  0
   10.4258   -3.0106   23.0998 C   0  0  0  0  0  0  0  0  0  0  0  0
   10.2148   -3.4364   25.4200 C   0  0  0  0  0  0  0  0  0  0  0  0
    9.7853   -1.1840   24.4927 C   0  0  0  0  0  0  0  0  0  0  0  0
    5.0276   -8.5227   17.5352 C   0  0  0  0  0  0  0  0  0  0  0  0
    9.8187   -2.0895   25.5800 C   0  0  0  0  0  0  0  0  0  0  0  0
    5.6473   -8.7216   15.3158 C   0  0  0  0  0  0  0  0  0  0  0  0
   10.7581   -3.1233   19.4720 N   0  0  0  0  0  0  0  0  0  0  0  0
    9.9571   -4.0573   16.8866 C   0  0  0  0  0  0  0  0  0  0  0  0
    7.6213   -6.5618   16.0087 C   0  0  0  0  0  0  0  0  0  0  0  0
   10.8583   -2.6527   20.7222 C   0  0  0  0  0  0  0  0  0  0  0  0
   10.6412   -3.5089   21.7936 C   0  0  0  0  0  0  0  0  0  0  0  0
   10.4972   -3.8968   24.1589 C   0  0  0  0  0  0  0  0  0  0  0  0
    5.9260   -8.2736   16.5517 C   0  0  0  0  0  0  0  0  0  0  0  0
    3.8816   -9.1166   17.2493 C   0  0  0  0  0  0  0  0  0  0  0  0
   10.1297   -1.6575   23.2324 C   0  0  0  0  0  0  0  0  0  0  0  0
    9.4684   -1.6929   26.7263 F   0  0  0  0  0  0  0  0  0  0  0  0
    7.7963   -7.7906   17.9837 C   0  0  0  0  0  0  0  0  0  0  0  0
   10.5884   -3.0725   16.7902 O   0  0  0  0  0  0  0  0  0  0  0  0
   10.4323   -5.3494   20.3516 C   0  0  0  0  0  0  0  0  0  0  0  0
    7.1156   -7.5454   16.8218 C   0  0  0  0  0  0  0  0  0  0  0  0
   10.3885   -4.4388   19.2773 C   0  0  0  0  0  0  0  0  0  0  0  0
    4.5160   -9.3822   15.0841 C   0  0  0  0  0  0  0  0  0  0  0  0
  1  3  4  0
  1 24  4  0
  2  6  4  0
  2 15  4  0
  3  5  4  0
  3  6  4  0
  4 21  4  0
  4 29  4  0
  5 15  4  0
  5 28  1  0
  6 16  4  0
  7 18  4  0
  7 26  4  0
  8 18  1  0
  8 19  4  0
  8 22  4  0
  9 12  4  0
  9 19  4  0
 10 12  4  0
 10 22  4  0
 11 20  4  0
 11 21  4  0
 12 23  1  0
 13 20  4  0
 13 29  4  0
 14 17  4  0
 14 28  4  0
 15 25  2  0
 16 27  4  0
 17 18  4  0
 20 27  1  0
 24 27  4  0
 26 28  4  0
M  END
$$$$

 Created by Python create_sdf_string function

 29 33  0  0  0  0  0  0  0  0999 V2000
    8.8270   -7.0288   18.4251 C   0  0  0  0  0  0  0  0  0  0  0  0
    9.1576   -4.6236   15.8860 O   0  0  0  0  0  0  0  0  0  0  0  0
    9.1509   -5.9108   17.7177 C   0  0  0  0  0  0  0  0  0  0  0  0
    3.6373   -9.5349   16.0582 N   0  0  0  0  0  0  0  0  0  0  0  0
    9.9275   -4.8001   18.0438 N   0  0  0  0  0  0  0  0  0  0  0  0
    8.5908   -5.7425   16.4412 C   0  0  0  0  0  0  0  0  0  0  0  0
   10.5993   -4.8981   21.6068 C   0  0  0  0  0  0  0  0  0  0  0  0
   10.4258   -3.0106   23.0998 C   0  0  0  0  0  0  0  0  0  0  0  0
   10.2148   -3.4364   25.4200 C   0  0  0  0  0  0  0  0  0  0  0  0
    9.7853   -1.1840   24.4927 C   0  0  0  0  0  0  0  0  0  0  0  0
    5.0276   -8.5227   17.5352 C   0  0  0  0  0  0  0  0  0  0  0  0
    9.8187   -2.0895   25.5800 C   0  0  0  0  0  0  0  0  0  0  0  0
    5.6473   -8.7216   15.3158 C   0  0  0  0  0  0  0  0  0  0  0  0
   10.7581   -3.1233   19.4720 N   0  0  0  0  0  0  0  0  0  0  0  0
    9.9571   -4.0573   16.8866 C   0  0  0  0  0  0  0  0  0  0  0  0
    7.6213   -6.5618   16.0087 C   0  0  0  0  0  0  0  0  0  0  0  0
   10.8583   -2.6527   20.7222 C   0  0  0  0  0  0  0  0  0  0  0  0
   10.6412   -3.5089   21.7936 C   0  0  0  0  0  0  0  0  0  0  0  0
   10.4972   -3.8968   24.1589 C   0  0  0  0  0  0  0  0  0  0  0  0
    5.9260   -8.2736   16.5517 C   0  0  0  0  0  0  0  0  0  0  0  0
    3.8816   -9.1166   17.2493 C   0  0  0  0  0  0  0  0  0  0  0  0
   10.1297   -1.6575   23.2324 C   0  0  0  0  0  0  0  0  0  0  0  0
    9.4684   -1.6929   26.7263 F   0  0  0  0  0  0  0  0  0  0  0  0
    7.7963   -7.7906   17.9837 C   0  0  0  0  0  0  0  0  0  0  0  0
   10.5884   -3.0725   16.7902 O   0  0  0  0  0  0  0  0  0  0  0  0
   10.4323   -5.3494   20.3516 C   0  0  0  0  0  0  0  0  0  0  0  0
    7.1156   -7.5454   16.8218 C   0  0  0  0  0  0  0  0  0  0  0  0
   10.3885   -4.4388   19.2773 C   0  0  0  0  0  0  0  0  0  0  0  0
    4.5160   -9.3822   15.0841 C   0  0  0  0  0  0  0  0  0  0  0  0
  1  3  4  0
  1 24  4  0
  2  6  4  0
  2 15  4  0
  3  5  4  0
  3  6  4  0
  4 21  4  0
  4 29  4  0
  5 15  4  0
  5 28  1  0
  6 16  4  0
  7 18  4  0
  7 26  4  0
  8 18  1  0
  8 19  4  0
  8 22  4  0
  9 12  4  0
  9 19  4  0
 10 12  4  0
 10 22  4  0
 11 20  4  0
 11 21  4  0
 12 23  1  0
 13 20  4  0
 13 29  4  0
 14 17  4  0
 14 28  4  0
 15 25  2  0
 16 27  4  0
 17 18  4  0
 20 27  1  0
 24 27  4  0
 26 28  4  0
M  END
$$$$

 Created by Python create_sdf_string function

 29 33  0  0  0  0  0  0  0  0999 V2000
    8.8270   -7.0288   18.4251 C   0  0  0  0  0  0  0  0  0  0  0  0
    9.1576   -4.6236   15.8860 O   0  0  0  0  0  0  0  0  0  0  0  0
    9.1509   -5.9108   17.7177 C   0  0  0  0  0  0  0  0  0  0  0  0
    3.6373   -9.5349   16.0582 N   0  0  0  0  0  0  0  0  0  0  0  0
    9.9275   -4.8001   18.0438 N   0  0  0  0  0  0  0  0  0  0  0  0
    8.5908   -5.7425   16.4412 C   0  0  0  0  0  0  0  0  0  0  0  0
   10.5993   -4.8981   21.6068 C   0  0  0  0  0  0  0  0  0  0  0  0
   10.4258   -3.0106   23.0998 C   0  0  0  0  0  0  0  0  0  0  0  0
   10.2148   -3.4364   25.4200 C   0  0  0  0  0  0  0  0  0  0  0  0
    9.7853   -1.1840   24.4927 C   0  0  0  0  0  0  0  0  0  0  0  0
    5.0276   -8.5227   17.5352 C   0  0  0  0  0  0  0  0  0  0  0  0
    9.8187   -2.0895   25.5800 C   0  0  0  0  0  0  0  0  0  0  0  0
    5.6473   -8.7216   15.3158 C   0  0  0  0  0  0  0  0  0  0  0  0
   10.7581   -3.1233   19.4720 N   0  0  0  0  0  0  0  0  0  0  0  0
    9.9571   -4.0573   16.8866 C   0  0  0  0  0  0  0  0  0  0  0  0
    7.6213   -6.5618   16.0087 C   0  0  0  0  0  0  0  0  0  0  0  0
   10.8583   -2.6527   20.7222 C   0  0  0  0  0  0  0  0  0  0  0  0
   10.6412   -3.5089   21.7936 C   0  0  0  0  0  0  0  0  0  0  0  0
   10.4972   -3.8968   24.1589 C   0  0  0  0  0  0  0  0  0  0  0  0
    5.9260   -8.2736   16.5517 C   0  0  0  0  0  0  0  0  0  0  0  0
    3.8816   -9.1166   17.2493 C   0  0  0  0  0  0  0  0  0  0  0  0
   10.1297   -1.6575   23.2324 C   0  0  0  0  0  0  0  0  0  0  0  0
    9.4684   -1.6929   26.7263 F   0  0  0  0  0  0  0  0  0  0  0  0
    7.7963   -7.7906   17.9837 C   0  0  0  0  0  0  0  0  0  0  0  0
   10.5884   -3.0725   16.7902 O   0  0  0  0  0  0  0  0  0  0  0  0
   10.4323   -5.3494   20.3516 C   0  0  0  0  0  0  0  0  0  0  0  0
    7.1156   -7.5454   16.8218 C   0  0  0  0  0  0  0  0  0  0  0  0
   10.3885   -4.4388   19.2773 C   0  0  0  0  0  0  0  0  0  0  0  0
    4.5160   -9.3822   15.0841 C   0  0  0  0  0  0  0  0  0  0  0  0
  1  3  4  0
  1 24  4  0
  2  6  4  0
  2 15  4  0
  3  5  4  0
  3  6  4  0
  4 21  4  0
  4 29  4  0
  5 15  4  0
  5 28  1  0
  6 16  4  0
  7 18  4  0
  7 26  4  0
  8 18  1  0
  8 19  4  0
  8 22  4  0
  9 12  4  0
  9 19  4  0
 10 12  4  0
 10 22  4  0
 11 20  4  0
 11 21  4  0
 12 23  1  0
 13 20  4  0
 13 29  4  0
 14 17  4  0
 14 28  4  0
 15 25  2  0
 16 27  4  0
 17 18  4  0
 20 27  1  0
 24 27  4  0
 26 28  4  0
M  END
$$$$

 Created by Python create_sdf_string function

 29 33  0  0  0  0  0  0  0  0999 V2000
    8.8270   -7.0288   18.4251 C   0  0  0  0  0  0  0  0  0  0  0  0
    9.1576   -4.6236   15.8860 O   0  0  0  0  0  0  0  0  0  0  0  0
    9.1509   -5.9108   17.7177 C   0  0  0  0  0  0  0  0  0  0  0  0
    3.6373   -9.5349   16.0582 N   0  0  0  0  0  0  0  0  0  0  0  0
    9.9275   -4.8001   18.0438 N   0  0  0  0  0  0  0  0  0  0  0  0
    8.5908   -5.7425   16.4412 C   0  0  0  0  0  0  0  0  0  0  0  0
   10.5993   -4.8981   21.6068 C   0  0  0  0  0  0  0  0  0  0  0  0
   10.4258   -3.0106   23.0998 C   0  0  0  0  0  0  0  0  0  0  0  0
   10.2148   -3.4364   25.4200 C   0  0  0  0  0  0  0  0  0  0  0  0
    9.7853   -1.1840   24.4927 C   0  0  0  0  0  0  0  0  0  0  0  0
    5.0276   -8.5227   17.5352 C   0  0  0  0  0  0  0  0  0  0  0  0
    9.8187   -2.0895   25.5800 C   0  0  0  0  0  0  0  0  0  0  0  0
    5.6473   -8.7216   15.3158 C   0  0  0  0  0  0  0  0  0  0  0  0
   10.7581   -3.1233   19.4720 N   0  0  0  0  0  0  0  0  0  0  0  0
    9.9571   -4.0573   16.8866 C   0  0  0  0  0  0  0  0  0  0  0  0
    7.6213   -6.5618   16.0087 C   0  0  0  0  0  0  0  0  0  0  0  0
   10.8583   -2.6527   20.7222 C   0  0  0  0  0  0  0  0  0  0  0  0
   10.6412   -3.5089   21.7936 C   0  0  0  0  0  0  0  0  0  0  0  0
   10.4972   -3.8968   24.1589 C   0  0  0  0  0  0  0  0  0  0  0  0
    5.9260   -8.2736   16.5517 C   0  0  0  0  0  0  0  0  0  0  0  0
    3.8816   -9.1166   17.2493 C   0  0  0  0  0  0  0  0  0  0  0  0
   10.1297   -1.6575   23.2324 C   0  0  0  0  0  0  0  0  0  0  0  0
    9.4684   -1.6929   26.7263 F   0  0  0  0  0  0  0  0  0  0  0  0
    7.7963   -7.7906   17.9837 C   0  0  0  0  0  0  0  0  0  0  0  0
   10.5884   -3.0725   16.7902 O   0  0  0  0  0  0  0  0  0  0  0  0
   10.4323   -5.3494   20.3516 C   0  0  0  0  0  0  0  0  0  0  0  0
    7.1156   -7.5454   16.8218 C   0  0  0  0  0  0  0  0  0  0  0  0
   10.3885   -4.4388   19.2773 C   0  0  0  0  0  0  0  0  0  0  0  0
    4.5160   -9.3822   15.0841 C   0  0  0  0  0  0  0  0  0  0  0  0
  1  3  4  0
  1 24  4  0
  2  6  4  0
  2 15  4  0
  3  5  4  0
  3  6  4  0
  4 21  4  0
  4 29  4  0
  5 15  4  0
  5 28  1  0
  6 16  4  0
  7 18  4  0
  7 26  4  0
  8 18  1  0
  8 19  4  0
  8 22  4  0
  9 12  4  0
  9 19  4  0
 10 12  4  0
 10 22  4  0
 11 20  4  0
 11 21  4  0
 12 23  1  0
 13 20  4  0
 13 29  4  0
 14 17  4  0
 14 28  4  0
 15 25  2  0
 16 27  4  0
 17 18  4  0
 20 27  1  0
 24 27  4  0
 26 28  4  0
M  END
$$$$

 Created by Python create_sdf_string function

 29 33  0  0  0  0  0  0  0  0999 V2000
    8.8270   -7.0288   18.4251 C   0  0  0  0  0  0  0  0  0  0  0  0
    9.1576   -4.6236   15.8860 O   0  0  0  0  0  0  0  0  0  0  0  0
    9.1509   -5.9108   17.7177 C   0  0  0  0  0  0  0  0  0  0  0  0
    3.6373   -9.5349   16.0582 N   0  0  0  0  0  0  0  0  0  0  0  0
    9.9275   -4.8001   18.0438 N   0  0  0  0  0  0  0  0  0  0  0  0
    8.5908   -5.7425   16.4412 C   0  0  0  0  0  0  0  0  0  0  0  0
   10.5993   -4.8981   21.6068 C   0  0  0  0  0  0  0  0  0  0  0  0
   10.4258   -3.0106   23.0998 C   0  0  0  0  0  0  0  0  0  0  0  0
   10.2148   -3.4364   25.4200 C   0  0  0  0  0  0  0  0  0  0  0  0
    9.7853   -1.1840   24.4927 C   0  0  0  0  0  0  0  0  0  0  0  0
    5.0276   -8.5227   17.5352 C   0  0  0  0  0  0  0  0  0  0  0  0
    9.8187   -2.0895   25.5800 C   0  0  0  0  0  0  0  0  0  0  0  0
    5.6473   -8.7216   15.3158 C   0  0  0  0  0  0  0  0  0  0  0  0
   10.7581   -3.1233   19.4720 N   0  0  0  0  0  0  0  0  0  0  0  0
    9.9571   -4.0573   16.8866 C   0  0  0  0  0  0  0  0  0  0  0  0
    7.6213   -6.5618   16.0087 C   0  0  0  0  0  0  0  0  0  0  0  0
   10.8583   -2.6527   20.7222 C   0  0  0  0  0  0  0  0  0  0  0  0
   10.6412   -3.5089   21.7936 C   0  0  0  0  0  0  0  0  0  0  0  0
   10.4972   -3.8968   24.1589 C   0  0  0  0  0  0  0  0  0  0  0  0
    5.9260   -8.2736   16.5517 C   0  0  0  0  0  0  0  0  0  0  0  0
    3.8816   -9.1166   17.2493 C   0  0  0  0  0  0  0  0  0  0  0  0
   10.1297   -1.6575   23.2324 C   0  0  0  0  0  0  0  0  0  0  0  0
    9.4684   -1.6929   26.7263 F   0  0  0  0  0  0  0  0  0  0  0  0
    7.7963   -7.7906   17.9837 C   0  0  0  0  0  0  0  0  0  0  0  0
   10.5884   -3.0725   16.7902 O   0  0  0  0  0  0  0  0  0  0  0  0
   10.4323   -5.3494   20.3516 C   0  0  0  0  0  0  0  0  0  0  0  0
    7.1156   -7.5454   16.8218 C   0  0  0  0  0  0  0  0  0  0  0  0
   10.3885   -4.4388   19.2773 C   0  0  0  0  0  0  0  0  0  0  0  0
    4.5160   -9.3822   15.0841 C   0  0  0  0  0  0  0  0  0  0  0  0
  1  3  4  0
  1 24  4  0
  2  6  4  0
  2 15  4  0
  3  5  4  0
  3  6  4  0
  4 21  4  0
  4 29  4  0
  5 15  4  0
  5 28  1  0
  6 16  4  0
  7 18  4  0
  7 26  4  0
  8 18  1  0
  8 19  4  0
  8 22  4  0
  9 12  4  0
  9 19  4  0
 10 12  4  0
 10 22  4  0
 11 20  4  0
 11 21  4  0
 12 23  1  0
 13 20  4  0
 13 29  4  0
 14 17  4  0
 14 28  4  0
 15 25  2  0
 16 27  4  0
 17 18  4  0
 20 27  1  0
 24 27  4  0
 26 28  4  0
M  END
$$$$

 Created by Python create_sdf_string function

 29 33  0  0  0  0  0  0  0  0999 V2000
    8.8270   -7.0288   18.4251 C   0  0  0  0  0  0  0  0  0  0  0  0
    9.1576   -4.6236   15.8860 O   0  0  0  0  0  0  0  0  0  0  0  0
    9.1509   -5.9108   17.7177 C   0  0  0  0  0  0  0  0  0  0  0  0
    3.6373   -9.5349   16.0582 N   0  0  0  0  0  0  0  0  0  0  0  0
    9.9275   -4.8001   18.0438 N   0  0  0  0  0  0  0  0  0  0  0  0
    8.5908   -5.7425   16.4412 C   0  0  0  0  0  0  0  0  0  0  0  0
   10.5993   -4.8981   21.6068 C   0  0  0  0  0  0  0  0  0  0  0  0
   10.4258   -3.0106   23.0998 C   0  0  0  0  0  0  0  0  0  0  0  0
   10.2148   -3.4364   25.4200 C   0  0  0  0  0  0  0  0  0  0  0  0
    9.7853   -1.1840   24.4927 C   0  0  0  0  0  0  0  0  0  0  0  0
    5.0276   -8.5227   17.5352 C   0  0  0  0  0  0  0  0  0  0  0  0
    9.8187   -2.0895   25.5800 C   0  0  0  0  0  0  0  0  0  0  0  0
    5.6473   -8.7216   15.3158 C   0  0  0  0  0  0  0  0  0  0  0  0
   10.7581   -3.1233   19.4720 N   0  0  0  0  0  0  0  0  0  0  0  0
    9.9571   -4.0573   16.8866 C   0  0  0  0  0  0  0  0  0  0  0  0
    7.6213   -6.5618   16.0087 C   0  0  0  0  0  0  0  0  0  0  0  0
   10.8583   -2.6527   20.7222 C   0  0  0  0  0  0  0  0  0  0  0  0
   10.6412   -3.5089   21.7936 C   0  0  0  0  0  0  0  0  0  0  0  0
   10.4972   -3.8968   24.1589 C   0  0  0  0  0  0  0  0  0  0  0  0
    5.9260   -8.2736   16.5517 C   0  0  0  0  0  0  0  0  0  0  0  0
    3.8816   -9.1166   17.2493 C   0  0  0  0  0  0  0  0  0  0  0  0
   10.1297   -1.6575   23.2324 C   0  0  0  0  0  0  0  0  0  0  0  0
    9.4684   -1.6929   26.7263 F   0  0  0  0  0  0  0  0  0  0  0  0
    7.7963   -7.7906   17.9837 C   0  0  0  0  0  0  0  0  0  0  0  0
   10.5884   -3.0725   16.7902 O   0  0  0  0  0  0  0  0  0  0  0  0
   10.4323   -5.3494   20.3516 C   0  0  0  0  0  0  0  0  0  0  0  0
    7.1156   -7.5454   16.8218 C   0  0  0  0  0  0  0  0  0  0  0  0
   10.3885   -4.4388   19.2773 C   0  0  0  0  0  0  0  0  0  0  0  0
    4.5160   -9.3822   15.0841 C   0  0  0  0  0  0  0  0  0  0  0  0
  1  3  4  0
  1 24  4  0
  2  6  4  0
  2 15  4  0
  3  5  4  0
  3  6  4  0
  4 21  4  0
  4 29  4  0
  5 15  4  0
  5 28  1  0
  6 16  4  0
  7 18  4  0
  7 26  4  0
  8 18  1  0
  8 19  4  0
  8 22  4  0
  9 12  4  0
  9 19  4  0
 10 12  4  0
 10 22  4  0
 11 20  4  0
 11 21  4  0
 12 23  1  0
 13 20  4  0
 13 29  4  0
 14 17  4  0
 14 28  4  0
 15 25  2  0
 16 27  4  0
 17 18  4  0
 20 27  1  0
 24 27  4  0
 26 28  4  0
M  END
$$$$

 Created by Python create_sdf_string function

 29 33  0  0  0  0  0  0  0  0999 V2000
    8.8270   -7.0288   18.4251 C   0  0  0  0  0  0  0  0  0  0  0  0
    9.1576   -4.6236   15.8860 O   0  0  0  0  0  0  0  0  0  0  0  0
    9.1509   -5.9108   17.7177 C   0  0  0  0  0  0  0  0  0  0  0  0
    3.6373   -9.5349   16.0582 N   0  0  0  0  0  0  0  0  0  0  0  0
    9.9275   -4.8001   18.0438 N   0  0  0  0  0  0  0  0  0  0  0  0
    8.5908   -5.7425   16.4412 C   0  0  0  0  0  0  0  0  0  0  0  0
   10.5993   -4.8981   21.6068 C   0  0  0  0  0  0  0  0  0  0  0  0
   10.4258   -3.0106   23.0998 C   0  0  0  0  0  0  0  0  0  0  0  0
   10.2148   -3.4364   25.4200 C   0  0  0  0  0  0  0  0  0  0  0  0
    9.7853   -1.1840   24.4927 C   0  0  0  0  0  0  0  0  0  0  0  0
    5.0276   -8.5227   17.5352 C   0  0  0  0  0  0  0  0  0  0  0  0
    9.8187   -2.0895   25.5800 C   0  0  0  0  0  0  0  0  0  0  0  0
    5.6473   -8.7216   15.3158 C   0  0  0  0  0  0  0  0  0  0  0  0
   10.7581   -3.1233   19.4720 N   0  0  0  0  0  0  0  0  0  0  0  0
    9.9571   -4.0573   16.8866 C   0  0  0  0  0  0  0  0  0  0  0  0
    7.6213   -6.5618   16.0087 C   0  0  0  0  0  0  0  0  0  0  0  0
   10.8583   -2.6527   20.7222 C   0  0  0  0  0  0  0  0  0  0  0  0
   10.6412   -3.5089   21.7936 C   0  0  0  0  0  0  0  0  0  0  0  0
   10.4972   -3.8968   24.1589 C   0  0  0  0  0  0  0  0  0  0  0  0
    5.9260   -8.2736   16.5517 C   0  0  0  0  0  0  0  0  0  0  0  0
    3.8816   -9.1166   17.2493 C   0  0  0  0  0  0  0  0  0  0  0  0
   10.1297   -1.6575   23.2324 C   0  0  0  0  0  0  0  0  0  0  0  0
    9.4684   -1.6929   26.7263 F   0  0  0  0  0  0  0  0  0  0  0  0
    7.7963   -7.7906   17.9837 C   0  0  0  0  0  0  0  0  0  0  0  0
   10.5884   -3.0725   16.7902 O   0  0  0  0  0  0  0  0  0  0  0  0
   10.4323   -5.3494   20.3516 C   0  0  0  0  0  0  0  0  0  0  0  0
    7.1156   -7.5454   16.8218 C   0  0  0  0  0  0  0  0  0  0  0  0
   10.3885   -4.4388   19.2773 C   0  0  0  0  0  0  0  0  0  0  0  0
    4.5160   -9.3822   15.0841 C   0  0  0  0  0  0  0  0  0  0  0  0
  1  3  4  0
  1 24  4  0
  2  6  4  0
  2 15  4  0
  3  5  4  0
  3  6  4  0
  4 21  4  0
  4 29  4  0
  5 15  4  0
  5 28  1  0
  6 16  4  0
  7 18  4  0
  7 26  4  0
  8 18  1  0
  8 19  4  0
  8 22  4  0
  9 12  4  0
  9 19  4  0
 10 12  4  0
 10 22  4  0
 11 20  4  0
 11 21  4  0
 12 23  1  0
 13 20  4  0
 13 29  4  0
 14 17  4  0
 14 28  4  0
 15 25  2  0
 16 27  4  0
 17 18  4  0
 20 27  1  0
 24 27  4  0
 26 28  4  0
M  END
$$$$

 Created by Python create_sdf_string function

 29 33  0  0  0  0  0  0  0  0999 V2000
    8.8270   -7.0288   18.4251 C   0  0  0  0  0  0  0  0  0  0  0  0
    9.1576   -4.6236   15.8860 O   0  0  0  0  0  0  0  0  0  0  0  0
    9.1509   -5.9108   17.7177 C   0  0  0  0  0  0  0  0  0  0  0  0
    3.6373   -9.5349   16.0582 N   0  0  0  0  0  0  0  0  0  0  0  0
    9.9275   -4.8001   18.0438 N   0  0  0  0  0  0  0  0  0  0  0  0
    8.5908   -5.7425   16.4412 C   0  0  0  0  0  0  0  0  0  0  0  0
   10.5993   -4.8981   21.6068 C   0  0  0  0  0  0  0  0  0  0  0  0
   10.4258   -3.0106   23.0998 C   0  0  0  0  0  0  0  0  0  0  0  0
   10.2148   -3.4364   25.4200 C   0  0  0  0  0  0  0  0  0  0  0  0
    9.7853   -1.1840   24.4927 C   0  0  0  0  0  0  0  0  0  0  0  0
    5.0276   -8.5227   17.5352 C   0  0  0  0  0  0  0  0  0  0  0  0
    9.8187   -2.0895   25.5800 C   0  0  0  0  0  0  0  0  0  0  0  0
    5.6473   -8.7216   15.3158 C   0  0  0  0  0  0  0  0  0  0  0  0
   10.7581   -3.1233   19.4720 N   0  0  0  0  0  0  0  0  0  0  0  0
    9.9571   -4.0573   16.8866 C   0  0  0  0  0  0  0  0  0  0  0  0
    7.6213   -6.5618   16.0087 C   0  0  0  0  0  0  0  0  0  0  0  0
   10.8583   -2.6527   20.7222 C   0  0  0  0  0  0  0  0  0  0  0  0
   10.6412   -3.5089   21.7936 C   0  0  0  0  0  0  0  0  0  0  0  0
   10.4972   -3.8968   24.1589 C   0  0  0  0  0  0  0  0  0  0  0  0
    5.9260   -8.2736   16.5517 C   0  0  0  0  0  0  0  0  0  0  0  0
    3.8816   -9.1166   17.2493 C   0  0  0  0  0  0  0  0  0  0  0  0
   10.1297   -1.6575   23.2324 C   0  0  0  0  0  0  0  0  0  0  0  0
    9.4684   -1.6929   26.7263 F   0  0  0  0  0  0  0  0  0  0  0  0
    7.7963   -7.7906   17.9837 C   0  0  0  0  0  0  0  0  0  0  0  0
   10.5884   -3.0725   16.7902 O   0  0  0  0  0  0  0  0  0  0  0  0
   10.4323   -5.3494   20.3516 C   0  0  0  0  0  0  0  0  0  0  0  0
    7.1156   -7.5454   16.8218 C   0  0  0  0  0  0  0  0  0  0  0  0
   10.3885   -4.4388   19.2773 C   0  0  0  0  0  0  0  0  0  0  0  0
    4.5160   -9.3822   15.0841 C   0  0  0  0  0  0  0  0  0  0  0  0
  1  3  4  0
  1 24  4  0
  2  6  4  0
  2 15  4  0
  3  5  4  0
  3  6  4  0
  4 21  4  0
  4 29  4  0
  5 15  4  0
  5 28  1  0
  6 16  4  0
  7 18  4  0
  7 26  4  0
  8 18  1  0
  8 19  4  0
  8 22  4  0
  9 12  4  0
  9 19  4  0
 10 12  4  0
 10 22  4  0
 11 20  4  0
 11 21  4  0
 12 23  1  0
 13 20  4  0
 13 29  4  0
 14 17  4  0
 14 28  4  0
 15 25  2  0
 16 27  4  0
 17 18  4  0
 20 27  1  0
 24 27  4  0
 26 28  4  0
M  END
$$$$

 Created by Python create_sdf_string function

 29 33  0  0  0  0  0  0  0  0999 V2000
    8.8270   -7.0288   18.4251 C   0  0  0  0  0  0  0  0  0  0  0  0
    9.1576   -4.6236   15.8860 O   0  0  0  0  0  0  0  0  0  0  0  0
    9.1509   -5.9108   17.7177 C   0  0  0  0  0  0  0  0  0  0  0  0
    3.6373   -9.5349   16.0582 N   0  0  0  0  0  0  0  0  0  0  0  0
    9.9275   -4.8001   18.0438 N   0  0  0  0  0  0  0  0  0  0  0  0
    8.5908   -5.7425   16.4412 C   0  0  0  0  0  0  0  0  0  0  0  0
   10.5993   -4.8981   21.6068 C   0  0  0  0  0  0  0  0  0  0  0  0
   10.4258   -3.0106   23.0998 C   0  0  0  0  0  0  0  0  0  0  0  0
   10.2148   -3.4364   25.4200 C   0  0  0  0  0  0  0  0  0  0  0  0
    9.7853   -1.1840   24.4927 C   0  0  0  0  0  0  0  0  0  0  0  0
    5.0276   -8.5227   17.5352 C   0  0  0  0  0  0  0  0  0  0  0  0
    9.8187   -2.0895   25.5800 C   0  0  0  0  0  0  0  0  0  0  0  0
    5.6473   -8.7216   15.3158 C   0  0  0  0  0  0  0  0  0  0  0  0
   10.7581   -3.1233   19.4720 N   0  0  0  0  0  0  0  0  0  0  0  0
    9.9571   -4.0573   16.8866 C   0  0  0  0  0  0  0  0  0  0  0  0
    7.6213   -6.5618   16.0087 C   0  0  0  0  0  0  0  0  0  0  0  0
   10.8583   -2.6527   20.7222 C   0  0  0  0  0  0  0  0  0  0  0  0
   10.6412   -3.5089   21.7936 C   0  0  0  0  0  0  0  0  0  0  0  0
   10.4972   -3.8968   24.1589 C   0  0  0  0  0  0  0  0  0  0  0  0
    5.9260   -8.2736   16.5517 C   0  0  0  0  0  0  0  0  0  0  0  0
    3.8816   -9.1166   17.2493 C   0  0  0  0  0  0  0  0  0  0  0  0
   10.1297   -1.6575   23.2324 C   0  0  0  0  0  0  0  0  0  0  0  0
    9.4684   -1.6929   26.7263 F   0  0  0  0  0  0  0  0  0  0  0  0
    7.7963   -7.7906   17.9837 C   0  0  0  0  0  0  0  0  0  0  0  0
   10.5884   -3.0725   16.7902 O   0  0  0  0  0  0  0  0  0  0  0  0
   10.4323   -5.3494   20.3516 C   0  0  0  0  0  0  0  0  0  0  0  0
    7.1156   -7.5454   16.8218 C   0  0  0  0  0  0  0  0  0  0  0  0
   10.3885   -4.4388   19.2773 C   0  0  0  0  0  0  0  0  0  0  0  0
    4.5160   -9.3822   15.0841 C   0  0  0  0  0  0  0  0  0  0  0  0
  1  3  4  0
  1 24  4  0
  2  6  4  0
  2 15  4  0
  3  5  4  0
  3  6  4  0
  4 21  4  0
  4 29  4  0
  5 15  4  0
  5 28  1  0
  6 16  4  0
  7 18  4  0
  7 26  4  0
  8 18  1  0
  8 19  4  0
  8 22  4  0
  9 12  4  0
  9 19  4  0
 10 12  4  0
 10 22  4  0
 11 20  4  0
 11 21  4  0
 12 23  1  0
 13 20  4  0
 13 29  4  0
 14 17  4  0
 14 28  4  0
 15 25  2  0
 16 27  4  0
 17 18  4  0
 20 27  1  0
 24 27  4  0
 26 28  4  0
M  END
$$$$

 Created by Python create_sdf_string function

 29 33  0  0  0  0  0  0  0  0999 V2000
    8.8270   -7.0288   18.4251 C   0  0  0  0  0  0  0  0  0  0  0  0
    9.1576   -4.6236   15.8860 O   0  0  0  0  0  0  0  0  0  0  0  0
    9.1509   -5.9108   17.7177 C   0  0  0  0  0  0  0  0  0  0  0  0
    3.6373   -9.5349   16.0582 N   0  0  0  0  0  0  0  0  0  0  0  0
    9.9275   -4.8001   18.0438 N   0  0  0  0  0  0  0  0  0  0  0  0
    8.5908   -5.7425   16.4412 C   0  0  0  0  0  0  0  0  0  0  0  0
   10.5993   -4.8981   21.6068 C   0  0  0  0  0  0  0  0  0  0  0  0
   10.4258   -3.0106   23.0998 C   0  0  0  0  0  0  0  0  0  0  0  0
   10.2148   -3.4364   25.4200 C   0  0  0  0  0  0  0  0  0  0  0  0
    9.7853   -1.1840   24.4927 C   0  0  0  0  0  0  0  0  0  0  0  0
    5.0276   -8.5227   17.5352 C   0  0  0  0  0  0  0  0  0  0  0  0
    9.8187   -2.0895   25.5800 C   0  0  0  0  0  0  0  0  0  0  0  0
    5.6473   -8.7216   15.3158 C   0  0  0  0  0  0  0  0  0  0  0  0
   10.7581   -3.1233   19.4720 N   0  0  0  0  0  0  0  0  0  0  0  0
    9.9571   -4.0573   16.8866 C   0  0  0  0  0  0  0  0  0  0  0  0
    7.6213   -6.5618   16.0087 C   0  0  0  0  0  0  0  0  0  0  0  0
   10.8583   -2.6527   20.7222 C   0  0  0  0  0  0  0  0  0  0  0  0
   10.6412   -3.5089   21.7936 C   0  0  0  0  0  0  0  0  0  0  0  0
   10.4972   -3.8968   24.1589 C   0  0  0  0  0  0  0  0  0  0  0  0
    5.9260   -8.2736   16.5517 C   0  0  0  0  0  0  0  0  0  0  0  0
    3.8816   -9.1166   17.2493 C   0  0  0  0  0  0  0  0  0  0  0  0
   10.1297   -1.6575   23.2324 C   0  0  0  0  0  0  0  0  0  0  0  0
    9.4684   -1.6929   26.7263 F   0  0  0  0  0  0  0  0  0  0  0  0
    7.7963   -7.7906   17.9837 C   0  0  0  0  0  0  0  0  0  0  0  0
   10.5884   -3.0725   16.7902 O   0  0  0  0  0  0  0  0  0  0  0  0
   10.4323   -5.3494   20.3516 C   0  0  0  0  0  0  0  0  0  0  0  0
    7.1156   -7.5454   16.8218 C   0  0  0  0  0  0  0  0  0  0  0  0
   10.3885   -4.4388   19.2773 C   0  0  0  0  0  0  0  0  0  0  0  0
    4.5160   -9.3822   15.0841 C   0  0  0  0  0  0  0  0  0  0  0  0
  1  3  4  0
  1 24  4  0
  2  6  4  0
  2 15  4  0
  3  5  4  0
  3  6  4  0
  4 21  4  0
  4 29  4  0
  5 15  4  0
  5 28  1  0
  6 16  4  0
  7 18  4  0
  7 26  4  0
  8 18  1  0
  8 19  4  0
  8 22  4  0
  9 12  4  0
  9 19  4  0
 10 12  4  0
 10 22  4  0
 11 20  4  0
 11 21  4  0
 12 23  1  0
 13 20  4  0
 13 29  4  0
 14 17  4  0
 14 28  4  0
 15 25  2  0
 16 27  4  0
 17 18  4  0
 20 27  1  0
 24 27  4  0
 26 28  4  0
M  END
$$$$

 Created by Python create_sdf_string function

 29 33  0  0  0  0  0  0  0  0999 V2000
    8.8270   -7.0288   18.4251 C   0  0  0  0  0  0  0  0  0  0  0  0
    9.1576   -4.6236   15.8860 O   0  0  0  0  0  0  0  0  0  0  0  0
    9.1509   -5.9108   17.7177 C   0  0  0  0  0  0  0  0  0  0  0  0
    3.6373   -9.5349   16.0582 N   0  0  0  0  0  0  0  0  0  0  0  0
    9.9275   -4.8001   18.0438 N   0  0  0  0  0  0  0  0  0  0  0  0
    8.5908   -5.7425   16.4412 C   0  0  0  0  0  0  0  0  0  0  0  0
   10.5993   -4.8981   21.6068 C   0  0  0  0  0  0  0  0  0  0  0  0
   10.4258   -3.0106   23.0998 C   0  0  0  0  0  0  0  0  0  0  0  0
   10.2148   -3.4364   25.4200 C   0  0  0  0  0  0  0  0  0  0  0  0
    9.7853   -1.1840   24.4927 C   0  0  0  0  0  0  0  0  0  0  0  0
    5.0276   -8.5227   17.5352 C   0  0  0  0  0  0  0  0  0  0  0  0
    9.8187   -2.0895   25.5800 C   0  0  0  0  0  0  0  0  0  0  0  0
    5.6473   -8.7216   15.3158 C   0  0  0  0  0  0  0  0  0  0  0  0
   10.7581   -3.1233   19.4720 N   0  0  0  0  0  0  0  0  0  0  0  0
    9.9571   -4.0573   16.8866 C   0  0  0  0  0  0  0  0  0  0  0  0
    7.6213   -6.5618   16.0087 C   0  0  0  0  0  0  0  0  0  0  0  0
   10.8583   -2.6527   20.7222 C   0  0  0  0  0  0  0  0  0  0  0  0
   10.6412   -3.5089   21.7936 C   0  0  0  0  0  0  0  0  0  0  0  0
   10.4972   -3.8968   24.1589 C   0  0  0  0  0  0  0  0  0  0  0  0
    5.9260   -8.2736   16.5517 C   0  0  0  0  0  0  0  0  0  0  0  0
    3.8816   -9.1166   17.2493 C   0  0  0  0  0  0  0  0  0  0  0  0
   10.1297   -1.6575   23.2324 C   0  0  0  0  0  0  0  0  0  0  0  0
    9.4684   -1.6929   26.7263 F   0  0  0  0  0  0  0  0  0  0  0  0
    7.7963   -7.7906   17.9837 C   0  0  0  0  0  0  0  0  0  0  0  0
   10.5884   -3.0725   16.7902 O   0  0  0  0  0  0  0  0  0  0  0  0
   10.4323   -5.3494   20.3516 C   0  0  0  0  0  0  0  0  0  0  0  0
    7.1156   -7.5454   16.8218 C   0  0  0  0  0  0  0  0  0  0  0  0
   10.3885   -4.4388   19.2773 C   0  0  0  0  0  0  0  0  0  0  0  0
    4.5160   -9.3822   15.0841 C   0  0  0  0  0  0  0  0  0  0  0  0
  1  3  4  0
  1 24  4  0
  2  6  4  0
  2 15  4  0
  3  5  4  0
  3  6  4  0
  4 21  4  0
  4 29  4  0
  5 15  4  0
  5 28  1  0
  6 16  4  0
  7 18  4  0
  7 26  4  0
  8 18  1  0
  8 19  4  0
  8 22  4  0
  9 12  4  0
  9 19  4  0
 10 12  4  0
 10 22  4  0
 11 20  4  0
 11 21  4  0
 12 23  1  0
 13 20  4  0
 13 29  4  0
 14 17  4  0
 14 28  4  0
 15 25  2  0
 16 27  4  0
 17 18  4  0
 20 27  1  0
 24 27  4  0
 26 28  4  0
M  END
$$$$

 Created by Python create_sdf_string function

 29 33  0  0  0  0  0  0  0  0999 V2000
    8.8270   -7.0288   18.4251 C   0  0  0  0  0  0  0  0  0  0  0  0
    9.1576   -4.6236   15.8860 O   0  0  0  0  0  0  0  0  0  0  0  0
    9.1509   -5.9108   17.7177 C   0  0  0  0  0  0  0  0  0  0  0  0
    3.6373   -9.5349   16.0582 N   0  0  0  0  0  0  0  0  0  0  0  0
    9.9275   -4.8001   18.0438 N   0  0  0  0  0  0  0  0  0  0  0  0
    8.5908   -5.7425   16.4412 C   0  0  0  0  0  0  0  0  0  0  0  0
   10.5993   -4.8981   21.6068 C   0  0  0  0  0  0  0  0  0  0  0  0
   10.4258   -3.0106   23.0998 C   0  0  0  0  0  0  0  0  0  0  0  0
   10.2148   -3.4364   25.4200 C   0  0  0  0  0  0  0  0  0  0  0  0
    9.7853   -1.1840   24.4927 C   0  0  0  0  0  0  0  0  0  0  0  0
    5.0276   -8.5227   17.5352 C   0  0  0  0  0  0  0  0  0  0  0  0
    9.8187   -2.0895   25.5800 C   0  0  0  0  0  0  0  0  0  0  0  0
    5.6473   -8.7216   15.3158 C   0  0  0  0  0  0  0  0  0  0  0  0
   10.7581   -3.1233   19.4720 N   0  0  0  0  0  0  0  0  0  0  0  0
    9.9571   -4.0573   16.8866 C   0  0  0  0  0  0  0  0  0  0  0  0
    7.6213   -6.5618   16.0087 C   0  0  0  0  0  0  0  0  0  0  0  0
   10.8583   -2.6527   20.7222 C   0  0  0  0  0  0  0  0  0  0  0  0
   10.6412   -3.5089   21.7936 C   0  0  0  0  0  0  0  0  0  0  0  0
   10.4972   -3.8968   24.1589 C   0  0  0  0  0  0  0  0  0  0  0  0
    5.9260   -8.2736   16.5517 C   0  0  0  0  0  0  0  0  0  0  0  0
    3.8816   -9.1166   17.2493 C   0  0  0  0  0  0  0  0  0  0  0  0
   10.1297   -1.6575   23.2324 C   0  0  0  0  0  0  0  0  0  0  0  0
    9.4684   -1.6929   26.7263 F   0  0  0  0  0  0  0  0  0  0  0  0
    7.7963   -7.7906   17.9837 C   0  0  0  0  0  0  0  0  0  0  0  0
   10.5884   -3.0725   16.7902 O   0  0  0  0  0  0  0  0  0  0  0  0
   10.4323   -5.3494   20.3516 C   0  0  0  0  0  0  0  0  0  0  0  0
    7.1156   -7.5454   16.8218 C   0  0  0  0  0  0  0  0  0  0  0  0
   10.3885   -4.4388   19.2773 C   0  0  0  0  0  0  0  0  0  0  0  0
    4.5160   -9.3822   15.0841 C   0  0  0  0  0  0  0  0  0  0  0  0
  1  3  4  0
  1 24  4  0
  2  6  4  0
  2 15  4  0
  3  5  4  0
  3  6  4  0
  4 21  4  0
  4 29  4  0
  5 15  4  0
  5 28  1  0
  6 16  4  0
  7 18  4  0
  7 26  4  0
  8 18  1  0
  8 19  4  0
  8 22  4  0
  9 12  4  0
  9 19  4  0
 10 12  4  0
 10 22  4  0
 11 20  4  0
 11 21  4  0
 12 23  1  0
 13 20  4  0
 13 29  4  0
 14 17  4  0
 14 28  4  0
 15 25  2  0
 16 27  4  0
 17 18  4  0
 20 27  1  0
 24 27  4  0
 26 28  4  0
M  END
$$$$

 Created by Python create_sdf_string function

 29 33  0  0  0  0  0  0  0  0999 V2000
    8.8270   -7.0288   18.4251 C   0  0  0  0  0  0  0  0  0  0  0  0
    9.1576   -4.6236   15.8860 O   0  0  0  0  0  0  0  0  0  0  0  0
    9.1509   -5.9108   17.7177 C   0  0  0  0  0  0  0  0  0  0  0  0
    3.6373   -9.5349   16.0582 N   0  0  0  0  0  0  0  0  0  0  0  0
    9.9275   -4.8001   18.0438 N   0  0  0  0  0  0  0  0  0  0  0  0
    8.5908   -5.7425   16.4412 C   0  0  0  0  0  0  0  0  0  0  0  0
   10.5993   -4.8981   21.6068 C   0  0  0  0  0  0  0  0  0  0  0  0
   10.4258   -3.0106   23.0998 C   0  0  0  0  0  0  0  0  0  0  0  0
   10.2148   -3.4364   25.4200 C   0  0  0  0  0  0  0  0  0  0  0  0
    9.7853   -1.1840   24.4927 C   0  0  0  0  0  0  0  0  0  0  0  0
    5.0276   -8.5227   17.5352 C   0  0  0  0  0  0  0  0  0  0  0  0
    9.8187   -2.0895   25.5800 C   0  0  0  0  0  0  0  0  0  0  0  0
    5.6473   -8.7216   15.3158 C   0  0  0  0  0  0  0  0  0  0  0  0
   10.7581   -3.1233   19.4720 N   0  0  0  0  0  0  0  0  0  0  0  0
    9.9571   -4.0573   16.8866 C   0  0  0  0  0  0  0  0  0  0  0  0
    7.6213   -6.5618   16.0087 C   0  0  0  0  0  0  0  0  0  0  0  0
   10.8583   -2.6527   20.7222 C   0  0  0  0  0  0  0  0  0  0  0  0
   10.6412   -3.5089   21.7936 C   0  0  0  0  0  0  0  0  0  0  0  0
   10.4972   -3.8968   24.1589 C   0  0  0  0  0  0  0  0  0  0  0  0
    5.9260   -8.2736   16.5517 C   0  0  0  0  0  0  0  0  0  0  0  0
    3.8816   -9.1166   17.2493 C   0  0  0  0  0  0  0  0  0  0  0  0
   10.1297   -1.6575   23.2324 C   0  0  0  0  0  0  0  0  0  0  0  0
    9.4684   -1.6929   26.7263 F   0  0  0  0  0  0  0  0  0  0  0  0
    7.7963   -7.7906   17.9837 C   0  0  0  0  0  0  0  0  0  0  0  0
   10.5884   -3.0725   16.7902 O   0  0  0  0  0  0  0  0  0  0  0  0
   10.4323   -5.3494   20.3516 C   0  0  0  0  0  0  0  0  0  0  0  0
    7.1156   -7.5454   16.8218 C   0  0  0  0  0  0  0  0  0  0  0  0
   10.3885   -4.4388   19.2773 C   0  0  0  0  0  0  0  0  0  0  0  0
    4.5160   -9.3822   15.0841 C   0  0  0  0  0  0  0  0  0  0  0  0
  1  3  4  0
  1 24  4  0
  2  6  4  0
  2 15  4  0
  3  5  4  0
  3  6  4  0
  4 21  4  0
  4 29  4  0
  5 15  4  0
  5 28  1  0
  6 16  4  0
  7 18  4  0
  7 26  4  0
  8 18  1  0
  8 19  4  0
  8 22  4  0
  9 12  4  0
  9 19  4  0
 10 12  4  0
 10 22  4  0
 11 20  4  0
 11 21  4  0
 12 23  1  0
 13 20  4  0
 13 29  4  0
 14 17  4  0
 14 28  4  0
 15 25  2  0
 16 27  4  0
 17 18  4  0
 20 27  1  0
 24 27  4  0
 26 28  4  0
M  END
$$$$

 Created by Python create_sdf_string function

 29 33  0  0  0  0  0  0  0  0999 V2000
    8.8270   -7.0288   18.4251 C   0  0  0  0  0  0  0  0  0  0  0  0
    9.1576   -4.6236   15.8860 O   0  0  0  0  0  0  0  0  0  0  0  0
    9.1509   -5.9108   17.7177 C   0  0  0  0  0  0  0  0  0  0  0  0
    3.6373   -9.5349   16.0582 N   0  0  0  0  0  0  0  0  0  0  0  0
    9.9275   -4.8001   18.0438 N   0  0  0  0  0  0  0  0  0  0  0  0
    8.5908   -5.7425   16.4412 C   0  0  0  0  0  0  0  0  0  0  0  0
   10.5993   -4.8981   21.6068 C   0  0  0  0  0  0  0  0  0  0  0  0
   10.4258   -3.0106   23.0998 C   0  0  0  0  0  0  0  0  0  0  0  0
   10.2148   -3.4364   25.4200 C   0  0  0  0  0  0  0  0  0  0  0  0
    9.7853   -1.1840   24.4927 C   0  0  0  0  0  0  0  0  0  0  0  0
    5.0276   -8.5227   17.5352 C   0  0  0  0  0  0  0  0  0  0  0  0
    9.8187   -2.0895   25.5800 C   0  0  0  0  0  0  0  0  0  0  0  0
    5.6473   -8.7216   15.3158 C   0  0  0  0  0  0  0  0  0  0  0  0
   10.7581   -3.1233   19.4720 N   0  0  0  0  0  0  0  0  0  0  0  0
    9.9571   -4.0573   16.8866 C   0  0  0  0  0  0  0  0  0  0  0  0
    7.6213   -6.5618   16.0087 C   0  0  0  0  0  0  0  0  0  0  0  0
   10.8583   -2.6527   20.7222 C   0  0  0  0  0  0  0  0  0  0  0  0
   10.6412   -3.5089   21.7936 C   0  0  0  0  0  0  0  0  0  0  0  0
   10.4972   -3.8968   24.1589 C   0  0  0  0  0  0  0  0  0  0  0  0
    5.9260   -8.2736   16.5517 C   0  0  0  0  0  0  0  0  0  0  0  0
    3.8816   -9.1166   17.2493 C   0  0  0  0  0  0  0  0  0  0  0  0
   10.1297   -1.6575   23.2324 C   0  0  0  0  0  0  0  0  0  0  0  0
    9.4684   -1.6929   26.7263 F   0  0  0  0  0  0  0  0  0  0  0  0
    7.7963   -7.7906   17.9837 C   0  0  0  0  0  0  0  0  0  0  0  0
   10.5884   -3.0725   16.7902 O   0  0  0  0  0  0  0  0  0  0  0  0
   10.4323   -5.3494   20.3516 C   0  0  0  0  0  0  0  0  0  0  0  0
    7.1156   -7.5454   16.8218 C   0  0  0  0  0  0  0  0  0  0  0  0
   10.3885   -4.4388   19.2773 C   0  0  0  0  0  0  0  0  0  0  0  0
    4.5160   -9.3822   15.0841 C   0  0  0  0  0  0  0  0  0  0  0  0
  1  3  4  0
  1 24  4  0
  2  6  4  0
  2 15  4  0
  3  5  4  0
  3  6  4  0
  4 21  4  0
  4 29  4  0
  5 15  4  0
  5 28  1  0
  6 16  4  0
  7 18  4  0
  7 26  4  0
  8 18  1  0
  8 19  4  0
  8 22  4  0
  9 12  4  0
  9 19  4  0
 10 12  4  0
 10 22  4  0
 11 20  4  0
 11 21  4  0
 12 23  1  0
 13 20  4  0
 13 29  4  0
 14 17  4  0
 14 28  4  0
 15 25  2  0
 16 27  4  0
 17 18  4  0
 20 27  1  0
 24 27  4  0
 26 28  4  0
M  END
$$$$

 Created by Python create_sdf_string function

 29 33  0  0  0  0  0  0  0  0999 V2000
    8.8270   -7.0288   18.4251 C   0  0  0  0  0  0  0  0  0  0  0  0
    9.1576   -4.6236   15.8860 O   0  0  0  0  0  0  0  0  0  0  0  0
    9.1509   -5.9108   17.7177 C   0  0  0  0  0  0  0  0  0  0  0  0
    3.6373   -9.5349   16.0582 N   0  0  0  0  0  0  0  0  0  0  0  0
    9.9275   -4.8001   18.0438 N   0  0  0  0  0  0  0  0  0  0  0  0
    8.5908   -5.7425   16.4412 C   0  0  0  0  0  0  0  0  0  0  0  0
   10.5993   -4.8981   21.6068 C   0  0  0  0  0  0  0  0  0  0  0  0
   10.4258   -3.0106   23.0998 C   0  0  0  0  0  0  0  0  0  0  0  0
   10.2148   -3.4364   25.4200 C   0  0  0  0  0  0  0  0  0  0  0  0
    9.7853   -1.1840   24.4927 C   0  0  0  0  0  0  0  0  0  0  0  0
    5.0276   -8.5227   17.5352 C   0  0  0  0  0  0  0  0  0  0  0  0
    9.8187   -2.0895   25.5800 C   0  0  0  0  0  0  0  0  0  0  0  0
    5.6473   -8.7216   15.3158 C   0  0  0  0  0  0  0  0  0  0  0  0
   10.7581   -3.1233   19.4720 N   0  0  0  0  0  0  0  0  0  0  0  0
    9.9571   -4.0573   16.8866 C   0  0  0  0  0  0  0  0  0  0  0  0
    7.6213   -6.5618   16.0087 C   0  0  0  0  0  0  0  0  0  0  0  0
   10.8583   -2.6527   20.7222 C   0  0  0  0  0  0  0  0  0  0  0  0
   10.6412   -3.5089   21.7936 C   0  0  0  0  0  0  0  0  0  0  0  0
   10.4972   -3.8968   24.1589 C   0  0  0  0  0  0  0  0  0  0  0  0
    5.9260   -8.2736   16.5517 C   0  0  0  0  0  0  0  0  0  0  0  0
    3.8816   -9.1166   17.2493 C   0  0  0  0  0  0  0  0  0  0  0  0
   10.1297   -1.6575   23.2324 C   0  0  0  0  0  0  0  0  0  0  0  0
    9.4684   -1.6929   26.7263 F   0  0  0  0  0  0  0  0  0  0  0  0
    7.7963   -7.7906   17.9837 C   0  0  0  0  0  0  0  0  0  0  0  0
   10.5884   -3.0725   16.7902 O   0  0  0  0  0  0  0  0  0  0  0  0
   10.4323   -5.3494   20.3516 C   0  0  0  0  0  0  0  0  0  0  0  0
    7.1156   -7.5454   16.8218 C   0  0  0  0  0  0  0  0  0  0  0  0
   10.3885   -4.4388   19.2773 C   0  0  0  0  0  0  0  0  0  0  0  0
    4.5160   -9.3822   15.0841 C   0  0  0  0  0  0  0  0  0  0  0  0
  1  3  4  0
  1 24  4  0
  2  6  4  0
  2 15  4  0
  3  5  4  0
  3  6  4  0
  4 21  4  0
  4 29  4  0
  5 15  4  0
  5 28  1  0
  6 16  4  0
  7 18  4  0
  7 26  4  0
  8 18  1  0
  8 19  4  0
  8 22  4  0
  9 12  4  0
  9 19  4  0
 10 12  4  0
 10 22  4  0
 11 20  4  0
 11 21  4  0
 12 23  1  0
 13 20  4  0
 13 29  4  0
 14 17  4  0
 14 28  4  0
 15 25  2  0
 16 27  4  0
 17 18  4  0
 20 27  1  0
 24 27  4  0
 26 28  4  0
M  END
$$$$

 Created by Python create_sdf_string function

 29 33  0  0  0  0  0  0  0  0999 V2000
    8.8270   -7.0288   18.4251 C   0  0  0  0  0  0  0  0  0  0  0  0
    9.1576   -4.6236   15.8860 O   0  0  0  0  0  0  0  0  0  0  0  0
    9.1509   -5.9108   17.7177 C   0  0  0  0  0  0  0  0  0  0  0  0
    3.6373   -9.5349   16.0582 N   0  0  0  0  0  0  0  0  0  0  0  0
    9.9275   -4.8001   18.0438 N   0  0  0  0  0  0  0  0  0  0  0  0
    8.5908   -5.7425   16.4412 C   0  0  0  0  0  0  0  0  0  0  0  0
   10.5993   -4.8981   21.6068 C   0  0  0  0  0  0  0  0  0  0  0  0
   10.4258   -3.0106   23.0998 C   0  0  0  0  0  0  0  0  0  0  0  0
   10.2148   -3.4364   25.4200 C   0  0  0  0  0  0  0  0  0  0  0  0
    9.7853   -1.1840   24.4927 C   0  0  0  0  0  0  0  0  0  0  0  0
    5.0276   -8.5227   17.5352 C   0  0  0  0  0  0  0  0  0  0  0  0
    9.8187   -2.0895   25.5800 C   0  0  0  0  0  0  0  0  0  0  0  0
    5.6473   -8.7216   15.3158 C   0  0  0  0  0  0  0  0  0  0  0  0
   10.7581   -3.1233   19.4720 N   0  0  0  0  0  0  0  0  0  0  0  0
    9.9571   -4.0573   16.8866 C   0  0  0  0  0  0  0  0  0  0  0  0
    7.6213   -6.5618   16.0087 C   0  0  0  0  0  0  0  0  0  0  0  0
   10.8583   -2.6527   20.7222 C   0  0  0  0  0  0  0  0  0  0  0  0
   10.6412   -3.5089   21.7936 C   0  0  0  0  0  0  0  0  0  0  0  0
   10.4972   -3.8968   24.1589 C   0  0  0  0  0  0  0  0  0  0  0  0
    5.9260   -8.2736   16.5517 C   0  0  0  0  0  0  0  0  0  0  0  0
    3.8816   -9.1166   17.2493 C   0  0  0  0  0  0  0  0  0  0  0  0
   10.1297   -1.6575   23.2324 C   0  0  0  0  0  0  0  0  0  0  0  0
    9.4684   -1.6929   26.7263 F   0  0  0  0  0  0  0  0  0  0  0  0
    7.7963   -7.7906   17.9837 C   0  0  0  0  0  0  0  0  0  0  0  0
   10.5884   -3.0725   16.7902 O   0  0  0  0  0  0  0  0  0  0  0  0
   10.4323   -5.3494   20.3516 C   0  0  0  0  0  0  0  0  0  0  0  0
    7.1156   -7.5454   16.8218 C   0  0  0  0  0  0  0  0  0  0  0  0
   10.3885   -4.4388   19.2773 C   0  0  0  0  0  0  0  0  0  0  0  0
    4.5160   -9.3822   15.0841 C   0  0  0  0  0  0  0  0  0  0  0  0
  1  3  4  0
  1 24  4  0
  2  6  4  0
  2 15  4  0
  3  5  4  0
  3  6  4  0
  4 21  4  0
  4 29  4  0
  5 15  4  0
  5 28  1  0
  6 16  4  0
  7 18  4  0
  7 26  4  0
  8 18  1  0
  8 19  4  0
  8 22  4  0
  9 12  4  0
  9 19  4  0
 10 12  4  0
 10 22  4  0
 11 20  4  0
 11 21  4  0
 12 23  1  0
 13 20  4  0
 13 29  4  0
 14 17  4  0
 14 28  4  0
 15 25  2  0
 16 27  4  0
 17 18  4  0
 20 27  1  0
 24 27  4  0
 26 28  4  0
M  END
$$$$

 Created by Python create_sdf_string function

 29 33  0  0  0  0  0  0  0  0999 V2000
    8.8270   -7.0288   18.4251 C   0  0  0  0  0  0  0  0  0  0  0  0
    9.1576   -4.6236   15.8860 O   0  0  0  0  0  0  0  0  0  0  0  0
    9.1509   -5.9108   17.7177 C   0  0  0  0  0  0  0  0  0  0  0  0
    3.6373   -9.5349   16.0582 N   0  0  0  0  0  0  0  0  0  0  0  0
    9.9275   -4.8001   18.0438 N   0  0  0  0  0  0  0  0  0  0  0  0
    8.5908   -5.7425   16.4412 C   0  0  0  0  0  0  0  0  0  0  0  0
   10.5993   -4.8981   21.6068 C   0  0  0  0  0  0  0  0  0  0  0  0
   10.4258   -3.0106   23.0998 C   0  0  0  0  0  0  0  0  0  0  0  0
   10.2148   -3.4364   25.4200 C   0  0  0  0  0  0  0  0  0  0  0  0
    9.7853   -1.1840   24.4927 C   0  0  0  0  0  0  0  0  0  0  0  0
    5.0276   -8.5227   17.5352 C   0  0  0  0  0  0  0  0  0  0  0  0
    9.8187   -2.0895   25.5800 C   0  0  0  0  0  0  0  0  0  0  0  0
    5.6473   -8.7216   15.3158 C   0  0  0  0  0  0  0  0  0  0  0  0
   10.7581   -3.1233   19.4720 N   0  0  0  0  0  0  0  0  0  0  0  0
    9.9571   -4.0573   16.8866 C   0  0  0  0  0  0  0  0  0  0  0  0
    7.6213   -6.5618   16.0087 C   0  0  0  0  0  0  0  0  0  0  0  0
   10.8583   -2.6527   20.7222 C   0  0  0  0  0  0  0  0  0  0  0  0
   10.6412   -3.5089   21.7936 C   0  0  0  0  0  0  0  0  0  0  0  0
   10.4972   -3.8968   24.1589 C   0  0  0  0  0  0  0  0  0  0  0  0
    5.9260   -8.2736   16.5517 C   0  0  0  0  0  0  0  0  0  0  0  0
    3.8816   -9.1166   17.2493 C   0  0  0  0  0  0  0  0  0  0  0  0
   10.1297   -1.6575   23.2324 C   0  0  0  0  0  0  0  0  0  0  0  0
    9.4684   -1.6929   26.7263 F   0  0  0  0  0  0  0  0  0  0  0  0
    7.7963   -7.7906   17.9837 C   0  0  0  0  0  0  0  0  0  0  0  0
   10.5884   -3.0725   16.7902 O   0  0  0  0  0  0  0  0  0  0  0  0
   10.4323   -5.3494   20.3516 C   0  0  0  0  0  0  0  0  0  0  0  0
    7.1156   -7.5454   16.8218 C   0  0  0  0  0  0  0  0  0  0  0  0
   10.3885   -4.4388   19.2773 C   0  0  0  0  0  0  0  0  0  0  0  0
    4.5160   -9.3822   15.0841 C   0  0  0  0  0  0  0  0  0  0  0  0
  1  3  4  0
  1 24  4  0
  2  6  4  0
  2 15  4  0
  3  5  4  0
  3  6  4  0
  4 21  4  0
  4 29  4  0
  5 15  4  0
  5 28  1  0
  6 16  4  0
  7 18  4  0
  7 26  4  0
  8 18  1  0
  8 19  4  0
  8 22  4  0
  9 12  4  0
  9 19  4  0
 10 12  4  0
 10 22  4  0
 11 20  4  0
 11 21  4  0
 12 23  1  0
 13 20  4  0
 13 29  4  0
 14 17  4  0
 14 28  4  0
 15 25  2  0
 16 27  4  0
 17 18  4  0
 20 27  1  0
 24 27  4  0
 26 28  4  0
M  END
$$$$

 Created by Python create_sdf_string function

 29 33  0  0  0  0  0  0  0  0999 V2000
    8.8270   -7.0288   18.4251 C   0  0  0  0  0  0  0  0  0  0  0  0
    9.1576   -4.6236   15.8860 O   0  0  0  0  0  0  0  0  0  0  0  0
    9.1509   -5.9108   17.7177 C   0  0  0  0  0  0  0  0  0  0  0  0
    3.6373   -9.5349   16.0582 N   0  0  0  0  0  0  0  0  0  0  0  0
    9.9275   -4.8001   18.0438 N   0  0  0  0  0  0  0  0  0  0  0  0
    8.5908   -5.7425   16.4412 C   0  0  0  0  0  0  0  0  0  0  0  0
   10.5993   -4.8981   21.6068 C   0  0  0  0  0  0  0  0  0  0  0  0
   10.4258   -3.0106   23.0998 C   0  0  0  0  0  0  0  0  0  0  0  0
   10.2148   -3.4364   25.4200 C   0  0  0  0  0  0  0  0  0  0  0  0
    9.7853   -1.1840   24.4927 C   0  0  0  0  0  0  0  0  0  0  0  0
    5.0276   -8.5227   17.5352 C   0  0  0  0  0  0  0  0  0  0  0  0
    9.8187   -2.0895   25.5800 C   0  0  0  0  0  0  0  0  0  0  0  0
    5.6473   -8.7216   15.3158 C   0  0  0  0  0  0  0  0  0  0  0  0
   10.7581   -3.1233   19.4720 N   0  0  0  0  0  0  0  0  0  0  0  0
    9.9571   -4.0573   16.8866 C   0  0  0  0  0  0  0  0  0  0  0  0
    7.6213   -6.5618   16.0087 C   0  0  0  0  0  0  0  0  0  0  0  0
   10.8583   -2.6527   20.7222 C   0  0  0  0  0  0  0  0  0  0  0  0
   10.6412   -3.5089   21.7936 C   0  0  0  0  0  0  0  0  0  0  0  0
   10.4972   -3.8968   24.1589 C   0  0  0  0  0  0  0  0  0  0  0  0
    5.9260   -8.2736   16.5517 C   0  0  0  0  0  0  0  0  0  0  0  0
    3.8816   -9.1166   17.2493 C   0  0  0  0  0  0  0  0  0  0  0  0
   10.1297   -1.6575   23.2324 C   0  0  0  0  0  0  0  0  0  0  0  0
    9.4684   -1.6929   26.7263 F   0  0  0  0  0  0  0  0  0  0  0  0
    7.7963   -7.7906   17.9837 C   0  0  0  0  0  0  0  0  0  0  0  0
   10.5884   -3.0725   16.7902 O   0  0  0  0  0  0  0  0  0  0  0  0
   10.4323   -5.3494   20.3516 C   0  0  0  0  0  0  0  0  0  0  0  0
    7.1156   -7.5454   16.8218 C   0  0  0  0  0  0  0  0  0  0  0  0
   10.3885   -4.4388   19.2773 C   0  0  0  0  0  0  0  0  0  0  0  0
    4.5160   -9.3822   15.0841 C   0  0  0  0  0  0  0  0  0  0  0  0
  1  3  4  0
  1 24  4  0
  2  6  4  0
  2 15  4  0
  3  5  4  0
  3  6  4  0
  4 21  4  0
  4 29  4  0
  5 15  4  0
  5 28  1  0
  6 16  4  0
  7 18  4  0
  7 26  4  0
  8 18  1  0
  8 19  4  0
  8 22  4  0
  9 12  4  0
  9 19  4  0
 10 12  4  0
 10 22  4  0
 11 20  4  0
 11 21  4  0
 12 23  1  0
 13 20  4  0
 13 29  4  0
 14 17  4  0
 14 28  4  0
 15 25  2  0
 16 27  4  0
 17 18  4  0
 20 27  1  0
 24 27  4  0
 26 28  4  0
M  END
$$$$

 Created by Python create_sdf_string function

 29 33  0  0  0  0  0  0  0  0999 V2000
    8.8270   -7.0288   18.4251 C   0  0  0  0  0  0  0  0  0  0  0  0
    9.1576   -4.6236   15.8860 O   0  0  0  0  0  0  0  0  0  0  0  0
    9.1509   -5.9108   17.7177 C   0  0  0  0  0  0  0  0  0  0  0  0
    3.6373   -9.5349   16.0582 N   0  0  0  0  0  0  0  0  0  0  0  0
    9.9275   -4.8001   18.0438 N   0  0  0  0  0  0  0  0  0  0  0  0
    8.5908   -5.7425   16.4412 C   0  0  0  0  0  0  0  0  0  0  0  0
   10.5993   -4.8981   21.6068 C   0  0  0  0  0  0  0  0  0  0  0  0
   10.4258   -3.0106   23.0998 C   0  0  0  0  0  0  0  0  0  0  0  0
   10.2148   -3.4364   25.4200 C   0  0  0  0  0  0  0  0  0  0  0  0
    9.7853   -1.1840   24.4927 C   0  0  0  0  0  0  0  0  0  0  0  0
    5.0276   -8.5227   17.5352 C   0  0  0  0  0  0  0  0  0  0  0  0
    9.8187   -2.0895   25.5800 C   0  0  0  0  0  0  0  0  0  0  0  0
    5.6473   -8.7216   15.3158 C   0  0  0  0  0  0  0  0  0  0  0  0
   10.7581   -3.1233   19.4720 N   0  0  0  0  0  0  0  0  0  0  0  0
    9.9571   -4.0573   16.8866 C   0  0  0  0  0  0  0  0  0  0  0  0
    7.6213   -6.5618   16.0087 C   0  0  0  0  0  0  0  0  0  0  0  0
   10.8583   -2.6527   20.7222 C   0  0  0  0  0  0  0  0  0  0  0  0
   10.6412   -3.5089   21.7936 C   0  0  0  0  0  0  0  0  0  0  0  0
   10.4972   -3.8968   24.1589 C   0  0  0  0  0  0  0  0  0  0  0  0
    5.9260   -8.2736   16.5517 C   0  0  0  0  0  0  0  0  0  0  0  0
    3.8816   -9.1166   17.2493 C   0  0  0  0  0  0  0  0  0  0  0  0
   10.1297   -1.6575   23.2324 C   0  0  0  0  0  0  0  0  0  0  0  0
    9.4684   -1.6929   26.7263 F   0  0  0  0  0  0  0  0  0  0  0  0
    7.7963   -7.7906   17.9837 C   0  0  0  0  0  0  0  0  0  0  0  0
   10.5884   -3.0725   16.7902 O   0  0  0  0  0  0  0  0  0  0  0  0
   10.4323   -5.3494   20.3516 C   0  0  0  0  0  0  0  0  0  0  0  0
    7.1156   -7.5454   16.8218 C   0  0  0  0  0  0  0  0  0  0  0  0
   10.3885   -4.4388   19.2773 C   0  0  0  0  0  0  0  0  0  0  0  0
    4.5160   -9.3822   15.0841 C   0  0  0  0  0  0  0  0  0  0  0  0
  1  3  4  0
  1 24  4  0
  2  6  4  0
  2 15  4  0
  3  5  4  0
  3  6  4  0
  4 21  4  0
  4 29  4  0
  5 15  4  0
  5 28  1  0
  6 16  4  0
  7 18  4  0
  7 26  4  0
  8 18  1  0
  8 19  4  0
  8 22  4  0
  9 12  4  0
  9 19  4  0
 10 12  4  0
 10 22  4  0
 11 20  4  0
 11 21  4  0
 12 23  1  0
 13 20  4  0
 13 29  4  0
 14 17  4  0
 14 28  4  0
 15 25  2  0
 16 27  4  0
 17 18  4  0
 20 27  1  0
 24 27  4  0
 26 28  4  0
M  END
$$$$

 Created by Python create_sdf_string function

 29 33  0  0  0  0  0  0  0  0999 V2000
    8.8270   -7.0288   18.4251 C   0  0  0  0  0  0  0  0  0  0  0  0
    9.1576   -4.6236   15.8860 O   0  0  0  0  0  0  0  0  0  0  0  0
    9.1509   -5.9108   17.7177 C   0  0  0  0  0  0  0  0  0  0  0  0
    3.6373   -9.5349   16.0582 N   0  0  0  0  0  0  0  0  0  0  0  0
    9.9275   -4.8001   18.0438 N   0  0  0  0  0  0  0  0  0  0  0  0
    8.5908   -5.7425   16.4412 C   0  0  0  0  0  0  0  0  0  0  0  0
   10.5993   -4.8981   21.6068 C   0  0  0  0  0  0  0  0  0  0  0  0
   10.4258   -3.0106   23.0998 C   0  0  0  0  0  0  0  0  0  0  0  0
   10.2148   -3.4364   25.4200 C   0  0  0  0  0  0  0  0  0  0  0  0
    9.7853   -1.1840   24.4927 C   0  0  0  0  0  0  0  0  0  0  0  0
    5.0276   -8.5227   17.5352 C   0  0  0  0  0  0  0  0  0  0  0  0
    9.8187   -2.0895   25.5800 C   0  0  0  0  0  0  0  0  0  0  0  0
    5.6473   -8.7216   15.3158 C   0  0  0  0  0  0  0  0  0  0  0  0
   10.7581   -3.1233   19.4720 N   0  0  0  0  0  0  0  0  0  0  0  0
    9.9571   -4.0573   16.8866 C   0  0  0  0  0  0  0  0  0  0  0  0
    7.6213   -6.5618   16.0087 C   0  0  0  0  0  0  0  0  0  0  0  0
   10.8583   -2.6527   20.7222 C   0  0  0  0  0  0  0  0  0  0  0  0
   10.6412   -3.5089   21.7936 C   0  0  0  0  0  0  0  0  0  0  0  0
   10.4972   -3.8968   24.1589 C   0  0  0  0  0  0  0  0  0  0  0  0
    5.9260   -8.2736   16.5517 C   0  0  0  0  0  0  0  0  0  0  0  0
    3.8816   -9.1166   17.2493 C   0  0  0  0  0  0  0  0  0  0  0  0
   10.1297   -1.6575   23.2324 C   0  0  0  0  0  0  0  0  0  0  0  0
    9.4684   -1.6929   26.7263 F   0  0  0  0  0  0  0  0  0  0  0  0
    7.7963   -7.7906   17.9837 C   0  0  0  0  0  0  0  0  0  0  0  0
   10.5884   -3.0725   16.7902 O   0  0  0  0  0  0  0  0  0  0  0  0
   10.4323   -5.3494   20.3516 C   0  0  0  0  0  0  0  0  0  0  0  0
    7.1156   -7.5454   16.8218 C   0  0  0  0  0  0  0  0  0  0  0  0
   10.3885   -4.4388   19.2773 C   0  0  0  0  0  0  0  0  0  0  0  0
    4.5160   -9.3822   15.0841 C   0  0  0  0  0  0  0  0  0  0  0  0
  1  3  4  0
  1 24  4  0
  2  6  4  0
  2 15  4  0
  3  5  4  0
  3  6  4  0
  4 21  4  0
  4 29  4  0
  5 15  4  0
  5 28  1  0
  6 16  4  0
  7 18  4  0
  7 26  4  0
  8 18  1  0
  8 19  4  0
  8 22  4  0
  9 12  4  0
  9 19  4  0
 10 12  4  0
 10 22  4  0
 11 20  4  0
 11 21  4  0
 12 23  1  0
 13 20  4  0
 13 29  4  0
 14 17  4  0
 14 28  4  0
 15 25  2  0
 16 27  4  0
 17 18  4  0
 20 27  1  0
 24 27  4  0
 26 28  4  0
M  END
$$$$

 Created by Python create_sdf_string function

 29 33  0  0  0  0  0  0  0  0999 V2000
    8.8270   -7.0288   18.4251 C   0  0  0  0  0  0  0  0  0  0  0  0
    9.1576   -4.6236   15.8860 O   0  0  0  0  0  0  0  0  0  0  0  0
    9.1509   -5.9108   17.7177 C   0  0  0  0  0  0  0  0  0  0  0  0
    3.6373   -9.5349   16.0582 N   0  0  0  0  0  0  0  0  0  0  0  0
    9.9275   -4.8001   18.0438 N   0  0  0  0  0  0  0  0  0  0  0  0
    8.5908   -5.7425   16.4412 C   0  0  0  0  0  0  0  0  0  0  0  0
   10.5993   -4.8981   21.6068 C   0  0  0  0  0  0  0  0  0  0  0  0
   10.4258   -3.0106   23.0998 C   0  0  0  0  0  0  0  0  0  0  0  0
   10.2148   -3.4364   25.4200 C   0  0  0  0  0  0  0  0  0  0  0  0
    9.7853   -1.1840   24.4927 C   0  0  0  0  0  0  0  0  0  0  0  0
    5.0276   -8.5227   17.5352 C   0  0  0  0  0  0  0  0  0  0  0  0
    9.8187   -2.0895   25.5800 C   0  0  0  0  0  0  0  0  0  0  0  0
    5.6473   -8.7216   15.3158 C   0  0  0  0  0  0  0  0  0  0  0  0
   10.7581   -3.1233   19.4720 N   0  0  0  0  0  0  0  0  0  0  0  0
    9.9571   -4.0573   16.8866 C   0  0  0  0  0  0  0  0  0  0  0  0
    7.6213   -6.5618   16.0087 C   0  0  0  0  0  0  0  0  0  0  0  0
   10.8583   -2.6527   20.7222 C   0  0  0  0  0  0  0  0  0  0  0  0
   10.6412   -3.5089   21.7936 C   0  0  0  0  0  0  0  0  0  0  0  0
   10.4972   -3.8968   24.1589 C   0  0  0  0  0  0  0  0  0  0  0  0
    5.9260   -8.2736   16.5517 C   0  0  0  0  0  0  0  0  0  0  0  0
    3.8816   -9.1166   17.2493 C   0  0  0  0  0  0  0  0  0  0  0  0
   10.1297   -1.6575   23.2324 C   0  0  0  0  0  0  0  0  0  0  0  0
    9.4684   -1.6929   26.7263 F   0  0  0  0  0  0  0  0  0  0  0  0
    7.7963   -7.7906   17.9837 C   0  0  0  0  0  0  0  0  0  0  0  0
   10.5884   -3.0725   16.7902 O   0  0  0  0  0  0  0  0  0  0  0  0
   10.4323   -5.3494   20.3516 C   0  0  0  0  0  0  0  0  0  0  0  0
    7.1156   -7.5454   16.8218 C   0  0  0  0  0  0  0  0  0  0  0  0
   10.3885   -4.4388   19.2773 C   0  0  0  0  0  0  0  0  0  0  0  0
    4.5160   -9.3822   15.0841 C   0  0  0  0  0  0  0  0  0  0  0  0
  1  3  4  0
  1 24  4  0
  2  6  4  0
  2 15  4  0
  3  5  4  0
  3  6  4  0
  4 21  4  0
  4 29  4  0
  5 15  4  0
  5 28  1  0
  6 16  4  0
  7 18  4  0
  7 26  4  0
  8 18  1  0
  8 19  4  0
  8 22  4  0
  9 12  4  0
  9 19  4  0
 10 12  4  0
 10 22  4  0
 11 20  4  0
 11 21  4  0
 12 23  1  0
 13 20  4  0
 13 29  4  0
 14 17  4  0
 14 28  4  0
 15 25  2  0
 16 27  4  0
 17 18  4  0
 20 27  1  0
 24 27  4  0
 26 28  4  0
M  END
$$$$

 Created by Python create_sdf_string function

 29 33  0  0  0  0  0  0  0  0999 V2000
    8.8270   -7.0288   18.4251 C   0  0  0  0  0  0  0  0  0  0  0  0
    9.1576   -4.6236   15.8860 O   0  0  0  0  0  0  0  0  0  0  0  0
    9.1509   -5.9108   17.7177 C   0  0  0  0  0  0  0  0  0  0  0  0
    3.6373   -9.5349   16.0582 N   0  0  0  0  0  0  0  0  0  0  0  0
    9.9275   -4.8001   18.0438 N   0  0  0  0  0  0  0  0  0  0  0  0
    8.5908   -5.7425   16.4412 C   0  0  0  0  0  0  0  0  0  0  0  0
   10.5993   -4.8981   21.6068 C   0  0  0  0  0  0  0  0  0  0  0  0
   10.4258   -3.0106   23.0998 C   0  0  0  0  0  0  0  0  0  0  0  0
   10.2148   -3.4364   25.4200 C   0  0  0  0  0  0  0  0  0  0  0  0
    9.7853   -1.1840   24.4927 C   0  0  0  0  0  0  0  0  0  0  0  0
    5.0276   -8.5227   17.5352 C   0  0  0  0  0  0  0  0  0  0  0  0
    9.8187   -2.0895   25.5800 C   0  0  0  0  0  0  0  0  0  0  0  0
    5.6473   -8.7216   15.3158 C   0  0  0  0  0  0  0  0  0  0  0  0
   10.7581   -3.1233   19.4720 N   0  0  0  0  0  0  0  0  0  0  0  0
    9.9571   -4.0573   16.8866 C   0  0  0  0  0  0  0  0  0  0  0  0
    7.6213   -6.5618   16.0087 C   0  0  0  0  0  0  0  0  0  0  0  0
   10.8583   -2.6527   20.7222 C   0  0  0  0  0  0  0  0  0  0  0  0
   10.6412   -3.5089   21.7936 C   0  0  0  0  0  0  0  0  0  0  0  0
   10.4972   -3.8968   24.1589 C   0  0  0  0  0  0  0  0  0  0  0  0
    5.9260   -8.2736   16.5517 C   0  0  0  0  0  0  0  0  0  0  0  0
    3.8816   -9.1166   17.2493 C   0  0  0  0  0  0  0  0  0  0  0  0
   10.1297   -1.6575   23.2324 C   0  0  0  0  0  0  0  0  0  0  0  0
    9.4684   -1.6929   26.7263 F   0  0  0  0  0  0  0  0  0  0  0  0
    7.7963   -7.7906   17.9837 C   0  0  0  0  0  0  0  0  0  0  0  0
   10.5884   -3.0725   16.7902 O   0  0  0  0  0  0  0  0  0  0  0  0
   10.4323   -5.3494   20.3516 C   0  0  0  0  0  0  0  0  0  0  0  0
    7.1156   -7.5454   16.8218 C   0  0  0  0  0  0  0  0  0  0  0  0
   10.3885   -4.4388   19.2773 C   0  0  0  0  0  0  0  0  0  0  0  0
    4.5160   -9.3822   15.0841 C   0  0  0  0  0  0  0  0  0  0  0  0
  1  3  4  0
  1 24  4  0
  2  6  4  0
  2 15  4  0
  3  5  4  0
  3  6  4  0
  4 21  4  0
  4 29  4  0
  5 15  4  0
  5 28  1  0
  6 16  4  0
  7 18  4  0
  7 26  4  0
  8 18  1  0
  8 19  4  0
  8 22  4  0
  9 12  4  0
  9 19  4  0
 10 12  4  0
 10 22  4  0
 11 20  4  0
 11 21  4  0
 12 23  1  0
 13 20  4  0
 13 29  4  0
 14 17  4  0
 14 28  4  0
 15 25  2  0
 16 27  4  0
 17 18  4  0
 20 27  1  0
 24 27  4  0
 26 28  4  0
M  END
$$$$

 Created by Python create_sdf_string function

 29 33  0  0  0  0  0  0  0  0999 V2000
    8.8270   -7.0288   18.4251 C   0  0  0  0  0  0  0  0  0  0  0  0
    9.1576   -4.6236   15.8860 O   0  0  0  0  0  0  0  0  0  0  0  0
    9.1509   -5.9108   17.7177 C   0  0  0  0  0  0  0  0  0  0  0  0
    3.6373   -9.5349   16.0582 N   0  0  0  0  0  0  0  0  0  0  0  0
    9.9275   -4.8001   18.0438 N   0  0  0  0  0  0  0  0  0  0  0  0
    8.5908   -5.7425   16.4412 C   0  0  0  0  0  0  0  0  0  0  0  0
   10.5993   -4.8981   21.6068 C   0  0  0  0  0  0  0  0  0  0  0  0
   10.4258   -3.0106   23.0998 C   0  0  0  0  0  0  0  0  0  0  0  0
   10.2148   -3.4364   25.4200 C   0  0  0  0  0  0  0  0  0  0  0  0
    9.7853   -1.1840   24.4927 C   0  0  0  0  0  0  0  0  0  0  0  0
    5.0276   -8.5227   17.5352 C   0  0  0  0  0  0  0  0  0  0  0  0
    9.8187   -2.0895   25.5800 C   0  0  0  0  0  0  0  0  0  0  0  0
    5.6473   -8.7216   15.3158 C   0  0  0  0  0  0  0  0  0  0  0  0
   10.7581   -3.1233   19.4720 N   0  0  0  0  0  0  0  0  0  0  0  0
    9.9571   -4.0573   16.8866 C   0  0  0  0  0  0  0  0  0  0  0  0
    7.6213   -6.5618   16.0087 C   0  0  0  0  0  0  0  0  0  0  0  0
   10.8583   -2.6527   20.7222 C   0  0  0  0  0  0  0  0  0  0  0  0
   10.6412   -3.5089   21.7936 C   0  0  0  0  0  0  0  0  0  0  0  0
   10.4972   -3.8968   24.1589 C   0  0  0  0  0  0  0  0  0  0  0  0
    5.9260   -8.2736   16.5517 C   0  0  0  0  0  0  0  0  0  0  0  0
    3.8816   -9.1166   17.2493 C   0  0  0  0  0  0  0  0  0  0  0  0
   10.1297   -1.6575   23.2324 C   0  0  0  0  0  0  0  0  0  0  0  0
    9.4684   -1.6929   26.7263 F   0  0  0  0  0  0  0  0  0  0  0  0
    7.7963   -7.7906   17.9837 C   0  0  0  0  0  0  0  0  0  0  0  0
   10.5884   -3.0725   16.7902 O   0  0  0  0  0  0  0  0  0  0  0  0
   10.4323   -5.3494   20.3516 C   0  0  0  0  0  0  0  0  0  0  0  0
    7.1156   -7.5454   16.8218 C   0  0  0  0  0  0  0  0  0  0  0  0
   10.3885   -4.4388   19.2773 C   0  0  0  0  0  0  0  0  0  0  0  0
    4.5160   -9.3822   15.0841 C   0  0  0  0  0  0  0  0  0  0  0  0
  1  3  4  0
  1 24  4  0
  2  6  4  0
  2 15  4  0
  3  5  4  0
  3  6  4  0
  4 21  4  0
  4 29  4  0
  5 15  4  0
  5 28  1  0
  6 16  4  0
  7 18  4  0
  7 26  4  0
  8 18  1  0
  8 19  4  0
  8 22  4  0
  9 12  4  0
  9 19  4  0
 10 12  4  0
 10 22  4  0
 11 20  4  0
 11 21  4  0
 12 23  1  0
 13 20  4  0
 13 29  4  0
 14 17  4  0
 14 28  4  0
 15 25  2  0
 16 27  4  0
 17 18  4  0
 20 27  1  0
 24 27  4  0
 26 28  4  0
M  END
$$$$

 Created by Python create_sdf_string function

 29 33  0  0  0  0  0  0  0  0999 V2000
    8.8270   -7.0288   18.4251 C   0  0  0  0  0  0  0  0  0  0  0  0
    9.1576   -4.6236   15.8860 O   0  0  0  0  0  0  0  0  0  0  0  0
    9.1509   -5.9108   17.7177 C   0  0  0  0  0  0  0  0  0  0  0  0
    3.6373   -9.5349   16.0582 N   0  0  0  0  0  0  0  0  0  0  0  0
    9.9275   -4.8001   18.0438 N   0  0  0  0  0  0  0  0  0  0  0  0
    8.5908   -5.7425   16.4412 C   0  0  0  0  0  0  0  0  0  0  0  0
   10.5993   -4.8981   21.6068 C   0  0  0  0  0  0  0  0  0  0  0  0
   10.4258   -3.0106   23.0998 C   0  0  0  0  0  0  0  0  0  0  0  0
   10.2148   -3.4364   25.4200 C   0  0  0  0  0  0  0  0  0  0  0  0
    9.7853   -1.1840   24.4927 C   0  0  0  0  0  0  0  0  0  0  0  0
    5.0276   -8.5227   17.5352 C   0  0  0  0  0  0  0  0  0  0  0  0
    9.8187   -2.0895   25.5800 C   0  0  0  0  0  0  0  0  0  0  0  0
    5.6473   -8.7216   15.3158 C   0  0  0  0  0  0  0  0  0  0  0  0
   10.7581   -3.1233   19.4720 N   0  0  0  0  0  0  0  0  0  0  0  0
    9.9571   -4.0573   16.8866 C   0  0  0  0  0  0  0  0  0  0  0  0
    7.6213   -6.5618   16.0087 C   0  0  0  0  0  0  0  0  0  0  0  0
   10.8583   -2.6527   20.7222 C   0  0  0  0  0  0  0  0  0  0  0  0
   10.6412   -3.5089   21.7936 C   0  0  0  0  0  0  0  0  0  0  0  0
   10.4972   -3.8968   24.1589 C   0  0  0  0  0  0  0  0  0  0  0  0
    5.9260   -8.2736   16.5517 C   0  0  0  0  0  0  0  0  0  0  0  0
    3.8816   -9.1166   17.2493 C   0  0  0  0  0  0  0  0  0  0  0  0
   10.1297   -1.6575   23.2324 C   0  0  0  0  0  0  0  0  0  0  0  0
    9.4684   -1.6929   26.7263 F   0  0  0  0  0  0  0  0  0  0  0  0
    7.7963   -7.7906   17.9837 C   0  0  0  0  0  0  0  0  0  0  0  0
   10.5884   -3.0725   16.7902 O   0  0  0  0  0  0  0  0  0  0  0  0
   10.4323   -5.3494   20.3516 C   0  0  0  0  0  0  0  0  0  0  0  0
    7.1156   -7.5454   16.8218 C   0  0  0  0  0  0  0  0  0  0  0  0
   10.3885   -4.4388   19.2773 C   0  0  0  0  0  0  0  0  0  0  0  0
    4.5160   -9.3822   15.0841 C   0  0  0  0  0  0  0  0  0  0  0  0
  1  3  4  0
  1 24  4  0
  2  6  4  0
  2 15  4  0
  3  5  4  0
  3  6  4  0
  4 21  4  0
  4 29  4  0
  5 15  4  0
  5 28  1  0
  6 16  4  0
  7 18  4  0
  7 26  4  0
  8 18  1  0
  8 19  4  0
  8 22  4  0
  9 12  4  0
  9 19  4  0
 10 12  4  0
 10 22  4  0
 11 20  4  0
 11 21  4  0
 12 23  1  0
 13 20  4  0
 13 29  4  0
 14 17  4  0
 14 28  4  0
 15 25  2  0
 16 27  4  0
 17 18  4  0
 20 27  1  0
 24 27  4  0
 26 28  4  0
M  END
$$$$

 Created by Python create_sdf_string function

 29 33  0  0  0  0  0  0  0  0999 V2000
    8.8270   -7.0288   18.4251 C   0  0  0  0  0  0  0  0  0  0  0  0
    9.1576   -4.6236   15.8860 O   0  0  0  0  0  0  0  0  0  0  0  0
    9.1509   -5.9108   17.7177 C   0  0  0  0  0  0  0  0  0  0  0  0
    3.6373   -9.5349   16.0582 N   0  0  0  0  0  0  0  0  0  0  0  0
    9.9275   -4.8001   18.0438 N   0  0  0  0  0  0  0  0  0  0  0  0
    8.5908   -5.7425   16.4412 C   0  0  0  0  0  0  0  0  0  0  0  0
   10.5993   -4.8981   21.6068 C   0  0  0  0  0  0  0  0  0  0  0  0
   10.4258   -3.0106   23.0998 C   0  0  0  0  0  0  0  0  0  0  0  0
   10.2148   -3.4364   25.4200 C   0  0  0  0  0  0  0  0  0  0  0  0
    9.7853   -1.1840   24.4927 C   0  0  0  0  0  0  0  0  0  0  0  0
    5.0276   -8.5227   17.5352 C   0  0  0  0  0  0  0  0  0  0  0  0
    9.8187   -2.0895   25.5800 C   0  0  0  0  0  0  0  0  0  0  0  0
    5.6473   -8.7216   15.3158 C   0  0  0  0  0  0  0  0  0  0  0  0
   10.7581   -3.1233   19.4720 N   0  0  0  0  0  0  0  0  0  0  0  0
    9.9571   -4.0573   16.8866 C   0  0  0  0  0  0  0  0  0  0  0  0
    7.6213   -6.5618   16.0087 C   0  0  0  0  0  0  0  0  0  0  0  0
   10.8583   -2.6527   20.7222 C   0  0  0  0  0  0  0  0  0  0  0  0
   10.6412   -3.5089   21.7936 C   0  0  0  0  0  0  0  0  0  0  0  0
   10.4972   -3.8968   24.1589 C   0  0  0  0  0  0  0  0  0  0  0  0
    5.9260   -8.2736   16.5517 C   0  0  0  0  0  0  0  0  0  0  0  0
    3.8816   -9.1166   17.2493 C   0  0  0  0  0  0  0  0  0  0  0  0
   10.1297   -1.6575   23.2324 C   0  0  0  0  0  0  0  0  0  0  0  0
    9.4684   -1.6929   26.7263 F   0  0  0  0  0  0  0  0  0  0  0  0
    7.7963   -7.7906   17.9837 C   0  0  0  0  0  0  0  0  0  0  0  0
   10.5884   -3.0725   16.7902 O   0  0  0  0  0  0  0  0  0  0  0  0
   10.4323   -5.3494   20.3516 C   0  0  0  0  0  0  0  0  0  0  0  0
    7.1156   -7.5454   16.8218 C   0  0  0  0  0  0  0  0  0  0  0  0
   10.3885   -4.4388   19.2773 C   0  0  0  0  0  0  0  0  0  0  0  0
    4.5160   -9.3822   15.0841 C   0  0  0  0  0  0  0  0  0  0  0  0
  1  3  4  0
  1 24  4  0
  2  6  4  0
  2 15  4  0
  3  5  4  0
  3  6  4  0
  4 21  4  0
  4 29  4  0
  5 15  4  0
  5 28  1  0
  6 16  4  0
  7 18  4  0
  7 26  4  0
  8 18  1  0
  8 19  4  0
  8 22  4  0
  9 12  4  0
  9 19  4  0
 10 12  4  0
 10 22  4  0
 11 20  4  0
 11 21  4  0
 12 23  1  0
 13 20  4  0
 13 29  4  0
 14 17  4  0
 14 28  4  0
 15 25  2  0
 16 27  4  0
 17 18  4  0
 20 27  1  0
 24 27  4  0
 26 28  4  0
M  END
$$$$

 Created by Python create_sdf_string function

 29 33  0  0  0  0  0  0  0  0999 V2000
    8.8270   -7.0288   18.4251 C   0  0  0  0  0  0  0  0  0  0  0  0
    9.1576   -4.6236   15.8860 O   0  0  0  0  0  0  0  0  0  0  0  0
    9.1509   -5.9108   17.7177 C   0  0  0  0  0  0  0  0  0  0  0  0
    3.6373   -9.5349   16.0582 N   0  0  0  0  0  0  0  0  0  0  0  0
    9.9275   -4.8001   18.0438 N   0  0  0  0  0  0  0  0  0  0  0  0
    8.5908   -5.7425   16.4412 C   0  0  0  0  0  0  0  0  0  0  0  0
   10.5993   -4.8981   21.6068 C   0  0  0  0  0  0  0  0  0  0  0  0
   10.4258   -3.0106   23.0998 C   0  0  0  0  0  0  0  0  0  0  0  0
   10.2148   -3.4364   25.4200 C   0  0  0  0  0  0  0  0  0  0  0  0
    9.7853   -1.1840   24.4927 C   0  0  0  0  0  0  0  0  0  0  0  0
    5.0276   -8.5227   17.5352 C   0  0  0  0  0  0  0  0  0  0  0  0
    9.8187   -2.0895   25.5800 C   0  0  0  0  0  0  0  0  0  0  0  0
    5.6473   -8.7216   15.3158 C   0  0  0  0  0  0  0  0  0  0  0  0
   10.7581   -3.1233   19.4720 N   0  0  0  0  0  0  0  0  0  0  0  0
    9.9571   -4.0573   16.8866 C   0  0  0  0  0  0  0  0  0  0  0  0
    7.6213   -6.5618   16.0087 C   0  0  0  0  0  0  0  0  0  0  0  0
   10.8583   -2.6527   20.7222 C   0  0  0  0  0  0  0  0  0  0  0  0
   10.6412   -3.5089   21.7936 C   0  0  0  0  0  0  0  0  0  0  0  0
   10.4972   -3.8968   24.1589 C   0  0  0  0  0  0  0  0  0  0  0  0
    5.9260   -8.2736   16.5517 C   0  0  0  0  0  0  0  0  0  0  0  0
    3.8816   -9.1166   17.2493 C   0  0  0  0  0  0  0  0  0  0  0  0
   10.1297   -1.6575   23.2324 C   0  0  0  0  0  0  0  0  0  0  0  0
    9.4684   -1.6929   26.7263 F   0  0  0  0  0  0  0  0  0  0  0  0
    7.7963   -7.7906   17.9837 C   0  0  0  0  0  0  0  0  0  0  0  0
   10.5884   -3.0725   16.7902 O   0  0  0  0  0  0  0  0  0  0  0  0
   10.4323   -5.3494   20.3516 C   0  0  0  0  0  0  0  0  0  0  0  0
    7.1156   -7.5454   16.8218 C   0  0  0  0  0  0  0  0  0  0  0  0
   10.3885   -4.4388   19.2773 C   0  0  0  0  0  0  0  0  0  0  0  0
    4.5160   -9.3822   15.0841 C   0  0  0  0  0  0  0  0  0  0  0  0
  1  3  4  0
  1 24  4  0
  2  6  4  0
  2 15  4  0
  3  5  4  0
  3  6  4  0
  4 21  4  0
  4 29  4  0
  5 15  4  0
  5 28  1  0
  6 16  4  0
  7 18  4  0
  7 26  4  0
  8 18  1  0
  8 19  4  0
  8 22  4  0
  9 12  4  0
  9 19  4  0
 10 12  4  0
 10 22  4  0
 11 20  4  0
 11 21  4  0
 12 23  1  0
 13 20  4  0
 13 29  4  0
 14 17  4  0
 14 28  4  0
 15 25  2  0
 16 27  4  0
 17 18  4  0
 20 27  1  0
 24 27  4  0
 26 28  4  0
M  END
$$$$

 Created by Python create_sdf_string function

 29 33  0  0  0  0  0  0  0  0999 V2000
    8.8270   -7.0288   18.4251 C   0  0  0  0  0  0  0  0  0  0  0  0
    9.1576   -4.6236   15.8860 O   0  0  0  0  0  0  0  0  0  0  0  0
    9.1509   -5.9108   17.7177 C   0  0  0  0  0  0  0  0  0  0  0  0
    3.6373   -9.5349   16.0582 N   0  0  0  0  0  0  0  0  0  0  0  0
    9.9275   -4.8001   18.0438 N   0  0  0  0  0  0  0  0  0  0  0  0
    8.5908   -5.7425   16.4412 C   0  0  0  0  0  0  0  0  0  0  0  0
   10.5993   -4.8981   21.6068 C   0  0  0  0  0  0  0  0  0  0  0  0
   10.4258   -3.0106   23.0998 C   0  0  0  0  0  0  0  0  0  0  0  0
   10.2148   -3.4364   25.4200 C   0  0  0  0  0  0  0  0  0  0  0  0
    9.7853   -1.1840   24.4927 C   0  0  0  0  0  0  0  0  0  0  0  0
    5.0276   -8.5227   17.5352 C   0  0  0  0  0  0  0  0  0  0  0  0
    9.8187   -2.0895   25.5800 C   0  0  0  0  0  0  0  0  0  0  0  0
    5.6473   -8.7216   15.3158 C   0  0  0  0  0  0  0  0  0  0  0  0
   10.7581   -3.1233   19.4720 N   0  0  0  0  0  0  0  0  0  0  0  0
    9.9571   -4.0573   16.8866 C   0  0  0  0  0  0  0  0  0  0  0  0
    7.6213   -6.5618   16.0087 C   0  0  0  0  0  0  0  0  0  0  0  0
   10.8583   -2.6527   20.7222 C   0  0  0  0  0  0  0  0  0  0  0  0
   10.6412   -3.5089   21.7936 C   0  0  0  0  0  0  0  0  0  0  0  0
   10.4972   -3.8968   24.1589 C   0  0  0  0  0  0  0  0  0  0  0  0
    5.9260   -8.2736   16.5517 C   0  0  0  0  0  0  0  0  0  0  0  0
    3.8816   -9.1166   17.2493 C   0  0  0  0  0  0  0  0  0  0  0  0
   10.1297   -1.6575   23.2324 C   0  0  0  0  0  0  0  0  0  0  0  0
    9.4684   -1.6929   26.7263 F   0  0  0  0  0  0  0  0  0  0  0  0
    7.7963   -7.7906   17.9837 C   0  0  0  0  0  0  0  0  0  0  0  0
   10.5884   -3.0725   16.7902 O   0  0  0  0  0  0  0  0  0  0  0  0
   10.4323   -5.3494   20.3516 C   0  0  0  0  0  0  0  0  0  0  0  0
    7.1156   -7.5454   16.8218 C   0  0  0  0  0  0  0  0  0  0  0  0
   10.3885   -4.4388   19.2773 C   0  0  0  0  0  0  0  0  0  0  0  0
    4.5160   -9.3822   15.0841 C   0  0  0  0  0  0  0  0  0  0  0  0
  1  3  4  0
  1 24  4  0
  2  6  4  0
  2 15  4  0
  3  5  4  0
  3  6  4  0
  4 21  4  0
  4 29  4  0
  5 15  4  0
  5 28  1  0
  6 16  4  0
  7 18  4  0
  7 26  4  0
  8 18  1  0
  8 19  4  0
  8 22  4  0
  9 12  4  0
  9 19  4  0
 10 12  4  0
 10 22  4  0
 11 20  4  0
 11 21  4  0
 12 23  1  0
 13 20  4  0
 13 29  4  0
 14 17  4  0
 14 28  4  0
 15 25  2  0
 16 27  4  0
 17 18  4  0
 20 27  1  0
 24 27  4  0
 26 28  4  0
M  END
$$$$

 Created by Python create_sdf_string function

 29 33  0  0  0  0  0  0  0  0999 V2000
    8.8270   -7.0288   18.4251 C   0  0  0  0  0  0  0  0  0  0  0  0
    9.1576   -4.6236   15.8860 O   0  0  0  0  0  0  0  0  0  0  0  0
    9.1509   -5.9108   17.7177 C   0  0  0  0  0  0  0  0  0  0  0  0
    3.6373   -9.5349   16.0582 N   0  0  0  0  0  0  0  0  0  0  0  0
    9.9275   -4.8001   18.0438 N   0  0  0  0  0  0  0  0  0  0  0  0
    8.5908   -5.7425   16.4412 C   0  0  0  0  0  0  0  0  0  0  0  0
   10.5993   -4.8981   21.6068 C   0  0  0  0  0  0  0  0  0  0  0  0
   10.4258   -3.0106   23.0998 C   0  0  0  0  0  0  0  0  0  0  0  0
   10.2148   -3.4364   25.4200 C   0  0  0  0  0  0  0  0  0  0  0  0
    9.7853   -1.1840   24.4927 C   0  0  0  0  0  0  0  0  0  0  0  0
    5.0276   -8.5227   17.5352 C   0  0  0  0  0  0  0  0  0  0  0  0
    9.8187   -2.0895   25.5800 C   0  0  0  0  0  0  0  0  0  0  0  0
    5.6473   -8.7216   15.3158 C   0  0  0  0  0  0  0  0  0  0  0  0
   10.7581   -3.1233   19.4720 N   0  0  0  0  0  0  0  0  0  0  0  0
    9.9571   -4.0573   16.8866 C   0  0  0  0  0  0  0  0  0  0  0  0
    7.6213   -6.5618   16.0087 C   0  0  0  0  0  0  0  0  0  0  0  0
   10.8583   -2.6527   20.7222 C   0  0  0  0  0  0  0  0  0  0  0  0
   10.6412   -3.5089   21.7936 C   0  0  0  0  0  0  0  0  0  0  0  0
   10.4972   -3.8968   24.1589 C   0  0  0  0  0  0  0  0  0  0  0  0
    5.9260   -8.2736   16.5517 C   0  0  0  0  0  0  0  0  0  0  0  0
    3.8816   -9.1166   17.2493 C   0  0  0  0  0  0  0  0  0  0  0  0
   10.1297   -1.6575   23.2324 C   0  0  0  0  0  0  0  0  0  0  0  0
    9.4684   -1.6929   26.7263 F   0  0  0  0  0  0  0  0  0  0  0  0
    7.7963   -7.7906   17.9837 C   0  0  0  0  0  0  0  0  0  0  0  0
   10.5884   -3.0725   16.7902 O   0  0  0  0  0  0  0  0  0  0  0  0
   10.4323   -5.3494   20.3516 C   0  0  0  0  0  0  0  0  0  0  0  0
    7.1156   -7.5454   16.8218 C   0  0  0  0  0  0  0  0  0  0  0  0
   10.3885   -4.4388   19.2773 C   0  0  0  0  0  0  0  0  0  0  0  0
    4.5160   -9.3822   15.0841 C   0  0  0  0  0  0  0  0  0  0  0  0
  1  3  4  0
  1 24  4  0
  2  6  4  0
  2 15  4  0
  3  5  4  0
  3  6  4  0
  4 21  4  0
  4 29  4  0
  5 15  4  0
  5 28  1  0
  6 16  4  0
  7 18  4  0
  7 26  4  0
  8 18  1  0
  8 19  4  0
  8 22  4  0
  9 12  4  0
  9 19  4  0
 10 12  4  0
 10 22  4  0
 11 20  4  0
 11 21  4  0
 12 23  1  0
 13 20  4  0
 13 29  4  0
 14 17  4  0
 14 28  4  0
 15 25  2  0
 16 27  4  0
 17 18  4  0
 20 27  1  0
 24 27  4  0
 26 28  4  0
M  END
$$$$

 Created by Python create_sdf_string function

 29 33  0  0  0  0  0  0  0  0999 V2000
    8.8270   -7.0288   18.4251 C   0  0  0  0  0  0  0  0  0  0  0  0
    9.1576   -4.6236   15.8860 O   0  0  0  0  0  0  0  0  0  0  0  0
    9.1509   -5.9108   17.7177 C   0  0  0  0  0  0  0  0  0  0  0  0
    3.6373   -9.5349   16.0582 N   0  0  0  0  0  0  0  0  0  0  0  0
    9.9275   -4.8001   18.0438 N   0  0  0  0  0  0  0  0  0  0  0  0
    8.5908   -5.7425   16.4412 C   0  0  0  0  0  0  0  0  0  0  0  0
   10.5993   -4.8981   21.6068 C   0  0  0  0  0  0  0  0  0  0  0  0
   10.4258   -3.0106   23.0998 C   0  0  0  0  0  0  0  0  0  0  0  0
   10.2148   -3.4364   25.4200 C   0  0  0  0  0  0  0  0  0  0  0  0
    9.7853   -1.1840   24.4927 C   0  0  0  0  0  0  0  0  0  0  0  0
    5.0276   -8.5227   17.5352 C   0  0  0  0  0  0  0  0  0  0  0  0
    9.8187   -2.0895   25.5800 C   0  0  0  0  0  0  0  0  0  0  0  0
    5.6473   -8.7216   15.3158 C   0  0  0  0  0  0  0  0  0  0  0  0
   10.7581   -3.1233   19.4720 N   0  0  0  0  0  0  0  0  0  0  0  0
    9.9571   -4.0573   16.8866 C   0  0  0  0  0  0  0  0  0  0  0  0
    7.6213   -6.5618   16.0087 C   0  0  0  0  0  0  0  0  0  0  0  0
   10.8583   -2.6527   20.7222 C   0  0  0  0  0  0  0  0  0  0  0  0
   10.6412   -3.5089   21.7936 C   0  0  0  0  0  0  0  0  0  0  0  0
   10.4972   -3.8968   24.1589 C   0  0  0  0  0  0  0  0  0  0  0  0
    5.9260   -8.2736   16.5517 C   0  0  0  0  0  0  0  0  0  0  0  0
    3.8816   -9.1166   17.2493 C   0  0  0  0  0  0  0  0  0  0  0  0
   10.1297   -1.6575   23.2324 C   0  0  0  0  0  0  0  0  0  0  0  0
    9.4684   -1.6929   26.7263 F   0  0  0  0  0  0  0  0  0  0  0  0
    7.7963   -7.7906   17.9837 C   0  0  0  0  0  0  0  0  0  0  0  0
   10.5884   -3.0725   16.7902 O   0  0  0  0  0  0  0  0  0  0  0  0
   10.4323   -5.3494   20.3516 C   0  0  0  0  0  0  0  0  0  0  0  0
    7.1156   -7.5454   16.8218 C   0  0  0  0  0  0  0  0  0  0  0  0
   10.3885   -4.4388   19.2773 C   0  0  0  0  0  0  0  0  0  0  0  0
    4.5160   -9.3822   15.0841 C   0  0  0  0  0  0  0  0  0  0  0  0
  1  3  4  0
  1 24  4  0
  2  6  4  0
  2 15  4  0
  3  5  4  0
  3  6  4  0
  4 21  4  0
  4 29  4  0
  5 15  4  0
  5 28  1  0
  6 16  4  0
  7 18  4  0
  7 26  4  0
  8 18  1  0
  8 19  4  0
  8 22  4  0
  9 12  4  0
  9 19  4  0
 10 12  4  0
 10 22  4  0
 11 20  4  0
 11 21  4  0
 12 23  1  0
 13 20  4  0
 13 29  4  0
 14 17  4  0
 14 28  4  0
 15 25  2  0
 16 27  4  0
 17 18  4  0
 20 27  1  0
 24 27  4  0
 26 28  4  0
M  END
$$$$

 Created by Python create_sdf_string function

 29 33  0  0  0  0  0  0  0  0999 V2000
    8.8270   -7.0288   18.4251 C   0  0  0  0  0  0  0  0  0  0  0  0
    9.1576   -4.6236   15.8860 O   0  0  0  0  0  0  0  0  0  0  0  0
    9.1509   -5.9108   17.7177 C   0  0  0  0  0  0  0  0  0  0  0  0
    3.6373   -9.5349   16.0582 N   0  0  0  0  0  0  0  0  0  0  0  0
    9.9275   -4.8001   18.0438 N   0  0  0  0  0  0  0  0  0  0  0  0
    8.5908   -5.7425   16.4412 C   0  0  0  0  0  0  0  0  0  0  0  0
   10.5993   -4.8981   21.6068 C   0  0  0  0  0  0  0  0  0  0  0  0
   10.4258   -3.0106   23.0998 C   0  0  0  0  0  0  0  0  0  0  0  0
   10.2148   -3.4364   25.4200 C   0  0  0  0  0  0  0  0  0  0  0  0
    9.7853   -1.1840   24.4927 C   0  0  0  0  0  0  0  0  0  0  0  0
    5.0276   -8.5227   17.5352 C   0  0  0  0  0  0  0  0  0  0  0  0
    9.8187   -2.0895   25.5800 C   0  0  0  0  0  0  0  0  0  0  0  0
    5.6473   -8.7216   15.3158 C   0  0  0  0  0  0  0  0  0  0  0  0
   10.7581   -3.1233   19.4720 N   0  0  0  0  0  0  0  0  0  0  0  0
    9.9571   -4.0573   16.8866 C   0  0  0  0  0  0  0  0  0  0  0  0
    7.6213   -6.5618   16.0087 C   0  0  0  0  0  0  0  0  0  0  0  0
   10.8583   -2.6527   20.7222 C   0  0  0  0  0  0  0  0  0  0  0  0
   10.6412   -3.5089   21.7936 C   0  0  0  0  0  0  0  0  0  0  0  0
   10.4972   -3.8968   24.1589 C   0  0  0  0  0  0  0  0  0  0  0  0
    5.9260   -8.2736   16.5517 C   0  0  0  0  0  0  0  0  0  0  0  0
    3.8816   -9.1166   17.2493 C   0  0  0  0  0  0  0  0  0  0  0  0
   10.1297   -1.6575   23.2324 C   0  0  0  0  0  0  0  0  0  0  0  0
    9.4684   -1.6929   26.7263 F   0  0  0  0  0  0  0  0  0  0  0  0
    7.7963   -7.7906   17.9837 C   0  0  0  0  0  0  0  0  0  0  0  0
   10.5884   -3.0725   16.7902 O   0  0  0  0  0  0  0  0  0  0  0  0
   10.4323   -5.3494   20.3516 C   0  0  0  0  0  0  0  0  0  0  0  0
    7.1156   -7.5454   16.8218 C   0  0  0  0  0  0  0  0  0  0  0  0
   10.3885   -4.4388   19.2773 C   0  0  0  0  0  0  0  0  0  0  0  0
    4.5160   -9.3822   15.0841 C   0  0  0  0  0  0  0  0  0  0  0  0
  1  3  4  0
  1 24  4  0
  2  6  4  0
  2 15  4  0
  3  5  4  0
  3  6  4  0
  4 21  4  0
  4 29  4  0
  5 15  4  0
  5 28  1  0
  6 16  4  0
  7 18  4  0
  7 26  4  0
  8 18  1  0
  8 19  4  0
  8 22  4  0
  9 12  4  0
  9 19  4  0
 10 12  4  0
 10 22  4  0
 11 20  4  0
 11 21  4  0
 12 23  1  0
 13 20  4  0
 13 29  4  0
 14 17  4  0
 14 28  4  0
 15 25  2  0
 16 27  4  0
 17 18  4  0
 20 27  1  0
 24 27  4  0
 26 28  4  0
M  END
$$$$

 Created by Python create_sdf_string function

 29 33  0  0  0  0  0  0  0  0999 V2000
    8.8270   -7.0288   18.4251 C   0  0  0  0  0  0  0  0  0  0  0  0
    9.1576   -4.6236   15.8860 O   0  0  0  0  0  0  0  0  0  0  0  0
    9.1509   -5.9108   17.7177 C   0  0  0  0  0  0  0  0  0  0  0  0
    3.6373   -9.5349   16.0582 N   0  0  0  0  0  0  0  0  0  0  0  0
    9.9275   -4.8001   18.0438 N   0  0  0  0  0  0  0  0  0  0  0  0
    8.5908   -5.7425   16.4412 C   0  0  0  0  0  0  0  0  0  0  0  0
   10.5993   -4.8981   21.6068 C   0  0  0  0  0  0  0  0  0  0  0  0
   10.4258   -3.0106   23.0998 C   0  0  0  0  0  0  0  0  0  0  0  0
   10.2148   -3.4364   25.4200 C   0  0  0  0  0  0  0  0  0  0  0  0
    9.7853   -1.1840   24.4927 C   0  0  0  0  0  0  0  0  0  0  0  0
    5.0276   -8.5227   17.5352 C   0  0  0  0  0  0  0  0  0  0  0  0
    9.8187   -2.0895   25.5800 C   0  0  0  0  0  0  0  0  0  0  0  0
    5.6473   -8.7216   15.3158 C   0  0  0  0  0  0  0  0  0  0  0  0
   10.7581   -3.1233   19.4720 N   0  0  0  0  0  0  0  0  0  0  0  0
    9.9571   -4.0573   16.8866 C   0  0  0  0  0  0  0  0  0  0  0  0
    7.6213   -6.5618   16.0087 C   0  0  0  0  0  0  0  0  0  0  0  0
   10.8583   -2.6527   20.7222 C   0  0  0  0  0  0  0  0  0  0  0  0
   10.6412   -3.5089   21.7936 C   0  0  0  0  0  0  0  0  0  0  0  0
   10.4972   -3.8968   24.1589 C   0  0  0  0  0  0  0  0  0  0  0  0
    5.9260   -8.2736   16.5517 C   0  0  0  0  0  0  0  0  0  0  0  0
    3.8816   -9.1166   17.2493 C   0  0  0  0  0  0  0  0  0  0  0  0
   10.1297   -1.6575   23.2324 C   0  0  0  0  0  0  0  0  0  0  0  0
    9.4684   -1.6929   26.7263 F   0  0  0  0  0  0  0  0  0  0  0  0
    7.7963   -7.7906   17.9837 C   0  0  0  0  0  0  0  0  0  0  0  0
   10.5884   -3.0725   16.7902 O   0  0  0  0  0  0  0  0  0  0  0  0
   10.4323   -5.3494   20.3516 C   0  0  0  0  0  0  0  0  0  0  0  0
    7.1156   -7.5454   16.8218 C   0  0  0  0  0  0  0  0  0  0  0  0
   10.3885   -4.4388   19.2773 C   0  0  0  0  0  0  0  0  0  0  0  0
    4.5160   -9.3822   15.0841 C   0  0  0  0  0  0  0  0  0  0  0  0
  1  3  4  0
  1 24  4  0
  2  6  4  0
  2 15  4  0
  3  5  4  0
  3  6  4  0
  4 21  4  0
  4 29  4  0
  5 15  4  0
  5 28  1  0
  6 16  4  0
  7 18  4  0
  7 26  4  0
  8 18  1  0
  8 19  4  0
  8 22  4  0
  9 12  4  0
  9 19  4  0
 10 12  4  0
 10 22  4  0
 11 20  4  0
 11 21  4  0
 12 23  1  0
 13 20  4  0
 13 29  4  0
 14 17  4  0
 14 28  4  0
 15 25  2  0
 16 27  4  0
 17 18  4  0
 20 27  1  0
 24 27  4  0
 26 28  4  0
M  END
$$$$

 Created by Python create_sdf_string function

 29 33  0  0  0  0  0  0  0  0999 V2000
    8.8270   -7.0288   18.4251 C   0  0  0  0  0  0  0  0  0  0  0  0
    9.1576   -4.6236   15.8860 O   0  0  0  0  0  0  0  0  0  0  0  0
    9.1509   -5.9108   17.7177 C   0  0  0  0  0  0  0  0  0  0  0  0
    3.6373   -9.5349   16.0582 N   0  0  0  0  0  0  0  0  0  0  0  0
    9.9275   -4.8001   18.0438 N   0  0  0  0  0  0  0  0  0  0  0  0
    8.5908   -5.7425   16.4412 C   0  0  0  0  0  0  0  0  0  0  0  0
   10.5993   -4.8981   21.6068 C   0  0  0  0  0  0  0  0  0  0  0  0
   10.4258   -3.0106   23.0998 C   0  0  0  0  0  0  0  0  0  0  0  0
   10.2148   -3.4364   25.4200 C   0  0  0  0  0  0  0  0  0  0  0  0
    9.7853   -1.1840   24.4927 C   0  0  0  0  0  0  0  0  0  0  0  0
    5.0276   -8.5227   17.5352 C   0  0  0  0  0  0  0  0  0  0  0  0
    9.8187   -2.0895   25.5800 C   0  0  0  0  0  0  0  0  0  0  0  0
    5.6473   -8.7216   15.3158 C   0  0  0  0  0  0  0  0  0  0  0  0
   10.7581   -3.1233   19.4720 N   0  0  0  0  0  0  0  0  0  0  0  0
    9.9571   -4.0573   16.8866 C   0  0  0  0  0  0  0  0  0  0  0  0
    7.6213   -6.5618   16.0087 C   0  0  0  0  0  0  0  0  0  0  0  0
   10.8583   -2.6527   20.7222 C   0  0  0  0  0  0  0  0  0  0  0  0
   10.6412   -3.5089   21.7936 C   0  0  0  0  0  0  0  0  0  0  0  0
   10.4972   -3.8968   24.1589 C   0  0  0  0  0  0  0  0  0  0  0  0
    5.9260   -8.2736   16.5517 C   0  0  0  0  0  0  0  0  0  0  0  0
    3.8816   -9.1166   17.2493 C   0  0  0  0  0  0  0  0  0  0  0  0
   10.1297   -1.6575   23.2324 C   0  0  0  0  0  0  0  0  0  0  0  0
    9.4684   -1.6929   26.7263 F   0  0  0  0  0  0  0  0  0  0  0  0
    7.7963   -7.7906   17.9837 C   0  0  0  0  0  0  0  0  0  0  0  0
   10.5884   -3.0725   16.7902 O   0  0  0  0  0  0  0  0  0  0  0  0
   10.4323   -5.3494   20.3516 C   0  0  0  0  0  0  0  0  0  0  0  0
    7.1156   -7.5454   16.8218 C   0  0  0  0  0  0  0  0  0  0  0  0
   10.3885   -4.4388   19.2773 C   0  0  0  0  0  0  0  0  0  0  0  0
    4.5160   -9.3822   15.0841 C   0  0  0  0  0  0  0  0  0  0  0  0
  1  3  4  0
  1 24  4  0
  2  6  4  0
  2 15  4  0
  3  5  4  0
  3  6  4  0
  4 21  4  0
  4 29  4  0
  5 15  4  0
  5 28  1  0
  6 16  4  0
  7 18  4  0
  7 26  4  0
  8 18  1  0
  8 19  4  0
  8 22  4  0
  9 12  4  0
  9 19  4  0
 10 12  4  0
 10 22  4  0
 11 20  4  0
 11 21  4  0
 12 23  1  0
 13 20  4  0
 13 29  4  0
 14 17  4  0
 14 28  4  0
 15 25  2  0
 16 27  4  0
 17 18  4  0
 20 27  1  0
 24 27  4  0
 26 28  4  0
M  END
$$$$

 Created by Python create_sdf_string function

 29 33  0  0  0  0  0  0  0  0999 V2000
    8.8270   -7.0288   18.4251 C   0  0  0  0  0  0  0  0  0  0  0  0
    9.1576   -4.6236   15.8860 O   0  0  0  0  0  0  0  0  0  0  0  0
    9.1509   -5.9108   17.7177 C   0  0  0  0  0  0  0  0  0  0  0  0
    3.6373   -9.5349   16.0582 N   0  0  0  0  0  0  0  0  0  0  0  0
    9.9275   -4.8001   18.0438 N   0  0  0  0  0  0  0  0  0  0  0  0
    8.5908   -5.7425   16.4412 C   0  0  0  0  0  0  0  0  0  0  0  0
   10.5993   -4.8981   21.6068 C   0  0  0  0  0  0  0  0  0  0  0  0
   10.4258   -3.0106   23.0998 C   0  0  0  0  0  0  0  0  0  0  0  0
   10.2148   -3.4364   25.4200 C   0  0  0  0  0  0  0  0  0  0  0  0
    9.7853   -1.1840   24.4927 C   0  0  0  0  0  0  0  0  0  0  0  0
    5.0276   -8.5227   17.5352 C   0  0  0  0  0  0  0  0  0  0  0  0
    9.8187   -2.0895   25.5800 C   0  0  0  0  0  0  0  0  0  0  0  0
    5.6473   -8.7216   15.3158 C   0  0  0  0  0  0  0  0  0  0  0  0
   10.7581   -3.1233   19.4720 N   0  0  0  0  0  0  0  0  0  0  0  0
    9.9571   -4.0573   16.8866 C   0  0  0  0  0  0  0  0  0  0  0  0
    7.6213   -6.5618   16.0087 C   0  0  0  0  0  0  0  0  0  0  0  0
   10.8583   -2.6527   20.7222 C   0  0  0  0  0  0  0  0  0  0  0  0
   10.6412   -3.5089   21.7936 C   0  0  0  0  0  0  0  0  0  0  0  0
   10.4972   -3.8968   24.1589 C   0  0  0  0  0  0  0  0  0  0  0  0
    5.9260   -8.2736   16.5517 C   0  0  0  0  0  0  0  0  0  0  0  0
    3.8816   -9.1166   17.2493 C   0  0  0  0  0  0  0  0  0  0  0  0
   10.1297   -1.6575   23.2324 C   0  0  0  0  0  0  0  0  0  0  0  0
    9.4684   -1.6929   26.7263 F   0  0  0  0  0  0  0  0  0  0  0  0
    7.7963   -7.7906   17.9837 C   0  0  0  0  0  0  0  0  0  0  0  0
   10.5884   -3.0725   16.7902 O   0  0  0  0  0  0  0  0  0  0  0  0
   10.4323   -5.3494   20.3516 C   0  0  0  0  0  0  0  0  0  0  0  0
    7.1156   -7.5454   16.8218 C   0  0  0  0  0  0  0  0  0  0  0  0
   10.3885   -4.4388   19.2773 C   0  0  0  0  0  0  0  0  0  0  0  0
    4.5160   -9.3822   15.0841 C   0  0  0  0  0  0  0  0  0  0  0  0
  1  3  4  0
  1 24  4  0
  2  6  4  0
  2 15  4  0
  3  5  4  0
  3  6  4  0
  4 21  4  0
  4 29  4  0
  5 15  4  0
  5 28  1  0
  6 16  4  0
  7 18  4  0
  7 26  4  0
  8 18  1  0
  8 19  4  0
  8 22  4  0
  9 12  4  0
  9 19  4  0
 10 12  4  0
 10 22  4  0
 11 20  4  0
 11 21  4  0
 12 23  1  0
 13 20  4  0
 13 29  4  0
 14 17  4  0
 14 28  4  0
 15 25  2  0
 16 27  4  0
 17 18  4  0
 20 27  1  0
 24 27  4  0
 26 28  4  0
M  END
$$$$

 Created by Python create_sdf_string function

 29 33  0  0  0  0  0  0  0  0999 V2000
    8.8270   -7.0288   18.4251 C   0  0  0  0  0  0  0  0  0  0  0  0
    9.1576   -4.6236   15.8860 O   0  0  0  0  0  0  0  0  0  0  0  0
    9.1509   -5.9108   17.7177 C   0  0  0  0  0  0  0  0  0  0  0  0
    3.6373   -9.5349   16.0582 N   0  0  0  0  0  0  0  0  0  0  0  0
    9.9275   -4.8001   18.0438 N   0  0  0  0  0  0  0  0  0  0  0  0
    8.5908   -5.7425   16.4412 C   0  0  0  0  0  0  0  0  0  0  0  0
   10.5993   -4.8981   21.6068 C   0  0  0  0  0  0  0  0  0  0  0  0
   10.4258   -3.0106   23.0998 C   0  0  0  0  0  0  0  0  0  0  0  0
   10.2148   -3.4364   25.4200 C   0  0  0  0  0  0  0  0  0  0  0  0
    9.7853   -1.1840   24.4927 C   0  0  0  0  0  0  0  0  0  0  0  0
    5.0276   -8.5227   17.5352 C   0  0  0  0  0  0  0  0  0  0  0  0
    9.8187   -2.0895   25.5800 C   0  0  0  0  0  0  0  0  0  0  0  0
    5.6473   -8.7216   15.3158 C   0  0  0  0  0  0  0  0  0  0  0  0
   10.7581   -3.1233   19.4720 N   0  0  0  0  0  0  0  0  0  0  0  0
    9.9571   -4.0573   16.8866 C   0  0  0  0  0  0  0  0  0  0  0  0
    7.6213   -6.5618   16.0087 C   0  0  0  0  0  0  0  0  0  0  0  0
   10.8583   -2.6527   20.7222 C   0  0  0  0  0  0  0  0  0  0  0  0
   10.6412   -3.5089   21.7936 C   0  0  0  0  0  0  0  0  0  0  0  0
   10.4972   -3.8968   24.1589 C   0  0  0  0  0  0  0  0  0  0  0  0
    5.9260   -8.2736   16.5517 C   0  0  0  0  0  0  0  0  0  0  0  0
    3.8816   -9.1166   17.2493 C   0  0  0  0  0  0  0  0  0  0  0  0
   10.1297   -1.6575   23.2324 C   0  0  0  0  0  0  0  0  0  0  0  0
    9.4684   -1.6929   26.7263 F   0  0  0  0  0  0  0  0  0  0  0  0
    7.7963   -7.7906   17.9837 C   0  0  0  0  0  0  0  0  0  0  0  0
   10.5884   -3.0725   16.7902 O   0  0  0  0  0  0  0  0  0  0  0  0
   10.4323   -5.3494   20.3516 C   0  0  0  0  0  0  0  0  0  0  0  0
    7.1156   -7.5454   16.8218 C   0  0  0  0  0  0  0  0  0  0  0  0
   10.3885   -4.4388   19.2773 C   0  0  0  0  0  0  0  0  0  0  0  0
    4.5160   -9.3822   15.0841 C   0  0  0  0  0  0  0  0  0  0  0  0
  1  3  4  0
  1 24  4  0
  2  6  4  0
  2 15  4  0
  3  5  4  0
  3  6  4  0
  4 21  4  0
  4 29  4  0
  5 15  4  0
  5 28  1  0
  6 16  4  0
  7 18  4  0
  7 26  4  0
  8 18  1  0
  8 19  4  0
  8 22  4  0
  9 12  4  0
  9 19  4  0
 10 12  4  0
 10 22  4  0
 11 20  4  0
 11 21  4  0
 12 23  1  0
 13 20  4  0
 13 29  4  0
 14 17  4  0
 14 28  4  0
 15 25  2  0
 16 27  4  0
 17 18  4  0
 20 27  1  0
 24 27  4  0
 26 28  4  0
M  END
$$$$

 Created by Python create_sdf_string function

 29 33  0  0  0  0  0  0  0  0999 V2000
    8.8270   -7.0288   18.4251 C   0  0  0  0  0  0  0  0  0  0  0  0
    9.1576   -4.6236   15.8860 O   0  0  0  0  0  0  0  0  0  0  0  0
    9.1509   -5.9108   17.7177 C   0  0  0  0  0  0  0  0  0  0  0  0
    3.6373   -9.5349   16.0582 N   0  0  0  0  0  0  0  0  0  0  0  0
    9.9275   -4.8001   18.0438 N   0  0  0  0  0  0  0  0  0  0  0  0
    8.5908   -5.7425   16.4412 C   0  0  0  0  0  0  0  0  0  0  0  0
   10.5993   -4.8981   21.6068 C   0  0  0  0  0  0  0  0  0  0  0  0
   10.4258   -3.0106   23.0998 C   0  0  0  0  0  0  0  0  0  0  0  0
   10.2148   -3.4364   25.4200 C   0  0  0  0  0  0  0  0  0  0  0  0
    9.7853   -1.1840   24.4927 C   0  0  0  0  0  0  0  0  0  0  0  0
    5.0276   -8.5227   17.5352 C   0  0  0  0  0  0  0  0  0  0  0  0
    9.8187   -2.0895   25.5800 C   0  0  0  0  0  0  0  0  0  0  0  0
    5.6473   -8.7216   15.3158 C   0  0  0  0  0  0  0  0  0  0  0  0
   10.7581   -3.1233   19.4720 N   0  0  0  0  0  0  0  0  0  0  0  0
    9.9571   -4.0573   16.8866 C   0  0  0  0  0  0  0  0  0  0  0  0
    7.6213   -6.5618   16.0087 C   0  0  0  0  0  0  0  0  0  0  0  0
   10.8583   -2.6527   20.7222 C   0  0  0  0  0  0  0  0  0  0  0  0
   10.6412   -3.5089   21.7936 C   0  0  0  0  0  0  0  0  0  0  0  0
   10.4972   -3.8968   24.1589 C   0  0  0  0  0  0  0  0  0  0  0  0
    5.9260   -8.2736   16.5517 C   0  0  0  0  0  0  0  0  0  0  0  0
    3.8816   -9.1166   17.2493 C   0  0  0  0  0  0  0  0  0  0  0  0
   10.1297   -1.6575   23.2324 C   0  0  0  0  0  0  0  0  0  0  0  0
    9.4684   -1.6929   26.7263 F   0  0  0  0  0  0  0  0  0  0  0  0
    7.7963   -7.7906   17.9837 C   0  0  0  0  0  0  0  0  0  0  0  0
   10.5884   -3.0725   16.7902 O   0  0  0  0  0  0  0  0  0  0  0  0
   10.4323   -5.3494   20.3516 C   0  0  0  0  0  0  0  0  0  0  0  0
    7.1156   -7.5454   16.8218 C   0  0  0  0  0  0  0  0  0  0  0  0
   10.3885   -4.4388   19.2773 C   0  0  0  0  0  0  0  0  0  0  0  0
    4.5160   -9.3822   15.0841 C   0  0  0  0  0  0  0  0  0  0  0  0
  1  3  4  0
  1 24  4  0
  2  6  4  0
  2 15  4  0
  3  5  4  0
  3  6  4  0
  4 21  4  0
  4 29  4  0
  5 15  4  0
  5 28  1  0
  6 16  4  0
  7 18  4  0
  7 26  4  0
  8 18  1  0
  8 19  4  0
  8 22  4  0
  9 12  4  0
  9 19  4  0
 10 12  4  0
 10 22  4  0
 11 20  4  0
 11 21  4  0
 12 23  1  0
 13 20  4  0
 13 29  4  0
 14 17  4  0
 14 28  4  0
 15 25  2  0
 16 27  4  0
 17 18  4  0
 20 27  1  0
 24 27  4  0
 26 28  4  0
M  END
$$$$

 Created by Python create_sdf_string function

 29 33  0  0  0  0  0  0  0  0999 V2000
    8.8270   -7.0288   18.4251 C   0  0  0  0  0  0  0  0  0  0  0  0
    9.1576   -4.6236   15.8860 O   0  0  0  0  0  0  0  0  0  0  0  0
    9.1509   -5.9108   17.7177 C   0  0  0  0  0  0  0  0  0  0  0  0
    3.6373   -9.5349   16.0582 N   0  0  0  0  0  0  0  0  0  0  0  0
    9.9275   -4.8001   18.0438 N   0  0  0  0  0  0  0  0  0  0  0  0
    8.5908   -5.7425   16.4412 C   0  0  0  0  0  0  0  0  0  0  0  0
   10.5993   -4.8981   21.6068 C   0  0  0  0  0  0  0  0  0  0  0  0
   10.4258   -3.0106   23.0998 C   0  0  0  0  0  0  0  0  0  0  0  0
   10.2148   -3.4364   25.4200 C   0  0  0  0  0  0  0  0  0  0  0  0
    9.7853   -1.1840   24.4927 C   0  0  0  0  0  0  0  0  0  0  0  0
    5.0276   -8.5227   17.5352 C   0  0  0  0  0  0  0  0  0  0  0  0
    9.8187   -2.0895   25.5800 C   0  0  0  0  0  0  0  0  0  0  0  0
    5.6473   -8.7216   15.3158 C   0  0  0  0  0  0  0  0  0  0  0  0
   10.7581   -3.1233   19.4720 N   0  0  0  0  0  0  0  0  0  0  0  0
    9.9571   -4.0573   16.8866 C   0  0  0  0  0  0  0  0  0  0  0  0
    7.6213   -6.5618   16.0087 C   0  0  0  0  0  0  0  0  0  0  0  0
   10.8583   -2.6527   20.7222 C   0  0  0  0  0  0  0  0  0  0  0  0
   10.6412   -3.5089   21.7936 C   0  0  0  0  0  0  0  0  0  0  0  0
   10.4972   -3.8968   24.1589 C   0  0  0  0  0  0  0  0  0  0  0  0
    5.9260   -8.2736   16.5517 C   0  0  0  0  0  0  0  0  0  0  0  0
    3.8816   -9.1166   17.2493 C   0  0  0  0  0  0  0  0  0  0  0  0
   10.1297   -1.6575   23.2324 C   0  0  0  0  0  0  0  0  0  0  0  0
    9.4684   -1.6929   26.7263 F   0  0  0  0  0  0  0  0  0  0  0  0
    7.7963   -7.7906   17.9837 C   0  0  0  0  0  0  0  0  0  0  0  0
   10.5884   -3.0725   16.7902 O   0  0  0  0  0  0  0  0  0  0  0  0
   10.4323   -5.3494   20.3516 C   0  0  0  0  0  0  0  0  0  0  0  0
    7.1156   -7.5454   16.8218 C   0  0  0  0  0  0  0  0  0  0  0  0
   10.3885   -4.4388   19.2773 C   0  0  0  0  0  0  0  0  0  0  0  0
    4.5160   -9.3822   15.0841 C   0  0  0  0  0  0  0  0  0  0  0  0
  1  3  4  0
  1 24  4  0
  2  6  4  0
  2 15  4  0
  3  5  4  0
  3  6  4  0
  4 21  4  0
  4 29  4  0
  5 15  4  0
  5 28  1  0
  6 16  4  0
  7 18  4  0
  7 26  4  0
  8 18  1  0
  8 19  4  0
  8 22  4  0
  9 12  4  0
  9 19  4  0
 10 12  4  0
 10 22  4  0
 11 20  4  0
 11 21  4  0
 12 23  1  0
 13 20  4  0
 13 29  4  0
 14 17  4  0
 14 28  4  0
 15 25  2  0
 16 27  4  0
 17 18  4  0
 20 27  1  0
 24 27  4  0
 26 28  4  0
M  END
$$$$

 Created by Python create_sdf_string function

 29 33  0  0  0  0  0  0  0  0999 V2000
    8.8270   -7.0288   18.4251 C   0  0  0  0  0  0  0  0  0  0  0  0
    9.1576   -4.6236   15.8860 O   0  0  0  0  0  0  0  0  0  0  0  0
    9.1509   -5.9108   17.7177 C   0  0  0  0  0  0  0  0  0  0  0  0
    3.6373   -9.5349   16.0582 N   0  0  0  0  0  0  0  0  0  0  0  0
    9.9275   -4.8001   18.0438 N   0  0  0  0  0  0  0  0  0  0  0  0
    8.5908   -5.7425   16.4412 C   0  0  0  0  0  0  0  0  0  0  0  0
   10.5993   -4.8981   21.6068 C   0  0  0  0  0  0  0  0  0  0  0  0
   10.4258   -3.0106   23.0998 C   0  0  0  0  0  0  0  0  0  0  0  0
   10.2148   -3.4364   25.4200 C   0  0  0  0  0  0  0  0  0  0  0  0
    9.7853   -1.1840   24.4927 C   0  0  0  0  0  0  0  0  0  0  0  0
    5.0276   -8.5227   17.5352 C   0  0  0  0  0  0  0  0  0  0  0  0
    9.8187   -2.0895   25.5800 C   0  0  0  0  0  0  0  0  0  0  0  0
    5.6473   -8.7216   15.3158 C   0  0  0  0  0  0  0  0  0  0  0  0
   10.7581   -3.1233   19.4720 N   0  0  0  0  0  0  0  0  0  0  0  0
    9.9571   -4.0573   16.8866 C   0  0  0  0  0  0  0  0  0  0  0  0
    7.6213   -6.5618   16.0087 C   0  0  0  0  0  0  0  0  0  0  0  0
   10.8583   -2.6527   20.7222 C   0  0  0  0  0  0  0  0  0  0  0  0
   10.6412   -3.5089   21.7936 C   0  0  0  0  0  0  0  0  0  0  0  0
   10.4972   -3.8968   24.1589 C   0  0  0  0  0  0  0  0  0  0  0  0
    5.9260   -8.2736   16.5517 C   0  0  0  0  0  0  0  0  0  0  0  0
    3.8816   -9.1166   17.2493 C   0  0  0  0  0  0  0  0  0  0  0  0
   10.1297   -1.6575   23.2324 C   0  0  0  0  0  0  0  0  0  0  0  0
    9.4684   -1.6929   26.7263 F   0  0  0  0  0  0  0  0  0  0  0  0
    7.7963   -7.7906   17.9837 C   0  0  0  0  0  0  0  0  0  0  0  0
   10.5884   -3.0725   16.7902 O   0  0  0  0  0  0  0  0  0  0  0  0
   10.4323   -5.3494   20.3516 C   0  0  0  0  0  0  0  0  0  0  0  0
    7.1156   -7.5454   16.8218 C   0  0  0  0  0  0  0  0  0  0  0  0
   10.3885   -4.4388   19.2773 C   0  0  0  0  0  0  0  0  0  0  0  0
    4.5160   -9.3822   15.0841 C   0  0  0  0  0  0  0  0  0  0  0  0
  1  3  4  0
  1 24  4  0
  2  6  4  0
  2 15  4  0
  3  5  4  0
  3  6  4  0
  4 21  4  0
  4 29  4  0
  5 15  4  0
  5 28  1  0
  6 16  4  0
  7 18  4  0
  7 26  4  0
  8 18  1  0
  8 19  4  0
  8 22  4  0
  9 12  4  0
  9 19  4  0
 10 12  4  0
 10 22  4  0
 11 20  4  0
 11 21  4  0
 12 23  1  0
 13 20  4  0
 13 29  4  0
 14 17  4  0
 14 28  4  0
 15 25  2  0
 16 27  4  0
 17 18  4  0
 20 27  1  0
 24 27  4  0
 26 28  4  0
M  END
$$$$

 Created by Python create_sdf_string function

 29 33  0  0  0  0  0  0  0  0999 V2000
    8.8270   -7.0288   18.4251 C   0  0  0  0  0  0  0  0  0  0  0  0
    9.1576   -4.6236   15.8860 O   0  0  0  0  0  0  0  0  0  0  0  0
    9.1509   -5.9108   17.7177 C   0  0  0  0  0  0  0  0  0  0  0  0
    3.6373   -9.5349   16.0582 N   0  0  0  0  0  0  0  0  0  0  0  0
    9.9275   -4.8001   18.0438 N   0  0  0  0  0  0  0  0  0  0  0  0
    8.5908   -5.7425   16.4412 C   0  0  0  0  0  0  0  0  0  0  0  0
   10.5993   -4.8981   21.6068 C   0  0  0  0  0  0  0  0  0  0  0  0
   10.4258   -3.0106   23.0998 C   0  0  0  0  0  0  0  0  0  0  0  0
   10.2148   -3.4364   25.4200 C   0  0  0  0  0  0  0  0  0  0  0  0
    9.7853   -1.1840   24.4927 C   0  0  0  0  0  0  0  0  0  0  0  0
    5.0276   -8.5227   17.5352 C   0  0  0  0  0  0  0  0  0  0  0  0
    9.8187   -2.0895   25.5800 C   0  0  0  0  0  0  0  0  0  0  0  0
    5.6473   -8.7216   15.3158 C   0  0  0  0  0  0  0  0  0  0  0  0
   10.7581   -3.1233   19.4720 N   0  0  0  0  0  0  0  0  0  0  0  0
    9.9571   -4.0573   16.8866 C   0  0  0  0  0  0  0  0  0  0  0  0
    7.6213   -6.5618   16.0087 C   0  0  0  0  0  0  0  0  0  0  0  0
   10.8583   -2.6527   20.7222 C   0  0  0  0  0  0  0  0  0  0  0  0
   10.6412   -3.5089   21.7936 C   0  0  0  0  0  0  0  0  0  0  0  0
   10.4972   -3.8968   24.1589 C   0  0  0  0  0  0  0  0  0  0  0  0
    5.9260   -8.2736   16.5517 C   0  0  0  0  0  0  0  0  0  0  0  0
    3.8816   -9.1166   17.2493 C   0  0  0  0  0  0  0  0  0  0  0  0
   10.1297   -1.6575   23.2324 C   0  0  0  0  0  0  0  0  0  0  0  0
    9.4684   -1.6929   26.7263 F   0  0  0  0  0  0  0  0  0  0  0  0
    7.7963   -7.7906   17.9837 C   0  0  0  0  0  0  0  0  0  0  0  0
   10.5884   -3.0725   16.7902 O   0  0  0  0  0  0  0  0  0  0  0  0
   10.4323   -5.3494   20.3516 C   0  0  0  0  0  0  0  0  0  0  0  0
    7.1156   -7.5454   16.8218 C   0  0  0  0  0  0  0  0  0  0  0  0
   10.3885   -4.4388   19.2773 C   0  0  0  0  0  0  0  0  0  0  0  0
    4.5160   -9.3822   15.0841 C   0  0  0  0  0  0  0  0  0  0  0  0
  1  3  4  0
  1 24  4  0
  2  6  4  0
  2 15  4  0
  3  5  4  0
  3  6  4  0
  4 21  4  0
  4 29  4  0
  5 15  4  0
  5 28  1  0
  6 16  4  0
  7 18  4  0
  7 26  4  0
  8 18  1  0
  8 19  4  0
  8 22  4  0
  9 12  4  0
  9 19  4  0
 10 12  4  0
 10 22  4  0
 11 20  4  0
 11 21  4  0
 12 23  1  0
 13 20  4  0
 13 29  4  0
 14 17  4  0
 14 28  4  0
 15 25  2  0
 16 27  4  0
 17 18  4  0
 20 27  1  0
 24 27  4  0
 26 28  4  0
M  END
$$$$

 Created by Python create_sdf_string function

 29 33  0  0  0  0  0  0  0  0999 V2000
    8.8270   -7.0288   18.4251 C   0  0  0  0  0  0  0  0  0  0  0  0
    9.1576   -4.6236   15.8860 O   0  0  0  0  0  0  0  0  0  0  0  0
    9.1509   -5.9108   17.7177 C   0  0  0  0  0  0  0  0  0  0  0  0
    3.6373   -9.5349   16.0582 N   0  0  0  0  0  0  0  0  0  0  0  0
    9.9275   -4.8001   18.0438 N   0  0  0  0  0  0  0  0  0  0  0  0
    8.5908   -5.7425   16.4412 C   0  0  0  0  0  0  0  0  0  0  0  0
   10.5993   -4.8981   21.6068 C   0  0  0  0  0  0  0  0  0  0  0  0
   10.4258   -3.0106   23.0998 C   0  0  0  0  0  0  0  0  0  0  0  0
   10.2148   -3.4364   25.4200 C   0  0  0  0  0  0  0  0  0  0  0  0
    9.7853   -1.1840   24.4927 C   0  0  0  0  0  0  0  0  0  0  0  0
    5.0276   -8.5227   17.5352 C   0  0  0  0  0  0  0  0  0  0  0  0
    9.8187   -2.0895   25.5800 C   0  0  0  0  0  0  0  0  0  0  0  0
    5.6473   -8.7216   15.3158 C   0  0  0  0  0  0  0  0  0  0  0  0
   10.7581   -3.1233   19.4720 N   0  0  0  0  0  0  0  0  0  0  0  0
    9.9571   -4.0573   16.8866 C   0  0  0  0  0  0  0  0  0  0  0  0
    7.6213   -6.5618   16.0087 C   0  0  0  0  0  0  0  0  0  0  0  0
   10.8583   -2.6527   20.7222 C   0  0  0  0  0  0  0  0  0  0  0  0
   10.6412   -3.5089   21.7936 C   0  0  0  0  0  0  0  0  0  0  0  0
   10.4972   -3.8968   24.1589 C   0  0  0  0  0  0  0  0  0  0  0  0
    5.9260   -8.2736   16.5517 C   0  0  0  0  0  0  0  0  0  0  0  0
    3.8816   -9.1166   17.2493 C   0  0  0  0  0  0  0  0  0  0  0  0
   10.1297   -1.6575   23.2324 C   0  0  0  0  0  0  0  0  0  0  0  0
    9.4684   -1.6929   26.7263 F   0  0  0  0  0  0  0  0  0  0  0  0
    7.7963   -7.7906   17.9837 C   0  0  0  0  0  0  0  0  0  0  0  0
   10.5884   -3.0725   16.7902 O   0  0  0  0  0  0  0  0  0  0  0  0
   10.4323   -5.3494   20.3516 C   0  0  0  0  0  0  0  0  0  0  0  0
    7.1156   -7.5454   16.8218 C   0  0  0  0  0  0  0  0  0  0  0  0
   10.3885   -4.4388   19.2773 C   0  0  0  0  0  0  0  0  0  0  0  0
    4.5160   -9.3822   15.0841 C   0  0  0  0  0  0  0  0  0  0  0  0
  1  3  4  0
  1 24  4  0
  2  6  4  0
  2 15  4  0
  3  5  4  0
  3  6  4  0
  4 21  4  0
  4 29  4  0
  5 15  4  0
  5 28  1  0
  6 16  4  0
  7 18  4  0
  7 26  4  0
  8 18  1  0
  8 19  4  0
  8 22  4  0
  9 12  4  0
  9 19  4  0
 10 12  4  0
 10 22  4  0
 11 20  4  0
 11 21  4  0
 12 23  1  0
 13 20  4  0
 13 29  4  0
 14 17  4  0
 14 28  4  0
 15 25  2  0
 16 27  4  0
 17 18  4  0
 20 27  1  0
 24 27  4  0
 26 28  4  0
M  END
$$$$

 Created by Python create_sdf_string function

 29 33  0  0  0  0  0  0  0  0999 V2000
    8.8270   -7.0288   18.4251 C   0  0  0  0  0  0  0  0  0  0  0  0
    9.1576   -4.6236   15.8860 O   0  0  0  0  0  0  0  0  0  0  0  0
    9.1509   -5.9108   17.7177 C   0  0  0  0  0  0  0  0  0  0  0  0
    3.6373   -9.5349   16.0582 N   0  0  0  0  0  0  0  0  0  0  0  0
    9.9275   -4.8001   18.0438 N   0  0  0  0  0  0  0  0  0  0  0  0
    8.5908   -5.7425   16.4412 C   0  0  0  0  0  0  0  0  0  0  0  0
   10.5993   -4.8981   21.6068 C   0  0  0  0  0  0  0  0  0  0  0  0
   10.4258   -3.0106   23.0998 C   0  0  0  0  0  0  0  0  0  0  0  0
   10.2148   -3.4364   25.4200 C   0  0  0  0  0  0  0  0  0  0  0  0
    9.7853   -1.1840   24.4927 C   0  0  0  0  0  0  0  0  0  0  0  0
    5.0276   -8.5227   17.5352 C   0  0  0  0  0  0  0  0  0  0  0  0
    9.8187   -2.0895   25.5800 C   0  0  0  0  0  0  0  0  0  0  0  0
    5.6473   -8.7216   15.3158 C   0  0  0  0  0  0  0  0  0  0  0  0
   10.7581   -3.1233   19.4720 N   0  0  0  0  0  0  0  0  0  0  0  0
    9.9571   -4.0573   16.8866 C   0  0  0  0  0  0  0  0  0  0  0  0
    7.6213   -6.5618   16.0087 C   0  0  0  0  0  0  0  0  0  0  0  0
   10.8583   -2.6527   20.7222 C   0  0  0  0  0  0  0  0  0  0  0  0
   10.6412   -3.5089   21.7936 C   0  0  0  0  0  0  0  0  0  0  0  0
   10.4972   -3.8968   24.1589 C   0  0  0  0  0  0  0  0  0  0  0  0
    5.9260   -8.2736   16.5517 C   0  0  0  0  0  0  0  0  0  0  0  0
    3.8816   -9.1166   17.2493 C   0  0  0  0  0  0  0  0  0  0  0  0
   10.1297   -1.6575   23.2324 C   0  0  0  0  0  0  0  0  0  0  0  0
    9.4684   -1.6929   26.7263 F   0  0  0  0  0  0  0  0  0  0  0  0
    7.7963   -7.7906   17.9837 C   0  0  0  0  0  0  0  0  0  0  0  0
   10.5884   -3.0725   16.7902 O   0  0  0  0  0  0  0  0  0  0  0  0
   10.4323   -5.3494   20.3516 C   0  0  0  0  0  0  0  0  0  0  0  0
    7.1156   -7.5454   16.8218 C   0  0  0  0  0  0  0  0  0  0  0  0
   10.3885   -4.4388   19.2773 C   0  0  0  0  0  0  0  0  0  0  0  0
    4.5160   -9.3822   15.0841 C   0  0  0  0  0  0  0  0  0  0  0  0
  1  3  4  0
  1 24  4  0
  2  6  4  0
  2 15  4  0
  3  5  4  0
  3  6  4  0
  4 21  4  0
  4 29  4  0
  5 15  4  0
  5 28  1  0
  6 16  4  0
  7 18  4  0
  7 26  4  0
  8 18  1  0
  8 19  4  0
  8 22  4  0
  9 12  4  0
  9 19  4  0
 10 12  4  0
 10 22  4  0
 11 20  4  0
 11 21  4  0
 12 23  1  0
 13 20  4  0
 13 29  4  0
 14 17  4  0
 14 28  4  0
 15 25  2  0
 16 27  4  0
 17 18  4  0
 20 27  1  0
 24 27  4  0
 26 28  4  0
M  END
$$$$

 Created by Python create_sdf_string function

 29 33  0  0  0  0  0  0  0  0999 V2000
    8.8270   -7.0288   18.4251 C   0  0  0  0  0  0  0  0  0  0  0  0
    9.1576   -4.6236   15.8860 O   0  0  0  0  0  0  0  0  0  0  0  0
    9.1509   -5.9108   17.7177 C   0  0  0  0  0  0  0  0  0  0  0  0
    3.6373   -9.5349   16.0582 N   0  0  0  0  0  0  0  0  0  0  0  0
    9.9275   -4.8001   18.0438 N   0  0  0  0  0  0  0  0  0  0  0  0
    8.5908   -5.7425   16.4412 C   0  0  0  0  0  0  0  0  0  0  0  0
   10.5993   -4.8981   21.6068 C   0  0  0  0  0  0  0  0  0  0  0  0
   10.4258   -3.0106   23.0998 C   0  0  0  0  0  0  0  0  0  0  0  0
   10.2148   -3.4364   25.4200 C   0  0  0  0  0  0  0  0  0  0  0  0
    9.7853   -1.1840   24.4927 C   0  0  0  0  0  0  0  0  0  0  0  0
    5.0276   -8.5227   17.5352 C   0  0  0  0  0  0  0  0  0  0  0  0
    9.8187   -2.0895   25.5800 C   0  0  0  0  0  0  0  0  0  0  0  0
    5.6473   -8.7216   15.3158 C   0  0  0  0  0  0  0  0  0  0  0  0
   10.7581   -3.1233   19.4720 N   0  0  0  0  0  0  0  0  0  0  0  0
    9.9571   -4.0573   16.8866 C   0  0  0  0  0  0  0  0  0  0  0  0
    7.6213   -6.5618   16.0087 C   0  0  0  0  0  0  0  0  0  0  0  0
   10.8583   -2.6527   20.7222 C   0  0  0  0  0  0  0  0  0  0  0  0
   10.6412   -3.5089   21.7936 C   0  0  0  0  0  0  0  0  0  0  0  0
   10.4972   -3.8968   24.1589 C   0  0  0  0  0  0  0  0  0  0  0  0
    5.9260   -8.2736   16.5517 C   0  0  0  0  0  0  0  0  0  0  0  0
    3.8816   -9.1166   17.2493 C   0  0  0  0  0  0  0  0  0  0  0  0
   10.1297   -1.6575   23.2324 C   0  0  0  0  0  0  0  0  0  0  0  0
    9.4684   -1.6929   26.7263 F   0  0  0  0  0  0  0  0  0  0  0  0
    7.7963   -7.7906   17.9837 C   0  0  0  0  0  0  0  0  0  0  0  0
   10.5884   -3.0725   16.7902 O   0  0  0  0  0  0  0  0  0  0  0  0
   10.4323   -5.3494   20.3516 C   0  0  0  0  0  0  0  0  0  0  0  0
    7.1156   -7.5454   16.8218 C   0  0  0  0  0  0  0  0  0  0  0  0
   10.3885   -4.4388   19.2773 C   0  0  0  0  0  0  0  0  0  0  0  0
    4.5160   -9.3822   15.0841 C   0  0  0  0  0  0  0  0  0  0  0  0
  1  3  4  0
  1 24  4  0
  2  6  4  0
  2 15  4  0
  3  5  4  0
  3  6  4  0
  4 21  4  0
  4 29  4  0
  5 15  4  0
  5 28  1  0
  6 16  4  0
  7 18  4  0
  7 26  4  0
  8 18  1  0
  8 19  4  0
  8 22  4  0
  9 12  4  0
  9 19  4  0
 10 12  4  0
 10 22  4  0
 11 20  4  0
 11 21  4  0
 12 23  1  0
 13 20  4  0
 13 29  4  0
 14 17  4  0
 14 28  4  0
 15 25  2  0
 16 27  4  0
 17 18  4  0
 20 27  1  0
 24 27  4  0
 26 28  4  0
M  END
$$$$

 Created by Python create_sdf_string function

 29 33  0  0  0  0  0  0  0  0999 V2000
    8.8270   -7.0288   18.4251 C   0  0  0  0  0  0  0  0  0  0  0  0
    9.1576   -4.6236   15.8860 O   0  0  0  0  0  0  0  0  0  0  0  0
    9.1509   -5.9108   17.7177 C   0  0  0  0  0  0  0  0  0  0  0  0
    3.6373   -9.5349   16.0582 N   0  0  0  0  0  0  0  0  0  0  0  0
    9.9275   -4.8001   18.0438 N   0  0  0  0  0  0  0  0  0  0  0  0
    8.5908   -5.7425   16.4412 C   0  0  0  0  0  0  0  0  0  0  0  0
   10.5993   -4.8981   21.6068 C   0  0  0  0  0  0  0  0  0  0  0  0
   10.4258   -3.0106   23.0998 C   0  0  0  0  0  0  0  0  0  0  0  0
   10.2148   -3.4364   25.4200 C   0  0  0  0  0  0  0  0  0  0  0  0
    9.7853   -1.1840   24.4927 C   0  0  0  0  0  0  0  0  0  0  0  0
    5.0276   -8.5227   17.5352 C   0  0  0  0  0  0  0  0  0  0  0  0
    9.8187   -2.0895   25.5800 C   0  0  0  0  0  0  0  0  0  0  0  0
    5.6473   -8.7216   15.3158 C   0  0  0  0  0  0  0  0  0  0  0  0
   10.7581   -3.1233   19.4720 N   0  0  0  0  0  0  0  0  0  0  0  0
    9.9571   -4.0573   16.8866 C   0  0  0  0  0  0  0  0  0  0  0  0
    7.6213   -6.5618   16.0087 C   0  0  0  0  0  0  0  0  0  0  0  0
   10.8583   -2.6527   20.7222 C   0  0  0  0  0  0  0  0  0  0  0  0
   10.6412   -3.5089   21.7936 C   0  0  0  0  0  0  0  0  0  0  0  0
   10.4972   -3.8968   24.1589 C   0  0  0  0  0  0  0  0  0  0  0  0
    5.9260   -8.2736   16.5517 C   0  0  0  0  0  0  0  0  0  0  0  0
    3.8816   -9.1166   17.2493 C   0  0  0  0  0  0  0  0  0  0  0  0
   10.1297   -1.6575   23.2324 C   0  0  0  0  0  0  0  0  0  0  0  0
    9.4684   -1.6929   26.7263 F   0  0  0  0  0  0  0  0  0  0  0  0
    7.7963   -7.7906   17.9837 C   0  0  0  0  0  0  0  0  0  0  0  0
   10.5884   -3.0725   16.7902 O   0  0  0  0  0  0  0  0  0  0  0  0
   10.4323   -5.3494   20.3516 C   0  0  0  0  0  0  0  0  0  0  0  0
    7.1156   -7.5454   16.8218 C   0  0  0  0  0  0  0  0  0  0  0  0
   10.3885   -4.4388   19.2773 C   0  0  0  0  0  0  0  0  0  0  0  0
    4.5160   -9.3822   15.0841 C   0  0  0  0  0  0  0  0  0  0  0  0
  1  3  4  0
  1 24  4  0
  2  6  4  0
  2 15  4  0
  3  5  4  0
  3  6  4  0
  4 21  4  0
  4 29  4  0
  5 15  4  0
  5 28  1  0
  6 16  4  0
  7 18  4  0
  7 26  4  0
  8 18  1  0
  8 19  4  0
  8 22  4  0
  9 12  4  0
  9 19  4  0
 10 12  4  0
 10 22  4  0
 11 20  4  0
 11 21  4  0
 12 23  1  0
 13 20  4  0
 13 29  4  0
 14 17  4  0
 14 28  4  0
 15 25  2  0
 16 27  4  0
 17 18  4  0
 20 27  1  0
 24 27  4  0
 26 28  4  0
M  END
$$$$

 Created by Python create_sdf_string function

 29 33  0  0  0  0  0  0  0  0999 V2000
    8.8270   -7.0288   18.4251 C   0  0  0  0  0  0  0  0  0  0  0  0
    9.1576   -4.6236   15.8860 O   0  0  0  0  0  0  0  0  0  0  0  0
    9.1509   -5.9108   17.7177 C   0  0  0  0  0  0  0  0  0  0  0  0
    3.6373   -9.5349   16.0582 N   0  0  0  0  0  0  0  0  0  0  0  0
    9.9275   -4.8001   18.0438 N   0  0  0  0  0  0  0  0  0  0  0  0
    8.5908   -5.7425   16.4412 C   0  0  0  0  0  0  0  0  0  0  0  0
   10.5993   -4.8981   21.6068 C   0  0  0  0  0  0  0  0  0  0  0  0
   10.4258   -3.0106   23.0998 C   0  0  0  0  0  0  0  0  0  0  0  0
   10.2148   -3.4364   25.4200 C   0  0  0  0  0  0  0  0  0  0  0  0
    9.7853   -1.1840   24.4927 C   0  0  0  0  0  0  0  0  0  0  0  0
    5.0276   -8.5227   17.5352 C   0  0  0  0  0  0  0  0  0  0  0  0
    9.8187   -2.0895   25.5800 C   0  0  0  0  0  0  0  0  0  0  0  0
    5.6473   -8.7216   15.3158 C   0  0  0  0  0  0  0  0  0  0  0  0
   10.7581   -3.1233   19.4720 N   0  0  0  0  0  0  0  0  0  0  0  0
    9.9571   -4.0573   16.8866 C   0  0  0  0  0  0  0  0  0  0  0  0
    7.6213   -6.5618   16.0087 C   0  0  0  0  0  0  0  0  0  0  0  0
   10.8583   -2.6527   20.7222 C   0  0  0  0  0  0  0  0  0  0  0  0
   10.6412   -3.5089   21.7936 C   0  0  0  0  0  0  0  0  0  0  0  0
   10.4972   -3.8968   24.1589 C   0  0  0  0  0  0  0  0  0  0  0  0
    5.9260   -8.2736   16.5517 C   0  0  0  0  0  0  0  0  0  0  0  0
    3.8816   -9.1166   17.2493 C   0  0  0  0  0  0  0  0  0  0  0  0
   10.1297   -1.6575   23.2324 C   0  0  0  0  0  0  0  0  0  0  0  0
    9.4684   -1.6929   26.7263 F   0  0  0  0  0  0  0  0  0  0  0  0
    7.7963   -7.7906   17.9837 C   0  0  0  0  0  0  0  0  0  0  0  0
   10.5884   -3.0725   16.7902 O   0  0  0  0  0  0  0  0  0  0  0  0
   10.4323   -5.3494   20.3516 C   0  0  0  0  0  0  0  0  0  0  0  0
    7.1156   -7.5454   16.8218 C   0  0  0  0  0  0  0  0  0  0  0  0
   10.3885   -4.4388   19.2773 C   0  0  0  0  0  0  0  0  0  0  0  0
    4.5160   -9.3822   15.0841 C   0  0  0  0  0  0  0  0  0  0  0  0
  1  3  4  0
  1 24  4  0
  2  6  4  0
  2 15  4  0
  3  5  4  0
  3  6  4  0
  4 21  4  0
  4 29  4  0
  5 15  4  0
  5 28  1  0
  6 16  4  0
  7 18  4  0
  7 26  4  0
  8 18  1  0
  8 19  4  0
  8 22  4  0
  9 12  4  0
  9 19  4  0
 10 12  4  0
 10 22  4  0
 11 20  4  0
 11 21  4  0
 12 23  1  0
 13 20  4  0
 13 29  4  0
 14 17  4  0
 14 28  4  0
 15 25  2  0
 16 27  4  0
 17 18  4  0
 20 27  1  0
 24 27  4  0
 26 28  4  0
M  END
$$$$

 Created by Python create_sdf_string function

 29 33  0  0  0  0  0  0  0  0999 V2000
    8.8270   -7.0288   18.4251 C   0  0  0  0  0  0  0  0  0  0  0  0
    9.1576   -4.6236   15.8860 O   0  0  0  0  0  0  0  0  0  0  0  0
    9.1509   -5.9108   17.7177 C   0  0  0  0  0  0  0  0  0  0  0  0
    3.6373   -9.5349   16.0582 N   0  0  0  0  0  0  0  0  0  0  0  0
    9.9275   -4.8001   18.0438 N   0  0  0  0  0  0  0  0  0  0  0  0
    8.5908   -5.7425   16.4412 C   0  0  0  0  0  0  0  0  0  0  0  0
   10.5993   -4.8981   21.6068 C   0  0  0  0  0  0  0  0  0  0  0  0
   10.4258   -3.0106   23.0998 C   0  0  0  0  0  0  0  0  0  0  0  0
   10.2148   -3.4364   25.4200 C   0  0  0  0  0  0  0  0  0  0  0  0
    9.7853   -1.1840   24.4927 C   0  0  0  0  0  0  0  0  0  0  0  0
    5.0276   -8.5227   17.5352 C   0  0  0  0  0  0  0  0  0  0  0  0
    9.8187   -2.0895   25.5800 C   0  0  0  0  0  0  0  0  0  0  0  0
    5.6473   -8.7216   15.3158 C   0  0  0  0  0  0  0  0  0  0  0  0
   10.7581   -3.1233   19.4720 N   0  0  0  0  0  0  0  0  0  0  0  0
    9.9571   -4.0573   16.8866 C   0  0  0  0  0  0  0  0  0  0  0  0
    7.6213   -6.5618   16.0087 C   0  0  0  0  0  0  0  0  0  0  0  0
   10.8583   -2.6527   20.7222 C   0  0  0  0  0  0  0  0  0  0  0  0
   10.6412   -3.5089   21.7936 C   0  0  0  0  0  0  0  0  0  0  0  0
   10.4972   -3.8968   24.1589 C   0  0  0  0  0  0  0  0  0  0  0  0
    5.9260   -8.2736   16.5517 C   0  0  0  0  0  0  0  0  0  0  0  0
    3.8816   -9.1166   17.2493 C   0  0  0  0  0  0  0  0  0  0  0  0
   10.1297   -1.6575   23.2324 C   0  0  0  0  0  0  0  0  0  0  0  0
    9.4684   -1.6929   26.7263 F   0  0  0  0  0  0  0  0  0  0  0  0
    7.7963   -7.7906   17.9837 C   0  0  0  0  0  0  0  0  0  0  0  0
   10.5884   -3.0725   16.7902 O   0  0  0  0  0  0  0  0  0  0  0  0
   10.4323   -5.3494   20.3516 C   0  0  0  0  0  0  0  0  0  0  0  0
    7.1156   -7.5454   16.8218 C   0  0  0  0  0  0  0  0  0  0  0  0
   10.3885   -4.4388   19.2773 C   0  0  0  0  0  0  0  0  0  0  0  0
    4.5160   -9.3822   15.0841 C   0  0  0  0  0  0  0  0  0  0  0  0
  1  3  4  0
  1 24  4  0
  2  6  4  0
  2 15  4  0
  3  5  4  0
  3  6  4  0
  4 21  4  0
  4 29  4  0
  5 15  4  0
  5 28  1  0
  6 16  4  0
  7 18  4  0
  7 26  4  0
  8 18  1  0
  8 19  4  0
  8 22  4  0
  9 12  4  0
  9 19  4  0
 10 12  4  0
 10 22  4  0
 11 20  4  0
 11 21  4  0
 12 23  1  0
 13 20  4  0
 13 29  4  0
 14 17  4  0
 14 28  4  0
 15 25  2  0
 16 27  4  0
 17 18  4  0
 20 27  1  0
 24 27  4  0
 26 28  4  0
M  END
$$$$

 Created by Python create_sdf_string function

 29 33  0  0  0  0  0  0  0  0999 V2000
    8.8270   -7.0288   18.4251 C   0  0  0  0  0  0  0  0  0  0  0  0
    9.1576   -4.6236   15.8860 O   0  0  0  0  0  0  0  0  0  0  0  0
    9.1509   -5.9108   17.7177 C   0  0  0  0  0  0  0  0  0  0  0  0
    3.6373   -9.5349   16.0582 N   0  0  0  0  0  0  0  0  0  0  0  0
    9.9275   -4.8001   18.0438 N   0  0  0  0  0  0  0  0  0  0  0  0
    8.5908   -5.7425   16.4412 C   0  0  0  0  0  0  0  0  0  0  0  0
   10.5993   -4.8981   21.6068 C   0  0  0  0  0  0  0  0  0  0  0  0
   10.4258   -3.0106   23.0998 C   0  0  0  0  0  0  0  0  0  0  0  0
   10.2148   -3.4364   25.4200 C   0  0  0  0  0  0  0  0  0  0  0  0
    9.7853   -1.1840   24.4927 C   0  0  0  0  0  0  0  0  0  0  0  0
    5.0276   -8.5227   17.5352 C   0  0  0  0  0  0  0  0  0  0  0  0
    9.8187   -2.0895   25.5800 C   0  0  0  0  0  0  0  0  0  0  0  0
    5.6473   -8.7216   15.3158 C   0  0  0  0  0  0  0  0  0  0  0  0
   10.7581   -3.1233   19.4720 N   0  0  0  0  0  0  0  0  0  0  0  0
    9.9571   -4.0573   16.8866 C   0  0  0  0  0  0  0  0  0  0  0  0
    7.6213   -6.5618   16.0087 C   0  0  0  0  0  0  0  0  0  0  0  0
   10.8583   -2.6527   20.7222 C   0  0  0  0  0  0  0  0  0  0  0  0
   10.6412   -3.5089   21.7936 C   0  0  0  0  0  0  0  0  0  0  0  0
   10.4972   -3.8968   24.1589 C   0  0  0  0  0  0  0  0  0  0  0  0
    5.9260   -8.2736   16.5517 C   0  0  0  0  0  0  0  0  0  0  0  0
    3.8816   -9.1166   17.2493 C   0  0  0  0  0  0  0  0  0  0  0  0
   10.1297   -1.6575   23.2324 C   0  0  0  0  0  0  0  0  0  0  0  0
    9.4684   -1.6929   26.7263 F   0  0  0  0  0  0  0  0  0  0  0  0
    7.7963   -7.7906   17.9837 C   0  0  0  0  0  0  0  0  0  0  0  0
   10.5884   -3.0725   16.7902 O   0  0  0  0  0  0  0  0  0  0  0  0
   10.4323   -5.3494   20.3516 C   0  0  0  0  0  0  0  0  0  0  0  0
    7.1156   -7.5454   16.8218 C   0  0  0  0  0  0  0  0  0  0  0  0
   10.3885   -4.4388   19.2773 C   0  0  0  0  0  0  0  0  0  0  0  0
    4.5160   -9.3822   15.0841 C   0  0  0  0  0  0  0  0  0  0  0  0
  1  3  4  0
  1 24  4  0
  2  6  4  0
  2 15  4  0
  3  5  4  0
  3  6  4  0
  4 21  4  0
  4 29  4  0
  5 15  4  0
  5 28  1  0
  6 16  4  0
  7 18  4  0
  7 26  4  0
  8 18  1  0
  8 19  4  0
  8 22  4  0
  9 12  4  0
  9 19  4  0
 10 12  4  0
 10 22  4  0
 11 20  4  0
 11 21  4  0
 12 23  1  0
 13 20  4  0
 13 29  4  0
 14 17  4  0
 14 28  4  0
 15 25  2  0
 16 27  4  0
 17 18  4  0
 20 27  1  0
 24 27  4  0
 26 28  4  0
M  END
$$$$

 Created by Python create_sdf_string function

 29 33  0  0  0  0  0  0  0  0999 V2000
    8.8270   -7.0288   18.4251 C   0  0  0  0  0  0  0  0  0  0  0  0
    9.1576   -4.6236   15.8860 O   0  0  0  0  0  0  0  0  0  0  0  0
    9.1509   -5.9108   17.7177 C   0  0  0  0  0  0  0  0  0  0  0  0
    3.6373   -9.5349   16.0582 N   0  0  0  0  0  0  0  0  0  0  0  0
    9.9275   -4.8001   18.0438 N   0  0  0  0  0  0  0  0  0  0  0  0
    8.5908   -5.7425   16.4412 C   0  0  0  0  0  0  0  0  0  0  0  0
   10.5993   -4.8981   21.6068 C   0  0  0  0  0  0  0  0  0  0  0  0
   10.4258   -3.0106   23.0998 C   0  0  0  0  0  0  0  0  0  0  0  0
   10.2148   -3.4364   25.4200 C   0  0  0  0  0  0  0  0  0  0  0  0
    9.7853   -1.1840   24.4927 C   0  0  0  0  0  0  0  0  0  0  0  0
    5.0276   -8.5227   17.5352 C   0  0  0  0  0  0  0  0  0  0  0  0
    9.8187   -2.0895   25.5800 C   0  0  0  0  0  0  0  0  0  0  0  0
    5.6473   -8.7216   15.3158 C   0  0  0  0  0  0  0  0  0  0  0  0
   10.7581   -3.1233   19.4720 N   0  0  0  0  0  0  0  0  0  0  0  0
    9.9571   -4.0573   16.8866 C   0  0  0  0  0  0  0  0  0  0  0  0
    7.6213   -6.5618   16.0087 C   0  0  0  0  0  0  0  0  0  0  0  0
   10.8583   -2.6527   20.7222 C   0  0  0  0  0  0  0  0  0  0  0  0
   10.6412   -3.5089   21.7936 C   0  0  0  0  0  0  0  0  0  0  0  0
   10.4972   -3.8968   24.1589 C   0  0  0  0  0  0  0  0  0  0  0  0
    5.9260   -8.2736   16.5517 C   0  0  0  0  0  0  0  0  0  0  0  0
    3.8816   -9.1166   17.2493 C   0  0  0  0  0  0  0  0  0  0  0  0
   10.1297   -1.6575   23.2324 C   0  0  0  0  0  0  0  0  0  0  0  0
    9.4684   -1.6929   26.7263 F   0  0  0  0  0  0  0  0  0  0  0  0
    7.7963   -7.7906   17.9837 C   0  0  0  0  0  0  0  0  0  0  0  0
   10.5884   -3.0725   16.7902 O   0  0  0  0  0  0  0  0  0  0  0  0
   10.4323   -5.3494   20.3516 C   0  0  0  0  0  0  0  0  0  0  0  0
    7.1156   -7.5454   16.8218 C   0  0  0  0  0  0  0  0  0  0  0  0
   10.3885   -4.4388   19.2773 C   0  0  0  0  0  0  0  0  0  0  0  0
    4.5160   -9.3822   15.0841 C   0  0  0  0  0  0  0  0  0  0  0  0
  1  3  4  0
  1 24  4  0
  2  6  4  0
  2 15  4  0
  3  5  4  0
  3  6  4  0
  4 21  4  0
  4 29  4  0
  5 15  4  0
  5 28  1  0
  6 16  4  0
  7 18  4  0
  7 26  4  0
  8 18  1  0
  8 19  4  0
  8 22  4  0
  9 12  4  0
  9 19  4  0
 10 12  4  0
 10 22  4  0
 11 20  4  0
 11 21  4  0
 12 23  1  0
 13 20  4  0
 13 29  4  0
 14 17  4  0
 14 28  4  0
 15 25  2  0
 16 27  4  0
 17 18  4  0
 20 27  1  0
 24 27  4  0
 26 28  4  0
M  END
$$$$

 Created by Python create_sdf_string function

 29 33  0  0  0  0  0  0  0  0999 V2000
    8.8270   -7.0288   18.4251 C   0  0  0  0  0  0  0  0  0  0  0  0
    9.1576   -4.6236   15.8860 O   0  0  0  0  0  0  0  0  0  0  0  0
    9.1509   -5.9108   17.7177 C   0  0  0  0  0  0  0  0  0  0  0  0
    3.6373   -9.5349   16.0582 N   0  0  0  0  0  0  0  0  0  0  0  0
    9.9275   -4.8001   18.0438 N   0  0  0  0  0  0  0  0  0  0  0  0
    8.5908   -5.7425   16.4412 C   0  0  0  0  0  0  0  0  0  0  0  0
   10.5993   -4.8981   21.6068 C   0  0  0  0  0  0  0  0  0  0  0  0
   10.4258   -3.0106   23.0998 C   0  0  0  0  0  0  0  0  0  0  0  0
   10.2148   -3.4364   25.4200 C   0  0  0  0  0  0  0  0  0  0  0  0
    9.7853   -1.1840   24.4927 C   0  0  0  0  0  0  0  0  0  0  0  0
    5.0276   -8.5227   17.5352 C   0  0  0  0  0  0  0  0  0  0  0  0
    9.8187   -2.0895   25.5800 C   0  0  0  0  0  0  0  0  0  0  0  0
    5.6473   -8.7216   15.3158 C   0  0  0  0  0  0  0  0  0  0  0  0
   10.7581   -3.1233   19.4720 N   0  0  0  0  0  0  0  0  0  0  0  0
    9.9571   -4.0573   16.8866 C   0  0  0  0  0  0  0  0  0  0  0  0
    7.6213   -6.5618   16.0087 C   0  0  0  0  0  0  0  0  0  0  0  0
   10.8583   -2.6527   20.7222 C   0  0  0  0  0  0  0  0  0  0  0  0
   10.6412   -3.5089   21.7936 C   0  0  0  0  0  0  0  0  0  0  0  0
   10.4972   -3.8968   24.1589 C   0  0  0  0  0  0  0  0  0  0  0  0
    5.9260   -8.2736   16.5517 C   0  0  0  0  0  0  0  0  0  0  0  0
    3.8816   -9.1166   17.2493 C   0  0  0  0  0  0  0  0  0  0  0  0
   10.1297   -1.6575   23.2324 C   0  0  0  0  0  0  0  0  0  0  0  0
    9.4684   -1.6929   26.7263 F   0  0  0  0  0  0  0  0  0  0  0  0
    7.7963   -7.7906   17.9837 C   0  0  0  0  0  0  0  0  0  0  0  0
   10.5884   -3.0725   16.7902 O   0  0  0  0  0  0  0  0  0  0  0  0
   10.4323   -5.3494   20.3516 C   0  0  0  0  0  0  0  0  0  0  0  0
    7.1156   -7.5454   16.8218 C   0  0  0  0  0  0  0  0  0  0  0  0
   10.3885   -4.4388   19.2773 C   0  0  0  0  0  0  0  0  0  0  0  0
    4.5160   -9.3822   15.0841 C   0  0  0  0  0  0  0  0  0  0  0  0
  1  3  4  0
  1 24  4  0
  2  6  4  0
  2 15  4  0
  3  5  4  0
  3  6  4  0
  4 21  4  0
  4 29  4  0
  5 15  4  0
  5 28  1  0
  6 16  4  0
  7 18  4  0
  7 26  4  0
  8 18  1  0
  8 19  4  0
  8 22  4  0
  9 12  4  0
  9 19  4  0
 10 12  4  0
 10 22  4  0
 11 20  4  0
 11 21  4  0
 12 23  1  0
 13 20  4  0
 13 29  4  0
 14 17  4  0
 14 28  4  0
 15 25  2  0
 16 27  4  0
 17 18  4  0
 20 27  1  0
 24 27  4  0
 26 28  4  0
M  END
$$$$

 Created by Python create_sdf_string function

 29 33  0  0  0  0  0  0  0  0999 V2000
    8.8270   -7.0288   18.4251 C   0  0  0  0  0  0  0  0  0  0  0  0
    9.1576   -4.6236   15.8860 O   0  0  0  0  0  0  0  0  0  0  0  0
    9.1509   -5.9108   17.7177 C   0  0  0  0  0  0  0  0  0  0  0  0
    3.6373   -9.5349   16.0582 N   0  0  0  0  0  0  0  0  0  0  0  0
    9.9275   -4.8001   18.0438 N   0  0  0  0  0  0  0  0  0  0  0  0
    8.5908   -5.7425   16.4412 C   0  0  0  0  0  0  0  0  0  0  0  0
   10.5993   -4.8981   21.6068 C   0  0  0  0  0  0  0  0  0  0  0  0
   10.4258   -3.0106   23.0998 C   0  0  0  0  0  0  0  0  0  0  0  0
   10.2148   -3.4364   25.4200 C   0  0  0  0  0  0  0  0  0  0  0  0
    9.7853   -1.1840   24.4927 C   0  0  0  0  0  0  0  0  0  0  0  0
    5.0276   -8.5227   17.5352 C   0  0  0  0  0  0  0  0  0  0  0  0
    9.8187   -2.0895   25.5800 C   0  0  0  0  0  0  0  0  0  0  0  0
    5.6473   -8.7216   15.3158 C   0  0  0  0  0  0  0  0  0  0  0  0
   10.7581   -3.1233   19.4720 N   0  0  0  0  0  0  0  0  0  0  0  0
    9.9571   -4.0573   16.8866 C   0  0  0  0  0  0  0  0  0  0  0  0
    7.6213   -6.5618   16.0087 C   0  0  0  0  0  0  0  0  0  0  0  0
   10.8583   -2.6527   20.7222 C   0  0  0  0  0  0  0  0  0  0  0  0
   10.6412   -3.5089   21.7936 C   0  0  0  0  0  0  0  0  0  0  0  0
   10.4972   -3.8968   24.1589 C   0  0  0  0  0  0  0  0  0  0  0  0
    5.9260   -8.2736   16.5517 C   0  0  0  0  0  0  0  0  0  0  0  0
    3.8816   -9.1166   17.2493 C   0  0  0  0  0  0  0  0  0  0  0  0
   10.1297   -1.6575   23.2324 C   0  0  0  0  0  0  0  0  0  0  0  0
    9.4684   -1.6929   26.7263 F   0  0  0  0  0  0  0  0  0  0  0  0
    7.7963   -7.7906   17.9837 C   0  0  0  0  0  0  0  0  0  0  0  0
   10.5884   -3.0725   16.7902 O   0  0  0  0  0  0  0  0  0  0  0  0
   10.4323   -5.3494   20.3516 C   0  0  0  0  0  0  0  0  0  0  0  0
    7.1156   -7.5454   16.8218 C   0  0  0  0  0  0  0  0  0  0  0  0
   10.3885   -4.4388   19.2773 C   0  0  0  0  0  0  0  0  0  0  0  0
    4.5160   -9.3822   15.0841 C   0  0  0  0  0  0  0  0  0  0  0  0
  1  3  4  0
  1 24  4  0
  2  6  4  0
  2 15  4  0
  3  5  4  0
  3  6  4  0
  4 21  4  0
  4 29  4  0
  5 15  4  0
  5 28  1  0
  6 16  4  0
  7 18  4  0
  7 26  4  0
  8 18  1  0
  8 19  4  0
  8 22  4  0
  9 12  4  0
  9 19  4  0
 10 12  4  0
 10 22  4  0
 11 20  4  0
 11 21  4  0
 12 23  1  0
 13 20  4  0
 13 29  4  0
 14 17  4  0
 14 28  4  0
 15 25  2  0
 16 27  4  0
 17 18  4  0
 20 27  1  0
 24 27  4  0
 26 28  4  0
M  END
$$$$

 Created by Python create_sdf_string function

 29 33  0  0  0  0  0  0  0  0999 V2000
    8.8270   -7.0288   18.4251 C   0  0  0  0  0  0  0  0  0  0  0  0
    9.1576   -4.6236   15.8860 O   0  0  0  0  0  0  0  0  0  0  0  0
    9.1509   -5.9108   17.7177 C   0  0  0  0  0  0  0  0  0  0  0  0
    3.6373   -9.5349   16.0582 N   0  0  0  0  0  0  0  0  0  0  0  0
    9.9275   -4.8001   18.0438 N   0  0  0  0  0  0  0  0  0  0  0  0
    8.5908   -5.7425   16.4412 C   0  0  0  0  0  0  0  0  0  0  0  0
   10.5993   -4.8981   21.6068 C   0  0  0  0  0  0  0  0  0  0  0  0
   10.4258   -3.0106   23.0998 C   0  0  0  0  0  0  0  0  0  0  0  0
   10.2148   -3.4364   25.4200 C   0  0  0  0  0  0  0  0  0  0  0  0
    9.7853   -1.1840   24.4927 C   0  0  0  0  0  0  0  0  0  0  0  0
    5.0276   -8.5227   17.5352 C   0  0  0  0  0  0  0  0  0  0  0  0
    9.8187   -2.0895   25.5800 C   0  0  0  0  0  0  0  0  0  0  0  0
    5.6473   -8.7216   15.3158 C   0  0  0  0  0  0  0  0  0  0  0  0
   10.7581   -3.1233   19.4720 N   0  0  0  0  0  0  0  0  0  0  0  0
    9.9571   -4.0573   16.8866 C   0  0  0  0  0  0  0  0  0  0  0  0
    7.6213   -6.5618   16.0087 C   0  0  0  0  0  0  0  0  0  0  0  0
   10.8583   -2.6527   20.7222 C   0  0  0  0  0  0  0  0  0  0  0  0
   10.6412   -3.5089   21.7936 C   0  0  0  0  0  0  0  0  0  0  0  0
   10.4972   -3.8968   24.1589 C   0  0  0  0  0  0  0  0  0  0  0  0
    5.9260   -8.2736   16.5517 C   0  0  0  0  0  0  0  0  0  0  0  0
    3.8816   -9.1166   17.2493 C   0  0  0  0  0  0  0  0  0  0  0  0
   10.1297   -1.6575   23.2324 C   0  0  0  0  0  0  0  0  0  0  0  0
    9.4684   -1.6929   26.7263 F   0  0  0  0  0  0  0  0  0  0  0  0
    7.7963   -7.7906   17.9837 C   0  0  0  0  0  0  0  0  0  0  0  0
   10.5884   -3.0725   16.7902 O   0  0  0  0  0  0  0  0  0  0  0  0
   10.4323   -5.3494   20.3516 C   0  0  0  0  0  0  0  0  0  0  0  0
    7.1156   -7.5454   16.8218 C   0  0  0  0  0  0  0  0  0  0  0  0
   10.3885   -4.4388   19.2773 C   0  0  0  0  0  0  0  0  0  0  0  0
    4.5160   -9.3822   15.0841 C   0  0  0  0  0  0  0  0  0  0  0  0
  1  3  4  0
  1 24  4  0
  2  6  4  0
  2 15  4  0
  3  5  4  0
  3  6  4  0
  4 21  4  0
  4 29  4  0
  5 15  4  0
  5 28  1  0
  6 16  4  0
  7 18  4  0
  7 26  4  0
  8 18  1  0
  8 19  4  0
  8 22  4  0
  9 12  4  0
  9 19  4  0
 10 12  4  0
 10 22  4  0
 11 20  4  0
 11 21  4  0
 12 23  1  0
 13 20  4  0
 13 29  4  0
 14 17  4  0
 14 28  4  0
 15 25  2  0
 16 27  4  0
 17 18  4  0
 20 27  1  0
 24 27  4  0
 26 28  4  0
M  END
$$$$

 Created by Python create_sdf_string function

 29 33  0  0  0  0  0  0  0  0999 V2000
    8.8270   -7.0288   18.4251 C   0  0  0  0  0  0  0  0  0  0  0  0
    9.1576   -4.6236   15.8860 O   0  0  0  0  0  0  0  0  0  0  0  0
    9.1509   -5.9108   17.7177 C   0  0  0  0  0  0  0  0  0  0  0  0
    3.6373   -9.5349   16.0582 N   0  0  0  0  0  0  0  0  0  0  0  0
    9.9275   -4.8001   18.0438 N   0  0  0  0  0  0  0  0  0  0  0  0
    8.5908   -5.7425   16.4412 C   0  0  0  0  0  0  0  0  0  0  0  0
   10.5993   -4.8981   21.6068 C   0  0  0  0  0  0  0  0  0  0  0  0
   10.4258   -3.0106   23.0998 C   0  0  0  0  0  0  0  0  0  0  0  0
   10.2148   -3.4364   25.4200 C   0  0  0  0  0  0  0  0  0  0  0  0
    9.7853   -1.1840   24.4927 C   0  0  0  0  0  0  0  0  0  0  0  0
    5.0276   -8.5227   17.5352 C   0  0  0  0  0  0  0  0  0  0  0  0
    9.8187   -2.0895   25.5800 C   0  0  0  0  0  0  0  0  0  0  0  0
    5.6473   -8.7216   15.3158 C   0  0  0  0  0  0  0  0  0  0  0  0
   10.7581   -3.1233   19.4720 N   0  0  0  0  0  0  0  0  0  0  0  0
    9.9571   -4.0573   16.8866 C   0  0  0  0  0  0  0  0  0  0  0  0
    7.6213   -6.5618   16.0087 C   0  0  0  0  0  0  0  0  0  0  0  0
   10.8583   -2.6527   20.7222 C   0  0  0  0  0  0  0  0  0  0  0  0
   10.6412   -3.5089   21.7936 C   0  0  0  0  0  0  0  0  0  0  0  0
   10.4972   -3.8968   24.1589 C   0  0  0  0  0  0  0  0  0  0  0  0
    5.9260   -8.2736   16.5517 C   0  0  0  0  0  0  0  0  0  0  0  0
    3.8816   -9.1166   17.2493 C   0  0  0  0  0  0  0  0  0  0  0  0
   10.1297   -1.6575   23.2324 C   0  0  0  0  0  0  0  0  0  0  0  0
    9.4684   -1.6929   26.7263 F   0  0  0  0  0  0  0  0  0  0  0  0
    7.7963   -7.7906   17.9837 C   0  0  0  0  0  0  0  0  0  0  0  0
   10.5884   -3.0725   16.7902 O   0  0  0  0  0  0  0  0  0  0  0  0
   10.4323   -5.3494   20.3516 C   0  0  0  0  0  0  0  0  0  0  0  0
    7.1156   -7.5454   16.8218 C   0  0  0  0  0  0  0  0  0  0  0  0
   10.3885   -4.4388   19.2773 C   0  0  0  0  0  0  0  0  0  0  0  0
    4.5160   -9.3822   15.0841 C   0  0  0  0  0  0  0  0  0  0  0  0
  1  3  4  0
  1 24  4  0
  2  6  4  0
  2 15  4  0
  3  5  4  0
  3  6  4  0
  4 21  4  0
  4 29  4  0
  5 15  4  0
  5 28  1  0
  6 16  4  0
  7 18  4  0
  7 26  4  0
  8 18  1  0
  8 19  4  0
  8 22  4  0
  9 12  4  0
  9 19  4  0
 10 12  4  0
 10 22  4  0
 11 20  4  0
 11 21  4  0
 12 23  1  0
 13 20  4  0
 13 29  4  0
 14 17  4  0
 14 28  4  0
 15 25  2  0
 16 27  4  0
 17 18  4  0
 20 27  1  0
 24 27  4  0
 26 28  4  0
M  END
$$$$

 Created by Python create_sdf_string function

 29 33  0  0  0  0  0  0  0  0999 V2000
    8.8270   -7.0288   18.4251 C   0  0  0  0  0  0  0  0  0  0  0  0
    9.1576   -4.6236   15.8860 O   0  0  0  0  0  0  0  0  0  0  0  0
    9.1509   -5.9108   17.7177 C   0  0  0  0  0  0  0  0  0  0  0  0
    3.6373   -9.5349   16.0582 N   0  0  0  0  0  0  0  0  0  0  0  0
    9.9275   -4.8001   18.0438 N   0  0  0  0  0  0  0  0  0  0  0  0
    8.5908   -5.7425   16.4412 C   0  0  0  0  0  0  0  0  0  0  0  0
   10.5993   -4.8981   21.6068 C   0  0  0  0  0  0  0  0  0  0  0  0
   10.4258   -3.0106   23.0998 C   0  0  0  0  0  0  0  0  0  0  0  0
   10.2148   -3.4364   25.4200 C   0  0  0  0  0  0  0  0  0  0  0  0
    9.7853   -1.1840   24.4927 C   0  0  0  0  0  0  0  0  0  0  0  0
    5.0276   -8.5227   17.5352 C   0  0  0  0  0  0  0  0  0  0  0  0
    9.8187   -2.0895   25.5800 C   0  0  0  0  0  0  0  0  0  0  0  0
    5.6473   -8.7216   15.3158 C   0  0  0  0  0  0  0  0  0  0  0  0
   10.7581   -3.1233   19.4720 N   0  0  0  0  0  0  0  0  0  0  0  0
    9.9571   -4.0573   16.8866 C   0  0  0  0  0  0  0  0  0  0  0  0
    7.6213   -6.5618   16.0087 C   0  0  0  0  0  0  0  0  0  0  0  0
   10.8583   -2.6527   20.7222 C   0  0  0  0  0  0  0  0  0  0  0  0
   10.6412   -3.5089   21.7936 C   0  0  0  0  0  0  0  0  0  0  0  0
   10.4972   -3.8968   24.1589 C   0  0  0  0  0  0  0  0  0  0  0  0
    5.9260   -8.2736   16.5517 C   0  0  0  0  0  0  0  0  0  0  0  0
    3.8816   -9.1166   17.2493 C   0  0  0  0  0  0  0  0  0  0  0  0
   10.1297   -1.6575   23.2324 C   0  0  0  0  0  0  0  0  0  0  0  0
    9.4684   -1.6929   26.7263 F   0  0  0  0  0  0  0  0  0  0  0  0
    7.7963   -7.7906   17.9837 C   0  0  0  0  0  0  0  0  0  0  0  0
   10.5884   -3.0725   16.7902 O   0  0  0  0  0  0  0  0  0  0  0  0
   10.4323   -5.3494   20.3516 C   0  0  0  0  0  0  0  0  0  0  0  0
    7.1156   -7.5454   16.8218 C   0  0  0  0  0  0  0  0  0  0  0  0
   10.3885   -4.4388   19.2773 C   0  0  0  0  0  0  0  0  0  0  0  0
    4.5160   -9.3822   15.0841 C   0  0  0  0  0  0  0  0  0  0  0  0
  1  3  4  0
  1 24  4  0
  2  6  4  0
  2 15  4  0
  3  5  4  0
  3  6  4  0
  4 21  4  0
  4 29  4  0
  5 15  4  0
  5 28  1  0
  6 16  4  0
  7 18  4  0
  7 26  4  0
  8 18  1  0
  8 19  4  0
  8 22  4  0
  9 12  4  0
  9 19  4  0
 10 12  4  0
 10 22  4  0
 11 20  4  0
 11 21  4  0
 12 23  1  0
 13 20  4  0
 13 29  4  0
 14 17  4  0
 14 28  4  0
 15 25  2  0
 16 27  4  0
 17 18  4  0
 20 27  1  0
 24 27  4  0
 26 28  4  0
M  END
$$$$

 Created by Python create_sdf_string function

 29 33  0  0  0  0  0  0  0  0999 V2000
    8.8270   -7.0288   18.4251 C   0  0  0  0  0  0  0  0  0  0  0  0
    9.1576   -4.6236   15.8860 O   0  0  0  0  0  0  0  0  0  0  0  0
    9.1509   -5.9108   17.7177 C   0  0  0  0  0  0  0  0  0  0  0  0
    3.6373   -9.5349   16.0582 N   0  0  0  0  0  0  0  0  0  0  0  0
    9.9275   -4.8001   18.0438 N   0  0  0  0  0  0  0  0  0  0  0  0
    8.5908   -5.7425   16.4412 C   0  0  0  0  0  0  0  0  0  0  0  0
   10.5993   -4.8981   21.6068 C   0  0  0  0  0  0  0  0  0  0  0  0
   10.4258   -3.0106   23.0998 C   0  0  0  0  0  0  0  0  0  0  0  0
   10.2148   -3.4364   25.4200 C   0  0  0  0  0  0  0  0  0  0  0  0
    9.7853   -1.1840   24.4927 C   0  0  0  0  0  0  0  0  0  0  0  0
    5.0276   -8.5227   17.5352 C   0  0  0  0  0  0  0  0  0  0  0  0
    9.8187   -2.0895   25.5800 C   0  0  0  0  0  0  0  0  0  0  0  0
    5.6473   -8.7216   15.3158 C   0  0  0  0  0  0  0  0  0  0  0  0
   10.7581   -3.1233   19.4720 N   0  0  0  0  0  0  0  0  0  0  0  0
    9.9571   -4.0573   16.8866 C   0  0  0  0  0  0  0  0  0  0  0  0
    7.6213   -6.5618   16.0087 C   0  0  0  0  0  0  0  0  0  0  0  0
   10.8583   -2.6527   20.7222 C   0  0  0  0  0  0  0  0  0  0  0  0
   10.6412   -3.5089   21.7936 C   0  0  0  0  0  0  0  0  0  0  0  0
   10.4972   -3.8968   24.1589 C   0  0  0  0  0  0  0  0  0  0  0  0
    5.9260   -8.2736   16.5517 C   0  0  0  0  0  0  0  0  0  0  0  0
    3.8816   -9.1166   17.2493 C   0  0  0  0  0  0  0  0  0  0  0  0
   10.1297   -1.6575   23.2324 C   0  0  0  0  0  0  0  0  0  0  0  0
    9.4684   -1.6929   26.7263 F   0  0  0  0  0  0  0  0  0  0  0  0
    7.7963   -7.7906   17.9837 C   0  0  0  0  0  0  0  0  0  0  0  0
   10.5884   -3.0725   16.7902 O   0  0  0  0  0  0  0  0  0  0  0  0
   10.4323   -5.3494   20.3516 C   0  0  0  0  0  0  0  0  0  0  0  0
    7.1156   -7.5454   16.8218 C   0  0  0  0  0  0  0  0  0  0  0  0
   10.3885   -4.4388   19.2773 C   0  0  0  0  0  0  0  0  0  0  0  0
    4.5160   -9.3822   15.0841 C   0  0  0  0  0  0  0  0  0  0  0  0
  1  3  4  0
  1 24  4  0
  2  6  4  0
  2 15  4  0
  3  5  4  0
  3  6  4  0
  4 21  4  0
  4 29  4  0
  5 15  4  0
  5 28  1  0
  6 16  4  0
  7 18  4  0
  7 26  4  0
  8 18  1  0
  8 19  4  0
  8 22  4  0
  9 12  4  0
  9 19  4  0
 10 12  4  0
 10 22  4  0
 11 20  4  0
 11 21  4  0
 12 23  1  0
 13 20  4  0
 13 29  4  0
 14 17  4  0
 14 28  4  0
 15 25  2  0
 16 27  4  0
 17 18  4  0
 20 27  1  0
 24 27  4  0
 26 28  4  0
M  END
$$$$

 Created by Python create_sdf_string function

 29 33  0  0  0  0  0  0  0  0999 V2000
    8.8270   -7.0288   18.4251 C   0  0  0  0  0  0  0  0  0  0  0  0
    9.1576   -4.6236   15.8860 O   0  0  0  0  0  0  0  0  0  0  0  0
    9.1509   -5.9108   17.7177 C   0  0  0  0  0  0  0  0  0  0  0  0
    3.6373   -9.5349   16.0582 N   0  0  0  0  0  0  0  0  0  0  0  0
    9.9275   -4.8001   18.0438 N   0  0  0  0  0  0  0  0  0  0  0  0
    8.5908   -5.7425   16.4412 C   0  0  0  0  0  0  0  0  0  0  0  0
   10.5993   -4.8981   21.6068 C   0  0  0  0  0  0  0  0  0  0  0  0
   10.4258   -3.0106   23.0998 C   0  0  0  0  0  0  0  0  0  0  0  0
   10.2148   -3.4364   25.4200 C   0  0  0  0  0  0  0  0  0  0  0  0
    9.7853   -1.1840   24.4927 C   0  0  0  0  0  0  0  0  0  0  0  0
    5.0276   -8.5227   17.5352 C   0  0  0  0  0  0  0  0  0  0  0  0
    9.8187   -2.0895   25.5800 C   0  0  0  0  0  0  0  0  0  0  0  0
    5.6473   -8.7216   15.3158 C   0  0  0  0  0  0  0  0  0  0  0  0
   10.7581   -3.1233   19.4720 N   0  0  0  0  0  0  0  0  0  0  0  0
    9.9571   -4.0573   16.8866 C   0  0  0  0  0  0  0  0  0  0  0  0
    7.6213   -6.5618   16.0087 C   0  0  0  0  0  0  0  0  0  0  0  0
   10.8583   -2.6527   20.7222 C   0  0  0  0  0  0  0  0  0  0  0  0
   10.6412   -3.5089   21.7936 C   0  0  0  0  0  0  0  0  0  0  0  0
   10.4972   -3.8968   24.1589 C   0  0  0  0  0  0  0  0  0  0  0  0
    5.9260   -8.2736   16.5517 C   0  0  0  0  0  0  0  0  0  0  0  0
    3.8816   -9.1166   17.2493 C   0  0  0  0  0  0  0  0  0  0  0  0
   10.1297   -1.6575   23.2324 C   0  0  0  0  0  0  0  0  0  0  0  0
    9.4684   -1.6929   26.7263 F   0  0  0  0  0  0  0  0  0  0  0  0
    7.7963   -7.7906   17.9837 C   0  0  0  0  0  0  0  0  0  0  0  0
   10.5884   -3.0725   16.7902 O   0  0  0  0  0  0  0  0  0  0  0  0
   10.4323   -5.3494   20.3516 C   0  0  0  0  0  0  0  0  0  0  0  0
    7.1156   -7.5454   16.8218 C   0  0  0  0  0  0  0  0  0  0  0  0
   10.3885   -4.4388   19.2773 C   0  0  0  0  0  0  0  0  0  0  0  0
    4.5160   -9.3822   15.0841 C   0  0  0  0  0  0  0  0  0  0  0  0
  1  3  4  0
  1 24  4  0
  2  6  4  0
  2 15  4  0
  3  5  4  0
  3  6  4  0
  4 21  4  0
  4 29  4  0
  5 15  4  0
  5 28  1  0
  6 16  4  0
  7 18  4  0
  7 26  4  0
  8 18  1  0
  8 19  4  0
  8 22  4  0
  9 12  4  0
  9 19  4  0
 10 12  4  0
 10 22  4  0
 11 20  4  0
 11 21  4  0
 12 23  1  0
 13 20  4  0
 13 29  4  0
 14 17  4  0
 14 28  4  0
 15 25  2  0
 16 27  4  0
 17 18  4  0
 20 27  1  0
 24 27  4  0
 26 28  4  0
M  END
$$$$

 Created by Python create_sdf_string function

 29 33  0  0  0  0  0  0  0  0999 V2000
    8.8270   -7.0288   18.4251 C   0  0  0  0  0  0  0  0  0  0  0  0
    9.1576   -4.6236   15.8860 O   0  0  0  0  0  0  0  0  0  0  0  0
    9.1509   -5.9108   17.7177 C   0  0  0  0  0  0  0  0  0  0  0  0
    3.6373   -9.5349   16.0582 N   0  0  0  0  0  0  0  0  0  0  0  0
    9.9275   -4.8001   18.0438 N   0  0  0  0  0  0  0  0  0  0  0  0
    8.5908   -5.7425   16.4412 C   0  0  0  0  0  0  0  0  0  0  0  0
   10.5993   -4.8981   21.6068 C   0  0  0  0  0  0  0  0  0  0  0  0
   10.4258   -3.0106   23.0998 C   0  0  0  0  0  0  0  0  0  0  0  0
   10.2148   -3.4364   25.4200 C   0  0  0  0  0  0  0  0  0  0  0  0
    9.7853   -1.1840   24.4927 C   0  0  0  0  0  0  0  0  0  0  0  0
    5.0276   -8.5227   17.5352 C   0  0  0  0  0  0  0  0  0  0  0  0
    9.8187   -2.0895   25.5800 C   0  0  0  0  0  0  0  0  0  0  0  0
    5.6473   -8.7216   15.3158 C   0  0  0  0  0  0  0  0  0  0  0  0
   10.7581   -3.1233   19.4720 N   0  0  0  0  0  0  0  0  0  0  0  0
    9.9571   -4.0573   16.8866 C   0  0  0  0  0  0  0  0  0  0  0  0
    7.6213   -6.5618   16.0087 C   0  0  0  0  0  0  0  0  0  0  0  0
   10.8583   -2.6527   20.7222 C   0  0  0  0  0  0  0  0  0  0  0  0
   10.6412   -3.5089   21.7936 C   0  0  0  0  0  0  0  0  0  0  0  0
   10.4972   -3.8968   24.1589 C   0  0  0  0  0  0  0  0  0  0  0  0
    5.9260   -8.2736   16.5517 C   0  0  0  0  0  0  0  0  0  0  0  0
    3.8816   -9.1166   17.2493 C   0  0  0  0  0  0  0  0  0  0  0  0
   10.1297   -1.6575   23.2324 C   0  0  0  0  0  0  0  0  0  0  0  0
    9.4684   -1.6929   26.7263 F   0  0  0  0  0  0  0  0  0  0  0  0
    7.7963   -7.7906   17.9837 C   0  0  0  0  0  0  0  0  0  0  0  0
   10.5884   -3.0725   16.7902 O   0  0  0  0  0  0  0  0  0  0  0  0
   10.4323   -5.3494   20.3516 C   0  0  0  0  0  0  0  0  0  0  0  0
    7.1156   -7.5454   16.8218 C   0  0  0  0  0  0  0  0  0  0  0  0
   10.3885   -4.4388   19.2773 C   0  0  0  0  0  0  0  0  0  0  0  0
    4.5160   -9.3822   15.0841 C   0  0  0  0  0  0  0  0  0  0  0  0
  1  3  4  0
  1 24  4  0
  2  6  4  0
  2 15  4  0
  3  5  4  0
  3  6  4  0
  4 21  4  0
  4 29  4  0
  5 15  4  0
  5 28  1  0
  6 16  4  0
  7 18  4  0
  7 26  4  0
  8 18  1  0
  8 19  4  0
  8 22  4  0
  9 12  4  0
  9 19  4  0
 10 12  4  0
 10 22  4  0
 11 20  4  0
 11 21  4  0
 12 23  1  0
 13 20  4  0
 13 29  4  0
 14 17  4  0
 14 28  4  0
 15 25  2  0
 16 27  4  0
 17 18  4  0
 20 27  1  0
 24 27  4  0
 26 28  4  0
M  END
$$$$

 Created by Python create_sdf_string function

 29 33  0  0  0  0  0  0  0  0999 V2000
    8.8270   -7.0288   18.4251 C   0  0  0  0  0  0  0  0  0  0  0  0
    9.1576   -4.6236   15.8860 O   0  0  0  0  0  0  0  0  0  0  0  0
    9.1509   -5.9108   17.7177 C   0  0  0  0  0  0  0  0  0  0  0  0
    3.6373   -9.5349   16.0582 N   0  0  0  0  0  0  0  0  0  0  0  0
    9.9275   -4.8001   18.0438 N   0  0  0  0  0  0  0  0  0  0  0  0
    8.5908   -5.7425   16.4412 C   0  0  0  0  0  0  0  0  0  0  0  0
   10.5993   -4.8981   21.6068 C   0  0  0  0  0  0  0  0  0  0  0  0
   10.4258   -3.0106   23.0998 C   0  0  0  0  0  0  0  0  0  0  0  0
   10.2148   -3.4364   25.4200 C   0  0  0  0  0  0  0  0  0  0  0  0
    9.7853   -1.1840   24.4927 C   0  0  0  0  0  0  0  0  0  0  0  0
    5.0276   -8.5227   17.5352 C   0  0  0  0  0  0  0  0  0  0  0  0
    9.8187   -2.0895   25.5800 C   0  0  0  0  0  0  0  0  0  0  0  0
    5.6473   -8.7216   15.3158 C   0  0  0  0  0  0  0  0  0  0  0  0
   10.7581   -3.1233   19.4720 N   0  0  0  0  0  0  0  0  0  0  0  0
    9.9571   -4.0573   16.8866 C   0  0  0  0  0  0  0  0  0  0  0  0
    7.6213   -6.5618   16.0087 C   0  0  0  0  0  0  0  0  0  0  0  0
   10.8583   -2.6527   20.7222 C   0  0  0  0  0  0  0  0  0  0  0  0
   10.6412   -3.5089   21.7936 C   0  0  0  0  0  0  0  0  0  0  0  0
   10.4972   -3.8968   24.1589 C   0  0  0  0  0  0  0  0  0  0  0  0
    5.9260   -8.2736   16.5517 C   0  0  0  0  0  0  0  0  0  0  0  0
    3.8816   -9.1166   17.2493 C   0  0  0  0  0  0  0  0  0  0  0  0
   10.1297   -1.6575   23.2324 C   0  0  0  0  0  0  0  0  0  0  0  0
    9.4684   -1.6929   26.7263 F   0  0  0  0  0  0  0  0  0  0  0  0
    7.7963   -7.7906   17.9837 C   0  0  0  0  0  0  0  0  0  0  0  0
   10.5884   -3.0725   16.7902 O   0  0  0  0  0  0  0  0  0  0  0  0
   10.4323   -5.3494   20.3516 C   0  0  0  0  0  0  0  0  0  0  0  0
    7.1156   -7.5454   16.8218 C   0  0  0  0  0  0  0  0  0  0  0  0
   10.3885   -4.4388   19.2773 C   0  0  0  0  0  0  0  0  0  0  0  0
    4.5160   -9.3822   15.0841 C   0  0  0  0  0  0  0  0  0  0  0  0
  1  3  4  0
  1 24  4  0
  2  6  4  0
  2 15  4  0
  3  5  4  0
  3  6  4  0
  4 21  4  0
  4 29  4  0
  5 15  4  0
  5 28  1  0
  6 16  4  0
  7 18  4  0
  7 26  4  0
  8 18  1  0
  8 19  4  0
  8 22  4  0
  9 12  4  0
  9 19  4  0
 10 12  4  0
 10 22  4  0
 11 20  4  0
 11 21  4  0
 12 23  1  0
 13 20  4  0
 13 29  4  0
 14 17  4  0
 14 28  4  0
 15 25  2  0
 16 27  4  0
 17 18  4  0
 20 27  1  0
 24 27  4  0
 26 28  4  0
M  END
$$$$

 Created by Python create_sdf_string function

 29 33  0  0  0  0  0  0  0  0999 V2000
    8.8270   -7.0288   18.4251 C   0  0  0  0  0  0  0  0  0  0  0  0
    9.1576   -4.6236   15.8860 O   0  0  0  0  0  0  0  0  0  0  0  0
    9.1509   -5.9108   17.7177 C   0  0  0  0  0  0  0  0  0  0  0  0
    3.6373   -9.5349   16.0582 N   0  0  0  0  0  0  0  0  0  0  0  0
    9.9275   -4.8001   18.0438 N   0  0  0  0  0  0  0  0  0  0  0  0
    8.5908   -5.7425   16.4412 C   0  0  0  0  0  0  0  0  0  0  0  0
   10.5993   -4.8981   21.6068 C   0  0  0  0  0  0  0  0  0  0  0  0
   10.4258   -3.0106   23.0998 C   0  0  0  0  0  0  0  0  0  0  0  0
   10.2148   -3.4364   25.4200 C   0  0  0  0  0  0  0  0  0  0  0  0
    9.7853   -1.1840   24.4927 C   0  0  0  0  0  0  0  0  0  0  0  0
    5.0276   -8.5227   17.5352 C   0  0  0  0  0  0  0  0  0  0  0  0
    9.8187   -2.0895   25.5800 C   0  0  0  0  0  0  0  0  0  0  0  0
    5.6473   -8.7216   15.3158 C   0  0  0  0  0  0  0  0  0  0  0  0
   10.7581   -3.1233   19.4720 N   0  0  0  0  0  0  0  0  0  0  0  0
    9.9571   -4.0573   16.8866 C   0  0  0  0  0  0  0  0  0  0  0  0
    7.6213   -6.5618   16.0087 C   0  0  0  0  0  0  0  0  0  0  0  0
   10.8583   -2.6527   20.7222 C   0  0  0  0  0  0  0  0  0  0  0  0
   10.6412   -3.5089   21.7936 C   0  0  0  0  0  0  0  0  0  0  0  0
   10.4972   -3.8968   24.1589 C   0  0  0  0  0  0  0  0  0  0  0  0
    5.9260   -8.2736   16.5517 C   0  0  0  0  0  0  0  0  0  0  0  0
    3.8816   -9.1166   17.2493 C   0  0  0  0  0  0  0  0  0  0  0  0
   10.1297   -1.6575   23.2324 C   0  0  0  0  0  0  0  0  0  0  0  0
    9.4684   -1.6929   26.7263 F   0  0  0  0  0  0  0  0  0  0  0  0
    7.7963   -7.7906   17.9837 C   0  0  0  0  0  0  0  0  0  0  0  0
   10.5884   -3.0725   16.7902 O   0  0  0  0  0  0  0  0  0  0  0  0
   10.4323   -5.3494   20.3516 C   0  0  0  0  0  0  0  0  0  0  0  0
    7.1156   -7.5454   16.8218 C   0  0  0  0  0  0  0  0  0  0  0  0
   10.3885   -4.4388   19.2773 C   0  0  0  0  0  0  0  0  0  0  0  0
    4.5160   -9.3822   15.0841 C   0  0  0  0  0  0  0  0  0  0  0  0
  1  3  4  0
  1 24  4  0
  2  6  4  0
  2 15  4  0
  3  5  4  0
  3  6  4  0
  4 21  4  0
  4 29  4  0
  5 15  4  0
  5 28  1  0
  6 16  4  0
  7 18  4  0
  7 26  4  0
  8 18  1  0
  8 19  4  0
  8 22  4  0
  9 12  4  0
  9 19  4  0
 10 12  4  0
 10 22  4  0
 11 20  4  0
 11 21  4  0
 12 23  1  0
 13 20  4  0
 13 29  4  0
 14 17  4  0
 14 28  4  0
 15 25  2  0
 16 27  4  0
 17 18  4  0
 20 27  1  0
 24 27  4  0
 26 28  4  0
M  END
$$$$

 Created by Python create_sdf_string function

 29 33  0  0  0  0  0  0  0  0999 V2000
    8.8270   -7.0288   18.4251 C   0  0  0  0  0  0  0  0  0  0  0  0
    9.1576   -4.6236   15.8860 O   0  0  0  0  0  0  0  0  0  0  0  0
    9.1509   -5.9108   17.7177 C   0  0  0  0  0  0  0  0  0  0  0  0
    3.6373   -9.5349   16.0582 N   0  0  0  0  0  0  0  0  0  0  0  0
    9.9275   -4.8001   18.0438 N   0  0  0  0  0  0  0  0  0  0  0  0
    8.5908   -5.7425   16.4412 C   0  0  0  0  0  0  0  0  0  0  0  0
   10.5993   -4.8981   21.6068 C   0  0  0  0  0  0  0  0  0  0  0  0
   10.4258   -3.0106   23.0998 C   0  0  0  0  0  0  0  0  0  0  0  0
   10.2148   -3.4364   25.4200 C   0  0  0  0  0  0  0  0  0  0  0  0
    9.7853   -1.1840   24.4927 C   0  0  0  0  0  0  0  0  0  0  0  0
    5.0276   -8.5227   17.5352 C   0  0  0  0  0  0  0  0  0  0  0  0
    9.8187   -2.0895   25.5800 C   0  0  0  0  0  0  0  0  0  0  0  0
    5.6473   -8.7216   15.3158 C   0  0  0  0  0  0  0  0  0  0  0  0
   10.7581   -3.1233   19.4720 N   0  0  0  0  0  0  0  0  0  0  0  0
    9.9571   -4.0573   16.8866 C   0  0  0  0  0  0  0  0  0  0  0  0
    7.6213   -6.5618   16.0087 C   0  0  0  0  0  0  0  0  0  0  0  0
   10.8583   -2.6527   20.7222 C   0  0  0  0  0  0  0  0  0  0  0  0
   10.6412   -3.5089   21.7936 C   0  0  0  0  0  0  0  0  0  0  0  0
   10.4972   -3.8968   24.1589 C   0  0  0  0  0  0  0  0  0  0  0  0
    5.9260   -8.2736   16.5517 C   0  0  0  0  0  0  0  0  0  0  0  0
    3.8816   -9.1166   17.2493 C   0  0  0  0  0  0  0  0  0  0  0  0
   10.1297   -1.6575   23.2324 C   0  0  0  0  0  0  0  0  0  0  0  0
    9.4684   -1.6929   26.7263 F   0  0  0  0  0  0  0  0  0  0  0  0
    7.7963   -7.7906   17.9837 C   0  0  0  0  0  0  0  0  0  0  0  0
   10.5884   -3.0725   16.7902 O   0  0  0  0  0  0  0  0  0  0  0  0
   10.4323   -5.3494   20.3516 C   0  0  0  0  0  0  0  0  0  0  0  0
    7.1156   -7.5454   16.8218 C   0  0  0  0  0  0  0  0  0  0  0  0
   10.3885   -4.4388   19.2773 C   0  0  0  0  0  0  0  0  0  0  0  0
    4.5160   -9.3822   15.0841 C   0  0  0  0  0  0  0  0  0  0  0  0
  1  3  4  0
  1 24  4  0
  2  6  4  0
  2 15  4  0
  3  5  4  0
  3  6  4  0
  4 21  4  0
  4 29  4  0
  5 15  4  0
  5 28  1  0
  6 16  4  0
  7 18  4  0
  7 26  4  0
  8 18  1  0
  8 19  4  0
  8 22  4  0
  9 12  4  0
  9 19  4  0
 10 12  4  0
 10 22  4  0
 11 20  4  0
 11 21  4  0
 12 23  1  0
 13 20  4  0
 13 29  4  0
 14 17  4  0
 14 28  4  0
 15 25  2  0
 16 27  4  0
 17 18  4  0
 20 27  1  0
 24 27  4  0
 26 28  4  0
M  END
$$$$

 Created by Python create_sdf_string function

 29 33  0  0  0  0  0  0  0  0999 V2000
    8.8270   -7.0288   18.4251 C   0  0  0  0  0  0  0  0  0  0  0  0
    9.1576   -4.6236   15.8860 O   0  0  0  0  0  0  0  0  0  0  0  0
    9.1509   -5.9108   17.7177 C   0  0  0  0  0  0  0  0  0  0  0  0
    3.6373   -9.5349   16.0582 N   0  0  0  0  0  0  0  0  0  0  0  0
    9.9275   -4.8001   18.0438 N   0  0  0  0  0  0  0  0  0  0  0  0
    8.5908   -5.7425   16.4412 C   0  0  0  0  0  0  0  0  0  0  0  0
   10.5993   -4.8981   21.6068 C   0  0  0  0  0  0  0  0  0  0  0  0
   10.4258   -3.0106   23.0998 C   0  0  0  0  0  0  0  0  0  0  0  0
   10.2148   -3.4364   25.4200 C   0  0  0  0  0  0  0  0  0  0  0  0
    9.7853   -1.1840   24.4927 C   0  0  0  0  0  0  0  0  0  0  0  0
    5.0276   -8.5227   17.5352 C   0  0  0  0  0  0  0  0  0  0  0  0
    9.8187   -2.0895   25.5800 C   0  0  0  0  0  0  0  0  0  0  0  0
    5.6473   -8.7216   15.3158 C   0  0  0  0  0  0  0  0  0  0  0  0
   10.7581   -3.1233   19.4720 N   0  0  0  0  0  0  0  0  0  0  0  0
    9.9571   -4.0573   16.8866 C   0  0  0  0  0  0  0  0  0  0  0  0
    7.6213   -6.5618   16.0087 C   0  0  0  0  0  0  0  0  0  0  0  0
   10.8583   -2.6527   20.7222 C   0  0  0  0  0  0  0  0  0  0  0  0
   10.6412   -3.5089   21.7936 C   0  0  0  0  0  0  0  0  0  0  0  0
   10.4972   -3.8968   24.1589 C   0  0  0  0  0  0  0  0  0  0  0  0
    5.9260   -8.2736   16.5517 C   0  0  0  0  0  0  0  0  0  0  0  0
    3.8816   -9.1166   17.2493 C   0  0  0  0  0  0  0  0  0  0  0  0
   10.1297   -1.6575   23.2324 C   0  0  0  0  0  0  0  0  0  0  0  0
    9.4684   -1.6929   26.7263 F   0  0  0  0  0  0  0  0  0  0  0  0
    7.7963   -7.7906   17.9837 C   0  0  0  0  0  0  0  0  0  0  0  0
   10.5884   -3.0725   16.7902 O   0  0  0  0  0  0  0  0  0  0  0  0
   10.4323   -5.3494   20.3516 C   0  0  0  0  0  0  0  0  0  0  0  0
    7.1156   -7.5454   16.8218 C   0  0  0  0  0  0  0  0  0  0  0  0
   10.3885   -4.4388   19.2773 C   0  0  0  0  0  0  0  0  0  0  0  0
    4.5160   -9.3822   15.0841 C   0  0  0  0  0  0  0  0  0  0  0  0
  1  3  4  0
  1 24  4  0
  2  6  4  0
  2 15  4  0
  3  5  4  0
  3  6  4  0
  4 21  4  0
  4 29  4  0
  5 15  4  0
  5 28  1  0
  6 16  4  0
  7 18  4  0
  7 26  4  0
  8 18  1  0
  8 19  4  0
  8 22  4  0
  9 12  4  0
  9 19  4  0
 10 12  4  0
 10 22  4  0
 11 20  4  0
 11 21  4  0
 12 23  1  0
 13 20  4  0
 13 29  4  0
 14 17  4  0
 14 28  4  0
 15 25  2  0
 16 27  4  0
 17 18  4  0
 20 27  1  0
 24 27  4  0
 26 28  4  0
M  END
$$$$

 Created by Python create_sdf_string function

 29 33  0  0  0  0  0  0  0  0999 V2000
    8.8270   -7.0288   18.4251 C   0  0  0  0  0  0  0  0  0  0  0  0
    9.1576   -4.6236   15.8860 O   0  0  0  0  0  0  0  0  0  0  0  0
    9.1509   -5.9108   17.7177 C   0  0  0  0  0  0  0  0  0  0  0  0
    3.6373   -9.5349   16.0582 N   0  0  0  0  0  0  0  0  0  0  0  0
    9.9275   -4.8001   18.0438 N   0  0  0  0  0  0  0  0  0  0  0  0
    8.5908   -5.7425   16.4412 C   0  0  0  0  0  0  0  0  0  0  0  0
   10.5993   -4.8981   21.6068 C   0  0  0  0  0  0  0  0  0  0  0  0
   10.4258   -3.0106   23.0998 C   0  0  0  0  0  0  0  0  0  0  0  0
   10.2148   -3.4364   25.4200 C   0  0  0  0  0  0  0  0  0  0  0  0
    9.7853   -1.1840   24.4927 C   0  0  0  0  0  0  0  0  0  0  0  0
    5.0276   -8.5227   17.5352 C   0  0  0  0  0  0  0  0  0  0  0  0
    9.8187   -2.0895   25.5800 C   0  0  0  0  0  0  0  0  0  0  0  0
    5.6473   -8.7216   15.3158 C   0  0  0  0  0  0  0  0  0  0  0  0
   10.7581   -3.1233   19.4720 N   0  0  0  0  0  0  0  0  0  0  0  0
    9.9571   -4.0573   16.8866 C   0  0  0  0  0  0  0  0  0  0  0  0
    7.6213   -6.5618   16.0087 C   0  0  0  0  0  0  0  0  0  0  0  0
   10.8583   -2.6527   20.7222 C   0  0  0  0  0  0  0  0  0  0  0  0
   10.6412   -3.5089   21.7936 C   0  0  0  0  0  0  0  0  0  0  0  0
   10.4972   -3.8968   24.1589 C   0  0  0  0  0  0  0  0  0  0  0  0
    5.9260   -8.2736   16.5517 C   0  0  0  0  0  0  0  0  0  0  0  0
    3.8816   -9.1166   17.2493 C   0  0  0  0  0  0  0  0  0  0  0  0
   10.1297   -1.6575   23.2324 C   0  0  0  0  0  0  0  0  0  0  0  0
    9.4684   -1.6929   26.7263 F   0  0  0  0  0  0  0  0  0  0  0  0
    7.7963   -7.7906   17.9837 C   0  0  0  0  0  0  0  0  0  0  0  0
   10.5884   -3.0725   16.7902 O   0  0  0  0  0  0  0  0  0  0  0  0
   10.4323   -5.3494   20.3516 C   0  0  0  0  0  0  0  0  0  0  0  0
    7.1156   -7.5454   16.8218 C   0  0  0  0  0  0  0  0  0  0  0  0
   10.3885   -4.4388   19.2773 C   0  0  0  0  0  0  0  0  0  0  0  0
    4.5160   -9.3822   15.0841 C   0  0  0  0  0  0  0  0  0  0  0  0
  1  3  4  0
  1 24  4  0
  2  6  4  0
  2 15  4  0
  3  5  4  0
  3  6  4  0
  4 21  4  0
  4 29  4  0
  5 15  4  0
  5 28  1  0
  6 16  4  0
  7 18  4  0
  7 26  4  0
  8 18  1  0
  8 19  4  0
  8 22  4  0
  9 12  4  0
  9 19  4  0
 10 12  4  0
 10 22  4  0
 11 20  4  0
 11 21  4  0
 12 23  1  0
 13 20  4  0
 13 29  4  0
 14 17  4  0
 14 28  4  0
 15 25  2  0
 16 27  4  0
 17 18  4  0
 20 27  1  0
 24 27  4  0
 26 28  4  0
M  END
$$$$

 Created by Python create_sdf_string function

 29 33  0  0  0  0  0  0  0  0999 V2000
    8.8270   -7.0288   18.4251 C   0  0  0  0  0  0  0  0  0  0  0  0
    9.1576   -4.6236   15.8860 O   0  0  0  0  0  0  0  0  0  0  0  0
    9.1509   -5.9108   17.7177 C   0  0  0  0  0  0  0  0  0  0  0  0
    3.6373   -9.5349   16.0582 N   0  0  0  0  0  0  0  0  0  0  0  0
    9.9275   -4.8001   18.0438 N   0  0  0  0  0  0  0  0  0  0  0  0
    8.5908   -5.7425   16.4412 C   0  0  0  0  0  0  0  0  0  0  0  0
   10.5993   -4.8981   21.6068 C   0  0  0  0  0  0  0  0  0  0  0  0
   10.4258   -3.0106   23.0998 C   0  0  0  0  0  0  0  0  0  0  0  0
   10.2148   -3.4364   25.4200 C   0  0  0  0  0  0  0  0  0  0  0  0
    9.7853   -1.1840   24.4927 C   0  0  0  0  0  0  0  0  0  0  0  0
    5.0276   -8.5227   17.5352 C   0  0  0  0  0  0  0  0  0  0  0  0
    9.8187   -2.0895   25.5800 C   0  0  0  0  0  0  0  0  0  0  0  0
    5.6473   -8.7216   15.3158 C   0  0  0  0  0  0  0  0  0  0  0  0
   10.7581   -3.1233   19.4720 N   0  0  0  0  0  0  0  0  0  0  0  0
    9.9571   -4.0573   16.8866 C   0  0  0  0  0  0  0  0  0  0  0  0
    7.6213   -6.5618   16.0087 C   0  0  0  0  0  0  0  0  0  0  0  0
   10.8583   -2.6527   20.7222 C   0  0  0  0  0  0  0  0  0  0  0  0
   10.6412   -3.5089   21.7936 C   0  0  0  0  0  0  0  0  0  0  0  0
   10.4972   -3.8968   24.1589 C   0  0  0  0  0  0  0  0  0  0  0  0
    5.9260   -8.2736   16.5517 C   0  0  0  0  0  0  0  0  0  0  0  0
    3.8816   -9.1166   17.2493 C   0  0  0  0  0  0  0  0  0  0  0  0
   10.1297   -1.6575   23.2324 C   0  0  0  0  0  0  0  0  0  0  0  0
    9.4684   -1.6929   26.7263 F   0  0  0  0  0  0  0  0  0  0  0  0
    7.7963   -7.7906   17.9837 C   0  0  0  0  0  0  0  0  0  0  0  0
   10.5884   -3.0725   16.7902 O   0  0  0  0  0  0  0  0  0  0  0  0
   10.4323   -5.3494   20.3516 C   0  0  0  0  0  0  0  0  0  0  0  0
    7.1156   -7.5454   16.8218 C   0  0  0  0  0  0  0  0  0  0  0  0
   10.3885   -4.4388   19.2773 C   0  0  0  0  0  0  0  0  0  0  0  0
    4.5160   -9.3822   15.0841 C   0  0  0  0  0  0  0  0  0  0  0  0
  1  3  4  0
  1 24  4  0
  2  6  4  0
  2 15  4  0
  3  5  4  0
  3  6  4  0
  4 21  4  0
  4 29  4  0
  5 15  4  0
  5 28  1  0
  6 16  4  0
  7 18  4  0
  7 26  4  0
  8 18  1  0
  8 19  4  0
  8 22  4  0
  9 12  4  0
  9 19  4  0
 10 12  4  0
 10 22  4  0
 11 20  4  0
 11 21  4  0
 12 23  1  0
 13 20  4  0
 13 29  4  0
 14 17  4  0
 14 28  4  0
 15 25  2  0
 16 27  4  0
 17 18  4  0
 20 27  1  0
 24 27  4  0
 26 28  4  0
M  END
$$$$

 Created by Python create_sdf_string function

 29 33  0  0  0  0  0  0  0  0999 V2000
    8.8270   -7.0288   18.4251 C   0  0  0  0  0  0  0  0  0  0  0  0
    9.1576   -4.6236   15.8860 O   0  0  0  0  0  0  0  0  0  0  0  0
    9.1509   -5.9108   17.7177 C   0  0  0  0  0  0  0  0  0  0  0  0
    3.6373   -9.5349   16.0582 N   0  0  0  0  0  0  0  0  0  0  0  0
    9.9275   -4.8001   18.0438 N   0  0  0  0  0  0  0  0  0  0  0  0
    8.5908   -5.7425   16.4412 C   0  0  0  0  0  0  0  0  0  0  0  0
   10.5993   -4.8981   21.6068 C   0  0  0  0  0  0  0  0  0  0  0  0
   10.4258   -3.0106   23.0998 C   0  0  0  0  0  0  0  0  0  0  0  0
   10.2148   -3.4364   25.4200 C   0  0  0  0  0  0  0  0  0  0  0  0
    9.7853   -1.1840   24.4927 C   0  0  0  0  0  0  0  0  0  0  0  0
    5.0276   -8.5227   17.5352 C   0  0  0  0  0  0  0  0  0  0  0  0
    9.8187   -2.0895   25.5800 C   0  0  0  0  0  0  0  0  0  0  0  0
    5.6473   -8.7216   15.3158 C   0  0  0  0  0  0  0  0  0  0  0  0
   10.7581   -3.1233   19.4720 N   0  0  0  0  0  0  0  0  0  0  0  0
    9.9571   -4.0573   16.8866 C   0  0  0  0  0  0  0  0  0  0  0  0
    7.6213   -6.5618   16.0087 C   0  0  0  0  0  0  0  0  0  0  0  0
   10.8583   -2.6527   20.7222 C   0  0  0  0  0  0  0  0  0  0  0  0
   10.6412   -3.5089   21.7936 C   0  0  0  0  0  0  0  0  0  0  0  0
   10.4972   -3.8968   24.1589 C   0  0  0  0  0  0  0  0  0  0  0  0
    5.9260   -8.2736   16.5517 C   0  0  0  0  0  0  0  0  0  0  0  0
    3.8816   -9.1166   17.2493 C   0  0  0  0  0  0  0  0  0  0  0  0
   10.1297   -1.6575   23.2324 C   0  0  0  0  0  0  0  0  0  0  0  0
    9.4684   -1.6929   26.7263 F   0  0  0  0  0  0  0  0  0  0  0  0
    7.7963   -7.7906   17.9837 C   0  0  0  0  0  0  0  0  0  0  0  0
   10.5884   -3.0725   16.7902 O   0  0  0  0  0  0  0  0  0  0  0  0
   10.4323   -5.3494   20.3516 C   0  0  0  0  0  0  0  0  0  0  0  0
    7.1156   -7.5454   16.8218 C   0  0  0  0  0  0  0  0  0  0  0  0
   10.3885   -4.4388   19.2773 C   0  0  0  0  0  0  0  0  0  0  0  0
    4.5160   -9.3822   15.0841 C   0  0  0  0  0  0  0  0  0  0  0  0
  1  3  4  0
  1 24  4  0
  2  6  4  0
  2 15  4  0
  3  5  4  0
  3  6  4  0
  4 21  4  0
  4 29  4  0
  5 15  4  0
  5 28  1  0
  6 16  4  0
  7 18  4  0
  7 26  4  0
  8 18  1  0
  8 19  4  0
  8 22  4  0
  9 12  4  0
  9 19  4  0
 10 12  4  0
 10 22  4  0
 11 20  4  0
 11 21  4  0
 12 23  1  0
 13 20  4  0
 13 29  4  0
 14 17  4  0
 14 28  4  0
 15 25  2  0
 16 27  4  0
 17 18  4  0
 20 27  1  0
 24 27  4  0
 26 28  4  0
M  END
$$$$

 Created by Python create_sdf_string function

 29 33  0  0  0  0  0  0  0  0999 V2000
    8.8270   -7.0288   18.4251 C   0  0  0  0  0  0  0  0  0  0  0  0
    9.1576   -4.6236   15.8860 O   0  0  0  0  0  0  0  0  0  0  0  0
    9.1509   -5.9108   17.7177 C   0  0  0  0  0  0  0  0  0  0  0  0
    3.6373   -9.5349   16.0582 N   0  0  0  0  0  0  0  0  0  0  0  0
    9.9275   -4.8001   18.0438 N   0  0  0  0  0  0  0  0  0  0  0  0
    8.5908   -5.7425   16.4412 C   0  0  0  0  0  0  0  0  0  0  0  0
   10.5993   -4.8981   21.6068 C   0  0  0  0  0  0  0  0  0  0  0  0
   10.4258   -3.0106   23.0998 C   0  0  0  0  0  0  0  0  0  0  0  0
   10.2148   -3.4364   25.4200 C   0  0  0  0  0  0  0  0  0  0  0  0
    9.7853   -1.1840   24.4927 C   0  0  0  0  0  0  0  0  0  0  0  0
    5.0276   -8.5227   17.5352 C   0  0  0  0  0  0  0  0  0  0  0  0
    9.8187   -2.0895   25.5800 C   0  0  0  0  0  0  0  0  0  0  0  0
    5.6473   -8.7216   15.3158 C   0  0  0  0  0  0  0  0  0  0  0  0
   10.7581   -3.1233   19.4720 N   0  0  0  0  0  0  0  0  0  0  0  0
    9.9571   -4.0573   16.8866 C   0  0  0  0  0  0  0  0  0  0  0  0
    7.6213   -6.5618   16.0087 C   0  0  0  0  0  0  0  0  0  0  0  0
   10.8583   -2.6527   20.7222 C   0  0  0  0  0  0  0  0  0  0  0  0
   10.6412   -3.5089   21.7936 C   0  0  0  0  0  0  0  0  0  0  0  0
   10.4972   -3.8968   24.1589 C   0  0  0  0  0  0  0  0  0  0  0  0
    5.9260   -8.2736   16.5517 C   0  0  0  0  0  0  0  0  0  0  0  0
    3.8816   -9.1166   17.2493 C   0  0  0  0  0  0  0  0  0  0  0  0
   10.1297   -1.6575   23.2324 C   0  0  0  0  0  0  0  0  0  0  0  0
    9.4684   -1.6929   26.7263 F   0  0  0  0  0  0  0  0  0  0  0  0
    7.7963   -7.7906   17.9837 C   0  0  0  0  0  0  0  0  0  0  0  0
   10.5884   -3.0725   16.7902 O   0  0  0  0  0  0  0  0  0  0  0  0
   10.4323   -5.3494   20.3516 C   0  0  0  0  0  0  0  0  0  0  0  0
    7.1156   -7.5454   16.8218 C   0  0  0  0  0  0  0  0  0  0  0  0
   10.3885   -4.4388   19.2773 C   0  0  0  0  0  0  0  0  0  0  0  0
    4.5160   -9.3822   15.0841 C   0  0  0  0  0  0  0  0  0  0  0  0
  1  3  4  0
  1 24  4  0
  2  6  4  0
  2 15  4  0
  3  5  4  0
  3  6  4  0
  4 21  4  0
  4 29  4  0
  5 15  4  0
  5 28  1  0
  6 16  4  0
  7 18  4  0
  7 26  4  0
  8 18  1  0
  8 19  4  0
  8 22  4  0
  9 12  4  0
  9 19  4  0
 10 12  4  0
 10 22  4  0
 11 20  4  0
 11 21  4  0
 12 23  1  0
 13 20  4  0
 13 29  4  0
 14 17  4  0
 14 28  4  0
 15 25  2  0
 16 27  4  0
 17 18  4  0
 20 27  1  0
 24 27  4  0
 26 28  4  0
M  END
$$$$

 Created by Python create_sdf_string function

 29 33  0  0  0  0  0  0  0  0999 V2000
    8.8270   -7.0288   18.4251 C   0  0  0  0  0  0  0  0  0  0  0  0
    9.1576   -4.6236   15.8860 O   0  0  0  0  0  0  0  0  0  0  0  0
    9.1509   -5.9108   17.7177 C   0  0  0  0  0  0  0  0  0  0  0  0
    3.6373   -9.5349   16.0582 N   0  0  0  0  0  0  0  0  0  0  0  0
    9.9275   -4.8001   18.0438 N   0  0  0  0  0  0  0  0  0  0  0  0
    8.5908   -5.7425   16.4412 C   0  0  0  0  0  0  0  0  0  0  0  0
   10.5993   -4.8981   21.6068 C   0  0  0  0  0  0  0  0  0  0  0  0
   10.4258   -3.0106   23.0998 C   0  0  0  0  0  0  0  0  0  0  0  0
   10.2148   -3.4364   25.4200 C   0  0  0  0  0  0  0  0  0  0  0  0
    9.7853   -1.1840   24.4927 C   0  0  0  0  0  0  0  0  0  0  0  0
    5.0276   -8.5227   17.5352 C   0  0  0  0  0  0  0  0  0  0  0  0
    9.8187   -2.0895   25.5800 C   0  0  0  0  0  0  0  0  0  0  0  0
    5.6473   -8.7216   15.3158 C   0  0  0  0  0  0  0  0  0  0  0  0
   10.7581   -3.1233   19.4720 N   0  0  0  0  0  0  0  0  0  0  0  0
    9.9571   -4.0573   16.8866 C   0  0  0  0  0  0  0  0  0  0  0  0
    7.6213   -6.5618   16.0087 C   0  0  0  0  0  0  0  0  0  0  0  0
   10.8583   -2.6527   20.7222 C   0  0  0  0  0  0  0  0  0  0  0  0
   10.6412   -3.5089   21.7936 C   0  0  0  0  0  0  0  0  0  0  0  0
   10.4972   -3.8968   24.1589 C   0  0  0  0  0  0  0  0  0  0  0  0
    5.9260   -8.2736   16.5517 C   0  0  0  0  0  0  0  0  0  0  0  0
    3.8816   -9.1166   17.2493 C   0  0  0  0  0  0  0  0  0  0  0  0
   10.1297   -1.6575   23.2324 C   0  0  0  0  0  0  0  0  0  0  0  0
    9.4684   -1.6929   26.7263 F   0  0  0  0  0  0  0  0  0  0  0  0
    7.7963   -7.7906   17.9837 C   0  0  0  0  0  0  0  0  0  0  0  0
   10.5884   -3.0725   16.7902 O   0  0  0  0  0  0  0  0  0  0  0  0
   10.4323   -5.3494   20.3516 C   0  0  0  0  0  0  0  0  0  0  0  0
    7.1156   -7.5454   16.8218 C   0  0  0  0  0  0  0  0  0  0  0  0
   10.3885   -4.4388   19.2773 C   0  0  0  0  0  0  0  0  0  0  0  0
    4.5160   -9.3822   15.0841 C   0  0  0  0  0  0  0  0  0  0  0  0
  1  3  4  0
  1 24  4  0
  2  6  4  0
  2 15  4  0
  3  5  4  0
  3  6  4  0
  4 21  4  0
  4 29  4  0
  5 15  4  0
  5 28  1  0
  6 16  4  0
  7 18  4  0
  7 26  4  0
  8 18  1  0
  8 19  4  0
  8 22  4  0
  9 12  4  0
  9 19  4  0
 10 12  4  0
 10 22  4  0
 11 20  4  0
 11 21  4  0
 12 23  1  0
 13 20  4  0
 13 29  4  0
 14 17  4  0
 14 28  4  0
 15 25  2  0
 16 27  4  0
 17 18  4  0
 20 27  1  0
 24 27  4  0
 26 28  4  0
M  END
$$$$

 Created by Python create_sdf_string function

 29 33  0  0  0  0  0  0  0  0999 V2000
    8.8270   -7.0288   18.4251 C   0  0  0  0  0  0  0  0  0  0  0  0
    9.1576   -4.6236   15.8860 O   0  0  0  0  0  0  0  0  0  0  0  0
    9.1509   -5.9108   17.7177 C   0  0  0  0  0  0  0  0  0  0  0  0
    3.6373   -9.5349   16.0582 N   0  0  0  0  0  0  0  0  0  0  0  0
    9.9275   -4.8001   18.0438 N   0  0  0  0  0  0  0  0  0  0  0  0
    8.5908   -5.7425   16.4412 C   0  0  0  0  0  0  0  0  0  0  0  0
   10.5993   -4.8981   21.6068 C   0  0  0  0  0  0  0  0  0  0  0  0
   10.4258   -3.0106   23.0998 C   0  0  0  0  0  0  0  0  0  0  0  0
   10.2148   -3.4364   25.4200 C   0  0  0  0  0  0  0  0  0  0  0  0
    9.7853   -1.1840   24.4927 C   0  0  0  0  0  0  0  0  0  0  0  0
    5.0276   -8.5227   17.5352 C   0  0  0  0  0  0  0  0  0  0  0  0
    9.8187   -2.0895   25.5800 C   0  0  0  0  0  0  0  0  0  0  0  0
    5.6473   -8.7216   15.3158 C   0  0  0  0  0  0  0  0  0  0  0  0
   10.7581   -3.1233   19.4720 N   0  0  0  0  0  0  0  0  0  0  0  0
    9.9571   -4.0573   16.8866 C   0  0  0  0  0  0  0  0  0  0  0  0
    7.6213   -6.5618   16.0087 C   0  0  0  0  0  0  0  0  0  0  0  0
   10.8583   -2.6527   20.7222 C   0  0  0  0  0  0  0  0  0  0  0  0
   10.6412   -3.5089   21.7936 C   0  0  0  0  0  0  0  0  0  0  0  0
   10.4972   -3.8968   24.1589 C   0  0  0  0  0  0  0  0  0  0  0  0
    5.9260   -8.2736   16.5517 C   0  0  0  0  0  0  0  0  0  0  0  0
    3.8816   -9.1166   17.2493 C   0  0  0  0  0  0  0  0  0  0  0  0
   10.1297   -1.6575   23.2324 C   0  0  0  0  0  0  0  0  0  0  0  0
    9.4684   -1.6929   26.7263 F   0  0  0  0  0  0  0  0  0  0  0  0
    7.7963   -7.7906   17.9837 C   0  0  0  0  0  0  0  0  0  0  0  0
   10.5884   -3.0725   16.7902 O   0  0  0  0  0  0  0  0  0  0  0  0
   10.4323   -5.3494   20.3516 C   0  0  0  0  0  0  0  0  0  0  0  0
    7.1156   -7.5454   16.8218 C   0  0  0  0  0  0  0  0  0  0  0  0
   10.3885   -4.4388   19.2773 C   0  0  0  0  0  0  0  0  0  0  0  0
    4.5160   -9.3822   15.0841 C   0  0  0  0  0  0  0  0  0  0  0  0
  1  3  4  0
  1 24  4  0
  2  6  4  0
  2 15  4  0
  3  5  4  0
  3  6  4  0
  4 21  4  0
  4 29  4  0
  5 15  4  0
  5 28  1  0
  6 16  4  0
  7 18  4  0
  7 26  4  0
  8 18  1  0
  8 19  4  0
  8 22  4  0
  9 12  4  0
  9 19  4  0
 10 12  4  0
 10 22  4  0
 11 20  4  0
 11 21  4  0
 12 23  1  0
 13 20  4  0
 13 29  4  0
 14 17  4  0
 14 28  4  0
 15 25  2  0
 16 27  4  0
 17 18  4  0
 20 27  1  0
 24 27  4  0
 26 28  4  0
M  END
$$$$

 Created by Python create_sdf_string function

 29 33  0  0  0  0  0  0  0  0999 V2000
    8.8270   -7.0288   18.4251 C   0  0  0  0  0  0  0  0  0  0  0  0
    9.1576   -4.6236   15.8860 O   0  0  0  0  0  0  0  0  0  0  0  0
    9.1509   -5.9108   17.7177 C   0  0  0  0  0  0  0  0  0  0  0  0
    3.6373   -9.5349   16.0582 N   0  0  0  0  0  0  0  0  0  0  0  0
    9.9275   -4.8001   18.0438 N   0  0  0  0  0  0  0  0  0  0  0  0
    8.5908   -5.7425   16.4412 C   0  0  0  0  0  0  0  0  0  0  0  0
   10.5993   -4.8981   21.6068 C   0  0  0  0  0  0  0  0  0  0  0  0
   10.4258   -3.0106   23.0998 C   0  0  0  0  0  0  0  0  0  0  0  0
   10.2148   -3.4364   25.4200 C   0  0  0  0  0  0  0  0  0  0  0  0
    9.7853   -1.1840   24.4927 C   0  0  0  0  0  0  0  0  0  0  0  0
    5.0276   -8.5227   17.5352 C   0  0  0  0  0  0  0  0  0  0  0  0
    9.8187   -2.0895   25.5800 C   0  0  0  0  0  0  0  0  0  0  0  0
    5.6473   -8.7216   15.3158 C   0  0  0  0  0  0  0  0  0  0  0  0
   10.7581   -3.1233   19.4720 N   0  0  0  0  0  0  0  0  0  0  0  0
    9.9571   -4.0573   16.8866 C   0  0  0  0  0  0  0  0  0  0  0  0
    7.6213   -6.5618   16.0087 C   0  0  0  0  0  0  0  0  0  0  0  0
   10.8583   -2.6527   20.7222 C   0  0  0  0  0  0  0  0  0  0  0  0
   10.6412   -3.5089   21.7936 C   0  0  0  0  0  0  0  0  0  0  0  0
   10.4972   -3.8968   24.1589 C   0  0  0  0  0  0  0  0  0  0  0  0
    5.9260   -8.2736   16.5517 C   0  0  0  0  0  0  0  0  0  0  0  0
    3.8816   -9.1166   17.2493 C   0  0  0  0  0  0  0  0  0  0  0  0
   10.1297   -1.6575   23.2324 C   0  0  0  0  0  0  0  0  0  0  0  0
    9.4684   -1.6929   26.7263 F   0  0  0  0  0  0  0  0  0  0  0  0
    7.7963   -7.7906   17.9837 C   0  0  0  0  0  0  0  0  0  0  0  0
   10.5884   -3.0725   16.7902 O   0  0  0  0  0  0  0  0  0  0  0  0
   10.4323   -5.3494   20.3516 C   0  0  0  0  0  0  0  0  0  0  0  0
    7.1156   -7.5454   16.8218 C   0  0  0  0  0  0  0  0  0  0  0  0
   10.3885   -4.4388   19.2773 C   0  0  0  0  0  0  0  0  0  0  0  0
    4.5160   -9.3822   15.0841 C   0  0  0  0  0  0  0  0  0  0  0  0
  1  3  4  0
  1 24  4  0
  2  6  4  0
  2 15  4  0
  3  5  4  0
  3  6  4  0
  4 21  4  0
  4 29  4  0
  5 15  4  0
  5 28  1  0
  6 16  4  0
  7 18  4  0
  7 26  4  0
  8 18  1  0
  8 19  4  0
  8 22  4  0
  9 12  4  0
  9 19  4  0
 10 12  4  0
 10 22  4  0
 11 20  4  0
 11 21  4  0
 12 23  1  0
 13 20  4  0
 13 29  4  0
 14 17  4  0
 14 28  4  0
 15 25  2  0
 16 27  4  0
 17 18  4  0
 20 27  1  0
 24 27  4  0
 26 28  4  0
M  END
$$$$

 Created by Python create_sdf_string function

 29 33  0  0  0  0  0  0  0  0999 V2000
    8.8270   -7.0288   18.4251 C   0  0  0  0  0  0  0  0  0  0  0  0
    9.1576   -4.6236   15.8860 O   0  0  0  0  0  0  0  0  0  0  0  0
    9.1509   -5.9108   17.7177 C   0  0  0  0  0  0  0  0  0  0  0  0
    3.6373   -9.5349   16.0582 N   0  0  0  0  0  0  0  0  0  0  0  0
    9.9275   -4.8001   18.0438 N   0  0  0  0  0  0  0  0  0  0  0  0
    8.5908   -5.7425   16.4412 C   0  0  0  0  0  0  0  0  0  0  0  0
   10.5993   -4.8981   21.6068 C   0  0  0  0  0  0  0  0  0  0  0  0
   10.4258   -3.0106   23.0998 C   0  0  0  0  0  0  0  0  0  0  0  0
   10.2148   -3.4364   25.4200 C   0  0  0  0  0  0  0  0  0  0  0  0
    9.7853   -1.1840   24.4927 C   0  0  0  0  0  0  0  0  0  0  0  0
    5.0276   -8.5227   17.5352 C   0  0  0  0  0  0  0  0  0  0  0  0
    9.8187   -2.0895   25.5800 C   0  0  0  0  0  0  0  0  0  0  0  0
    5.6473   -8.7216   15.3158 C   0  0  0  0  0  0  0  0  0  0  0  0
   10.7581   -3.1233   19.4720 N   0  0  0  0  0  0  0  0  0  0  0  0
    9.9571   -4.0573   16.8866 C   0  0  0  0  0  0  0  0  0  0  0  0
    7.6213   -6.5618   16.0087 C   0  0  0  0  0  0  0  0  0  0  0  0
   10.8583   -2.6527   20.7222 C   0  0  0  0  0  0  0  0  0  0  0  0
   10.6412   -3.5089   21.7936 C   0  0  0  0  0  0  0  0  0  0  0  0
   10.4972   -3.8968   24.1589 C   0  0  0  0  0  0  0  0  0  0  0  0
    5.9260   -8.2736   16.5517 C   0  0  0  0  0  0  0  0  0  0  0  0
    3.8816   -9.1166   17.2493 C   0  0  0  0  0  0  0  0  0  0  0  0
   10.1297   -1.6575   23.2324 C   0  0  0  0  0  0  0  0  0  0  0  0
    9.4684   -1.6929   26.7263 F   0  0  0  0  0  0  0  0  0  0  0  0
    7.7963   -7.7906   17.9837 C   0  0  0  0  0  0  0  0  0  0  0  0
   10.5884   -3.0725   16.7902 O   0  0  0  0  0  0  0  0  0  0  0  0
   10.4323   -5.3494   20.3516 C   0  0  0  0  0  0  0  0  0  0  0  0
    7.1156   -7.5454   16.8218 C   0  0  0  0  0  0  0  0  0  0  0  0
   10.3885   -4.4388   19.2773 C   0  0  0  0  0  0  0  0  0  0  0  0
    4.5160   -9.3822   15.0841 C   0  0  0  0  0  0  0  0  0  0  0  0
  1  3  4  0
  1 24  4  0
  2  6  4  0
  2 15  4  0
  3  5  4  0
  3  6  4  0
  4 21  4  0
  4 29  4  0
  5 15  4  0
  5 28  1  0
  6 16  4  0
  7 18  4  0
  7 26  4  0
  8 18  1  0
  8 19  4  0
  8 22  4  0
  9 12  4  0
  9 19  4  0
 10 12  4  0
 10 22  4  0
 11 20  4  0
 11 21  4  0
 12 23  1  0
 13 20  4  0
 13 29  4  0
 14 17  4  0
 14 28  4  0
 15 25  2  0
 16 27  4  0
 17 18  4  0
 20 27  1  0
 24 27  4  0
 26 28  4  0
M  END
$$$$

 Created by Python create_sdf_string function

 29 33  0  0  0  0  0  0  0  0999 V2000
    8.8270   -7.0288   18.4251 C   0  0  0  0  0  0  0  0  0  0  0  0
    9.1576   -4.6236   15.8860 O   0  0  0  0  0  0  0  0  0  0  0  0
    9.1509   -5.9108   17.7177 C   0  0  0  0  0  0  0  0  0  0  0  0
    3.6373   -9.5349   16.0582 N   0  0  0  0  0  0  0  0  0  0  0  0
    9.9275   -4.8001   18.0438 N   0  0  0  0  0  0  0  0  0  0  0  0
    8.5908   -5.7425   16.4412 C   0  0  0  0  0  0  0  0  0  0  0  0
   10.5993   -4.8981   21.6068 C   0  0  0  0  0  0  0  0  0  0  0  0
   10.4258   -3.0106   23.0998 C   0  0  0  0  0  0  0  0  0  0  0  0
   10.2148   -3.4364   25.4200 C   0  0  0  0  0  0  0  0  0  0  0  0
    9.7853   -1.1840   24.4927 C   0  0  0  0  0  0  0  0  0  0  0  0
    5.0276   -8.5227   17.5352 C   0  0  0  0  0  0  0  0  0  0  0  0
    9.8187   -2.0895   25.5800 C   0  0  0  0  0  0  0  0  0  0  0  0
    5.6473   -8.7216   15.3158 C   0  0  0  0  0  0  0  0  0  0  0  0
   10.7581   -3.1233   19.4720 N   0  0  0  0  0  0  0  0  0  0  0  0
    9.9571   -4.0573   16.8866 C   0  0  0  0  0  0  0  0  0  0  0  0
    7.6213   -6.5618   16.0087 C   0  0  0  0  0  0  0  0  0  0  0  0
   10.8583   -2.6527   20.7222 C   0  0  0  0  0  0  0  0  0  0  0  0
   10.6412   -3.5089   21.7936 C   0  0  0  0  0  0  0  0  0  0  0  0
   10.4972   -3.8968   24.1589 C   0  0  0  0  0  0  0  0  0  0  0  0
    5.9260   -8.2736   16.5517 C   0  0  0  0  0  0  0  0  0  0  0  0
    3.8816   -9.1166   17.2493 C   0  0  0  0  0  0  0  0  0  0  0  0
   10.1297   -1.6575   23.2324 C   0  0  0  0  0  0  0  0  0  0  0  0
    9.4684   -1.6929   26.7263 F   0  0  0  0  0  0  0  0  0  0  0  0
    7.7963   -7.7906   17.9837 C   0  0  0  0  0  0  0  0  0  0  0  0
   10.5884   -3.0725   16.7902 O   0  0  0  0  0  0  0  0  0  0  0  0
   10.4323   -5.3494   20.3516 C   0  0  0  0  0  0  0  0  0  0  0  0
    7.1156   -7.5454   16.8218 C   0  0  0  0  0  0  0  0  0  0  0  0
   10.3885   -4.4388   19.2773 C   0  0  0  0  0  0  0  0  0  0  0  0
    4.5160   -9.3822   15.0841 C   0  0  0  0  0  0  0  0  0  0  0  0
  1  3  4  0
  1 24  4  0
  2  6  4  0
  2 15  4  0
  3  5  4  0
  3  6  4  0
  4 21  4  0
  4 29  4  0
  5 15  4  0
  5 28  1  0
  6 16  4  0
  7 18  4  0
  7 26  4  0
  8 18  1  0
  8 19  4  0
  8 22  4  0
  9 12  4  0
  9 19  4  0
 10 12  4  0
 10 22  4  0
 11 20  4  0
 11 21  4  0
 12 23  1  0
 13 20  4  0
 13 29  4  0
 14 17  4  0
 14 28  4  0
 15 25  2  0
 16 27  4  0
 17 18  4  0
 20 27  1  0
 24 27  4  0
 26 28  4  0
M  END
$$$$

 Created by Python create_sdf_string function

 29 33  0  0  0  0  0  0  0  0999 V2000
    8.8270   -7.0288   18.4251 C   0  0  0  0  0  0  0  0  0  0  0  0
    9.1576   -4.6236   15.8860 O   0  0  0  0  0  0  0  0  0  0  0  0
    9.1509   -5.9108   17.7177 C   0  0  0  0  0  0  0  0  0  0  0  0
    3.6373   -9.5349   16.0582 N   0  0  0  0  0  0  0  0  0  0  0  0
    9.9275   -4.8001   18.0438 N   0  0  0  0  0  0  0  0  0  0  0  0
    8.5908   -5.7425   16.4412 C   0  0  0  0  0  0  0  0  0  0  0  0
   10.5993   -4.8981   21.6068 C   0  0  0  0  0  0  0  0  0  0  0  0
   10.4258   -3.0106   23.0998 C   0  0  0  0  0  0  0  0  0  0  0  0
   10.2148   -3.4364   25.4200 C   0  0  0  0  0  0  0  0  0  0  0  0
    9.7853   -1.1840   24.4927 C   0  0  0  0  0  0  0  0  0  0  0  0
    5.0276   -8.5227   17.5352 C   0  0  0  0  0  0  0  0  0  0  0  0
    9.8187   -2.0895   25.5800 C   0  0  0  0  0  0  0  0  0  0  0  0
    5.6473   -8.7216   15.3158 C   0  0  0  0  0  0  0  0  0  0  0  0
   10.7581   -3.1233   19.4720 N   0  0  0  0  0  0  0  0  0  0  0  0
    9.9571   -4.0573   16.8866 C   0  0  0  0  0  0  0  0  0  0  0  0
    7.6213   -6.5618   16.0087 C   0  0  0  0  0  0  0  0  0  0  0  0
   10.8583   -2.6527   20.7222 C   0  0  0  0  0  0  0  0  0  0  0  0
   10.6412   -3.5089   21.7936 C   0  0  0  0  0  0  0  0  0  0  0  0
   10.4972   -3.8968   24.1589 C   0  0  0  0  0  0  0  0  0  0  0  0
    5.9260   -8.2736   16.5517 C   0  0  0  0  0  0  0  0  0  0  0  0
    3.8816   -9.1166   17.2493 C   0  0  0  0  0  0  0  0  0  0  0  0
   10.1297   -1.6575   23.2324 C   0  0  0  0  0  0  0  0  0  0  0  0
    9.4684   -1.6929   26.7263 F   0  0  0  0  0  0  0  0  0  0  0  0
    7.7963   -7.7906   17.9837 C   0  0  0  0  0  0  0  0  0  0  0  0
   10.5884   -3.0725   16.7902 O   0  0  0  0  0  0  0  0  0  0  0  0
   10.4323   -5.3494   20.3516 C   0  0  0  0  0  0  0  0  0  0  0  0
    7.1156   -7.5454   16.8218 C   0  0  0  0  0  0  0  0  0  0  0  0
   10.3885   -4.4388   19.2773 C   0  0  0  0  0  0  0  0  0  0  0  0
    4.5160   -9.3822   15.0841 C   0  0  0  0  0  0  0  0  0  0  0  0
  1  3  4  0
  1 24  4  0
  2  6  4  0
  2 15  4  0
  3  5  4  0
  3  6  4  0
  4 21  4  0
  4 29  4  0
  5 15  4  0
  5 28  1  0
  6 16  4  0
  7 18  4  0
  7 26  4  0
  8 18  1  0
  8 19  4  0
  8 22  4  0
  9 12  4  0
  9 19  4  0
 10 12  4  0
 10 22  4  0
 11 20  4  0
 11 21  4  0
 12 23  1  0
 13 20  4  0
 13 29  4  0
 14 17  4  0
 14 28  4  0
 15 25  2  0
 16 27  4  0
 17 18  4  0
 20 27  1  0
 24 27  4  0
 26 28  4  0
M  END
$$$$

 Created by Python create_sdf_string function

 29 33  0  0  0  0  0  0  0  0999 V2000
    8.8270   -7.0288   18.4251 C   0  0  0  0  0  0  0  0  0  0  0  0
    9.1576   -4.6236   15.8860 O   0  0  0  0  0  0  0  0  0  0  0  0
    9.1509   -5.9108   17.7177 C   0  0  0  0  0  0  0  0  0  0  0  0
    3.6373   -9.5349   16.0582 N   0  0  0  0  0  0  0  0  0  0  0  0
    9.9275   -4.8001   18.0438 N   0  0  0  0  0  0  0  0  0  0  0  0
    8.5908   -5.7425   16.4412 C   0  0  0  0  0  0  0  0  0  0  0  0
   10.5993   -4.8981   21.6068 C   0  0  0  0  0  0  0  0  0  0  0  0
   10.4258   -3.0106   23.0998 C   0  0  0  0  0  0  0  0  0  0  0  0
   10.2148   -3.4364   25.4200 C   0  0  0  0  0  0  0  0  0  0  0  0
    9.7853   -1.1840   24.4927 C   0  0  0  0  0  0  0  0  0  0  0  0
    5.0276   -8.5227   17.5352 C   0  0  0  0  0  0  0  0  0  0  0  0
    9.8187   -2.0895   25.5800 C   0  0  0  0  0  0  0  0  0  0  0  0
    5.6473   -8.7216   15.3158 C   0  0  0  0  0  0  0  0  0  0  0  0
   10.7581   -3.1233   19.4720 N   0  0  0  0  0  0  0  0  0  0  0  0
    9.9571   -4.0573   16.8866 C   0  0  0  0  0  0  0  0  0  0  0  0
    7.6213   -6.5618   16.0087 C   0  0  0  0  0  0  0  0  0  0  0  0
   10.8583   -2.6527   20.7222 C   0  0  0  0  0  0  0  0  0  0  0  0
   10.6412   -3.5089   21.7936 C   0  0  0  0  0  0  0  0  0  0  0  0
   10.4972   -3.8968   24.1589 C   0  0  0  0  0  0  0  0  0  0  0  0
    5.9260   -8.2736   16.5517 C   0  0  0  0  0  0  0  0  0  0  0  0
    3.8816   -9.1166   17.2493 C   0  0  0  0  0  0  0  0  0  0  0  0
   10.1297   -1.6575   23.2324 C   0  0  0  0  0  0  0  0  0  0  0  0
    9.4684   -1.6929   26.7263 F   0  0  0  0  0  0  0  0  0  0  0  0
    7.7963   -7.7906   17.9837 C   0  0  0  0  0  0  0  0  0  0  0  0
   10.5884   -3.0725   16.7902 O   0  0  0  0  0  0  0  0  0  0  0  0
   10.4323   -5.3494   20.3516 C   0  0  0  0  0  0  0  0  0  0  0  0
    7.1156   -7.5454   16.8218 C   0  0  0  0  0  0  0  0  0  0  0  0
   10.3885   -4.4388   19.2773 C   0  0  0  0  0  0  0  0  0  0  0  0
    4.5160   -9.3822   15.0841 C   0  0  0  0  0  0  0  0  0  0  0  0
  1  3  4  0
  1 24  4  0
  2  6  4  0
  2 15  4  0
  3  5  4  0
  3  6  4  0
  4 21  4  0
  4 29  4  0
  5 15  4  0
  5 28  1  0
  6 16  4  0
  7 18  4  0
  7 26  4  0
  8 18  1  0
  8 19  4  0
  8 22  4  0
  9 12  4  0
  9 19  4  0
 10 12  4  0
 10 22  4  0
 11 20  4  0
 11 21  4  0
 12 23  1  0
 13 20  4  0
 13 29  4  0
 14 17  4  0
 14 28  4  0
 15 25  2  0
 16 27  4  0
 17 18  4  0
 20 27  1  0
 24 27  4  0
 26 28  4  0
M  END
$$$$

 Created by Python create_sdf_string function

 29 33  0  0  0  0  0  0  0  0999 V2000
    8.8270   -7.0288   18.4251 C   0  0  0  0  0  0  0  0  0  0  0  0
    9.1576   -4.6236   15.8860 O   0  0  0  0  0  0  0  0  0  0  0  0
    9.1509   -5.9108   17.7177 C   0  0  0  0  0  0  0  0  0  0  0  0
    3.6373   -9.5349   16.0582 N   0  0  0  0  0  0  0  0  0  0  0  0
    9.9275   -4.8001   18.0438 N   0  0  0  0  0  0  0  0  0  0  0  0
    8.5908   -5.7425   16.4412 C   0  0  0  0  0  0  0  0  0  0  0  0
   10.5993   -4.8981   21.6068 C   0  0  0  0  0  0  0  0  0  0  0  0
   10.4258   -3.0106   23.0998 C   0  0  0  0  0  0  0  0  0  0  0  0
   10.2148   -3.4364   25.4200 C   0  0  0  0  0  0  0  0  0  0  0  0
    9.7853   -1.1840   24.4927 C   0  0  0  0  0  0  0  0  0  0  0  0
    5.0276   -8.5227   17.5352 C   0  0  0  0  0  0  0  0  0  0  0  0
    9.8187   -2.0895   25.5800 C   0  0  0  0  0  0  0  0  0  0  0  0
    5.6473   -8.7216   15.3158 C   0  0  0  0  0  0  0  0  0  0  0  0
   10.7581   -3.1233   19.4720 N   0  0  0  0  0  0  0  0  0  0  0  0
    9.9571   -4.0573   16.8866 C   0  0  0  0  0  0  0  0  0  0  0  0
    7.6213   -6.5618   16.0087 C   0  0  0  0  0  0  0  0  0  0  0  0
   10.8583   -2.6527   20.7222 C   0  0  0  0  0  0  0  0  0  0  0  0
   10.6412   -3.5089   21.7936 C   0  0  0  0  0  0  0  0  0  0  0  0
   10.4972   -3.8968   24.1589 C   0  0  0  0  0  0  0  0  0  0  0  0
    5.9260   -8.2736   16.5517 C   0  0  0  0  0  0  0  0  0  0  0  0
    3.8816   -9.1166   17.2493 C   0  0  0  0  0  0  0  0  0  0  0  0
   10.1297   -1.6575   23.2324 C   0  0  0  0  0  0  0  0  0  0  0  0
    9.4684   -1.6929   26.7263 F   0  0  0  0  0  0  0  0  0  0  0  0
    7.7963   -7.7906   17.9837 C   0  0  0  0  0  0  0  0  0  0  0  0
   10.5884   -3.0725   16.7902 O   0  0  0  0  0  0  0  0  0  0  0  0
   10.4323   -5.3494   20.3516 C   0  0  0  0  0  0  0  0  0  0  0  0
    7.1156   -7.5454   16.8218 C   0  0  0  0  0  0  0  0  0  0  0  0
   10.3885   -4.4388   19.2773 C   0  0  0  0  0  0  0  0  0  0  0  0
    4.5160   -9.3822   15.0841 C   0  0  0  0  0  0  0  0  0  0  0  0
  1  3  4  0
  1 24  4  0
  2  6  4  0
  2 15  4  0
  3  5  4  0
  3  6  4  0
  4 21  4  0
  4 29  4  0
  5 15  4  0
  5 28  1  0
  6 16  4  0
  7 18  4  0
  7 26  4  0
  8 18  1  0
  8 19  4  0
  8 22  4  0
  9 12  4  0
  9 19  4  0
 10 12  4  0
 10 22  4  0
 11 20  4  0
 11 21  4  0
 12 23  1  0
 13 20  4  0
 13 29  4  0
 14 17  4  0
 14 28  4  0
 15 25  2  0
 16 27  4  0
 17 18  4  0
 20 27  1  0
 24 27  4  0
 26 28  4  0
M  END
$$$$

 Created by Python create_sdf_string function

 29 33  0  0  0  0  0  0  0  0999 V2000
    8.8270   -7.0288   18.4251 C   0  0  0  0  0  0  0  0  0  0  0  0
    9.1576   -4.6236   15.8860 O   0  0  0  0  0  0  0  0  0  0  0  0
    9.1509   -5.9108   17.7177 C   0  0  0  0  0  0  0  0  0  0  0  0
    3.6373   -9.5349   16.0582 N   0  0  0  0  0  0  0  0  0  0  0  0
    9.9275   -4.8001   18.0438 N   0  0  0  0  0  0  0  0  0  0  0  0
    8.5908   -5.7425   16.4412 C   0  0  0  0  0  0  0  0  0  0  0  0
   10.5993   -4.8981   21.6068 C   0  0  0  0  0  0  0  0  0  0  0  0
   10.4258   -3.0106   23.0998 C   0  0  0  0  0  0  0  0  0  0  0  0
   10.2148   -3.4364   25.4200 C   0  0  0  0  0  0  0  0  0  0  0  0
    9.7853   -1.1840   24.4927 C   0  0  0  0  0  0  0  0  0  0  0  0
    5.0276   -8.5227   17.5352 C   0  0  0  0  0  0  0  0  0  0  0  0
    9.8187   -2.0895   25.5800 C   0  0  0  0  0  0  0  0  0  0  0  0
    5.6473   -8.7216   15.3158 C   0  0  0  0  0  0  0  0  0  0  0  0
   10.7581   -3.1233   19.4720 N   0  0  0  0  0  0  0  0  0  0  0  0
    9.9571   -4.0573   16.8866 C   0  0  0  0  0  0  0  0  0  0  0  0
    7.6213   -6.5618   16.0087 C   0  0  0  0  0  0  0  0  0  0  0  0
   10.8583   -2.6527   20.7222 C   0  0  0  0  0  0  0  0  0  0  0  0
   10.6412   -3.5089   21.7936 C   0  0  0  0  0  0  0  0  0  0  0  0
   10.4972   -3.8968   24.1589 C   0  0  0  0  0  0  0  0  0  0  0  0
    5.9260   -8.2736   16.5517 C   0  0  0  0  0  0  0  0  0  0  0  0
    3.8816   -9.1166   17.2493 C   0  0  0  0  0  0  0  0  0  0  0  0
   10.1297   -1.6575   23.2324 C   0  0  0  0  0  0  0  0  0  0  0  0
    9.4684   -1.6929   26.7263 F   0  0  0  0  0  0  0  0  0  0  0  0
    7.7963   -7.7906   17.9837 C   0  0  0  0  0  0  0  0  0  0  0  0
   10.5884   -3.0725   16.7902 O   0  0  0  0  0  0  0  0  0  0  0  0
   10.4323   -5.3494   20.3516 C   0  0  0  0  0  0  0  0  0  0  0  0
    7.1156   -7.5454   16.8218 C   0  0  0  0  0  0  0  0  0  0  0  0
   10.3885   -4.4388   19.2773 C   0  0  0  0  0  0  0  0  0  0  0  0
    4.5160   -9.3822   15.0841 C   0  0  0  0  0  0  0  0  0  0  0  0
  1  3  4  0
  1 24  4  0
  2  6  4  0
  2 15  4  0
  3  5  4  0
  3  6  4  0
  4 21  4  0
  4 29  4  0
  5 15  4  0
  5 28  1  0
  6 16  4  0
  7 18  4  0
  7 26  4  0
  8 18  1  0
  8 19  4  0
  8 22  4  0
  9 12  4  0
  9 19  4  0
 10 12  4  0
 10 22  4  0
 11 20  4  0
 11 21  4  0
 12 23  1  0
 13 20  4  0
 13 29  4  0
 14 17  4  0
 14 28  4  0
 15 25  2  0
 16 27  4  0
 17 18  4  0
 20 27  1  0
 24 27  4  0
 26 28  4  0
M  END
$$$$

 Created by Python create_sdf_string function

 29 33  0  0  0  0  0  0  0  0999 V2000
    8.8270   -7.0288   18.4251 C   0  0  0  0  0  0  0  0  0  0  0  0
    9.1576   -4.6236   15.8860 O   0  0  0  0  0  0  0  0  0  0  0  0
    9.1509   -5.9108   17.7177 C   0  0  0  0  0  0  0  0  0  0  0  0
    3.6373   -9.5349   16.0582 N   0  0  0  0  0  0  0  0  0  0  0  0
    9.9275   -4.8001   18.0438 N   0  0  0  0  0  0  0  0  0  0  0  0
    8.5908   -5.7425   16.4412 C   0  0  0  0  0  0  0  0  0  0  0  0
   10.5993   -4.8981   21.6068 C   0  0  0  0  0  0  0  0  0  0  0  0
   10.4258   -3.0106   23.0998 C   0  0  0  0  0  0  0  0  0  0  0  0
   10.2148   -3.4364   25.4200 C   0  0  0  0  0  0  0  0  0  0  0  0
    9.7853   -1.1840   24.4927 C   0  0  0  0  0  0  0  0  0  0  0  0
    5.0276   -8.5227   17.5352 C   0  0  0  0  0  0  0  0  0  0  0  0
    9.8187   -2.0895   25.5800 C   0  0  0  0  0  0  0  0  0  0  0  0
    5.6473   -8.7216   15.3158 C   0  0  0  0  0  0  0  0  0  0  0  0
   10.7581   -3.1233   19.4720 N   0  0  0  0  0  0  0  0  0  0  0  0
    9.9571   -4.0573   16.8866 C   0  0  0  0  0  0  0  0  0  0  0  0
    7.6213   -6.5618   16.0087 C   0  0  0  0  0  0  0  0  0  0  0  0
   10.8583   -2.6527   20.7222 C   0  0  0  0  0  0  0  0  0  0  0  0
   10.6412   -3.5089   21.7936 C   0  0  0  0  0  0  0  0  0  0  0  0
   10.4972   -3.8968   24.1589 C   0  0  0  0  0  0  0  0  0  0  0  0
    5.9260   -8.2736   16.5517 C   0  0  0  0  0  0  0  0  0  0  0  0
    3.8816   -9.1166   17.2493 C   0  0  0  0  0  0  0  0  0  0  0  0
   10.1297   -1.6575   23.2324 C   0  0  0  0  0  0  0  0  0  0  0  0
    9.4684   -1.6929   26.7263 F   0  0  0  0  0  0  0  0  0  0  0  0
    7.7963   -7.7906   17.9837 C   0  0  0  0  0  0  0  0  0  0  0  0
   10.5884   -3.0725   16.7902 O   0  0  0  0  0  0  0  0  0  0  0  0
   10.4323   -5.3494   20.3516 C   0  0  0  0  0  0  0  0  0  0  0  0
    7.1156   -7.5454   16.8218 C   0  0  0  0  0  0  0  0  0  0  0  0
   10.3885   -4.4388   19.2773 C   0  0  0  0  0  0  0  0  0  0  0  0
    4.5160   -9.3822   15.0841 C   0  0  0  0  0  0  0  0  0  0  0  0
  1  3  4  0
  1 24  4  0
  2  6  4  0
  2 15  4  0
  3  5  4  0
  3  6  4  0
  4 21  4  0
  4 29  4  0
  5 15  4  0
  5 28  1  0
  6 16  4  0
  7 18  4  0
  7 26  4  0
  8 18  1  0
  8 19  4  0
  8 22  4  0
  9 12  4  0
  9 19  4  0
 10 12  4  0
 10 22  4  0
 11 20  4  0
 11 21  4  0
 12 23  1  0
 13 20  4  0
 13 29  4  0
 14 17  4  0
 14 28  4  0
 15 25  2  0
 16 27  4  0
 17 18  4  0
 20 27  1  0
 24 27  4  0
 26 28  4  0
M  END
$$$$

 Created by Python create_sdf_string function

 29 33  0  0  0  0  0  0  0  0999 V2000
    8.8270   -7.0288   18.4251 C   0  0  0  0  0  0  0  0  0  0  0  0
    9.1576   -4.6236   15.8860 O   0  0  0  0  0  0  0  0  0  0  0  0
    9.1509   -5.9108   17.7177 C   0  0  0  0  0  0  0  0  0  0  0  0
    3.6373   -9.5349   16.0582 N   0  0  0  0  0  0  0  0  0  0  0  0
    9.9275   -4.8001   18.0438 N   0  0  0  0  0  0  0  0  0  0  0  0
    8.5908   -5.7425   16.4412 C   0  0  0  0  0  0  0  0  0  0  0  0
   10.5993   -4.8981   21.6068 C   0  0  0  0  0  0  0  0  0  0  0  0
   10.4258   -3.0106   23.0998 C   0  0  0  0  0  0  0  0  0  0  0  0
   10.2148   -3.4364   25.4200 C   0  0  0  0  0  0  0  0  0  0  0  0
    9.7853   -1.1840   24.4927 C   0  0  0  0  0  0  0  0  0  0  0  0
    5.0276   -8.5227   17.5352 C   0  0  0  0  0  0  0  0  0  0  0  0
    9.8187   -2.0895   25.5800 C   0  0  0  0  0  0  0  0  0  0  0  0
    5.6473   -8.7216   15.3158 C   0  0  0  0  0  0  0  0  0  0  0  0
   10.7581   -3.1233   19.4720 N   0  0  0  0  0  0  0  0  0  0  0  0
    9.9571   -4.0573   16.8866 C   0  0  0  0  0  0  0  0  0  0  0  0
    7.6213   -6.5618   16.0087 C   0  0  0  0  0  0  0  0  0  0  0  0
   10.8583   -2.6527   20.7222 C   0  0  0  0  0  0  0  0  0  0  0  0
   10.6412   -3.5089   21.7936 C   0  0  0  0  0  0  0  0  0  0  0  0
   10.4972   -3.8968   24.1589 C   0  0  0  0  0  0  0  0  0  0  0  0
    5.9260   -8.2736   16.5517 C   0  0  0  0  0  0  0  0  0  0  0  0
    3.8816   -9.1166   17.2493 C   0  0  0  0  0  0  0  0  0  0  0  0
   10.1297   -1.6575   23.2324 C   0  0  0  0  0  0  0  0  0  0  0  0
    9.4684   -1.6929   26.7263 F   0  0  0  0  0  0  0  0  0  0  0  0
    7.7963   -7.7906   17.9837 C   0  0  0  0  0  0  0  0  0  0  0  0
   10.5884   -3.0725   16.7902 O   0  0  0  0  0  0  0  0  0  0  0  0
   10.4323   -5.3494   20.3516 C   0  0  0  0  0  0  0  0  0  0  0  0
    7.1156   -7.5454   16.8218 C   0  0  0  0  0  0  0  0  0  0  0  0
   10.3885   -4.4388   19.2773 C   0  0  0  0  0  0  0  0  0  0  0  0
    4.5160   -9.3822   15.0841 C   0  0  0  0  0  0  0  0  0  0  0  0
  1  3  4  0
  1 24  4  0
  2  6  4  0
  2 15  4  0
  3  5  4  0
  3  6  4  0
  4 21  4  0
  4 29  4  0
  5 15  4  0
  5 28  1  0
  6 16  4  0
  7 18  4  0
  7 26  4  0
  8 18  1  0
  8 19  4  0
  8 22  4  0
  9 12  4  0
  9 19  4  0
 10 12  4  0
 10 22  4  0
 11 20  4  0
 11 21  4  0
 12 23  1  0
 13 20  4  0
 13 29  4  0
 14 17  4  0
 14 28  4  0
 15 25  2  0
 16 27  4  0
 17 18  4  0
 20 27  1  0
 24 27  4  0
 26 28  4  0
M  END
$$$$

 Created by Python create_sdf_string function

 29 33  0  0  0  0  0  0  0  0999 V2000
    8.8270   -7.0288   18.4251 C   0  0  0  0  0  0  0  0  0  0  0  0
    9.1576   -4.6236   15.8860 O   0  0  0  0  0  0  0  0  0  0  0  0
    9.1509   -5.9108   17.7177 C   0  0  0  0  0  0  0  0  0  0  0  0
    3.6373   -9.5349   16.0582 N   0  0  0  0  0  0  0  0  0  0  0  0
    9.9275   -4.8001   18.0438 N   0  0  0  0  0  0  0  0  0  0  0  0
    8.5908   -5.7425   16.4412 C   0  0  0  0  0  0  0  0  0  0  0  0
   10.5993   -4.8981   21.6068 C   0  0  0  0  0  0  0  0  0  0  0  0
   10.4258   -3.0106   23.0998 C   0  0  0  0  0  0  0  0  0  0  0  0
   10.2148   -3.4364   25.4200 C   0  0  0  0  0  0  0  0  0  0  0  0
    9.7853   -1.1840   24.4927 C   0  0  0  0  0  0  0  0  0  0  0  0
    5.0276   -8.5227   17.5352 C   0  0  0  0  0  0  0  0  0  0  0  0
    9.8187   -2.0895   25.5800 C   0  0  0  0  0  0  0  0  0  0  0  0
    5.6473   -8.7216   15.3158 C   0  0  0  0  0  0  0  0  0  0  0  0
   10.7581   -3.1233   19.4720 N   0  0  0  0  0  0  0  0  0  0  0  0
    9.9571   -4.0573   16.8866 C   0  0  0  0  0  0  0  0  0  0  0  0
    7.6213   -6.5618   16.0087 C   0  0  0  0  0  0  0  0  0  0  0  0
   10.8583   -2.6527   20.7222 C   0  0  0  0  0  0  0  0  0  0  0  0
   10.6412   -3.5089   21.7936 C   0  0  0  0  0  0  0  0  0  0  0  0
   10.4972   -3.8968   24.1589 C   0  0  0  0  0  0  0  0  0  0  0  0
    5.9260   -8.2736   16.5517 C   0  0  0  0  0  0  0  0  0  0  0  0
    3.8816   -9.1166   17.2493 C   0  0  0  0  0  0  0  0  0  0  0  0
   10.1297   -1.6575   23.2324 C   0  0  0  0  0  0  0  0  0  0  0  0
    9.4684   -1.6929   26.7263 F   0  0  0  0  0  0  0  0  0  0  0  0
    7.7963   -7.7906   17.9837 C   0  0  0  0  0  0  0  0  0  0  0  0
   10.5884   -3.0725   16.7902 O   0  0  0  0  0  0  0  0  0  0  0  0
   10.4323   -5.3494   20.3516 C   0  0  0  0  0  0  0  0  0  0  0  0
    7.1156   -7.5454   16.8218 C   0  0  0  0  0  0  0  0  0  0  0  0
   10.3885   -4.4388   19.2773 C   0  0  0  0  0  0  0  0  0  0  0  0
    4.5160   -9.3822   15.0841 C   0  0  0  0  0  0  0  0  0  0  0  0
  1  3  4  0
  1 24  4  0
  2  6  4  0
  2 15  4  0
  3  5  4  0
  3  6  4  0
  4 21  4  0
  4 29  4  0
  5 15  4  0
  5 28  1  0
  6 16  4  0
  7 18  4  0
  7 26  4  0
  8 18  1  0
  8 19  4  0
  8 22  4  0
  9 12  4  0
  9 19  4  0
 10 12  4  0
 10 22  4  0
 11 20  4  0
 11 21  4  0
 12 23  1  0
 13 20  4  0
 13 29  4  0
 14 17  4  0
 14 28  4  0
 15 25  2  0
 16 27  4  0
 17 18  4  0
 20 27  1  0
 24 27  4  0
 26 28  4  0
M  END
$$$$

 Created by Python create_sdf_string function

 29 33  0  0  0  0  0  0  0  0999 V2000
    8.8270   -7.0288   18.4251 C   0  0  0  0  0  0  0  0  0  0  0  0
    9.1576   -4.6236   15.8860 O   0  0  0  0  0  0  0  0  0  0  0  0
    9.1509   -5.9108   17.7177 C   0  0  0  0  0  0  0  0  0  0  0  0
    3.6373   -9.5349   16.0582 N   0  0  0  0  0  0  0  0  0  0  0  0
    9.9275   -4.8001   18.0438 N   0  0  0  0  0  0  0  0  0  0  0  0
    8.5908   -5.7425   16.4412 C   0  0  0  0  0  0  0  0  0  0  0  0
   10.5993   -4.8981   21.6068 C   0  0  0  0  0  0  0  0  0  0  0  0
   10.4258   -3.0106   23.0998 C   0  0  0  0  0  0  0  0  0  0  0  0
   10.2148   -3.4364   25.4200 C   0  0  0  0  0  0  0  0  0  0  0  0
    9.7853   -1.1840   24.4927 C   0  0  0  0  0  0  0  0  0  0  0  0
    5.0276   -8.5227   17.5352 C   0  0  0  0  0  0  0  0  0  0  0  0
    9.8187   -2.0895   25.5800 C   0  0  0  0  0  0  0  0  0  0  0  0
    5.6473   -8.7216   15.3158 C   0  0  0  0  0  0  0  0  0  0  0  0
   10.7581   -3.1233   19.4720 N   0  0  0  0  0  0  0  0  0  0  0  0
    9.9571   -4.0573   16.8866 C   0  0  0  0  0  0  0  0  0  0  0  0
    7.6213   -6.5618   16.0087 C   0  0  0  0  0  0  0  0  0  0  0  0
   10.8583   -2.6527   20.7222 C   0  0  0  0  0  0  0  0  0  0  0  0
   10.6412   -3.5089   21.7936 C   0  0  0  0  0  0  0  0  0  0  0  0
   10.4972   -3.8968   24.1589 C   0  0  0  0  0  0  0  0  0  0  0  0
    5.9260   -8.2736   16.5517 C   0  0  0  0  0  0  0  0  0  0  0  0
    3.8816   -9.1166   17.2493 C   0  0  0  0  0  0  0  0  0  0  0  0
   10.1297   -1.6575   23.2324 C   0  0  0  0  0  0  0  0  0  0  0  0
    9.4684   -1.6929   26.7263 F   0  0  0  0  0  0  0  0  0  0  0  0
    7.7963   -7.7906   17.9837 C   0  0  0  0  0  0  0  0  0  0  0  0
   10.5884   -3.0725   16.7902 O   0  0  0  0  0  0  0  0  0  0  0  0
   10.4323   -5.3494   20.3516 C   0  0  0  0  0  0  0  0  0  0  0  0
    7.1156   -7.5454   16.8218 C   0  0  0  0  0  0  0  0  0  0  0  0
   10.3885   -4.4388   19.2773 C   0  0  0  0  0  0  0  0  0  0  0  0
    4.5160   -9.3822   15.0841 C   0  0  0  0  0  0  0  0  0  0  0  0
  1  3  4  0
  1 24  4  0
  2  6  4  0
  2 15  4  0
  3  5  4  0
  3  6  4  0
  4 21  4  0
  4 29  4  0
  5 15  4  0
  5 28  1  0
  6 16  4  0
  7 18  4  0
  7 26  4  0
  8 18  1  0
  8 19  4  0
  8 22  4  0
  9 12  4  0
  9 19  4  0
 10 12  4  0
 10 22  4  0
 11 20  4  0
 11 21  4  0
 12 23  1  0
 13 20  4  0
 13 29  4  0
 14 17  4  0
 14 28  4  0
 15 25  2  0
 16 27  4  0
 17 18  4  0
 20 27  1  0
 24 27  4  0
 26 28  4  0
M  END
$$$$

 Created by Python create_sdf_string function

 29 33  0  0  0  0  0  0  0  0999 V2000
    8.8270   -7.0288   18.4251 C   0  0  0  0  0  0  0  0  0  0  0  0
    9.1576   -4.6236   15.8860 O   0  0  0  0  0  0  0  0  0  0  0  0
    9.1509   -5.9108   17.7177 C   0  0  0  0  0  0  0  0  0  0  0  0
    3.6373   -9.5349   16.0582 N   0  0  0  0  0  0  0  0  0  0  0  0
    9.9275   -4.8001   18.0438 N   0  0  0  0  0  0  0  0  0  0  0  0
    8.5908   -5.7425   16.4412 C   0  0  0  0  0  0  0  0  0  0  0  0
   10.5993   -4.8981   21.6068 C   0  0  0  0  0  0  0  0  0  0  0  0
   10.4258   -3.0106   23.0998 C   0  0  0  0  0  0  0  0  0  0  0  0
   10.2148   -3.4364   25.4200 C   0  0  0  0  0  0  0  0  0  0  0  0
    9.7853   -1.1840   24.4927 C   0  0  0  0  0  0  0  0  0  0  0  0
    5.0276   -8.5227   17.5352 C   0  0  0  0  0  0  0  0  0  0  0  0
    9.8187   -2.0895   25.5800 C   0  0  0  0  0  0  0  0  0  0  0  0
    5.6473   -8.7216   15.3158 C   0  0  0  0  0  0  0  0  0  0  0  0
   10.7581   -3.1233   19.4720 N   0  0  0  0  0  0  0  0  0  0  0  0
    9.9571   -4.0573   16.8866 C   0  0  0  0  0  0  0  0  0  0  0  0
    7.6213   -6.5618   16.0087 C   0  0  0  0  0  0  0  0  0  0  0  0
   10.8583   -2.6527   20.7222 C   0  0  0  0  0  0  0  0  0  0  0  0
   10.6412   -3.5089   21.7936 C   0  0  0  0  0  0  0  0  0  0  0  0
   10.4972   -3.8968   24.1589 C   0  0  0  0  0  0  0  0  0  0  0  0
    5.9260   -8.2736   16.5517 C   0  0  0  0  0  0  0  0  0  0  0  0
    3.8816   -9.1166   17.2493 C   0  0  0  0  0  0  0  0  0  0  0  0
   10.1297   -1.6575   23.2324 C   0  0  0  0  0  0  0  0  0  0  0  0
    9.4684   -1.6929   26.7263 F   0  0  0  0  0  0  0  0  0  0  0  0
    7.7963   -7.7906   17.9837 C   0  0  0  0  0  0  0  0  0  0  0  0
   10.5884   -3.0725   16.7902 O   0  0  0  0  0  0  0  0  0  0  0  0
   10.4323   -5.3494   20.3516 C   0  0  0  0  0  0  0  0  0  0  0  0
    7.1156   -7.5454   16.8218 C   0  0  0  0  0  0  0  0  0  0  0  0
   10.3885   -4.4388   19.2773 C   0  0  0  0  0  0  0  0  0  0  0  0
    4.5160   -9.3822   15.0841 C   0  0  0  0  0  0  0  0  0  0  0  0
  1  3  4  0
  1 24  4  0
  2  6  4  0
  2 15  4  0
  3  5  4  0
  3  6  4  0
  4 21  4  0
  4 29  4  0
  5 15  4  0
  5 28  1  0
  6 16  4  0
  7 18  4  0
  7 26  4  0
  8 18  1  0
  8 19  4  0
  8 22  4  0
  9 12  4  0
  9 19  4  0
 10 12  4  0
 10 22  4  0
 11 20  4  0
 11 21  4  0
 12 23  1  0
 13 20  4  0
 13 29  4  0
 14 17  4  0
 14 28  4  0
 15 25  2  0
 16 27  4  0
 17 18  4  0
 20 27  1  0
 24 27  4  0
 26 28  4  0
M  END
$$$$

 Created by Python create_sdf_string function

 29 33  0  0  0  0  0  0  0  0999 V2000
    8.8270   -7.0288   18.4251 C   0  0  0  0  0  0  0  0  0  0  0  0
    9.1576   -4.6236   15.8860 O   0  0  0  0  0  0  0  0  0  0  0  0
    9.1509   -5.9108   17.7177 C   0  0  0  0  0  0  0  0  0  0  0  0
    3.6373   -9.5349   16.0582 N   0  0  0  0  0  0  0  0  0  0  0  0
    9.9275   -4.8001   18.0438 N   0  0  0  0  0  0  0  0  0  0  0  0
    8.5908   -5.7425   16.4412 C   0  0  0  0  0  0  0  0  0  0  0  0
   10.5993   -4.8981   21.6068 C   0  0  0  0  0  0  0  0  0  0  0  0
   10.4258   -3.0106   23.0998 C   0  0  0  0  0  0  0  0  0  0  0  0
   10.2148   -3.4364   25.4200 C   0  0  0  0  0  0  0  0  0  0  0  0
    9.7853   -1.1840   24.4927 C   0  0  0  0  0  0  0  0  0  0  0  0
    5.0276   -8.5227   17.5352 C   0  0  0  0  0  0  0  0  0  0  0  0
    9.8187   -2.0895   25.5800 C   0  0  0  0  0  0  0  0  0  0  0  0
    5.6473   -8.7216   15.3158 C   0  0  0  0  0  0  0  0  0  0  0  0
   10.7581   -3.1233   19.4720 N   0  0  0  0  0  0  0  0  0  0  0  0
    9.9571   -4.0573   16.8866 C   0  0  0  0  0  0  0  0  0  0  0  0
    7.6213   -6.5618   16.0087 C   0  0  0  0  0  0  0  0  0  0  0  0
   10.8583   -2.6527   20.7222 C   0  0  0  0  0  0  0  0  0  0  0  0
   10.6412   -3.5089   21.7936 C   0  0  0  0  0  0  0  0  0  0  0  0
   10.4972   -3.8968   24.1589 C   0  0  0  0  0  0  0  0  0  0  0  0
    5.9260   -8.2736   16.5517 C   0  0  0  0  0  0  0  0  0  0  0  0
    3.8816   -9.1166   17.2493 C   0  0  0  0  0  0  0  0  0  0  0  0
   10.1297   -1.6575   23.2324 C   0  0  0  0  0  0  0  0  0  0  0  0
    9.4684   -1.6929   26.7263 F   0  0  0  0  0  0  0  0  0  0  0  0
    7.7963   -7.7906   17.9837 C   0  0  0  0  0  0  0  0  0  0  0  0
   10.5884   -3.0725   16.7902 O   0  0  0  0  0  0  0  0  0  0  0  0
   10.4323   -5.3494   20.3516 C   0  0  0  0  0  0  0  0  0  0  0  0
    7.1156   -7.5454   16.8218 C   0  0  0  0  0  0  0  0  0  0  0  0
   10.3885   -4.4388   19.2773 C   0  0  0  0  0  0  0  0  0  0  0  0
    4.5160   -9.3822   15.0841 C   0  0  0  0  0  0  0  0  0  0  0  0
  1  3  4  0
  1 24  4  0
  2  6  4  0
  2 15  4  0
  3  5  4  0
  3  6  4  0
  4 21  4  0
  4 29  4  0
  5 15  4  0
  5 28  1  0
  6 16  4  0
  7 18  4  0
  7 26  4  0
  8 18  1  0
  8 19  4  0
  8 22  4  0
  9 12  4  0
  9 19  4  0
 10 12  4  0
 10 22  4  0
 11 20  4  0
 11 21  4  0
 12 23  1  0
 13 20  4  0
 13 29  4  0
 14 17  4  0
 14 28  4  0
 15 25  2  0
 16 27  4  0
 17 18  4  0
 20 27  1  0
 24 27  4  0
 26 28  4  0
M  END
$$$$

 Created by Python create_sdf_string function

 29 33  0  0  0  0  0  0  0  0999 V2000
    8.8270   -7.0288   18.4251 C   0  0  0  0  0  0  0  0  0  0  0  0
    9.1576   -4.6236   15.8860 O   0  0  0  0  0  0  0  0  0  0  0  0
    9.1509   -5.9108   17.7177 C   0  0  0  0  0  0  0  0  0  0  0  0
    3.6373   -9.5349   16.0582 N   0  0  0  0  0  0  0  0  0  0  0  0
    9.9275   -4.8001   18.0438 N   0  0  0  0  0  0  0  0  0  0  0  0
    8.5908   -5.7425   16.4412 C   0  0  0  0  0  0  0  0  0  0  0  0
   10.5993   -4.8981   21.6068 C   0  0  0  0  0  0  0  0  0  0  0  0
   10.4258   -3.0106   23.0998 C   0  0  0  0  0  0  0  0  0  0  0  0
   10.2148   -3.4364   25.4200 C   0  0  0  0  0  0  0  0  0  0  0  0
    9.7853   -1.1840   24.4927 C   0  0  0  0  0  0  0  0  0  0  0  0
    5.0276   -8.5227   17.5352 C   0  0  0  0  0  0  0  0  0  0  0  0
    9.8187   -2.0895   25.5800 C   0  0  0  0  0  0  0  0  0  0  0  0
    5.6473   -8.7216   15.3158 C   0  0  0  0  0  0  0  0  0  0  0  0
   10.7581   -3.1233   19.4720 N   0  0  0  0  0  0  0  0  0  0  0  0
    9.9571   -4.0573   16.8866 C   0  0  0  0  0  0  0  0  0  0  0  0
    7.6213   -6.5618   16.0087 C   0  0  0  0  0  0  0  0  0  0  0  0
   10.8583   -2.6527   20.7222 C   0  0  0  0  0  0  0  0  0  0  0  0
   10.6412   -3.5089   21.7936 C   0  0  0  0  0  0  0  0  0  0  0  0
   10.4972   -3.8968   24.1589 C   0  0  0  0  0  0  0  0  0  0  0  0
    5.9260   -8.2736   16.5517 C   0  0  0  0  0  0  0  0  0  0  0  0
    3.8816   -9.1166   17.2493 C   0  0  0  0  0  0  0  0  0  0  0  0
   10.1297   -1.6575   23.2324 C   0  0  0  0  0  0  0  0  0  0  0  0
    9.4684   -1.6929   26.7263 F   0  0  0  0  0  0  0  0  0  0  0  0
    7.7963   -7.7906   17.9837 C   0  0  0  0  0  0  0  0  0  0  0  0
   10.5884   -3.0725   16.7902 O   0  0  0  0  0  0  0  0  0  0  0  0
   10.4323   -5.3494   20.3516 C   0  0  0  0  0  0  0  0  0  0  0  0
    7.1156   -7.5454   16.8218 C   0  0  0  0  0  0  0  0  0  0  0  0
   10.3885   -4.4388   19.2773 C   0  0  0  0  0  0  0  0  0  0  0  0
    4.5160   -9.3822   15.0841 C   0  0  0  0  0  0  0  0  0  0  0  0
  1  3  4  0
  1 24  4  0
  2  6  4  0
  2 15  4  0
  3  5  4  0
  3  6  4  0
  4 21  4  0
  4 29  4  0
  5 15  4  0
  5 28  1  0
  6 16  4  0
  7 18  4  0
  7 26  4  0
  8 18  1  0
  8 19  4  0
  8 22  4  0
  9 12  4  0
  9 19  4  0
 10 12  4  0
 10 22  4  0
 11 20  4  0
 11 21  4  0
 12 23  1  0
 13 20  4  0
 13 29  4  0
 14 17  4  0
 14 28  4  0
 15 25  2  0
 16 27  4  0
 17 18  4  0
 20 27  1  0
 24 27  4  0
 26 28  4  0
M  END
$$$$

 Created by Python create_sdf_string function

 29 33  0  0  0  0  0  0  0  0999 V2000
    8.8270   -7.0288   18.4251 C   0  0  0  0  0  0  0  0  0  0  0  0
    9.1576   -4.6236   15.8860 O   0  0  0  0  0  0  0  0  0  0  0  0
    9.1509   -5.9108   17.7177 C   0  0  0  0  0  0  0  0  0  0  0  0
    3.6373   -9.5349   16.0582 N   0  0  0  0  0  0  0  0  0  0  0  0
    9.9275   -4.8001   18.0438 N   0  0  0  0  0  0  0  0  0  0  0  0
    8.5908   -5.7425   16.4412 C   0  0  0  0  0  0  0  0  0  0  0  0
   10.5993   -4.8981   21.6068 C   0  0  0  0  0  0  0  0  0  0  0  0
   10.4258   -3.0106   23.0998 C   0  0  0  0  0  0  0  0  0  0  0  0
   10.2148   -3.4364   25.4200 C   0  0  0  0  0  0  0  0  0  0  0  0
    9.7853   -1.1840   24.4927 C   0  0  0  0  0  0  0  0  0  0  0  0
    5.0276   -8.5227   17.5352 C   0  0  0  0  0  0  0  0  0  0  0  0
    9.8187   -2.0895   25.5800 C   0  0  0  0  0  0  0  0  0  0  0  0
    5.6473   -8.7216   15.3158 C   0  0  0  0  0  0  0  0  0  0  0  0
   10.7581   -3.1233   19.4720 N   0  0  0  0  0  0  0  0  0  0  0  0
    9.9571   -4.0573   16.8866 C   0  0  0  0  0  0  0  0  0  0  0  0
    7.6213   -6.5618   16.0087 C   0  0  0  0  0  0  0  0  0  0  0  0
   10.8583   -2.6527   20.7222 C   0  0  0  0  0  0  0  0  0  0  0  0
   10.6412   -3.5089   21.7936 C   0  0  0  0  0  0  0  0  0  0  0  0
   10.4972   -3.8968   24.1589 C   0  0  0  0  0  0  0  0  0  0  0  0
    5.9260   -8.2736   16.5517 C   0  0  0  0  0  0  0  0  0  0  0  0
    3.8816   -9.1166   17.2493 C   0  0  0  0  0  0  0  0  0  0  0  0
   10.1297   -1.6575   23.2324 C   0  0  0  0  0  0  0  0  0  0  0  0
    9.4684   -1.6929   26.7263 F   0  0  0  0  0  0  0  0  0  0  0  0
    7.7963   -7.7906   17.9837 C   0  0  0  0  0  0  0  0  0  0  0  0
   10.5884   -3.0725   16.7902 O   0  0  0  0  0  0  0  0  0  0  0  0
   10.4323   -5.3494   20.3516 C   0  0  0  0  0  0  0  0  0  0  0  0
    7.1156   -7.5454   16.8218 C   0  0  0  0  0  0  0  0  0  0  0  0
   10.3885   -4.4388   19.2773 C   0  0  0  0  0  0  0  0  0  0  0  0
    4.5160   -9.3822   15.0841 C   0  0  0  0  0  0  0  0  0  0  0  0
  1  3  4  0
  1 24  4  0
  2  6  4  0
  2 15  4  0
  3  5  4  0
  3  6  4  0
  4 21  4  0
  4 29  4  0
  5 15  4  0
  5 28  1  0
  6 16  4  0
  7 18  4  0
  7 26  4  0
  8 18  1  0
  8 19  4  0
  8 22  4  0
  9 12  4  0
  9 19  4  0
 10 12  4  0
 10 22  4  0
 11 20  4  0
 11 21  4  0
 12 23  1  0
 13 20  4  0
 13 29  4  0
 14 17  4  0
 14 28  4  0
 15 25  2  0
 16 27  4  0
 17 18  4  0
 20 27  1  0
 24 27  4  0
 26 28  4  0
M  END
$$$$

 Created by Python create_sdf_string function

 29 33  0  0  0  0  0  0  0  0999 V2000
    8.8270   -7.0288   18.4251 C   0  0  0  0  0  0  0  0  0  0  0  0
    9.1576   -4.6236   15.8860 O   0  0  0  0  0  0  0  0  0  0  0  0
    9.1509   -5.9108   17.7177 C   0  0  0  0  0  0  0  0  0  0  0  0
    3.6373   -9.5349   16.0582 N   0  0  0  0  0  0  0  0  0  0  0  0
    9.9275   -4.8001   18.0438 N   0  0  0  0  0  0  0  0  0  0  0  0
    8.5908   -5.7425   16.4412 C   0  0  0  0  0  0  0  0  0  0  0  0
   10.5993   -4.8981   21.6068 C   0  0  0  0  0  0  0  0  0  0  0  0
   10.4258   -3.0106   23.0998 C   0  0  0  0  0  0  0  0  0  0  0  0
   10.2148   -3.4364   25.4200 C   0  0  0  0  0  0  0  0  0  0  0  0
    9.7853   -1.1840   24.4927 C   0  0  0  0  0  0  0  0  0  0  0  0
    5.0276   -8.5227   17.5352 C   0  0  0  0  0  0  0  0  0  0  0  0
    9.8187   -2.0895   25.5800 C   0  0  0  0  0  0  0  0  0  0  0  0
    5.6473   -8.7216   15.3158 C   0  0  0  0  0  0  0  0  0  0  0  0
   10.7581   -3.1233   19.4720 N   0  0  0  0  0  0  0  0  0  0  0  0
    9.9571   -4.0573   16.8866 C   0  0  0  0  0  0  0  0  0  0  0  0
    7.6213   -6.5618   16.0087 C   0  0  0  0  0  0  0  0  0  0  0  0
   10.8583   -2.6527   20.7222 C   0  0  0  0  0  0  0  0  0  0  0  0
   10.6412   -3.5089   21.7936 C   0  0  0  0  0  0  0  0  0  0  0  0
   10.4972   -3.8968   24.1589 C   0  0  0  0  0  0  0  0  0  0  0  0
    5.9260   -8.2736   16.5517 C   0  0  0  0  0  0  0  0  0  0  0  0
    3.8816   -9.1166   17.2493 C   0  0  0  0  0  0  0  0  0  0  0  0
   10.1297   -1.6575   23.2324 C   0  0  0  0  0  0  0  0  0  0  0  0
    9.4684   -1.6929   26.7263 F   0  0  0  0  0  0  0  0  0  0  0  0
    7.7963   -7.7906   17.9837 C   0  0  0  0  0  0  0  0  0  0  0  0
   10.5884   -3.0725   16.7902 O   0  0  0  0  0  0  0  0  0  0  0  0
   10.4323   -5.3494   20.3516 C   0  0  0  0  0  0  0  0  0  0  0  0
    7.1156   -7.5454   16.8218 C   0  0  0  0  0  0  0  0  0  0  0  0
   10.3885   -4.4388   19.2773 C   0  0  0  0  0  0  0  0  0  0  0  0
    4.5160   -9.3822   15.0841 C   0  0  0  0  0  0  0  0  0  0  0  0
  1  3  4  0
  1 24  4  0
  2  6  4  0
  2 15  4  0
  3  5  4  0
  3  6  4  0
  4 21  4  0
  4 29  4  0
  5 15  4  0
  5 28  1  0
  6 16  4  0
  7 18  4  0
  7 26  4  0
  8 18  1  0
  8 19  4  0
  8 22  4  0
  9 12  4  0
  9 19  4  0
 10 12  4  0
 10 22  4  0
 11 20  4  0
 11 21  4  0
 12 23  1  0
 13 20  4  0
 13 29  4  0
 14 17  4  0
 14 28  4  0
 15 25  2  0
 16 27  4  0
 17 18  4  0
 20 27  1  0
 24 27  4  0
 26 28  4  0
M  END
$$$$

 Created by Python create_sdf_string function

 29 33  0  0  0  0  0  0  0  0999 V2000
    8.8270   -7.0288   18.4251 C   0  0  0  0  0  0  0  0  0  0  0  0
    9.1576   -4.6236   15.8860 O   0  0  0  0  0  0  0  0  0  0  0  0
    9.1509   -5.9108   17.7177 C   0  0  0  0  0  0  0  0  0  0  0  0
    3.6373   -9.5349   16.0582 N   0  0  0  0  0  0  0  0  0  0  0  0
    9.9275   -4.8001   18.0438 N   0  0  0  0  0  0  0  0  0  0  0  0
    8.5908   -5.7425   16.4412 C   0  0  0  0  0  0  0  0  0  0  0  0
   10.5993   -4.8981   21.6068 C   0  0  0  0  0  0  0  0  0  0  0  0
   10.4258   -3.0106   23.0998 C   0  0  0  0  0  0  0  0  0  0  0  0
   10.2148   -3.4364   25.4200 C   0  0  0  0  0  0  0  0  0  0  0  0
    9.7853   -1.1840   24.4927 C   0  0  0  0  0  0  0  0  0  0  0  0
    5.0276   -8.5227   17.5352 C   0  0  0  0  0  0  0  0  0  0  0  0
    9.8187   -2.0895   25.5800 C   0  0  0  0  0  0  0  0  0  0  0  0
    5.6473   -8.7216   15.3158 C   0  0  0  0  0  0  0  0  0  0  0  0
   10.7581   -3.1233   19.4720 N   0  0  0  0  0  0  0  0  0  0  0  0
    9.9571   -4.0573   16.8866 C   0  0  0  0  0  0  0  0  0  0  0  0
    7.6213   -6.5618   16.0087 C   0  0  0  0  0  0  0  0  0  0  0  0
   10.8583   -2.6527   20.7222 C   0  0  0  0  0  0  0  0  0  0  0  0
   10.6412   -3.5089   21.7936 C   0  0  0  0  0  0  0  0  0  0  0  0
   10.4972   -3.8968   24.1589 C   0  0  0  0  0  0  0  0  0  0  0  0
    5.9260   -8.2736   16.5517 C   0  0  0  0  0  0  0  0  0  0  0  0
    3.8816   -9.1166   17.2493 C   0  0  0  0  0  0  0  0  0  0  0  0
   10.1297   -1.6575   23.2324 C   0  0  0  0  0  0  0  0  0  0  0  0
    9.4684   -1.6929   26.7263 F   0  0  0  0  0  0  0  0  0  0  0  0
    7.7963   -7.7906   17.9837 C   0  0  0  0  0  0  0  0  0  0  0  0
   10.5884   -3.0725   16.7902 O   0  0  0  0  0  0  0  0  0  0  0  0
   10.4323   -5.3494   20.3516 C   0  0  0  0  0  0  0  0  0  0  0  0
    7.1156   -7.5454   16.8218 C   0  0  0  0  0  0  0  0  0  0  0  0
   10.3885   -4.4388   19.2773 C   0  0  0  0  0  0  0  0  0  0  0  0
    4.5160   -9.3822   15.0841 C   0  0  0  0  0  0  0  0  0  0  0  0
  1  3  4  0
  1 24  4  0
  2  6  4  0
  2 15  4  0
  3  5  4  0
  3  6  4  0
  4 21  4  0
  4 29  4  0
  5 15  4  0
  5 28  1  0
  6 16  4  0
  7 18  4  0
  7 26  4  0
  8 18  1  0
  8 19  4  0
  8 22  4  0
  9 12  4  0
  9 19  4  0
 10 12  4  0
 10 22  4  0
 11 20  4  0
 11 21  4  0
 12 23  1  0
 13 20  4  0
 13 29  4  0
 14 17  4  0
 14 28  4  0
 15 25  2  0
 16 27  4  0
 17 18  4  0
 20 27  1  0
 24 27  4  0
 26 28  4  0
M  END
$$$$

 Created by Python create_sdf_string function

 29 33  0  0  0  0  0  0  0  0999 V2000
    8.8270   -7.0288   18.4251 C   0  0  0  0  0  0  0  0  0  0  0  0
    9.1576   -4.6236   15.8860 O   0  0  0  0  0  0  0  0  0  0  0  0
    9.1509   -5.9108   17.7177 C   0  0  0  0  0  0  0  0  0  0  0  0
    3.6373   -9.5349   16.0582 N   0  0  0  0  0  0  0  0  0  0  0  0
    9.9275   -4.8001   18.0438 N   0  0  0  0  0  0  0  0  0  0  0  0
    8.5908   -5.7425   16.4412 C   0  0  0  0  0  0  0  0  0  0  0  0
   10.5993   -4.8981   21.6068 C   0  0  0  0  0  0  0  0  0  0  0  0
   10.4258   -3.0106   23.0998 C   0  0  0  0  0  0  0  0  0  0  0  0
   10.2148   -3.4364   25.4200 C   0  0  0  0  0  0  0  0  0  0  0  0
    9.7853   -1.1840   24.4927 C   0  0  0  0  0  0  0  0  0  0  0  0
    5.0276   -8.5227   17.5352 C   0  0  0  0  0  0  0  0  0  0  0  0
    9.8187   -2.0895   25.5800 C   0  0  0  0  0  0  0  0  0  0  0  0
    5.6473   -8.7216   15.3158 C   0  0  0  0  0  0  0  0  0  0  0  0
   10.7581   -3.1233   19.4720 N   0  0  0  0  0  0  0  0  0  0  0  0
    9.9571   -4.0573   16.8866 C   0  0  0  0  0  0  0  0  0  0  0  0
    7.6213   -6.5618   16.0087 C   0  0  0  0  0  0  0  0  0  0  0  0
   10.8583   -2.6527   20.7222 C   0  0  0  0  0  0  0  0  0  0  0  0
   10.6412   -3.5089   21.7936 C   0  0  0  0  0  0  0  0  0  0  0  0
   10.4972   -3.8968   24.1589 C   0  0  0  0  0  0  0  0  0  0  0  0
    5.9260   -8.2736   16.5517 C   0  0  0  0  0  0  0  0  0  0  0  0
    3.8816   -9.1166   17.2493 C   0  0  0  0  0  0  0  0  0  0  0  0
   10.1297   -1.6575   23.2324 C   0  0  0  0  0  0  0  0  0  0  0  0
    9.4684   -1.6929   26.7263 F   0  0  0  0  0  0  0  0  0  0  0  0
    7.7963   -7.7906   17.9837 C   0  0  0  0  0  0  0  0  0  0  0  0
   10.5884   -3.0725   16.7902 O   0  0  0  0  0  0  0  0  0  0  0  0
   10.4323   -5.3494   20.3516 C   0  0  0  0  0  0  0  0  0  0  0  0
    7.1156   -7.5454   16.8218 C   0  0  0  0  0  0  0  0  0  0  0  0
   10.3885   -4.4388   19.2773 C   0  0  0  0  0  0  0  0  0  0  0  0
    4.5160   -9.3822   15.0841 C   0  0  0  0  0  0  0  0  0  0  0  0
  1  3  4  0
  1 24  4  0
  2  6  4  0
  2 15  4  0
  3  5  4  0
  3  6  4  0
  4 21  4  0
  4 29  4  0
  5 15  4  0
  5 28  1  0
  6 16  4  0
  7 18  4  0
  7 26  4  0
  8 18  1  0
  8 19  4  0
  8 22  4  0
  9 12  4  0
  9 19  4  0
 10 12  4  0
 10 22  4  0
 11 20  4  0
 11 21  4  0
 12 23  1  0
 13 20  4  0
 13 29  4  0
 14 17  4  0
 14 28  4  0
 15 25  2  0
 16 27  4  0
 17 18  4  0
 20 27  1  0
 24 27  4  0
 26 28  4  0
M  END
$$$$

 Created by Python create_sdf_string function

 29 33  0  0  0  0  0  0  0  0999 V2000
    8.8270   -7.0288   18.4251 C   0  0  0  0  0  0  0  0  0  0  0  0
    9.1576   -4.6236   15.8860 O   0  0  0  0  0  0  0  0  0  0  0  0
    9.1509   -5.9108   17.7177 C   0  0  0  0  0  0  0  0  0  0  0  0
    3.6373   -9.5349   16.0582 N   0  0  0  0  0  0  0  0  0  0  0  0
    9.9275   -4.8001   18.0438 N   0  0  0  0  0  0  0  0  0  0  0  0
    8.5908   -5.7425   16.4412 C   0  0  0  0  0  0  0  0  0  0  0  0
   10.5993   -4.8981   21.6068 C   0  0  0  0  0  0  0  0  0  0  0  0
   10.4258   -3.0106   23.0998 C   0  0  0  0  0  0  0  0  0  0  0  0
   10.2148   -3.4364   25.4200 C   0  0  0  0  0  0  0  0  0  0  0  0
    9.7853   -1.1840   24.4927 C   0  0  0  0  0  0  0  0  0  0  0  0
    5.0276   -8.5227   17.5352 C   0  0  0  0  0  0  0  0  0  0  0  0
    9.8187   -2.0895   25.5800 C   0  0  0  0  0  0  0  0  0  0  0  0
    5.6473   -8.7216   15.3158 C   0  0  0  0  0  0  0  0  0  0  0  0
   10.7581   -3.1233   19.4720 N   0  0  0  0  0  0  0  0  0  0  0  0
    9.9571   -4.0573   16.8866 C   0  0  0  0  0  0  0  0  0  0  0  0
    7.6213   -6.5618   16.0087 C   0  0  0  0  0  0  0  0  0  0  0  0
   10.8583   -2.6527   20.7222 C   0  0  0  0  0  0  0  0  0  0  0  0
   10.6412   -3.5089   21.7936 C   0  0  0  0  0  0  0  0  0  0  0  0
   10.4972   -3.8968   24.1589 C   0  0  0  0  0  0  0  0  0  0  0  0
    5.9260   -8.2736   16.5517 C   0  0  0  0  0  0  0  0  0  0  0  0
    3.8816   -9.1166   17.2493 C   0  0  0  0  0  0  0  0  0  0  0  0
   10.1297   -1.6575   23.2324 C   0  0  0  0  0  0  0  0  0  0  0  0
    9.4684   -1.6929   26.7263 F   0  0  0  0  0  0  0  0  0  0  0  0
    7.7963   -7.7906   17.9837 C   0  0  0  0  0  0  0  0  0  0  0  0
   10.5884   -3.0725   16.7902 O   0  0  0  0  0  0  0  0  0  0  0  0
   10.4323   -5.3494   20.3516 C   0  0  0  0  0  0  0  0  0  0  0  0
    7.1156   -7.5454   16.8218 C   0  0  0  0  0  0  0  0  0  0  0  0
   10.3885   -4.4388   19.2773 C   0  0  0  0  0  0  0  0  0  0  0  0
    4.5160   -9.3822   15.0841 C   0  0  0  0  0  0  0  0  0  0  0  0
  1  3  4  0
  1 24  4  0
  2  6  4  0
  2 15  4  0
  3  5  4  0
  3  6  4  0
  4 21  4  0
  4 29  4  0
  5 15  4  0
  5 28  1  0
  6 16  4  0
  7 18  4  0
  7 26  4  0
  8 18  1  0
  8 19  4  0
  8 22  4  0
  9 12  4  0
  9 19  4  0
 10 12  4  0
 10 22  4  0
 11 20  4  0
 11 21  4  0
 12 23  1  0
 13 20  4  0
 13 29  4  0
 14 17  4  0
 14 28  4  0
 15 25  2  0
 16 27  4  0
 17 18  4  0
 20 27  1  0
 24 27  4  0
 26 28  4  0
M  END
$$$$

 Created by Python create_sdf_string function

 29 33  0  0  0  0  0  0  0  0999 V2000
    8.8270   -7.0288   18.4251 C   0  0  0  0  0  0  0  0  0  0  0  0
    9.1576   -4.6236   15.8860 O   0  0  0  0  0  0  0  0  0  0  0  0
    9.1509   -5.9108   17.7177 C   0  0  0  0  0  0  0  0  0  0  0  0
    3.6373   -9.5349   16.0582 N   0  0  0  0  0  0  0  0  0  0  0  0
    9.9275   -4.8001   18.0438 N   0  0  0  0  0  0  0  0  0  0  0  0
    8.5908   -5.7425   16.4412 C   0  0  0  0  0  0  0  0  0  0  0  0
   10.5993   -4.8981   21.6068 C   0  0  0  0  0  0  0  0  0  0  0  0
   10.4258   -3.0106   23.0998 C   0  0  0  0  0  0  0  0  0  0  0  0
   10.2148   -3.4364   25.4200 C   0  0  0  0  0  0  0  0  0  0  0  0
    9.7853   -1.1840   24.4927 C   0  0  0  0  0  0  0  0  0  0  0  0
    5.0276   -8.5227   17.5352 C   0  0  0  0  0  0  0  0  0  0  0  0
    9.8187   -2.0895   25.5800 C   0  0  0  0  0  0  0  0  0  0  0  0
    5.6473   -8.7216   15.3158 C   0  0  0  0  0  0  0  0  0  0  0  0
   10.7581   -3.1233   19.4720 N   0  0  0  0  0  0  0  0  0  0  0  0
    9.9571   -4.0573   16.8866 C   0  0  0  0  0  0  0  0  0  0  0  0
    7.6213   -6.5618   16.0087 C   0  0  0  0  0  0  0  0  0  0  0  0
   10.8583   -2.6527   20.7222 C   0  0  0  0  0  0  0  0  0  0  0  0
   10.6412   -3.5089   21.7936 C   0  0  0  0  0  0  0  0  0  0  0  0
   10.4972   -3.8968   24.1589 C   0  0  0  0  0  0  0  0  0  0  0  0
    5.9260   -8.2736   16.5517 C   0  0  0  0  0  0  0  0  0  0  0  0
    3.8816   -9.1166   17.2493 C   0  0  0  0  0  0  0  0  0  0  0  0
   10.1297   -1.6575   23.2324 C   0  0  0  0  0  0  0  0  0  0  0  0
    9.4684   -1.6929   26.7263 F   0  0  0  0  0  0  0  0  0  0  0  0
    7.7963   -7.7906   17.9837 C   0  0  0  0  0  0  0  0  0  0  0  0
   10.5884   -3.0725   16.7902 O   0  0  0  0  0  0  0  0  0  0  0  0
   10.4323   -5.3494   20.3516 C   0  0  0  0  0  0  0  0  0  0  0  0
    7.1156   -7.5454   16.8218 C   0  0  0  0  0  0  0  0  0  0  0  0
   10.3885   -4.4388   19.2773 C   0  0  0  0  0  0  0  0  0  0  0  0
    4.5160   -9.3822   15.0841 C   0  0  0  0  0  0  0  0  0  0  0  0
  1  3  4  0
  1 24  4  0
  2  6  4  0
  2 15  4  0
  3  5  4  0
  3  6  4  0
  4 21  4  0
  4 29  4  0
  5 15  4  0
  5 28  1  0
  6 16  4  0
  7 18  4  0
  7 26  4  0
  8 18  1  0
  8 19  4  0
  8 22  4  0
  9 12  4  0
  9 19  4  0
 10 12  4  0
 10 22  4  0
 11 20  4  0
 11 21  4  0
 12 23  1  0
 13 20  4  0
 13 29  4  0
 14 17  4  0
 14 28  4  0
 15 25  2  0
 16 27  4  0
 17 18  4  0
 20 27  1  0
 24 27  4  0
 26 28  4  0
M  END
$$$$

 Created by Python create_sdf_string function

 29 33  0  0  0  0  0  0  0  0999 V2000
    8.8270   -7.0288   18.4251 C   0  0  0  0  0  0  0  0  0  0  0  0
    9.1576   -4.6236   15.8860 O   0  0  0  0  0  0  0  0  0  0  0  0
    9.1509   -5.9108   17.7177 C   0  0  0  0  0  0  0  0  0  0  0  0
    3.6373   -9.5349   16.0582 N   0  0  0  0  0  0  0  0  0  0  0  0
    9.9275   -4.8001   18.0438 N   0  0  0  0  0  0  0  0  0  0  0  0
    8.5908   -5.7425   16.4412 C   0  0  0  0  0  0  0  0  0  0  0  0
   10.5993   -4.8981   21.6068 C   0  0  0  0  0  0  0  0  0  0  0  0
   10.4258   -3.0106   23.0998 C   0  0  0  0  0  0  0  0  0  0  0  0
   10.2148   -3.4364   25.4200 C   0  0  0  0  0  0  0  0  0  0  0  0
    9.7853   -1.1840   24.4927 C   0  0  0  0  0  0  0  0  0  0  0  0
    5.0276   -8.5227   17.5352 C   0  0  0  0  0  0  0  0  0  0  0  0
    9.8187   -2.0895   25.5800 C   0  0  0  0  0  0  0  0  0  0  0  0
    5.6473   -8.7216   15.3158 C   0  0  0  0  0  0  0  0  0  0  0  0
   10.7581   -3.1233   19.4720 N   0  0  0  0  0  0  0  0  0  0  0  0
    9.9571   -4.0573   16.8866 C   0  0  0  0  0  0  0  0  0  0  0  0
    7.6213   -6.5618   16.0087 C   0  0  0  0  0  0  0  0  0  0  0  0
   10.8583   -2.6527   20.7222 C   0  0  0  0  0  0  0  0  0  0  0  0
   10.6412   -3.5089   21.7936 C   0  0  0  0  0  0  0  0  0  0  0  0
   10.4972   -3.8968   24.1589 C   0  0  0  0  0  0  0  0  0  0  0  0
    5.9260   -8.2736   16.5517 C   0  0  0  0  0  0  0  0  0  0  0  0
    3.8816   -9.1166   17.2493 C   0  0  0  0  0  0  0  0  0  0  0  0
   10.1297   -1.6575   23.2324 C   0  0  0  0  0  0  0  0  0  0  0  0
    9.4684   -1.6929   26.7263 F   0  0  0  0  0  0  0  0  0  0  0  0
    7.7963   -7.7906   17.9837 C   0  0  0  0  0  0  0  0  0  0  0  0
   10.5884   -3.0725   16.7902 O   0  0  0  0  0  0  0  0  0  0  0  0
   10.4323   -5.3494   20.3516 C   0  0  0  0  0  0  0  0  0  0  0  0
    7.1156   -7.5454   16.8218 C   0  0  0  0  0  0  0  0  0  0  0  0
   10.3885   -4.4388   19.2773 C   0  0  0  0  0  0  0  0  0  0  0  0
    4.5160   -9.3822   15.0841 C   0  0  0  0  0  0  0  0  0  0  0  0
  1  3  4  0
  1 24  4  0
  2  6  4  0
  2 15  4  0
  3  5  4  0
  3  6  4  0
  4 21  4  0
  4 29  4  0
  5 15  4  0
  5 28  1  0
  6 16  4  0
  7 18  4  0
  7 26  4  0
  8 18  1  0
  8 19  4  0
  8 22  4  0
  9 12  4  0
  9 19  4  0
 10 12  4  0
 10 22  4  0
 11 20  4  0
 11 21  4  0
 12 23  1  0
 13 20  4  0
 13 29  4  0
 14 17  4  0
 14 28  4  0
 15 25  2  0
 16 27  4  0
 17 18  4  0
 20 27  1  0
 24 27  4  0
 26 28  4  0
M  END
$$$$

 Created by Python create_sdf_string function

 29 33  0  0  0  0  0  0  0  0999 V2000
    8.8270   -7.0288   18.4251 C   0  0  0  0  0  0  0  0  0  0  0  0
    9.1576   -4.6236   15.8860 O   0  0  0  0  0  0  0  0  0  0  0  0
    9.1509   -5.9108   17.7177 C   0  0  0  0  0  0  0  0  0  0  0  0
    3.6373   -9.5349   16.0582 N   0  0  0  0  0  0  0  0  0  0  0  0
    9.9275   -4.8001   18.0438 N   0  0  0  0  0  0  0  0  0  0  0  0
    8.5908   -5.7425   16.4412 C   0  0  0  0  0  0  0  0  0  0  0  0
   10.5993   -4.8981   21.6068 C   0  0  0  0  0  0  0  0  0  0  0  0
   10.4258   -3.0106   23.0998 C   0  0  0  0  0  0  0  0  0  0  0  0
   10.2148   -3.4364   25.4200 C   0  0  0  0  0  0  0  0  0  0  0  0
    9.7853   -1.1840   24.4927 C   0  0  0  0  0  0  0  0  0  0  0  0
    5.0276   -8.5227   17.5352 C   0  0  0  0  0  0  0  0  0  0  0  0
    9.8187   -2.0895   25.5800 C   0  0  0  0  0  0  0  0  0  0  0  0
    5.6473   -8.7216   15.3158 C   0  0  0  0  0  0  0  0  0  0  0  0
   10.7581   -3.1233   19.4720 N   0  0  0  0  0  0  0  0  0  0  0  0
    9.9571   -4.0573   16.8866 C   0  0  0  0  0  0  0  0  0  0  0  0
    7.6213   -6.5618   16.0087 C   0  0  0  0  0  0  0  0  0  0  0  0
   10.8583   -2.6527   20.7222 C   0  0  0  0  0  0  0  0  0  0  0  0
   10.6412   -3.5089   21.7936 C   0  0  0  0  0  0  0  0  0  0  0  0
   10.4972   -3.8968   24.1589 C   0  0  0  0  0  0  0  0  0  0  0  0
    5.9260   -8.2736   16.5517 C   0  0  0  0  0  0  0  0  0  0  0  0
    3.8816   -9.1166   17.2493 C   0  0  0  0  0  0  0  0  0  0  0  0
   10.1297   -1.6575   23.2324 C   0  0  0  0  0  0  0  0  0  0  0  0
    9.4684   -1.6929   26.7263 F   0  0  0  0  0  0  0  0  0  0  0  0
    7.7963   -7.7906   17.9837 C   0  0  0  0  0  0  0  0  0  0  0  0
   10.5884   -3.0725   16.7902 O   0  0  0  0  0  0  0  0  0  0  0  0
   10.4323   -5.3494   20.3516 C   0  0  0  0  0  0  0  0  0  0  0  0
    7.1156   -7.5454   16.8218 C   0  0  0  0  0  0  0  0  0  0  0  0
   10.3885   -4.4388   19.2773 C   0  0  0  0  0  0  0  0  0  0  0  0
    4.5160   -9.3822   15.0841 C   0  0  0  0  0  0  0  0  0  0  0  0
  1  3  4  0
  1 24  4  0
  2  6  4  0
  2 15  4  0
  3  5  4  0
  3  6  4  0
  4 21  4  0
  4 29  4  0
  5 15  4  0
  5 28  1  0
  6 16  4  0
  7 18  4  0
  7 26  4  0
  8 18  1  0
  8 19  4  0
  8 22  4  0
  9 12  4  0
  9 19  4  0
 10 12  4  0
 10 22  4  0
 11 20  4  0
 11 21  4  0
 12 23  1  0
 13 20  4  0
 13 29  4  0
 14 17  4  0
 14 28  4  0
 15 25  2  0
 16 27  4  0
 17 18  4  0
 20 27  1  0
 24 27  4  0
 26 28  4  0
M  END
$$$$

 Created by Python create_sdf_string function

 29 33  0  0  0  0  0  0  0  0999 V2000
    8.8270   -7.0288   18.4251 C   0  0  0  0  0  0  0  0  0  0  0  0
    9.1576   -4.6236   15.8860 O   0  0  0  0  0  0  0  0  0  0  0  0
    9.1509   -5.9108   17.7177 C   0  0  0  0  0  0  0  0  0  0  0  0
    3.6373   -9.5349   16.0582 N   0  0  0  0  0  0  0  0  0  0  0  0
    9.9275   -4.8001   18.0438 N   0  0  0  0  0  0  0  0  0  0  0  0
    8.5908   -5.7425   16.4412 C   0  0  0  0  0  0  0  0  0  0  0  0
   10.5993   -4.8981   21.6068 C   0  0  0  0  0  0  0  0  0  0  0  0
   10.4258   -3.0106   23.0998 C   0  0  0  0  0  0  0  0  0  0  0  0
   10.2148   -3.4364   25.4200 C   0  0  0  0  0  0  0  0  0  0  0  0
    9.7853   -1.1840   24.4927 C   0  0  0  0  0  0  0  0  0  0  0  0
    5.0276   -8.5227   17.5352 C   0  0  0  0  0  0  0  0  0  0  0  0
    9.8187   -2.0895   25.5800 C   0  0  0  0  0  0  0  0  0  0  0  0
    5.6473   -8.7216   15.3158 C   0  0  0  0  0  0  0  0  0  0  0  0
   10.7581   -3.1233   19.4720 N   0  0  0  0  0  0  0  0  0  0  0  0
    9.9571   -4.0573   16.8866 C   0  0  0  0  0  0  0  0  0  0  0  0
    7.6213   -6.5618   16.0087 C   0  0  0  0  0  0  0  0  0  0  0  0
   10.8583   -2.6527   20.7222 C   0  0  0  0  0  0  0  0  0  0  0  0
   10.6412   -3.5089   21.7936 C   0  0  0  0  0  0  0  0  0  0  0  0
   10.4972   -3.8968   24.1589 C   0  0  0  0  0  0  0  0  0  0  0  0
    5.9260   -8.2736   16.5517 C   0  0  0  0  0  0  0  0  0  0  0  0
    3.8816   -9.1166   17.2493 C   0  0  0  0  0  0  0  0  0  0  0  0
   10.1297   -1.6575   23.2324 C   0  0  0  0  0  0  0  0  0  0  0  0
    9.4684   -1.6929   26.7263 F   0  0  0  0  0  0  0  0  0  0  0  0
    7.7963   -7.7906   17.9837 C   0  0  0  0  0  0  0  0  0  0  0  0
   10.5884   -3.0725   16.7902 O   0  0  0  0  0  0  0  0  0  0  0  0
   10.4323   -5.3494   20.3516 C   0  0  0  0  0  0  0  0  0  0  0  0
    7.1156   -7.5454   16.8218 C   0  0  0  0  0  0  0  0  0  0  0  0
   10.3885   -4.4388   19.2773 C   0  0  0  0  0  0  0  0  0  0  0  0
    4.5160   -9.3822   15.0841 C   0  0  0  0  0  0  0  0  0  0  0  0
  1  3  4  0
  1 24  4  0
  2  6  4  0
  2 15  4  0
  3  5  4  0
  3  6  4  0
  4 21  4  0
  4 29  4  0
  5 15  4  0
  5 28  1  0
  6 16  4  0
  7 18  4  0
  7 26  4  0
  8 18  1  0
  8 19  4  0
  8 22  4  0
  9 12  4  0
  9 19  4  0
 10 12  4  0
 10 22  4  0
 11 20  4  0
 11 21  4  0
 12 23  1  0
 13 20  4  0
 13 29  4  0
 14 17  4  0
 14 28  4  0
 15 25  2  0
 16 27  4  0
 17 18  4  0
 20 27  1  0
 24 27  4  0
 26 28  4  0
M  END
$$$$

 Created by Python create_sdf_string function

 29 33  0  0  0  0  0  0  0  0999 V2000
    8.8270   -7.0288   18.4251 C   0  0  0  0  0  0  0  0  0  0  0  0
    9.1576   -4.6236   15.8860 O   0  0  0  0  0  0  0  0  0  0  0  0
    9.1509   -5.9108   17.7177 C   0  0  0  0  0  0  0  0  0  0  0  0
    3.6373   -9.5349   16.0582 N   0  0  0  0  0  0  0  0  0  0  0  0
    9.9275   -4.8001   18.0438 N   0  0  0  0  0  0  0  0  0  0  0  0
    8.5908   -5.7425   16.4412 C   0  0  0  0  0  0  0  0  0  0  0  0
   10.5993   -4.8981   21.6068 C   0  0  0  0  0  0  0  0  0  0  0  0
   10.4258   -3.0106   23.0998 C   0  0  0  0  0  0  0  0  0  0  0  0
   10.2148   -3.4364   25.4200 C   0  0  0  0  0  0  0  0  0  0  0  0
    9.7853   -1.1840   24.4927 C   0  0  0  0  0  0  0  0  0  0  0  0
    5.0276   -8.5227   17.5352 C   0  0  0  0  0  0  0  0  0  0  0  0
    9.8187   -2.0895   25.5800 C   0  0  0  0  0  0  0  0  0  0  0  0
    5.6473   -8.7216   15.3158 C   0  0  0  0  0  0  0  0  0  0  0  0
   10.7581   -3.1233   19.4720 N   0  0  0  0  0  0  0  0  0  0  0  0
    9.9571   -4.0573   16.8866 C   0  0  0  0  0  0  0  0  0  0  0  0
    7.6213   -6.5618   16.0087 C   0  0  0  0  0  0  0  0  0  0  0  0
   10.8583   -2.6527   20.7222 C   0  0  0  0  0  0  0  0  0  0  0  0
   10.6412   -3.5089   21.7936 C   0  0  0  0  0  0  0  0  0  0  0  0
   10.4972   -3.8968   24.1589 C   0  0  0  0  0  0  0  0  0  0  0  0
    5.9260   -8.2736   16.5517 C   0  0  0  0  0  0  0  0  0  0  0  0
    3.8816   -9.1166   17.2493 C   0  0  0  0  0  0  0  0  0  0  0  0
   10.1297   -1.6575   23.2324 C   0  0  0  0  0  0  0  0  0  0  0  0
    9.4684   -1.6929   26.7263 F   0  0  0  0  0  0  0  0  0  0  0  0
    7.7963   -7.7906   17.9837 C   0  0  0  0  0  0  0  0  0  0  0  0
   10.5884   -3.0725   16.7902 O   0  0  0  0  0  0  0  0  0  0  0  0
   10.4323   -5.3494   20.3516 C   0  0  0  0  0  0  0  0  0  0  0  0
    7.1156   -7.5454   16.8218 C   0  0  0  0  0  0  0  0  0  0  0  0
   10.3885   -4.4388   19.2773 C   0  0  0  0  0  0  0  0  0  0  0  0
    4.5160   -9.3822   15.0841 C   0  0  0  0  0  0  0  0  0  0  0  0
  1  3  4  0
  1 24  4  0
  2  6  4  0
  2 15  4  0
  3  5  4  0
  3  6  4  0
  4 21  4  0
  4 29  4  0
  5 15  4  0
  5 28  1  0
  6 16  4  0
  7 18  4  0
  7 26  4  0
  8 18  1  0
  8 19  4  0
  8 22  4  0
  9 12  4  0
  9 19  4  0
 10 12  4  0
 10 22  4  0
 11 20  4  0
 11 21  4  0
 12 23  1  0
 13 20  4  0
 13 29  4  0
 14 17  4  0
 14 28  4  0
 15 25  2  0
 16 27  4  0
 17 18  4  0
 20 27  1  0
 24 27  4  0
 26 28  4  0
M  END
$$$$

 Created by Python create_sdf_string function

 29 33  0  0  0  0  0  0  0  0999 V2000
    8.8270   -7.0288   18.4251 C   0  0  0  0  0  0  0  0  0  0  0  0
    9.1576   -4.6236   15.8860 O   0  0  0  0  0  0  0  0  0  0  0  0
    9.1509   -5.9108   17.7177 C   0  0  0  0  0  0  0  0  0  0  0  0
    3.6373   -9.5349   16.0582 N   0  0  0  0  0  0  0  0  0  0  0  0
    9.9275   -4.8001   18.0438 N   0  0  0  0  0  0  0  0  0  0  0  0
    8.5908   -5.7425   16.4412 C   0  0  0  0  0  0  0  0  0  0  0  0
   10.5993   -4.8981   21.6068 C   0  0  0  0  0  0  0  0  0  0  0  0
   10.4258   -3.0106   23.0998 C   0  0  0  0  0  0  0  0  0  0  0  0
   10.2148   -3.4364   25.4200 C   0  0  0  0  0  0  0  0  0  0  0  0
    9.7853   -1.1840   24.4927 C   0  0  0  0  0  0  0  0  0  0  0  0
    5.0276   -8.5227   17.5352 C   0  0  0  0  0  0  0  0  0  0  0  0
    9.8187   -2.0895   25.5800 C   0  0  0  0  0  0  0  0  0  0  0  0
    5.6473   -8.7216   15.3158 C   0  0  0  0  0  0  0  0  0  0  0  0
   10.7581   -3.1233   19.4720 N   0  0  0  0  0  0  0  0  0  0  0  0
    9.9571   -4.0573   16.8866 C   0  0  0  0  0  0  0  0  0  0  0  0
    7.6213   -6.5618   16.0087 C   0  0  0  0  0  0  0  0  0  0  0  0
   10.8583   -2.6527   20.7222 C   0  0  0  0  0  0  0  0  0  0  0  0
   10.6412   -3.5089   21.7936 C   0  0  0  0  0  0  0  0  0  0  0  0
   10.4972   -3.8968   24.1589 C   0  0  0  0  0  0  0  0  0  0  0  0
    5.9260   -8.2736   16.5517 C   0  0  0  0  0  0  0  0  0  0  0  0
    3.8816   -9.1166   17.2493 C   0  0  0  0  0  0  0  0  0  0  0  0
   10.1297   -1.6575   23.2324 C   0  0  0  0  0  0  0  0  0  0  0  0
    9.4684   -1.6929   26.7263 F   0  0  0  0  0  0  0  0  0  0  0  0
    7.7963   -7.7906   17.9837 C   0  0  0  0  0  0  0  0  0  0  0  0
   10.5884   -3.0725   16.7902 O   0  0  0  0  0  0  0  0  0  0  0  0
   10.4323   -5.3494   20.3516 C   0  0  0  0  0  0  0  0  0  0  0  0
    7.1156   -7.5454   16.8218 C   0  0  0  0  0  0  0  0  0  0  0  0
   10.3885   -4.4388   19.2773 C   0  0  0  0  0  0  0  0  0  0  0  0
    4.5160   -9.3822   15.0841 C   0  0  0  0  0  0  0  0  0  0  0  0
  1  3  4  0
  1 24  4  0
  2  6  4  0
  2 15  4  0
  3  5  4  0
  3  6  4  0
  4 21  4  0
  4 29  4  0
  5 15  4  0
  5 28  1  0
  6 16  4  0
  7 18  4  0
  7 26  4  0
  8 18  1  0
  8 19  4  0
  8 22  4  0
  9 12  4  0
  9 19  4  0
 10 12  4  0
 10 22  4  0
 11 20  4  0
 11 21  4  0
 12 23  1  0
 13 20  4  0
 13 29  4  0
 14 17  4  0
 14 28  4  0
 15 25  2  0
 16 27  4  0
 17 18  4  0
 20 27  1  0
 24 27  4  0
 26 28  4  0
M  END
$$$$

 Created by Python create_sdf_string function

 29 33  0  0  0  0  0  0  0  0999 V2000
    8.8270   -7.0288   18.4251 C   0  0  0  0  0  0  0  0  0  0  0  0
    9.1576   -4.6236   15.8860 O   0  0  0  0  0  0  0  0  0  0  0  0
    9.1509   -5.9108   17.7177 C   0  0  0  0  0  0  0  0  0  0  0  0
    3.6373   -9.5349   16.0582 N   0  0  0  0  0  0  0  0  0  0  0  0
    9.9275   -4.8001   18.0438 N   0  0  0  0  0  0  0  0  0  0  0  0
    8.5908   -5.7425   16.4412 C   0  0  0  0  0  0  0  0  0  0  0  0
   10.5993   -4.8981   21.6068 C   0  0  0  0  0  0  0  0  0  0  0  0
   10.4258   -3.0106   23.0998 C   0  0  0  0  0  0  0  0  0  0  0  0
   10.2148   -3.4364   25.4200 C   0  0  0  0  0  0  0  0  0  0  0  0
    9.7853   -1.1840   24.4927 C   0  0  0  0  0  0  0  0  0  0  0  0
    5.0276   -8.5227   17.5352 C   0  0  0  0  0  0  0  0  0  0  0  0
    9.8187   -2.0895   25.5800 C   0  0  0  0  0  0  0  0  0  0  0  0
    5.6473   -8.7216   15.3158 C   0  0  0  0  0  0  0  0  0  0  0  0
   10.7581   -3.1233   19.4720 N   0  0  0  0  0  0  0  0  0  0  0  0
    9.9571   -4.0573   16.8866 C   0  0  0  0  0  0  0  0  0  0  0  0
    7.6213   -6.5618   16.0087 C   0  0  0  0  0  0  0  0  0  0  0  0
   10.8583   -2.6527   20.7222 C   0  0  0  0  0  0  0  0  0  0  0  0
   10.6412   -3.5089   21.7936 C   0  0  0  0  0  0  0  0  0  0  0  0
   10.4972   -3.8968   24.1589 C   0  0  0  0  0  0  0  0  0  0  0  0
    5.9260   -8.2736   16.5517 C   0  0  0  0  0  0  0  0  0  0  0  0
    3.8816   -9.1166   17.2493 C   0  0  0  0  0  0  0  0  0  0  0  0
   10.1297   -1.6575   23.2324 C   0  0  0  0  0  0  0  0  0  0  0  0
    9.4684   -1.6929   26.7263 F   0  0  0  0  0  0  0  0  0  0  0  0
    7.7963   -7.7906   17.9837 C   0  0  0  0  0  0  0  0  0  0  0  0
   10.5884   -3.0725   16.7902 O   0  0  0  0  0  0  0  0  0  0  0  0
   10.4323   -5.3494   20.3516 C   0  0  0  0  0  0  0  0  0  0  0  0
    7.1156   -7.5454   16.8218 C   0  0  0  0  0  0  0  0  0  0  0  0
   10.3885   -4.4388   19.2773 C   0  0  0  0  0  0  0  0  0  0  0  0
    4.5160   -9.3822   15.0841 C   0  0  0  0  0  0  0  0  0  0  0  0
  1  3  4  0
  1 24  4  0
  2  6  4  0
  2 15  4  0
  3  5  4  0
  3  6  4  0
  4 21  4  0
  4 29  4  0
  5 15  4  0
  5 28  1  0
  6 16  4  0
  7 18  4  0
  7 26  4  0
  8 18  1  0
  8 19  4  0
  8 22  4  0
  9 12  4  0
  9 19  4  0
 10 12  4  0
 10 22  4  0
 11 20  4  0
 11 21  4  0
 12 23  1  0
 13 20  4  0
 13 29  4  0
 14 17  4  0
 14 28  4  0
 15 25  2  0
 16 27  4  0
 17 18  4  0
 20 27  1  0
 24 27  4  0
 26 28  4  0
M  END
$$$$

 Created by Python create_sdf_string function

 29 33  0  0  0  0  0  0  0  0999 V2000
    8.8270   -7.0288   18.4251 C   0  0  0  0  0  0  0  0  0  0  0  0
    9.1576   -4.6236   15.8860 O   0  0  0  0  0  0  0  0  0  0  0  0
    9.1509   -5.9108   17.7177 C   0  0  0  0  0  0  0  0  0  0  0  0
    3.6373   -9.5349   16.0582 N   0  0  0  0  0  0  0  0  0  0  0  0
    9.9275   -4.8001   18.0438 N   0  0  0  0  0  0  0  0  0  0  0  0
    8.5908   -5.7425   16.4412 C   0  0  0  0  0  0  0  0  0  0  0  0
   10.5993   -4.8981   21.6068 C   0  0  0  0  0  0  0  0  0  0  0  0
   10.4258   -3.0106   23.0998 C   0  0  0  0  0  0  0  0  0  0  0  0
   10.2148   -3.4364   25.4200 C   0  0  0  0  0  0  0  0  0  0  0  0
    9.7853   -1.1840   24.4927 C   0  0  0  0  0  0  0  0  0  0  0  0
    5.0276   -8.5227   17.5352 C   0  0  0  0  0  0  0  0  0  0  0  0
    9.8187   -2.0895   25.5800 C   0  0  0  0  0  0  0  0  0  0  0  0
    5.6473   -8.7216   15.3158 C   0  0  0  0  0  0  0  0  0  0  0  0
   10.7581   -3.1233   19.4720 N   0  0  0  0  0  0  0  0  0  0  0  0
    9.9571   -4.0573   16.8866 C   0  0  0  0  0  0  0  0  0  0  0  0
    7.6213   -6.5618   16.0087 C   0  0  0  0  0  0  0  0  0  0  0  0
   10.8583   -2.6527   20.7222 C   0  0  0  0  0  0  0  0  0  0  0  0
   10.6412   -3.5089   21.7936 C   0  0  0  0  0  0  0  0  0  0  0  0
   10.4972   -3.8968   24.1589 C   0  0  0  0  0  0  0  0  0  0  0  0
    5.9260   -8.2736   16.5517 C   0  0  0  0  0  0  0  0  0  0  0  0
    3.8816   -9.1166   17.2493 C   0  0  0  0  0  0  0  0  0  0  0  0
   10.1297   -1.6575   23.2324 C   0  0  0  0  0  0  0  0  0  0  0  0
    9.4684   -1.6929   26.7263 F   0  0  0  0  0  0  0  0  0  0  0  0
    7.7963   -7.7906   17.9837 C   0  0  0  0  0  0  0  0  0  0  0  0
   10.5884   -3.0725   16.7902 O   0  0  0  0  0  0  0  0  0  0  0  0
   10.4323   -5.3494   20.3516 C   0  0  0  0  0  0  0  0  0  0  0  0
    7.1156   -7.5454   16.8218 C   0  0  0  0  0  0  0  0  0  0  0  0
   10.3885   -4.4388   19.2773 C   0  0  0  0  0  0  0  0  0  0  0  0
    4.5160   -9.3822   15.0841 C   0  0  0  0  0  0  0  0  0  0  0  0
  1  3  4  0
  1 24  4  0
  2  6  4  0
  2 15  4  0
  3  5  4  0
  3  6  4  0
  4 21  4  0
  4 29  4  0
  5 15  4  0
  5 28  1  0
  6 16  4  0
  7 18  4  0
  7 26  4  0
  8 18  1  0
  8 19  4  0
  8 22  4  0
  9 12  4  0
  9 19  4  0
 10 12  4  0
 10 22  4  0
 11 20  4  0
 11 21  4  0
 12 23  1  0
 13 20  4  0
 13 29  4  0
 14 17  4  0
 14 28  4  0
 15 25  2  0
 16 27  4  0
 17 18  4  0
 20 27  1  0
 24 27  4  0
 26 28  4  0
M  END
$$$$

 Created by Python create_sdf_string function

 29 33  0  0  0  0  0  0  0  0999 V2000
    8.8270   -7.0288   18.4251 C   0  0  0  0  0  0  0  0  0  0  0  0
    9.1576   -4.6236   15.8860 O   0  0  0  0  0  0  0  0  0  0  0  0
    9.1509   -5.9108   17.7177 C   0  0  0  0  0  0  0  0  0  0  0  0
    3.6373   -9.5349   16.0582 N   0  0  0  0  0  0  0  0  0  0  0  0
    9.9275   -4.8001   18.0438 N   0  0  0  0  0  0  0  0  0  0  0  0
    8.5908   -5.7425   16.4412 C   0  0  0  0  0  0  0  0  0  0  0  0
   10.5993   -4.8981   21.6068 C   0  0  0  0  0  0  0  0  0  0  0  0
   10.4258   -3.0106   23.0998 C   0  0  0  0  0  0  0  0  0  0  0  0
   10.2148   -3.4364   25.4200 C   0  0  0  0  0  0  0  0  0  0  0  0
    9.7853   -1.1840   24.4927 C   0  0  0  0  0  0  0  0  0  0  0  0
    5.0276   -8.5227   17.5352 C   0  0  0  0  0  0  0  0  0  0  0  0
    9.8187   -2.0895   25.5800 C   0  0  0  0  0  0  0  0  0  0  0  0
    5.6473   -8.7216   15.3158 C   0  0  0  0  0  0  0  0  0  0  0  0
   10.7581   -3.1233   19.4720 N   0  0  0  0  0  0  0  0  0  0  0  0
    9.9571   -4.0573   16.8866 C   0  0  0  0  0  0  0  0  0  0  0  0
    7.6213   -6.5618   16.0087 C   0  0  0  0  0  0  0  0  0  0  0  0
   10.8583   -2.6527   20.7222 C   0  0  0  0  0  0  0  0  0  0  0  0
   10.6412   -3.5089   21.7936 C   0  0  0  0  0  0  0  0  0  0  0  0
   10.4972   -3.8968   24.1589 C   0  0  0  0  0  0  0  0  0  0  0  0
    5.9260   -8.2736   16.5517 C   0  0  0  0  0  0  0  0  0  0  0  0
    3.8816   -9.1166   17.2493 C   0  0  0  0  0  0  0  0  0  0  0  0
   10.1297   -1.6575   23.2324 C   0  0  0  0  0  0  0  0  0  0  0  0
    9.4684   -1.6929   26.7263 F   0  0  0  0  0  0  0  0  0  0  0  0
    7.7963   -7.7906   17.9837 C   0  0  0  0  0  0  0  0  0  0  0  0
   10.5884   -3.0725   16.7902 O   0  0  0  0  0  0  0  0  0  0  0  0
   10.4323   -5.3494   20.3516 C   0  0  0  0  0  0  0  0  0  0  0  0
    7.1156   -7.5454   16.8218 C   0  0  0  0  0  0  0  0  0  0  0  0
   10.3885   -4.4388   19.2773 C   0  0  0  0  0  0  0  0  0  0  0  0
    4.5160   -9.3822   15.0841 C   0  0  0  0  0  0  0  0  0  0  0  0
  1  3  4  0
  1 24  4  0
  2  6  4  0
  2 15  4  0
  3  5  4  0
  3  6  4  0
  4 21  4  0
  4 29  4  0
  5 15  4  0
  5 28  1  0
  6 16  4  0
  7 18  4  0
  7 26  4  0
  8 18  1  0
  8 19  4  0
  8 22  4  0
  9 12  4  0
  9 19  4  0
 10 12  4  0
 10 22  4  0
 11 20  4  0
 11 21  4  0
 12 23  1  0
 13 20  4  0
 13 29  4  0
 14 17  4  0
 14 28  4  0
 15 25  2  0
 16 27  4  0
 17 18  4  0
 20 27  1  0
 24 27  4  0
 26 28  4  0
M  END
$$$$

 Created by Python create_sdf_string function

 29 33  0  0  0  0  0  0  0  0999 V2000
    8.8270   -7.0288   18.4251 C   0  0  0  0  0  0  0  0  0  0  0  0
    9.1576   -4.6236   15.8860 O   0  0  0  0  0  0  0  0  0  0  0  0
    9.1509   -5.9108   17.7177 C   0  0  0  0  0  0  0  0  0  0  0  0
    3.6373   -9.5349   16.0582 N   0  0  0  0  0  0  0  0  0  0  0  0
    9.9275   -4.8001   18.0438 N   0  0  0  0  0  0  0  0  0  0  0  0
    8.5908   -5.7425   16.4412 C   0  0  0  0  0  0  0  0  0  0  0  0
   10.5993   -4.8981   21.6068 C   0  0  0  0  0  0  0  0  0  0  0  0
   10.4258   -3.0106   23.0998 C   0  0  0  0  0  0  0  0  0  0  0  0
   10.2148   -3.4364   25.4200 C   0  0  0  0  0  0  0  0  0  0  0  0
    9.7853   -1.1840   24.4927 C   0  0  0  0  0  0  0  0  0  0  0  0
    5.0276   -8.5227   17.5352 C   0  0  0  0  0  0  0  0  0  0  0  0
    9.8187   -2.0895   25.5800 C   0  0  0  0  0  0  0  0  0  0  0  0
    5.6473   -8.7216   15.3158 C   0  0  0  0  0  0  0  0  0  0  0  0
   10.7581   -3.1233   19.4720 N   0  0  0  0  0  0  0  0  0  0  0  0
    9.9571   -4.0573   16.8866 C   0  0  0  0  0  0  0  0  0  0  0  0
    7.6213   -6.5618   16.0087 C   0  0  0  0  0  0  0  0  0  0  0  0
   10.8583   -2.6527   20.7222 C   0  0  0  0  0  0  0  0  0  0  0  0
   10.6412   -3.5089   21.7936 C   0  0  0  0  0  0  0  0  0  0  0  0
   10.4972   -3.8968   24.1589 C   0  0  0  0  0  0  0  0  0  0  0  0
    5.9260   -8.2736   16.5517 C   0  0  0  0  0  0  0  0  0  0  0  0
    3.8816   -9.1166   17.2493 C   0  0  0  0  0  0  0  0  0  0  0  0
   10.1297   -1.6575   23.2324 C   0  0  0  0  0  0  0  0  0  0  0  0
    9.4684   -1.6929   26.7263 F   0  0  0  0  0  0  0  0  0  0  0  0
    7.7963   -7.7906   17.9837 C   0  0  0  0  0  0  0  0  0  0  0  0
   10.5884   -3.0725   16.7902 O   0  0  0  0  0  0  0  0  0  0  0  0
   10.4323   -5.3494   20.3516 C   0  0  0  0  0  0  0  0  0  0  0  0
    7.1156   -7.5454   16.8218 C   0  0  0  0  0  0  0  0  0  0  0  0
   10.3885   -4.4388   19.2773 C   0  0  0  0  0  0  0  0  0  0  0  0
    4.5160   -9.3822   15.0841 C   0  0  0  0  0  0  0  0  0  0  0  0
  1  3  4  0
  1 24  4  0
  2  6  4  0
  2 15  4  0
  3  5  4  0
  3  6  4  0
  4 21  4  0
  4 29  4  0
  5 15  4  0
  5 28  1  0
  6 16  4  0
  7 18  4  0
  7 26  4  0
  8 18  1  0
  8 19  4  0
  8 22  4  0
  9 12  4  0
  9 19  4  0
 10 12  4  0
 10 22  4  0
 11 20  4  0
 11 21  4  0
 12 23  1  0
 13 20  4  0
 13 29  4  0
 14 17  4  0
 14 28  4  0
 15 25  2  0
 16 27  4  0
 17 18  4  0
 20 27  1  0
 24 27  4  0
 26 28  4  0
M  END
$$$$

 Created by Python create_sdf_string function

 29 33  0  0  0  0  0  0  0  0999 V2000
    8.8270   -7.0288   18.4251 C   0  0  0  0  0  0  0  0  0  0  0  0
    9.1576   -4.6236   15.8860 O   0  0  0  0  0  0  0  0  0  0  0  0
    9.1509   -5.9108   17.7177 C   0  0  0  0  0  0  0  0  0  0  0  0
    3.6373   -9.5349   16.0582 N   0  0  0  0  0  0  0  0  0  0  0  0
    9.9275   -4.8001   18.0438 N   0  0  0  0  0  0  0  0  0  0  0  0
    8.5908   -5.7425   16.4412 C   0  0  0  0  0  0  0  0  0  0  0  0
   10.5993   -4.8981   21.6068 C   0  0  0  0  0  0  0  0  0  0  0  0
   10.4258   -3.0106   23.0998 C   0  0  0  0  0  0  0  0  0  0  0  0
   10.2148   -3.4364   25.4200 C   0  0  0  0  0  0  0  0  0  0  0  0
    9.7853   -1.1840   24.4927 C   0  0  0  0  0  0  0  0  0  0  0  0
    5.0276   -8.5227   17.5352 C   0  0  0  0  0  0  0  0  0  0  0  0
    9.8187   -2.0895   25.5800 C   0  0  0  0  0  0  0  0  0  0  0  0
    5.6473   -8.7216   15.3158 C   0  0  0  0  0  0  0  0  0  0  0  0
   10.7581   -3.1233   19.4720 N   0  0  0  0  0  0  0  0  0  0  0  0
    9.9571   -4.0573   16.8866 C   0  0  0  0  0  0  0  0  0  0  0  0
    7.6213   -6.5618   16.0087 C   0  0  0  0  0  0  0  0  0  0  0  0
   10.8583   -2.6527   20.7222 C   0  0  0  0  0  0  0  0  0  0  0  0
   10.6412   -3.5089   21.7936 C   0  0  0  0  0  0  0  0  0  0  0  0
   10.4972   -3.8968   24.1589 C   0  0  0  0  0  0  0  0  0  0  0  0
    5.9260   -8.2736   16.5517 C   0  0  0  0  0  0  0  0  0  0  0  0
    3.8816   -9.1166   17.2493 C   0  0  0  0  0  0  0  0  0  0  0  0
   10.1297   -1.6575   23.2324 C   0  0  0  0  0  0  0  0  0  0  0  0
    9.4684   -1.6929   26.7263 F   0  0  0  0  0  0  0  0  0  0  0  0
    7.7963   -7.7906   17.9837 C   0  0  0  0  0  0  0  0  0  0  0  0
   10.5884   -3.0725   16.7902 O   0  0  0  0  0  0  0  0  0  0  0  0
   10.4323   -5.3494   20.3516 C   0  0  0  0  0  0  0  0  0  0  0  0
    7.1156   -7.5454   16.8218 C   0  0  0  0  0  0  0  0  0  0  0  0
   10.3885   -4.4388   19.2773 C   0  0  0  0  0  0  0  0  0  0  0  0
    4.5160   -9.3822   15.0841 C   0  0  0  0  0  0  0  0  0  0  0  0
  1  3  4  0
  1 24  4  0
  2  6  4  0
  2 15  4  0
  3  5  4  0
  3  6  4  0
  4 21  4  0
  4 29  4  0
  5 15  4  0
  5 28  1  0
  6 16  4  0
  7 18  4  0
  7 26  4  0
  8 18  1  0
  8 19  4  0
  8 22  4  0
  9 12  4  0
  9 19  4  0
 10 12  4  0
 10 22  4  0
 11 20  4  0
 11 21  4  0
 12 23  1  0
 13 20  4  0
 13 29  4  0
 14 17  4  0
 14 28  4  0
 15 25  2  0
 16 27  4  0
 17 18  4  0
 20 27  1  0
 24 27  4  0
 26 28  4  0
M  END
$$$$

 Created by Python create_sdf_string function

 29 33  0  0  0  0  0  0  0  0999 V2000
    8.8270   -7.0288   18.4251 C   0  0  0  0  0  0  0  0  0  0  0  0
    9.1576   -4.6236   15.8860 O   0  0  0  0  0  0  0  0  0  0  0  0
    9.1509   -5.9108   17.7177 C   0  0  0  0  0  0  0  0  0  0  0  0
    3.6373   -9.5349   16.0582 N   0  0  0  0  0  0  0  0  0  0  0  0
    9.9275   -4.8001   18.0438 N   0  0  0  0  0  0  0  0  0  0  0  0
    8.5908   -5.7425   16.4412 C   0  0  0  0  0  0  0  0  0  0  0  0
   10.5993   -4.8981   21.6068 C   0  0  0  0  0  0  0  0  0  0  0  0
   10.4258   -3.0106   23.0998 C   0  0  0  0  0  0  0  0  0  0  0  0
   10.2148   -3.4364   25.4200 C   0  0  0  0  0  0  0  0  0  0  0  0
    9.7853   -1.1840   24.4927 C   0  0  0  0  0  0  0  0  0  0  0  0
    5.0276   -8.5227   17.5352 C   0  0  0  0  0  0  0  0  0  0  0  0
    9.8187   -2.0895   25.5800 C   0  0  0  0  0  0  0  0  0  0  0  0
    5.6473   -8.7216   15.3158 C   0  0  0  0  0  0  0  0  0  0  0  0
   10.7581   -3.1233   19.4720 N   0  0  0  0  0  0  0  0  0  0  0  0
    9.9571   -4.0573   16.8866 C   0  0  0  0  0  0  0  0  0  0  0  0
    7.6213   -6.5618   16.0087 C   0  0  0  0  0  0  0  0  0  0  0  0
   10.8583   -2.6527   20.7222 C   0  0  0  0  0  0  0  0  0  0  0  0
   10.6412   -3.5089   21.7936 C   0  0  0  0  0  0  0  0  0  0  0  0
   10.4972   -3.8968   24.1589 C   0  0  0  0  0  0  0  0  0  0  0  0
    5.9260   -8.2736   16.5517 C   0  0  0  0  0  0  0  0  0  0  0  0
    3.8816   -9.1166   17.2493 C   0  0  0  0  0  0  0  0  0  0  0  0
   10.1297   -1.6575   23.2324 C   0  0  0  0  0  0  0  0  0  0  0  0
    9.4684   -1.6929   26.7263 F   0  0  0  0  0  0  0  0  0  0  0  0
    7.7963   -7.7906   17.9837 C   0  0  0  0  0  0  0  0  0  0  0  0
   10.5884   -3.0725   16.7902 O   0  0  0  0  0  0  0  0  0  0  0  0
   10.4323   -5.3494   20.3516 C   0  0  0  0  0  0  0  0  0  0  0  0
    7.1156   -7.5454   16.8218 C   0  0  0  0  0  0  0  0  0  0  0  0
   10.3885   -4.4388   19.2773 C   0  0  0  0  0  0  0  0  0  0  0  0
    4.5160   -9.3822   15.0841 C   0  0  0  0  0  0  0  0  0  0  0  0
  1  3  4  0
  1 24  4  0
  2  6  4  0
  2 15  4  0
  3  5  4  0
  3  6  4  0
  4 21  4  0
  4 29  4  0
  5 15  4  0
  5 28  1  0
  6 16  4  0
  7 18  4  0
  7 26  4  0
  8 18  1  0
  8 19  4  0
  8 22  4  0
  9 12  4  0
  9 19  4  0
 10 12  4  0
 10 22  4  0
 11 20  4  0
 11 21  4  0
 12 23  1  0
 13 20  4  0
 13 29  4  0
 14 17  4  0
 14 28  4  0
 15 25  2  0
 16 27  4  0
 17 18  4  0
 20 27  1  0
 24 27  4  0
 26 28  4  0
M  END
$$$$

 Created by Python create_sdf_string function

 29 33  0  0  0  0  0  0  0  0999 V2000
    8.8270   -7.0288   18.4251 C   0  0  0  0  0  0  0  0  0  0  0  0
    9.1576   -4.6236   15.8860 O   0  0  0  0  0  0  0  0  0  0  0  0
    9.1509   -5.9108   17.7177 C   0  0  0  0  0  0  0  0  0  0  0  0
    3.6373   -9.5349   16.0582 N   0  0  0  0  0  0  0  0  0  0  0  0
    9.9275   -4.8001   18.0438 N   0  0  0  0  0  0  0  0  0  0  0  0
    8.5908   -5.7425   16.4412 C   0  0  0  0  0  0  0  0  0  0  0  0
   10.5993   -4.8981   21.6068 C   0  0  0  0  0  0  0  0  0  0  0  0
   10.4258   -3.0106   23.0998 C   0  0  0  0  0  0  0  0  0  0  0  0
   10.2148   -3.4364   25.4200 C   0  0  0  0  0  0  0  0  0  0  0  0
    9.7853   -1.1840   24.4927 C   0  0  0  0  0  0  0  0  0  0  0  0
    5.0276   -8.5227   17.5352 C   0  0  0  0  0  0  0  0  0  0  0  0
    9.8187   -2.0895   25.5800 C   0  0  0  0  0  0  0  0  0  0  0  0
    5.6473   -8.7216   15.3158 C   0  0  0  0  0  0  0  0  0  0  0  0
   10.7581   -3.1233   19.4720 N   0  0  0  0  0  0  0  0  0  0  0  0
    9.9571   -4.0573   16.8866 C   0  0  0  0  0  0  0  0  0  0  0  0
    7.6213   -6.5618   16.0087 C   0  0  0  0  0  0  0  0  0  0  0  0
   10.8583   -2.6527   20.7222 C   0  0  0  0  0  0  0  0  0  0  0  0
   10.6412   -3.5089   21.7936 C   0  0  0  0  0  0  0  0  0  0  0  0
   10.4972   -3.8968   24.1589 C   0  0  0  0  0  0  0  0  0  0  0  0
    5.9260   -8.2736   16.5517 C   0  0  0  0  0  0  0  0  0  0  0  0
    3.8816   -9.1166   17.2493 C   0  0  0  0  0  0  0  0  0  0  0  0
   10.1297   -1.6575   23.2324 C   0  0  0  0  0  0  0  0  0  0  0  0
    9.4684   -1.6929   26.7263 F   0  0  0  0  0  0  0  0  0  0  0  0
    7.7963   -7.7906   17.9837 C   0  0  0  0  0  0  0  0  0  0  0  0
   10.5884   -3.0725   16.7902 O   0  0  0  0  0  0  0  0  0  0  0  0
   10.4323   -5.3494   20.3516 C   0  0  0  0  0  0  0  0  0  0  0  0
    7.1156   -7.5454   16.8218 C   0  0  0  0  0  0  0  0  0  0  0  0
   10.3885   -4.4388   19.2773 C   0  0  0  0  0  0  0  0  0  0  0  0
    4.5160   -9.3822   15.0841 C   0  0  0  0  0  0  0  0  0  0  0  0
  1  3  4  0
  1 24  4  0
  2  6  4  0
  2 15  4  0
  3  5  4  0
  3  6  4  0
  4 21  4  0
  4 29  4  0
  5 15  4  0
  5 28  1  0
  6 16  4  0
  7 18  4  0
  7 26  4  0
  8 18  1  0
  8 19  4  0
  8 22  4  0
  9 12  4  0
  9 19  4  0
 10 12  4  0
 10 22  4  0
 11 20  4  0
 11 21  4  0
 12 23  1  0
 13 20  4  0
 13 29  4  0
 14 17  4  0
 14 28  4  0
 15 25  2  0
 16 27  4  0
 17 18  4  0
 20 27  1  0
 24 27  4  0
 26 28  4  0
M  END
$$$$

 Created by Python create_sdf_string function

 29 33  0  0  0  0  0  0  0  0999 V2000
    8.8270   -7.0288   18.4251 C   0  0  0  0  0  0  0  0  0  0  0  0
    9.1576   -4.6236   15.8860 O   0  0  0  0  0  0  0  0  0  0  0  0
    9.1509   -5.9108   17.7177 C   0  0  0  0  0  0  0  0  0  0  0  0
    3.6373   -9.5349   16.0582 N   0  0  0  0  0  0  0  0  0  0  0  0
    9.9275   -4.8001   18.0438 N   0  0  0  0  0  0  0  0  0  0  0  0
    8.5908   -5.7425   16.4412 C   0  0  0  0  0  0  0  0  0  0  0  0
   10.5993   -4.8981   21.6068 C   0  0  0  0  0  0  0  0  0  0  0  0
   10.4258   -3.0106   23.0998 C   0  0  0  0  0  0  0  0  0  0  0  0
   10.2148   -3.4364   25.4200 C   0  0  0  0  0  0  0  0  0  0  0  0
    9.7853   -1.1840   24.4927 C   0  0  0  0  0  0  0  0  0  0  0  0
    5.0276   -8.5227   17.5352 C   0  0  0  0  0  0  0  0  0  0  0  0
    9.8187   -2.0895   25.5800 C   0  0  0  0  0  0  0  0  0  0  0  0
    5.6473   -8.7216   15.3158 C   0  0  0  0  0  0  0  0  0  0  0  0
   10.7581   -3.1233   19.4720 N   0  0  0  0  0  0  0  0  0  0  0  0
    9.9571   -4.0573   16.8866 C   0  0  0  0  0  0  0  0  0  0  0  0
    7.6213   -6.5618   16.0087 C   0  0  0  0  0  0  0  0  0  0  0  0
   10.8583   -2.6527   20.7222 C   0  0  0  0  0  0  0  0  0  0  0  0
   10.6412   -3.5089   21.7936 C   0  0  0  0  0  0  0  0  0  0  0  0
   10.4972   -3.8968   24.1589 C   0  0  0  0  0  0  0  0  0  0  0  0
    5.9260   -8.2736   16.5517 C   0  0  0  0  0  0  0  0  0  0  0  0
    3.8816   -9.1166   17.2493 C   0  0  0  0  0  0  0  0  0  0  0  0
   10.1297   -1.6575   23.2324 C   0  0  0  0  0  0  0  0  0  0  0  0
    9.4684   -1.6929   26.7263 F   0  0  0  0  0  0  0  0  0  0  0  0
    7.7963   -7.7906   17.9837 C   0  0  0  0  0  0  0  0  0  0  0  0
   10.5884   -3.0725   16.7902 O   0  0  0  0  0  0  0  0  0  0  0  0
   10.4323   -5.3494   20.3516 C   0  0  0  0  0  0  0  0  0  0  0  0
    7.1156   -7.5454   16.8218 C   0  0  0  0  0  0  0  0  0  0  0  0
   10.3885   -4.4388   19.2773 C   0  0  0  0  0  0  0  0  0  0  0  0
    4.5160   -9.3822   15.0841 C   0  0  0  0  0  0  0  0  0  0  0  0
  1  3  4  0
  1 24  4  0
  2  6  4  0
  2 15  4  0
  3  5  4  0
  3  6  4  0
  4 21  4  0
  4 29  4  0
  5 15  4  0
  5 28  1  0
  6 16  4  0
  7 18  4  0
  7 26  4  0
  8 18  1  0
  8 19  4  0
  8 22  4  0
  9 12  4  0
  9 19  4  0
 10 12  4  0
 10 22  4  0
 11 20  4  0
 11 21  4  0
 12 23  1  0
 13 20  4  0
 13 29  4  0
 14 17  4  0
 14 28  4  0
 15 25  2  0
 16 27  4  0
 17 18  4  0
 20 27  1  0
 24 27  4  0
 26 28  4  0
M  END
$$$$

 Created by Python create_sdf_string function

 29 33  0  0  0  0  0  0  0  0999 V2000
    8.8270   -7.0288   18.4251 C   0  0  0  0  0  0  0  0  0  0  0  0
    9.1576   -4.6236   15.8860 O   0  0  0  0  0  0  0  0  0  0  0  0
    9.1509   -5.9108   17.7177 C   0  0  0  0  0  0  0  0  0  0  0  0
    3.6373   -9.5349   16.0582 N   0  0  0  0  0  0  0  0  0  0  0  0
    9.9275   -4.8001   18.0438 N   0  0  0  0  0  0  0  0  0  0  0  0
    8.5908   -5.7425   16.4412 C   0  0  0  0  0  0  0  0  0  0  0  0
   10.5993   -4.8981   21.6068 C   0  0  0  0  0  0  0  0  0  0  0  0
   10.4258   -3.0106   23.0998 C   0  0  0  0  0  0  0  0  0  0  0  0
   10.2148   -3.4364   25.4200 C   0  0  0  0  0  0  0  0  0  0  0  0
    9.7853   -1.1840   24.4927 C   0  0  0  0  0  0  0  0  0  0  0  0
    5.0276   -8.5227   17.5352 C   0  0  0  0  0  0  0  0  0  0  0  0
    9.8187   -2.0895   25.5800 C   0  0  0  0  0  0  0  0  0  0  0  0
    5.6473   -8.7216   15.3158 C   0  0  0  0  0  0  0  0  0  0  0  0
   10.7581   -3.1233   19.4720 N   0  0  0  0  0  0  0  0  0  0  0  0
    9.9571   -4.0573   16.8866 C   0  0  0  0  0  0  0  0  0  0  0  0
    7.6213   -6.5618   16.0087 C   0  0  0  0  0  0  0  0  0  0  0  0
   10.8583   -2.6527   20.7222 C   0  0  0  0  0  0  0  0  0  0  0  0
   10.6412   -3.5089   21.7936 C   0  0  0  0  0  0  0  0  0  0  0  0
   10.4972   -3.8968   24.1589 C   0  0  0  0  0  0  0  0  0  0  0  0
    5.9260   -8.2736   16.5517 C   0  0  0  0  0  0  0  0  0  0  0  0
    3.8816   -9.1166   17.2493 C   0  0  0  0  0  0  0  0  0  0  0  0
   10.1297   -1.6575   23.2324 C   0  0  0  0  0  0  0  0  0  0  0  0
    9.4684   -1.6929   26.7263 F   0  0  0  0  0  0  0  0  0  0  0  0
    7.7963   -7.7906   17.9837 C   0  0  0  0  0  0  0  0  0  0  0  0
   10.5884   -3.0725   16.7902 O   0  0  0  0  0  0  0  0  0  0  0  0
   10.4323   -5.3494   20.3516 C   0  0  0  0  0  0  0  0  0  0  0  0
    7.1156   -7.5454   16.8218 C   0  0  0  0  0  0  0  0  0  0  0  0
   10.3885   -4.4388   19.2773 C   0  0  0  0  0  0  0  0  0  0  0  0
    4.5160   -9.3822   15.0841 C   0  0  0  0  0  0  0  0  0  0  0  0
  1  3  4  0
  1 24  4  0
  2  6  4  0
  2 15  4  0
  3  5  4  0
  3  6  4  0
  4 21  4  0
  4 29  4  0
  5 15  4  0
  5 28  1  0
  6 16  4  0
  7 18  4  0
  7 26  4  0
  8 18  1  0
  8 19  4  0
  8 22  4  0
  9 12  4  0
  9 19  4  0
 10 12  4  0
 10 22  4  0
 11 20  4  0
 11 21  4  0
 12 23  1  0
 13 20  4  0
 13 29  4  0
 14 17  4  0
 14 28  4  0
 15 25  2  0
 16 27  4  0
 17 18  4  0
 20 27  1  0
 24 27  4  0
 26 28  4  0
M  END
$$$$

 Created by Python create_sdf_string function

 29 33  0  0  0  0  0  0  0  0999 V2000
    8.8270   -7.0288   18.4251 C   0  0  0  0  0  0  0  0  0  0  0  0
    9.1576   -4.6236   15.8860 O   0  0  0  0  0  0  0  0  0  0  0  0
    9.1509   -5.9108   17.7177 C   0  0  0  0  0  0  0  0  0  0  0  0
    3.6373   -9.5349   16.0582 N   0  0  0  0  0  0  0  0  0  0  0  0
    9.9275   -4.8001   18.0438 N   0  0  0  0  0  0  0  0  0  0  0  0
    8.5908   -5.7425   16.4412 C   0  0  0  0  0  0  0  0  0  0  0  0
   10.5993   -4.8981   21.6068 C   0  0  0  0  0  0  0  0  0  0  0  0
   10.4258   -3.0106   23.0998 C   0  0  0  0  0  0  0  0  0  0  0  0
   10.2148   -3.4364   25.4200 C   0  0  0  0  0  0  0  0  0  0  0  0
    9.7853   -1.1840   24.4927 C   0  0  0  0  0  0  0  0  0  0  0  0
    5.0276   -8.5227   17.5352 C   0  0  0  0  0  0  0  0  0  0  0  0
    9.8187   -2.0895   25.5800 C   0  0  0  0  0  0  0  0  0  0  0  0
    5.6473   -8.7216   15.3158 C   0  0  0  0  0  0  0  0  0  0  0  0
   10.7581   -3.1233   19.4720 N   0  0  0  0  0  0  0  0  0  0  0  0
    9.9571   -4.0573   16.8866 C   0  0  0  0  0  0  0  0  0  0  0  0
    7.6213   -6.5618   16.0087 C   0  0  0  0  0  0  0  0  0  0  0  0
   10.8583   -2.6527   20.7222 C   0  0  0  0  0  0  0  0  0  0  0  0
   10.6412   -3.5089   21.7936 C   0  0  0  0  0  0  0  0  0  0  0  0
   10.4972   -3.8968   24.1589 C   0  0  0  0  0  0  0  0  0  0  0  0
    5.9260   -8.2736   16.5517 C   0  0  0  0  0  0  0  0  0  0  0  0
    3.8816   -9.1166   17.2493 C   0  0  0  0  0  0  0  0  0  0  0  0
   10.1297   -1.6575   23.2324 C   0  0  0  0  0  0  0  0  0  0  0  0
    9.4684   -1.6929   26.7263 F   0  0  0  0  0  0  0  0  0  0  0  0
    7.7963   -7.7906   17.9837 C   0  0  0  0  0  0  0  0  0  0  0  0
   10.5884   -3.0725   16.7902 O   0  0  0  0  0  0  0  0  0  0  0  0
   10.4323   -5.3494   20.3516 C   0  0  0  0  0  0  0  0  0  0  0  0
    7.1156   -7.5454   16.8218 C   0  0  0  0  0  0  0  0  0  0  0  0
   10.3885   -4.4388   19.2773 C   0  0  0  0  0  0  0  0  0  0  0  0
    4.5160   -9.3822   15.0841 C   0  0  0  0  0  0  0  0  0  0  0  0
  1  3  4  0
  1 24  4  0
  2  6  4  0
  2 15  4  0
  3  5  4  0
  3  6  4  0
  4 21  4  0
  4 29  4  0
  5 15  4  0
  5 28  1  0
  6 16  4  0
  7 18  4  0
  7 26  4  0
  8 18  1  0
  8 19  4  0
  8 22  4  0
  9 12  4  0
  9 19  4  0
 10 12  4  0
 10 22  4  0
 11 20  4  0
 11 21  4  0
 12 23  1  0
 13 20  4  0
 13 29  4  0
 14 17  4  0
 14 28  4  0
 15 25  2  0
 16 27  4  0
 17 18  4  0
 20 27  1  0
 24 27  4  0
 26 28  4  0
M  END
$$$$

 Created by Python create_sdf_string function

 29 33  0  0  0  0  0  0  0  0999 V2000
    8.8270   -7.0288   18.4251 C   0  0  0  0  0  0  0  0  0  0  0  0
    9.1576   -4.6236   15.8860 O   0  0  0  0  0  0  0  0  0  0  0  0
    9.1509   -5.9108   17.7177 C   0  0  0  0  0  0  0  0  0  0  0  0
    3.6373   -9.5349   16.0582 N   0  0  0  0  0  0  0  0  0  0  0  0
    9.9275   -4.8001   18.0438 N   0  0  0  0  0  0  0  0  0  0  0  0
    8.5908   -5.7425   16.4412 C   0  0  0  0  0  0  0  0  0  0  0  0
   10.5993   -4.8981   21.6068 C   0  0  0  0  0  0  0  0  0  0  0  0
   10.4258   -3.0106   23.0998 C   0  0  0  0  0  0  0  0  0  0  0  0
   10.2148   -3.4364   25.4200 C   0  0  0  0  0  0  0  0  0  0  0  0
    9.7853   -1.1840   24.4927 C   0  0  0  0  0  0  0  0  0  0  0  0
    5.0276   -8.5227   17.5352 C   0  0  0  0  0  0  0  0  0  0  0  0
    9.8187   -2.0895   25.5800 C   0  0  0  0  0  0  0  0  0  0  0  0
    5.6473   -8.7216   15.3158 C   0  0  0  0  0  0  0  0  0  0  0  0
   10.7581   -3.1233   19.4720 N   0  0  0  0  0  0  0  0  0  0  0  0
    9.9571   -4.0573   16.8866 C   0  0  0  0  0  0  0  0  0  0  0  0
    7.6213   -6.5618   16.0087 C   0  0  0  0  0  0  0  0  0  0  0  0
   10.8583   -2.6527   20.7222 C   0  0  0  0  0  0  0  0  0  0  0  0
   10.6412   -3.5089   21.7936 C   0  0  0  0  0  0  0  0  0  0  0  0
   10.4972   -3.8968   24.1589 C   0  0  0  0  0  0  0  0  0  0  0  0
    5.9260   -8.2736   16.5517 C   0  0  0  0  0  0  0  0  0  0  0  0
    3.8816   -9.1166   17.2493 C   0  0  0  0  0  0  0  0  0  0  0  0
   10.1297   -1.6575   23.2324 C   0  0  0  0  0  0  0  0  0  0  0  0
    9.4684   -1.6929   26.7263 F   0  0  0  0  0  0  0  0  0  0  0  0
    7.7963   -7.7906   17.9837 C   0  0  0  0  0  0  0  0  0  0  0  0
   10.5884   -3.0725   16.7902 O   0  0  0  0  0  0  0  0  0  0  0  0
   10.4323   -5.3494   20.3516 C   0  0  0  0  0  0  0  0  0  0  0  0
    7.1156   -7.5454   16.8218 C   0  0  0  0  0  0  0  0  0  0  0  0
   10.3885   -4.4388   19.2773 C   0  0  0  0  0  0  0  0  0  0  0  0
    4.5160   -9.3822   15.0841 C   0  0  0  0  0  0  0  0  0  0  0  0
  1  3  4  0
  1 24  4  0
  2  6  4  0
  2 15  4  0
  3  5  4  0
  3  6  4  0
  4 21  4  0
  4 29  4  0
  5 15  4  0
  5 28  1  0
  6 16  4  0
  7 18  4  0
  7 26  4  0
  8 18  1  0
  8 19  4  0
  8 22  4  0
  9 12  4  0
  9 19  4  0
 10 12  4  0
 10 22  4  0
 11 20  4  0
 11 21  4  0
 12 23  1  0
 13 20  4  0
 13 29  4  0
 14 17  4  0
 14 28  4  0
 15 25  2  0
 16 27  4  0
 17 18  4  0
 20 27  1  0
 24 27  4  0
 26 28  4  0
M  END
$$$$

 Created by Python create_sdf_string function

 29 33  0  0  0  0  0  0  0  0999 V2000
    8.8270   -7.0288   18.4251 C   0  0  0  0  0  0  0  0  0  0  0  0
    9.1576   -4.6236   15.8860 O   0  0  0  0  0  0  0  0  0  0  0  0
    9.1509   -5.9108   17.7177 C   0  0  0  0  0  0  0  0  0  0  0  0
    3.6373   -9.5349   16.0582 N   0  0  0  0  0  0  0  0  0  0  0  0
    9.9275   -4.8001   18.0438 N   0  0  0  0  0  0  0  0  0  0  0  0
    8.5908   -5.7425   16.4412 C   0  0  0  0  0  0  0  0  0  0  0  0
   10.5993   -4.8981   21.6068 C   0  0  0  0  0  0  0  0  0  0  0  0
   10.4258   -3.0106   23.0998 C   0  0  0  0  0  0  0  0  0  0  0  0
   10.2148   -3.4364   25.4200 C   0  0  0  0  0  0  0  0  0  0  0  0
    9.7853   -1.1840   24.4927 C   0  0  0  0  0  0  0  0  0  0  0  0
    5.0276   -8.5227   17.5352 C   0  0  0  0  0  0  0  0  0  0  0  0
    9.8187   -2.0895   25.5800 C   0  0  0  0  0  0  0  0  0  0  0  0
    5.6473   -8.7216   15.3158 C   0  0  0  0  0  0  0  0  0  0  0  0
   10.7581   -3.1233   19.4720 N   0  0  0  0  0  0  0  0  0  0  0  0
    9.9571   -4.0573   16.8866 C   0  0  0  0  0  0  0  0  0  0  0  0
    7.6213   -6.5618   16.0087 C   0  0  0  0  0  0  0  0  0  0  0  0
   10.8583   -2.6527   20.7222 C   0  0  0  0  0  0  0  0  0  0  0  0
   10.6412   -3.5089   21.7936 C   0  0  0  0  0  0  0  0  0  0  0  0
   10.4972   -3.8968   24.1589 C   0  0  0  0  0  0  0  0  0  0  0  0
    5.9260   -8.2736   16.5517 C   0  0  0  0  0  0  0  0  0  0  0  0
    3.8816   -9.1166   17.2493 C   0  0  0  0  0  0  0  0  0  0  0  0
   10.1297   -1.6575   23.2324 C   0  0  0  0  0  0  0  0  0  0  0  0
    9.4684   -1.6929   26.7263 F   0  0  0  0  0  0  0  0  0  0  0  0
    7.7963   -7.7906   17.9837 C   0  0  0  0  0  0  0  0  0  0  0  0
   10.5884   -3.0725   16.7902 O   0  0  0  0  0  0  0  0  0  0  0  0
   10.4323   -5.3494   20.3516 C   0  0  0  0  0  0  0  0  0  0  0  0
    7.1156   -7.5454   16.8218 C   0  0  0  0  0  0  0  0  0  0  0  0
   10.3885   -4.4388   19.2773 C   0  0  0  0  0  0  0  0  0  0  0  0
    4.5160   -9.3822   15.0841 C   0  0  0  0  0  0  0  0  0  0  0  0
  1  3  4  0
  1 24  4  0
  2  6  4  0
  2 15  4  0
  3  5  4  0
  3  6  4  0
  4 21  4  0
  4 29  4  0
  5 15  4  0
  5 28  1  0
  6 16  4  0
  7 18  4  0
  7 26  4  0
  8 18  1  0
  8 19  4  0
  8 22  4  0
  9 12  4  0
  9 19  4  0
 10 12  4  0
 10 22  4  0
 11 20  4  0
 11 21  4  0
 12 23  1  0
 13 20  4  0
 13 29  4  0
 14 17  4  0
 14 28  4  0
 15 25  2  0
 16 27  4  0
 17 18  4  0
 20 27  1  0
 24 27  4  0
 26 28  4  0
M  END
$$$$

 Created by Python create_sdf_string function

 29 33  0  0  0  0  0  0  0  0999 V2000
    8.8270   -7.0288   18.4251 C   0  0  0  0  0  0  0  0  0  0  0  0
    9.1576   -4.6236   15.8860 O   0  0  0  0  0  0  0  0  0  0  0  0
    9.1509   -5.9108   17.7177 C   0  0  0  0  0  0  0  0  0  0  0  0
    3.6373   -9.5349   16.0582 N   0  0  0  0  0  0  0  0  0  0  0  0
    9.9275   -4.8001   18.0438 N   0  0  0  0  0  0  0  0  0  0  0  0
    8.5908   -5.7425   16.4412 C   0  0  0  0  0  0  0  0  0  0  0  0
   10.5993   -4.8981   21.6068 C   0  0  0  0  0  0  0  0  0  0  0  0
   10.4258   -3.0106   23.0998 C   0  0  0  0  0  0  0  0  0  0  0  0
   10.2148   -3.4364   25.4200 C   0  0  0  0  0  0  0  0  0  0  0  0
    9.7853   -1.1840   24.4927 C   0  0  0  0  0  0  0  0  0  0  0  0
    5.0276   -8.5227   17.5352 C   0  0  0  0  0  0  0  0  0  0  0  0
    9.8187   -2.0895   25.5800 C   0  0  0  0  0  0  0  0  0  0  0  0
    5.6473   -8.7216   15.3158 C   0  0  0  0  0  0  0  0  0  0  0  0
   10.7581   -3.1233   19.4720 N   0  0  0  0  0  0  0  0  0  0  0  0
    9.9571   -4.0573   16.8866 C   0  0  0  0  0  0  0  0  0  0  0  0
    7.6213   -6.5618   16.0087 C   0  0  0  0  0  0  0  0  0  0  0  0
   10.8583   -2.6527   20.7222 C   0  0  0  0  0  0  0  0  0  0  0  0
   10.6412   -3.5089   21.7936 C   0  0  0  0  0  0  0  0  0  0  0  0
   10.4972   -3.8968   24.1589 C   0  0  0  0  0  0  0  0  0  0  0  0
    5.9260   -8.2736   16.5517 C   0  0  0  0  0  0  0  0  0  0  0  0
    3.8816   -9.1166   17.2493 C   0  0  0  0  0  0  0  0  0  0  0  0
   10.1297   -1.6575   23.2324 C   0  0  0  0  0  0  0  0  0  0  0  0
    9.4684   -1.6929   26.7263 F   0  0  0  0  0  0  0  0  0  0  0  0
    7.7963   -7.7906   17.9837 C   0  0  0  0  0  0  0  0  0  0  0  0
   10.5884   -3.0725   16.7902 O   0  0  0  0  0  0  0  0  0  0  0  0
   10.4323   -5.3494   20.3516 C   0  0  0  0  0  0  0  0  0  0  0  0
    7.1156   -7.5454   16.8218 C   0  0  0  0  0  0  0  0  0  0  0  0
   10.3885   -4.4388   19.2773 C   0  0  0  0  0  0  0  0  0  0  0  0
    4.5160   -9.3822   15.0841 C   0  0  0  0  0  0  0  0  0  0  0  0
  1  3  4  0
  1 24  4  0
  2  6  4  0
  2 15  4  0
  3  5  4  0
  3  6  4  0
  4 21  4  0
  4 29  4  0
  5 15  4  0
  5 28  1  0
  6 16  4  0
  7 18  4  0
  7 26  4  0
  8 18  1  0
  8 19  4  0
  8 22  4  0
  9 12  4  0
  9 19  4  0
 10 12  4  0
 10 22  4  0
 11 20  4  0
 11 21  4  0
 12 23  1  0
 13 20  4  0
 13 29  4  0
 14 17  4  0
 14 28  4  0
 15 25  2  0
 16 27  4  0
 17 18  4  0
 20 27  1  0
 24 27  4  0
 26 28  4  0
M  END
$$$$

 Created by Python create_sdf_string function

 29 33  0  0  0  0  0  0  0  0999 V2000
    8.8270   -7.0288   18.4251 C   0  0  0  0  0  0  0  0  0  0  0  0
    9.1576   -4.6236   15.8860 O   0  0  0  0  0  0  0  0  0  0  0  0
    9.1509   -5.9108   17.7177 C   0  0  0  0  0  0  0  0  0  0  0  0
    3.6373   -9.5349   16.0582 N   0  0  0  0  0  0  0  0  0  0  0  0
    9.9275   -4.8001   18.0438 N   0  0  0  0  0  0  0  0  0  0  0  0
    8.5908   -5.7425   16.4412 C   0  0  0  0  0  0  0  0  0  0  0  0
   10.5993   -4.8981   21.6068 C   0  0  0  0  0  0  0  0  0  0  0  0
   10.4258   -3.0106   23.0998 C   0  0  0  0  0  0  0  0  0  0  0  0
   10.2148   -3.4364   25.4200 C   0  0  0  0  0  0  0  0  0  0  0  0
    9.7853   -1.1840   24.4927 C   0  0  0  0  0  0  0  0  0  0  0  0
    5.0276   -8.5227   17.5352 C   0  0  0  0  0  0  0  0  0  0  0  0
    9.8187   -2.0895   25.5800 C   0  0  0  0  0  0  0  0  0  0  0  0
    5.6473   -8.7216   15.3158 C   0  0  0  0  0  0  0  0  0  0  0  0
   10.7581   -3.1233   19.4720 N   0  0  0  0  0  0  0  0  0  0  0  0
    9.9571   -4.0573   16.8866 C   0  0  0  0  0  0  0  0  0  0  0  0
    7.6213   -6.5618   16.0087 C   0  0  0  0  0  0  0  0  0  0  0  0
   10.8583   -2.6527   20.7222 C   0  0  0  0  0  0  0  0  0  0  0  0
   10.6412   -3.5089   21.7936 C   0  0  0  0  0  0  0  0  0  0  0  0
   10.4972   -3.8968   24.1589 C   0  0  0  0  0  0  0  0  0  0  0  0
    5.9260   -8.2736   16.5517 C   0  0  0  0  0  0  0  0  0  0  0  0
    3.8816   -9.1166   17.2493 C   0  0  0  0  0  0  0  0  0  0  0  0
   10.1297   -1.6575   23.2324 C   0  0  0  0  0  0  0  0  0  0  0  0
    9.4684   -1.6929   26.7263 F   0  0  0  0  0  0  0  0  0  0  0  0
    7.7963   -7.7906   17.9837 C   0  0  0  0  0  0  0  0  0  0  0  0
   10.5884   -3.0725   16.7902 O   0  0  0  0  0  0  0  0  0  0  0  0
   10.4323   -5.3494   20.3516 C   0  0  0  0  0  0  0  0  0  0  0  0
    7.1156   -7.5454   16.8218 C   0  0  0  0  0  0  0  0  0  0  0  0
   10.3885   -4.4388   19.2773 C   0  0  0  0  0  0  0  0  0  0  0  0
    4.5160   -9.3822   15.0841 C   0  0  0  0  0  0  0  0  0  0  0  0
  1  3  4  0
  1 24  4  0
  2  6  4  0
  2 15  4  0
  3  5  4  0
  3  6  4  0
  4 21  4  0
  4 29  4  0
  5 15  4  0
  5 28  1  0
  6 16  4  0
  7 18  4  0
  7 26  4  0
  8 18  1  0
  8 19  4  0
  8 22  4  0
  9 12  4  0
  9 19  4  0
 10 12  4  0
 10 22  4  0
 11 20  4  0
 11 21  4  0
 12 23  1  0
 13 20  4  0
 13 29  4  0
 14 17  4  0
 14 28  4  0
 15 25  2  0
 16 27  4  0
 17 18  4  0
 20 27  1  0
 24 27  4  0
 26 28  4  0
M  END
$$$$

 Created by Python create_sdf_string function

 29 33  0  0  0  0  0  0  0  0999 V2000
    8.8270   -7.0288   18.4251 C   0  0  0  0  0  0  0  0  0  0  0  0
    9.1576   -4.6236   15.8860 O   0  0  0  0  0  0  0  0  0  0  0  0
    9.1509   -5.9108   17.7177 C   0  0  0  0  0  0  0  0  0  0  0  0
    3.6373   -9.5349   16.0582 N   0  0  0  0  0  0  0  0  0  0  0  0
    9.9275   -4.8001   18.0438 N   0  0  0  0  0  0  0  0  0  0  0  0
    8.5908   -5.7425   16.4412 C   0  0  0  0  0  0  0  0  0  0  0  0
   10.5993   -4.8981   21.6068 C   0  0  0  0  0  0  0  0  0  0  0  0
   10.4258   -3.0106   23.0998 C   0  0  0  0  0  0  0  0  0  0  0  0
   10.2148   -3.4364   25.4200 C   0  0  0  0  0  0  0  0  0  0  0  0
    9.7853   -1.1840   24.4927 C   0  0  0  0  0  0  0  0  0  0  0  0
    5.0276   -8.5227   17.5352 C   0  0  0  0  0  0  0  0  0  0  0  0
    9.8187   -2.0895   25.5800 C   0  0  0  0  0  0  0  0  0  0  0  0
    5.6473   -8.7216   15.3158 C   0  0  0  0  0  0  0  0  0  0  0  0
   10.7581   -3.1233   19.4720 N   0  0  0  0  0  0  0  0  0  0  0  0
    9.9571   -4.0573   16.8866 C   0  0  0  0  0  0  0  0  0  0  0  0
    7.6213   -6.5618   16.0087 C   0  0  0  0  0  0  0  0  0  0  0  0
   10.8583   -2.6527   20.7222 C   0  0  0  0  0  0  0  0  0  0  0  0
   10.6412   -3.5089   21.7936 C   0  0  0  0  0  0  0  0  0  0  0  0
   10.4972   -3.8968   24.1589 C   0  0  0  0  0  0  0  0  0  0  0  0
    5.9260   -8.2736   16.5517 C   0  0  0  0  0  0  0  0  0  0  0  0
    3.8816   -9.1166   17.2493 C   0  0  0  0  0  0  0  0  0  0  0  0
   10.1297   -1.6575   23.2324 C   0  0  0  0  0  0  0  0  0  0  0  0
    9.4684   -1.6929   26.7263 F   0  0  0  0  0  0  0  0  0  0  0  0
    7.7963   -7.7906   17.9837 C   0  0  0  0  0  0  0  0  0  0  0  0
   10.5884   -3.0725   16.7902 O   0  0  0  0  0  0  0  0  0  0  0  0
   10.4323   -5.3494   20.3516 C   0  0  0  0  0  0  0  0  0  0  0  0
    7.1156   -7.5454   16.8218 C   0  0  0  0  0  0  0  0  0  0  0  0
   10.3885   -4.4388   19.2773 C   0  0  0  0  0  0  0  0  0  0  0  0
    4.5160   -9.3822   15.0841 C   0  0  0  0  0  0  0  0  0  0  0  0
  1  3  4  0
  1 24  4  0
  2  6  4  0
  2 15  4  0
  3  5  4  0
  3  6  4  0
  4 21  4  0
  4 29  4  0
  5 15  4  0
  5 28  1  0
  6 16  4  0
  7 18  4  0
  7 26  4  0
  8 18  1  0
  8 19  4  0
  8 22  4  0
  9 12  4  0
  9 19  4  0
 10 12  4  0
 10 22  4  0
 11 20  4  0
 11 21  4  0
 12 23  1  0
 13 20  4  0
 13 29  4  0
 14 17  4  0
 14 28  4  0
 15 25  2  0
 16 27  4  0
 17 18  4  0
 20 27  1  0
 24 27  4  0
 26 28  4  0
M  END
$$$$

 Created by Python create_sdf_string function

 29 33  0  0  0  0  0  0  0  0999 V2000
    8.8270   -7.0288   18.4251 C   0  0  0  0  0  0  0  0  0  0  0  0
    9.1576   -4.6236   15.8860 O   0  0  0  0  0  0  0  0  0  0  0  0
    9.1509   -5.9108   17.7177 C   0  0  0  0  0  0  0  0  0  0  0  0
    3.6373   -9.5349   16.0582 N   0  0  0  0  0  0  0  0  0  0  0  0
    9.9275   -4.8001   18.0438 N   0  0  0  0  0  0  0  0  0  0  0  0
    8.5908   -5.7425   16.4412 C   0  0  0  0  0  0  0  0  0  0  0  0
   10.5993   -4.8981   21.6068 C   0  0  0  0  0  0  0  0  0  0  0  0
   10.4258   -3.0106   23.0998 C   0  0  0  0  0  0  0  0  0  0  0  0
   10.2148   -3.4364   25.4200 C   0  0  0  0  0  0  0  0  0  0  0  0
    9.7853   -1.1840   24.4927 C   0  0  0  0  0  0  0  0  0  0  0  0
    5.0276   -8.5227   17.5352 C   0  0  0  0  0  0  0  0  0  0  0  0
    9.8187   -2.0895   25.5800 C   0  0  0  0  0  0  0  0  0  0  0  0
    5.6473   -8.7216   15.3158 C   0  0  0  0  0  0  0  0  0  0  0  0
   10.7581   -3.1233   19.4720 N   0  0  0  0  0  0  0  0  0  0  0  0
    9.9571   -4.0573   16.8866 C   0  0  0  0  0  0  0  0  0  0  0  0
    7.6213   -6.5618   16.0087 C   0  0  0  0  0  0  0  0  0  0  0  0
   10.8583   -2.6527   20.7222 C   0  0  0  0  0  0  0  0  0  0  0  0
   10.6412   -3.5089   21.7936 C   0  0  0  0  0  0  0  0  0  0  0  0
   10.4972   -3.8968   24.1589 C   0  0  0  0  0  0  0  0  0  0  0  0
    5.9260   -8.2736   16.5517 C   0  0  0  0  0  0  0  0  0  0  0  0
    3.8816   -9.1166   17.2493 C   0  0  0  0  0  0  0  0  0  0  0  0
   10.1297   -1.6575   23.2324 C   0  0  0  0  0  0  0  0  0  0  0  0
    9.4684   -1.6929   26.7263 F   0  0  0  0  0  0  0  0  0  0  0  0
    7.7963   -7.7906   17.9837 C   0  0  0  0  0  0  0  0  0  0  0  0
   10.5884   -3.0725   16.7902 O   0  0  0  0  0  0  0  0  0  0  0  0
   10.4323   -5.3494   20.3516 C   0  0  0  0  0  0  0  0  0  0  0  0
    7.1156   -7.5454   16.8218 C   0  0  0  0  0  0  0  0  0  0  0  0
   10.3885   -4.4388   19.2773 C   0  0  0  0  0  0  0  0  0  0  0  0
    4.5160   -9.3822   15.0841 C   0  0  0  0  0  0  0  0  0  0  0  0
  1  3  4  0
  1 24  4  0
  2  6  4  0
  2 15  4  0
  3  5  4  0
  3  6  4  0
  4 21  4  0
  4 29  4  0
  5 15  4  0
  5 28  1  0
  6 16  4  0
  7 18  4  0
  7 26  4  0
  8 18  1  0
  8 19  4  0
  8 22  4  0
  9 12  4  0
  9 19  4  0
 10 12  4  0
 10 22  4  0
 11 20  4  0
 11 21  4  0
 12 23  1  0
 13 20  4  0
 13 29  4  0
 14 17  4  0
 14 28  4  0
 15 25  2  0
 16 27  4  0
 17 18  4  0
 20 27  1  0
 24 27  4  0
 26 28  4  0
M  END
$$$$

 Created by Python create_sdf_string function

 29 33  0  0  0  0  0  0  0  0999 V2000
    8.8270   -7.0288   18.4251 C   0  0  0  0  0  0  0  0  0  0  0  0
    9.1576   -4.6236   15.8860 O   0  0  0  0  0  0  0  0  0  0  0  0
    9.1509   -5.9108   17.7177 C   0  0  0  0  0  0  0  0  0  0  0  0
    3.6373   -9.5349   16.0582 N   0  0  0  0  0  0  0  0  0  0  0  0
    9.9275   -4.8001   18.0438 N   0  0  0  0  0  0  0  0  0  0  0  0
    8.5908   -5.7425   16.4412 C   0  0  0  0  0  0  0  0  0  0  0  0
   10.5993   -4.8981   21.6068 C   0  0  0  0  0  0  0  0  0  0  0  0
   10.4258   -3.0106   23.0998 C   0  0  0  0  0  0  0  0  0  0  0  0
   10.2148   -3.4364   25.4200 C   0  0  0  0  0  0  0  0  0  0  0  0
    9.7853   -1.1840   24.4927 C   0  0  0  0  0  0  0  0  0  0  0  0
    5.0276   -8.5227   17.5352 C   0  0  0  0  0  0  0  0  0  0  0  0
    9.8187   -2.0895   25.5800 C   0  0  0  0  0  0  0  0  0  0  0  0
    5.6473   -8.7216   15.3158 C   0  0  0  0  0  0  0  0  0  0  0  0
   10.7581   -3.1233   19.4720 N   0  0  0  0  0  0  0  0  0  0  0  0
    9.9571   -4.0573   16.8866 C   0  0  0  0  0  0  0  0  0  0  0  0
    7.6213   -6.5618   16.0087 C   0  0  0  0  0  0  0  0  0  0  0  0
   10.8583   -2.6527   20.7222 C   0  0  0  0  0  0  0  0  0  0  0  0
   10.6412   -3.5089   21.7936 C   0  0  0  0  0  0  0  0  0  0  0  0
   10.4972   -3.8968   24.1589 C   0  0  0  0  0  0  0  0  0  0  0  0
    5.9260   -8.2736   16.5517 C   0  0  0  0  0  0  0  0  0  0  0  0
    3.8816   -9.1166   17.2493 C   0  0  0  0  0  0  0  0  0  0  0  0
   10.1297   -1.6575   23.2324 C   0  0  0  0  0  0  0  0  0  0  0  0
    9.4684   -1.6929   26.7263 F   0  0  0  0  0  0  0  0  0  0  0  0
    7.7963   -7.7906   17.9837 C   0  0  0  0  0  0  0  0  0  0  0  0
   10.5884   -3.0725   16.7902 O   0  0  0  0  0  0  0  0  0  0  0  0
   10.4323   -5.3494   20.3516 C   0  0  0  0  0  0  0  0  0  0  0  0
    7.1156   -7.5454   16.8218 C   0  0  0  0  0  0  0  0  0  0  0  0
   10.3885   -4.4388   19.2773 C   0  0  0  0  0  0  0  0  0  0  0  0
    4.5160   -9.3822   15.0841 C   0  0  0  0  0  0  0  0  0  0  0  0
  1  3  4  0
  1 24  4  0
  2  6  4  0
  2 15  4  0
  3  5  4  0
  3  6  4  0
  4 21  4  0
  4 29  4  0
  5 15  4  0
  5 28  1  0
  6 16  4  0
  7 18  4  0
  7 26  4  0
  8 18  1  0
  8 19  4  0
  8 22  4  0
  9 12  4  0
  9 19  4  0
 10 12  4  0
 10 22  4  0
 11 20  4  0
 11 21  4  0
 12 23  1  0
 13 20  4  0
 13 29  4  0
 14 17  4  0
 14 28  4  0
 15 25  2  0
 16 27  4  0
 17 18  4  0
 20 27  1  0
 24 27  4  0
 26 28  4  0
M  END
$$$$

 Created by Python create_sdf_string function

 29 33  0  0  0  0  0  0  0  0999 V2000
    8.8270   -7.0288   18.4251 C   0  0  0  0  0  0  0  0  0  0  0  0
    9.1576   -4.6236   15.8860 O   0  0  0  0  0  0  0  0  0  0  0  0
    9.1509   -5.9108   17.7177 C   0  0  0  0  0  0  0  0  0  0  0  0
    3.6373   -9.5349   16.0582 N   0  0  0  0  0  0  0  0  0  0  0  0
    9.9275   -4.8001   18.0438 N   0  0  0  0  0  0  0  0  0  0  0  0
    8.5908   -5.7425   16.4412 C   0  0  0  0  0  0  0  0  0  0  0  0
   10.5993   -4.8981   21.6068 C   0  0  0  0  0  0  0  0  0  0  0  0
   10.4258   -3.0106   23.0998 C   0  0  0  0  0  0  0  0  0  0  0  0
   10.2148   -3.4364   25.4200 C   0  0  0  0  0  0  0  0  0  0  0  0
    9.7853   -1.1840   24.4927 C   0  0  0  0  0  0  0  0  0  0  0  0
    5.0276   -8.5227   17.5352 C   0  0  0  0  0  0  0  0  0  0  0  0
    9.8187   -2.0895   25.5800 C   0  0  0  0  0  0  0  0  0  0  0  0
    5.6473   -8.7216   15.3158 C   0  0  0  0  0  0  0  0  0  0  0  0
   10.7581   -3.1233   19.4720 N   0  0  0  0  0  0  0  0  0  0  0  0
    9.9571   -4.0573   16.8866 C   0  0  0  0  0  0  0  0  0  0  0  0
    7.6213   -6.5618   16.0087 C   0  0  0  0  0  0  0  0  0  0  0  0
   10.8583   -2.6527   20.7222 C   0  0  0  0  0  0  0  0  0  0  0  0
   10.6412   -3.5089   21.7936 C   0  0  0  0  0  0  0  0  0  0  0  0
   10.4972   -3.8968   24.1589 C   0  0  0  0  0  0  0  0  0  0  0  0
    5.9260   -8.2736   16.5517 C   0  0  0  0  0  0  0  0  0  0  0  0
    3.8816   -9.1166   17.2493 C   0  0  0  0  0  0  0  0  0  0  0  0
   10.1297   -1.6575   23.2324 C   0  0  0  0  0  0  0  0  0  0  0  0
    9.4684   -1.6929   26.7263 F   0  0  0  0  0  0  0  0  0  0  0  0
    7.7963   -7.7906   17.9837 C   0  0  0  0  0  0  0  0  0  0  0  0
   10.5884   -3.0725   16.7902 O   0  0  0  0  0  0  0  0  0  0  0  0
   10.4323   -5.3494   20.3516 C   0  0  0  0  0  0  0  0  0  0  0  0
    7.1156   -7.5454   16.8218 C   0  0  0  0  0  0  0  0  0  0  0  0
   10.3885   -4.4388   19.2773 C   0  0  0  0  0  0  0  0  0  0  0  0
    4.5160   -9.3822   15.0841 C   0  0  0  0  0  0  0  0  0  0  0  0
  1  3  4  0
  1 24  4  0
  2  6  4  0
  2 15  4  0
  3  5  4  0
  3  6  4  0
  4 21  4  0
  4 29  4  0
  5 15  4  0
  5 28  1  0
  6 16  4  0
  7 18  4  0
  7 26  4  0
  8 18  1  0
  8 19  4  0
  8 22  4  0
  9 12  4  0
  9 19  4  0
 10 12  4  0
 10 22  4  0
 11 20  4  0
 11 21  4  0
 12 23  1  0
 13 20  4  0
 13 29  4  0
 14 17  4  0
 14 28  4  0
 15 25  2  0
 16 27  4  0
 17 18  4  0
 20 27  1  0
 24 27  4  0
 26 28  4  0
M  END
$$$$

 Created by Python create_sdf_string function

 29 33  0  0  0  0  0  0  0  0999 V2000
    8.8270   -7.0288   18.4251 C   0  0  0  0  0  0  0  0  0  0  0  0
    9.1576   -4.6236   15.8860 O   0  0  0  0  0  0  0  0  0  0  0  0
    9.1509   -5.9108   17.7177 C   0  0  0  0  0  0  0  0  0  0  0  0
    3.6373   -9.5349   16.0582 N   0  0  0  0  0  0  0  0  0  0  0  0
    9.9275   -4.8001   18.0438 N   0  0  0  0  0  0  0  0  0  0  0  0
    8.5908   -5.7425   16.4412 C   0  0  0  0  0  0  0  0  0  0  0  0
   10.5993   -4.8981   21.6068 C   0  0  0  0  0  0  0  0  0  0  0  0
   10.4258   -3.0106   23.0998 C   0  0  0  0  0  0  0  0  0  0  0  0
   10.2148   -3.4364   25.4200 C   0  0  0  0  0  0  0  0  0  0  0  0
    9.7853   -1.1840   24.4927 C   0  0  0  0  0  0  0  0  0  0  0  0
    5.0276   -8.5227   17.5352 C   0  0  0  0  0  0  0  0  0  0  0  0
    9.8187   -2.0895   25.5800 C   0  0  0  0  0  0  0  0  0  0  0  0
    5.6473   -8.7216   15.3158 C   0  0  0  0  0  0  0  0  0  0  0  0
   10.7581   -3.1233   19.4720 N   0  0  0  0  0  0  0  0  0  0  0  0
    9.9571   -4.0573   16.8866 C   0  0  0  0  0  0  0  0  0  0  0  0
    7.6213   -6.5618   16.0087 C   0  0  0  0  0  0  0  0  0  0  0  0
   10.8583   -2.6527   20.7222 C   0  0  0  0  0  0  0  0  0  0  0  0
   10.6412   -3.5089   21.7936 C   0  0  0  0  0  0  0  0  0  0  0  0
   10.4972   -3.8968   24.1589 C   0  0  0  0  0  0  0  0  0  0  0  0
    5.9260   -8.2736   16.5517 C   0  0  0  0  0  0  0  0  0  0  0  0
    3.8816   -9.1166   17.2493 C   0  0  0  0  0  0  0  0  0  0  0  0
   10.1297   -1.6575   23.2324 C   0  0  0  0  0  0  0  0  0  0  0  0
    9.4684   -1.6929   26.7263 F   0  0  0  0  0  0  0  0  0  0  0  0
    7.7963   -7.7906   17.9837 C   0  0  0  0  0  0  0  0  0  0  0  0
   10.5884   -3.0725   16.7902 O   0  0  0  0  0  0  0  0  0  0  0  0
   10.4323   -5.3494   20.3516 C   0  0  0  0  0  0  0  0  0  0  0  0
    7.1156   -7.5454   16.8218 C   0  0  0  0  0  0  0  0  0  0  0  0
   10.3885   -4.4388   19.2773 C   0  0  0  0  0  0  0  0  0  0  0  0
    4.5160   -9.3822   15.0841 C   0  0  0  0  0  0  0  0  0  0  0  0
  1  3  4  0
  1 24  4  0
  2  6  4  0
  2 15  4  0
  3  5  4  0
  3  6  4  0
  4 21  4  0
  4 29  4  0
  5 15  4  0
  5 28  1  0
  6 16  4  0
  7 18  4  0
  7 26  4  0
  8 18  1  0
  8 19  4  0
  8 22  4  0
  9 12  4  0
  9 19  4  0
 10 12  4  0
 10 22  4  0
 11 20  4  0
 11 21  4  0
 12 23  1  0
 13 20  4  0
 13 29  4  0
 14 17  4  0
 14 28  4  0
 15 25  2  0
 16 27  4  0
 17 18  4  0
 20 27  1  0
 24 27  4  0
 26 28  4  0
M  END
$$$$

 Created by Python create_sdf_string function

 29 33  0  0  0  0  0  0  0  0999 V2000
    8.8270   -7.0288   18.4251 C   0  0  0  0  0  0  0  0  0  0  0  0
    9.1576   -4.6236   15.8860 O   0  0  0  0  0  0  0  0  0  0  0  0
    9.1509   -5.9108   17.7177 C   0  0  0  0  0  0  0  0  0  0  0  0
    3.6373   -9.5349   16.0582 N   0  0  0  0  0  0  0  0  0  0  0  0
    9.9275   -4.8001   18.0438 N   0  0  0  0  0  0  0  0  0  0  0  0
    8.5908   -5.7425   16.4412 C   0  0  0  0  0  0  0  0  0  0  0  0
   10.5993   -4.8981   21.6068 C   0  0  0  0  0  0  0  0  0  0  0  0
   10.4258   -3.0106   23.0998 C   0  0  0  0  0  0  0  0  0  0  0  0
   10.2148   -3.4364   25.4200 C   0  0  0  0  0  0  0  0  0  0  0  0
    9.7853   -1.1840   24.4927 C   0  0  0  0  0  0  0  0  0  0  0  0
    5.0276   -8.5227   17.5352 C   0  0  0  0  0  0  0  0  0  0  0  0
    9.8187   -2.0895   25.5800 C   0  0  0  0  0  0  0  0  0  0  0  0
    5.6473   -8.7216   15.3158 C   0  0  0  0  0  0  0  0  0  0  0  0
   10.7581   -3.1233   19.4720 N   0  0  0  0  0  0  0  0  0  0  0  0
    9.9571   -4.0573   16.8866 C   0  0  0  0  0  0  0  0  0  0  0  0
    7.6213   -6.5618   16.0087 C   0  0  0  0  0  0  0  0  0  0  0  0
   10.8583   -2.6527   20.7222 C   0  0  0  0  0  0  0  0  0  0  0  0
   10.6412   -3.5089   21.7936 C   0  0  0  0  0  0  0  0  0  0  0  0
   10.4972   -3.8968   24.1589 C   0  0  0  0  0  0  0  0  0  0  0  0
    5.9260   -8.2736   16.5517 C   0  0  0  0  0  0  0  0  0  0  0  0
    3.8816   -9.1166   17.2493 C   0  0  0  0  0  0  0  0  0  0  0  0
   10.1297   -1.6575   23.2324 C   0  0  0  0  0  0  0  0  0  0  0  0
    9.4684   -1.6929   26.7263 F   0  0  0  0  0  0  0  0  0  0  0  0
    7.7963   -7.7906   17.9837 C   0  0  0  0  0  0  0  0  0  0  0  0
   10.5884   -3.0725   16.7902 O   0  0  0  0  0  0  0  0  0  0  0  0
   10.4323   -5.3494   20.3516 C   0  0  0  0  0  0  0  0  0  0  0  0
    7.1156   -7.5454   16.8218 C   0  0  0  0  0  0  0  0  0  0  0  0
   10.3885   -4.4388   19.2773 C   0  0  0  0  0  0  0  0  0  0  0  0
    4.5160   -9.3822   15.0841 C   0  0  0  0  0  0  0  0  0  0  0  0
  1  3  4  0
  1 24  4  0
  2  6  4  0
  2 15  4  0
  3  5  4  0
  3  6  4  0
  4 21  4  0
  4 29  4  0
  5 15  4  0
  5 28  1  0
  6 16  4  0
  7 18  4  0
  7 26  4  0
  8 18  1  0
  8 19  4  0
  8 22  4  0
  9 12  4  0
  9 19  4  0
 10 12  4  0
 10 22  4  0
 11 20  4  0
 11 21  4  0
 12 23  1  0
 13 20  4  0
 13 29  4  0
 14 17  4  0
 14 28  4  0
 15 25  2  0
 16 27  4  0
 17 18  4  0
 20 27  1  0
 24 27  4  0
 26 28  4  0
M  END
$$$$

 Created by Python create_sdf_string function

 29 33  0  0  0  0  0  0  0  0999 V2000
    8.8270   -7.0288   18.4251 C   0  0  0  0  0  0  0  0  0  0  0  0
    9.1576   -4.6236   15.8860 O   0  0  0  0  0  0  0  0  0  0  0  0
    9.1509   -5.9108   17.7177 C   0  0  0  0  0  0  0  0  0  0  0  0
    3.6373   -9.5349   16.0582 N   0  0  0  0  0  0  0  0  0  0  0  0
    9.9275   -4.8001   18.0438 N   0  0  0  0  0  0  0  0  0  0  0  0
    8.5908   -5.7425   16.4412 C   0  0  0  0  0  0  0  0  0  0  0  0
   10.5993   -4.8981   21.6068 C   0  0  0  0  0  0  0  0  0  0  0  0
   10.4258   -3.0106   23.0998 C   0  0  0  0  0  0  0  0  0  0  0  0
   10.2148   -3.4364   25.4200 C   0  0  0  0  0  0  0  0  0  0  0  0
    9.7853   -1.1840   24.4927 C   0  0  0  0  0  0  0  0  0  0  0  0
    5.0276   -8.5227   17.5352 C   0  0  0  0  0  0  0  0  0  0  0  0
    9.8187   -2.0895   25.5800 C   0  0  0  0  0  0  0  0  0  0  0  0
    5.6473   -8.7216   15.3158 C   0  0  0  0  0  0  0  0  0  0  0  0
   10.7581   -3.1233   19.4720 N   0  0  0  0  0  0  0  0  0  0  0  0
    9.9571   -4.0573   16.8866 C   0  0  0  0  0  0  0  0  0  0  0  0
    7.6213   -6.5618   16.0087 C   0  0  0  0  0  0  0  0  0  0  0  0
   10.8583   -2.6527   20.7222 C   0  0  0  0  0  0  0  0  0  0  0  0
   10.6412   -3.5089   21.7936 C   0  0  0  0  0  0  0  0  0  0  0  0
   10.4972   -3.8968   24.1589 C   0  0  0  0  0  0  0  0  0  0  0  0
    5.9260   -8.2736   16.5517 C   0  0  0  0  0  0  0  0  0  0  0  0
    3.8816   -9.1166   17.2493 C   0  0  0  0  0  0  0  0  0  0  0  0
   10.1297   -1.6575   23.2324 C   0  0  0  0  0  0  0  0  0  0  0  0
    9.4684   -1.6929   26.7263 F   0  0  0  0  0  0  0  0  0  0  0  0
    7.7963   -7.7906   17.9837 C   0  0  0  0  0  0  0  0  0  0  0  0
   10.5884   -3.0725   16.7902 O   0  0  0  0  0  0  0  0  0  0  0  0
   10.4323   -5.3494   20.3516 C   0  0  0  0  0  0  0  0  0  0  0  0
    7.1156   -7.5454   16.8218 C   0  0  0  0  0  0  0  0  0  0  0  0
   10.3885   -4.4388   19.2773 C   0  0  0  0  0  0  0  0  0  0  0  0
    4.5160   -9.3822   15.0841 C   0  0  0  0  0  0  0  0  0  0  0  0
  1  3  4  0
  1 24  4  0
  2  6  4  0
  2 15  4  0
  3  5  4  0
  3  6  4  0
  4 21  4  0
  4 29  4  0
  5 15  4  0
  5 28  1  0
  6 16  4  0
  7 18  4  0
  7 26  4  0
  8 18  1  0
  8 19  4  0
  8 22  4  0
  9 12  4  0
  9 19  4  0
 10 12  4  0
 10 22  4  0
 11 20  4  0
 11 21  4  0
 12 23  1  0
 13 20  4  0
 13 29  4  0
 14 17  4  0
 14 28  4  0
 15 25  2  0
 16 27  4  0
 17 18  4  0
 20 27  1  0
 24 27  4  0
 26 28  4  0
M  END
$$$$

 Created by Python create_sdf_string function

 29 33  0  0  0  0  0  0  0  0999 V2000
    8.8270   -7.0288   18.4251 C   0  0  0  0  0  0  0  0  0  0  0  0
    9.1576   -4.6236   15.8860 O   0  0  0  0  0  0  0  0  0  0  0  0
    9.1509   -5.9108   17.7177 C   0  0  0  0  0  0  0  0  0  0  0  0
    3.6373   -9.5349   16.0582 N   0  0  0  0  0  0  0  0  0  0  0  0
    9.9275   -4.8001   18.0438 N   0  0  0  0  0  0  0  0  0  0  0  0
    8.5908   -5.7425   16.4412 C   0  0  0  0  0  0  0  0  0  0  0  0
   10.5993   -4.8981   21.6068 C   0  0  0  0  0  0  0  0  0  0  0  0
   10.4258   -3.0106   23.0998 C   0  0  0  0  0  0  0  0  0  0  0  0
   10.2148   -3.4364   25.4200 C   0  0  0  0  0  0  0  0  0  0  0  0
    9.7853   -1.1840   24.4927 C   0  0  0  0  0  0  0  0  0  0  0  0
    5.0276   -8.5227   17.5352 C   0  0  0  0  0  0  0  0  0  0  0  0
    9.8187   -2.0895   25.5800 C   0  0  0  0  0  0  0  0  0  0  0  0
    5.6473   -8.7216   15.3158 C   0  0  0  0  0  0  0  0  0  0  0  0
   10.7581   -3.1233   19.4720 N   0  0  0  0  0  0  0  0  0  0  0  0
    9.9571   -4.0573   16.8866 C   0  0  0  0  0  0  0  0  0  0  0  0
    7.6213   -6.5618   16.0087 C   0  0  0  0  0  0  0  0  0  0  0  0
   10.8583   -2.6527   20.7222 C   0  0  0  0  0  0  0  0  0  0  0  0
   10.6412   -3.5089   21.7936 C   0  0  0  0  0  0  0  0  0  0  0  0
   10.4972   -3.8968   24.1589 C   0  0  0  0  0  0  0  0  0  0  0  0
    5.9260   -8.2736   16.5517 C   0  0  0  0  0  0  0  0  0  0  0  0
    3.8816   -9.1166   17.2493 C   0  0  0  0  0  0  0  0  0  0  0  0
   10.1297   -1.6575   23.2324 C   0  0  0  0  0  0  0  0  0  0  0  0
    9.4684   -1.6929   26.7263 F   0  0  0  0  0  0  0  0  0  0  0  0
    7.7963   -7.7906   17.9837 C   0  0  0  0  0  0  0  0  0  0  0  0
   10.5884   -3.0725   16.7902 O   0  0  0  0  0  0  0  0  0  0  0  0
   10.4323   -5.3494   20.3516 C   0  0  0  0  0  0  0  0  0  0  0  0
    7.1156   -7.5454   16.8218 C   0  0  0  0  0  0  0  0  0  0  0  0
   10.3885   -4.4388   19.2773 C   0  0  0  0  0  0  0  0  0  0  0  0
    4.5160   -9.3822   15.0841 C   0  0  0  0  0  0  0  0  0  0  0  0
  1  3  4  0
  1 24  4  0
  2  6  4  0
  2 15  4  0
  3  5  4  0
  3  6  4  0
  4 21  4  0
  4 29  4  0
  5 15  4  0
  5 28  1  0
  6 16  4  0
  7 18  4  0
  7 26  4  0
  8 18  1  0
  8 19  4  0
  8 22  4  0
  9 12  4  0
  9 19  4  0
 10 12  4  0
 10 22  4  0
 11 20  4  0
 11 21  4  0
 12 23  1  0
 13 20  4  0
 13 29  4  0
 14 17  4  0
 14 28  4  0
 15 25  2  0
 16 27  4  0
 17 18  4  0
 20 27  1  0
 24 27  4  0
 26 28  4  0
M  END
$$$$

 Created by Python create_sdf_string function

 29 33  0  0  0  0  0  0  0  0999 V2000
    8.8270   -7.0288   18.4251 C   0  0  0  0  0  0  0  0  0  0  0  0
    9.1576   -4.6236   15.8860 O   0  0  0  0  0  0  0  0  0  0  0  0
    9.1509   -5.9108   17.7177 C   0  0  0  0  0  0  0  0  0  0  0  0
    3.6373   -9.5349   16.0582 N   0  0  0  0  0  0  0  0  0  0  0  0
    9.9275   -4.8001   18.0438 N   0  0  0  0  0  0  0  0  0  0  0  0
    8.5908   -5.7425   16.4412 C   0  0  0  0  0  0  0  0  0  0  0  0
   10.5993   -4.8981   21.6068 C   0  0  0  0  0  0  0  0  0  0  0  0
   10.4258   -3.0106   23.0998 C   0  0  0  0  0  0  0  0  0  0  0  0
   10.2148   -3.4364   25.4200 C   0  0  0  0  0  0  0  0  0  0  0  0
    9.7853   -1.1840   24.4927 C   0  0  0  0  0  0  0  0  0  0  0  0
    5.0276   -8.5227   17.5352 C   0  0  0  0  0  0  0  0  0  0  0  0
    9.8187   -2.0895   25.5800 C   0  0  0  0  0  0  0  0  0  0  0  0
    5.6473   -8.7216   15.3158 C   0  0  0  0  0  0  0  0  0  0  0  0
   10.7581   -3.1233   19.4720 N   0  0  0  0  0  0  0  0  0  0  0  0
    9.9571   -4.0573   16.8866 C   0  0  0  0  0  0  0  0  0  0  0  0
    7.6213   -6.5618   16.0087 C   0  0  0  0  0  0  0  0  0  0  0  0
   10.8583   -2.6527   20.7222 C   0  0  0  0  0  0  0  0  0  0  0  0
   10.6412   -3.5089   21.7936 C   0  0  0  0  0  0  0  0  0  0  0  0
   10.4972   -3.8968   24.1589 C   0  0  0  0  0  0  0  0  0  0  0  0
    5.9260   -8.2736   16.5517 C   0  0  0  0  0  0  0  0  0  0  0  0
    3.8816   -9.1166   17.2493 C   0  0  0  0  0  0  0  0  0  0  0  0
   10.1297   -1.6575   23.2324 C   0  0  0  0  0  0  0  0  0  0  0  0
    9.4684   -1.6929   26.7263 F   0  0  0  0  0  0  0  0  0  0  0  0
    7.7963   -7.7906   17.9837 C   0  0  0  0  0  0  0  0  0  0  0  0
   10.5884   -3.0725   16.7902 O   0  0  0  0  0  0  0  0  0  0  0  0
   10.4323   -5.3494   20.3516 C   0  0  0  0  0  0  0  0  0  0  0  0
    7.1156   -7.5454   16.8218 C   0  0  0  0  0  0  0  0  0  0  0  0
   10.3885   -4.4388   19.2773 C   0  0  0  0  0  0  0  0  0  0  0  0
    4.5160   -9.3822   15.0841 C   0  0  0  0  0  0  0  0  0  0  0  0
  1  3  4  0
  1 24  4  0
  2  6  4  0
  2 15  4  0
  3  5  4  0
  3  6  4  0
  4 21  4  0
  4 29  4  0
  5 15  4  0
  5 28  1  0
  6 16  4  0
  7 18  4  0
  7 26  4  0
  8 18  1  0
  8 19  4  0
  8 22  4  0
  9 12  4  0
  9 19  4  0
 10 12  4  0
 10 22  4  0
 11 20  4  0
 11 21  4  0
 12 23  1  0
 13 20  4  0
 13 29  4  0
 14 17  4  0
 14 28  4  0
 15 25  2  0
 16 27  4  0
 17 18  4  0
 20 27  1  0
 24 27  4  0
 26 28  4  0
M  END
$$$$

 Created by Python create_sdf_string function

 29 33  0  0  0  0  0  0  0  0999 V2000
    8.8270   -7.0288   18.4251 C   0  0  0  0  0  0  0  0  0  0  0  0
    9.1576   -4.6236   15.8860 O   0  0  0  0  0  0  0  0  0  0  0  0
    9.1509   -5.9108   17.7177 C   0  0  0  0  0  0  0  0  0  0  0  0
    3.6373   -9.5349   16.0582 N   0  0  0  0  0  0  0  0  0  0  0  0
    9.9275   -4.8001   18.0438 N   0  0  0  0  0  0  0  0  0  0  0  0
    8.5908   -5.7425   16.4412 C   0  0  0  0  0  0  0  0  0  0  0  0
   10.5993   -4.8981   21.6068 C   0  0  0  0  0  0  0  0  0  0  0  0
   10.4258   -3.0106   23.0998 C   0  0  0  0  0  0  0  0  0  0  0  0
   10.2148   -3.4364   25.4200 C   0  0  0  0  0  0  0  0  0  0  0  0
    9.7853   -1.1840   24.4927 C   0  0  0  0  0  0  0  0  0  0  0  0
    5.0276   -8.5227   17.5352 C   0  0  0  0  0  0  0  0  0  0  0  0
    9.8187   -2.0895   25.5800 C   0  0  0  0  0  0  0  0  0  0  0  0
    5.6473   -8.7216   15.3158 C   0  0  0  0  0  0  0  0  0  0  0  0
   10.7581   -3.1233   19.4720 N   0  0  0  0  0  0  0  0  0  0  0  0
    9.9571   -4.0573   16.8866 C   0  0  0  0  0  0  0  0  0  0  0  0
    7.6213   -6.5618   16.0087 C   0  0  0  0  0  0  0  0  0  0  0  0
   10.8583   -2.6527   20.7222 C   0  0  0  0  0  0  0  0  0  0  0  0
   10.6412   -3.5089   21.7936 C   0  0  0  0  0  0  0  0  0  0  0  0
   10.4972   -3.8968   24.1589 C   0  0  0  0  0  0  0  0  0  0  0  0
    5.9260   -8.2736   16.5517 C   0  0  0  0  0  0  0  0  0  0  0  0
    3.8816   -9.1166   17.2493 C   0  0  0  0  0  0  0  0  0  0  0  0
   10.1297   -1.6575   23.2324 C   0  0  0  0  0  0  0  0  0  0  0  0
    9.4684   -1.6929   26.7263 F   0  0  0  0  0  0  0  0  0  0  0  0
    7.7963   -7.7906   17.9837 C   0  0  0  0  0  0  0  0  0  0  0  0
   10.5884   -3.0725   16.7902 O   0  0  0  0  0  0  0  0  0  0  0  0
   10.4323   -5.3494   20.3516 C   0  0  0  0  0  0  0  0  0  0  0  0
    7.1156   -7.5454   16.8218 C   0  0  0  0  0  0  0  0  0  0  0  0
   10.3885   -4.4388   19.2773 C   0  0  0  0  0  0  0  0  0  0  0  0
    4.5160   -9.3822   15.0841 C   0  0  0  0  0  0  0  0  0  0  0  0
  1  3  4  0
  1 24  4  0
  2  6  4  0
  2 15  4  0
  3  5  4  0
  3  6  4  0
  4 21  4  0
  4 29  4  0
  5 15  4  0
  5 28  1  0
  6 16  4  0
  7 18  4  0
  7 26  4  0
  8 18  1  0
  8 19  4  0
  8 22  4  0
  9 12  4  0
  9 19  4  0
 10 12  4  0
 10 22  4  0
 11 20  4  0
 11 21  4  0
 12 23  1  0
 13 20  4  0
 13 29  4  0
 14 17  4  0
 14 28  4  0
 15 25  2  0
 16 27  4  0
 17 18  4  0
 20 27  1  0
 24 27  4  0
 26 28  4  0
M  END
$$$$

 Created by Python create_sdf_string function

 29 33  0  0  0  0  0  0  0  0999 V2000
    8.8270   -7.0288   18.4251 C   0  0  0  0  0  0  0  0  0  0  0  0
    9.1576   -4.6236   15.8860 O   0  0  0  0  0  0  0  0  0  0  0  0
    9.1509   -5.9108   17.7177 C   0  0  0  0  0  0  0  0  0  0  0  0
    3.6373   -9.5349   16.0582 N   0  0  0  0  0  0  0  0  0  0  0  0
    9.9275   -4.8001   18.0438 N   0  0  0  0  0  0  0  0  0  0  0  0
    8.5908   -5.7425   16.4412 C   0  0  0  0  0  0  0  0  0  0  0  0
   10.5993   -4.8981   21.6068 C   0  0  0  0  0  0  0  0  0  0  0  0
   10.4258   -3.0106   23.0998 C   0  0  0  0  0  0  0  0  0  0  0  0
   10.2148   -3.4364   25.4200 C   0  0  0  0  0  0  0  0  0  0  0  0
    9.7853   -1.1840   24.4927 C   0  0  0  0  0  0  0  0  0  0  0  0
    5.0276   -8.5227   17.5352 C   0  0  0  0  0  0  0  0  0  0  0  0
    9.8187   -2.0895   25.5800 C   0  0  0  0  0  0  0  0  0  0  0  0
    5.6473   -8.7216   15.3158 C   0  0  0  0  0  0  0  0  0  0  0  0
   10.7581   -3.1233   19.4720 N   0  0  0  0  0  0  0  0  0  0  0  0
    9.9571   -4.0573   16.8866 C   0  0  0  0  0  0  0  0  0  0  0  0
    7.6213   -6.5618   16.0087 C   0  0  0  0  0  0  0  0  0  0  0  0
   10.8583   -2.6527   20.7222 C   0  0  0  0  0  0  0  0  0  0  0  0
   10.6412   -3.5089   21.7936 C   0  0  0  0  0  0  0  0  0  0  0  0
   10.4972   -3.8968   24.1589 C   0  0  0  0  0  0  0  0  0  0  0  0
    5.9260   -8.2736   16.5517 C   0  0  0  0  0  0  0  0  0  0  0  0
    3.8816   -9.1166   17.2493 C   0  0  0  0  0  0  0  0  0  0  0  0
   10.1297   -1.6575   23.2324 C   0  0  0  0  0  0  0  0  0  0  0  0
    9.4684   -1.6929   26.7263 F   0  0  0  0  0  0  0  0  0  0  0  0
    7.7963   -7.7906   17.9837 C   0  0  0  0  0  0  0  0  0  0  0  0
   10.5884   -3.0725   16.7902 O   0  0  0  0  0  0  0  0  0  0  0  0
   10.4323   -5.3494   20.3516 C   0  0  0  0  0  0  0  0  0  0  0  0
    7.1156   -7.5454   16.8218 C   0  0  0  0  0  0  0  0  0  0  0  0
   10.3885   -4.4388   19.2773 C   0  0  0  0  0  0  0  0  0  0  0  0
    4.5160   -9.3822   15.0841 C   0  0  0  0  0  0  0  0  0  0  0  0
  1  3  4  0
  1 24  4  0
  2  6  4  0
  2 15  4  0
  3  5  4  0
  3  6  4  0
  4 21  4  0
  4 29  4  0
  5 15  4  0
  5 28  1  0
  6 16  4  0
  7 18  4  0
  7 26  4  0
  8 18  1  0
  8 19  4  0
  8 22  4  0
  9 12  4  0
  9 19  4  0
 10 12  4  0
 10 22  4  0
 11 20  4  0
 11 21  4  0
 12 23  1  0
 13 20  4  0
 13 29  4  0
 14 17  4  0
 14 28  4  0
 15 25  2  0
 16 27  4  0
 17 18  4  0
 20 27  1  0
 24 27  4  0
 26 28  4  0
M  END
$$$$

 Created by Python create_sdf_string function

 29 33  0  0  0  0  0  0  0  0999 V2000
    8.8270   -7.0288   18.4251 C   0  0  0  0  0  0  0  0  0  0  0  0
    9.1576   -4.6236   15.8860 O   0  0  0  0  0  0  0  0  0  0  0  0
    9.1509   -5.9108   17.7177 C   0  0  0  0  0  0  0  0  0  0  0  0
    3.6373   -9.5349   16.0582 N   0  0  0  0  0  0  0  0  0  0  0  0
    9.9275   -4.8001   18.0438 N   0  0  0  0  0  0  0  0  0  0  0  0
    8.5908   -5.7425   16.4412 C   0  0  0  0  0  0  0  0  0  0  0  0
   10.5993   -4.8981   21.6068 C   0  0  0  0  0  0  0  0  0  0  0  0
   10.4258   -3.0106   23.0998 C   0  0  0  0  0  0  0  0  0  0  0  0
   10.2148   -3.4364   25.4200 C   0  0  0  0  0  0  0  0  0  0  0  0
    9.7853   -1.1840   24.4927 C   0  0  0  0  0  0  0  0  0  0  0  0
    5.0276   -8.5227   17.5352 C   0  0  0  0  0  0  0  0  0  0  0  0
    9.8187   -2.0895   25.5800 C   0  0  0  0  0  0  0  0  0  0  0  0
    5.6473   -8.7216   15.3158 C   0  0  0  0  0  0  0  0  0  0  0  0
   10.7581   -3.1233   19.4720 N   0  0  0  0  0  0  0  0  0  0  0  0
    9.9571   -4.0573   16.8866 C   0  0  0  0  0  0  0  0  0  0  0  0
    7.6213   -6.5618   16.0087 C   0  0  0  0  0  0  0  0  0  0  0  0
   10.8583   -2.6527   20.7222 C   0  0  0  0  0  0  0  0  0  0  0  0
   10.6412   -3.5089   21.7936 C   0  0  0  0  0  0  0  0  0  0  0  0
   10.4972   -3.8968   24.1589 C   0  0  0  0  0  0  0  0  0  0  0  0
    5.9260   -8.2736   16.5517 C   0  0  0  0  0  0  0  0  0  0  0  0
    3.8816   -9.1166   17.2493 C   0  0  0  0  0  0  0  0  0  0  0  0
   10.1297   -1.6575   23.2324 C   0  0  0  0  0  0  0  0  0  0  0  0
    9.4684   -1.6929   26.7263 F   0  0  0  0  0  0  0  0  0  0  0  0
    7.7963   -7.7906   17.9837 C   0  0  0  0  0  0  0  0  0  0  0  0
   10.5884   -3.0725   16.7902 O   0  0  0  0  0  0  0  0  0  0  0  0
   10.4323   -5.3494   20.3516 C   0  0  0  0  0  0  0  0  0  0  0  0
    7.1156   -7.5454   16.8218 C   0  0  0  0  0  0  0  0  0  0  0  0
   10.3885   -4.4388   19.2773 C   0  0  0  0  0  0  0  0  0  0  0  0
    4.5160   -9.3822   15.0841 C   0  0  0  0  0  0  0  0  0  0  0  0
  1  3  4  0
  1 24  4  0
  2  6  4  0
  2 15  4  0
  3  5  4  0
  3  6  4  0
  4 21  4  0
  4 29  4  0
  5 15  4  0
  5 28  1  0
  6 16  4  0
  7 18  4  0
  7 26  4  0
  8 18  1  0
  8 19  4  0
  8 22  4  0
  9 12  4  0
  9 19  4  0
 10 12  4  0
 10 22  4  0
 11 20  4  0
 11 21  4  0
 12 23  1  0
 13 20  4  0
 13 29  4  0
 14 17  4  0
 14 28  4  0
 15 25  2  0
 16 27  4  0
 17 18  4  0
 20 27  1  0
 24 27  4  0
 26 28  4  0
M  END
$$$$

 Created by Python create_sdf_string function

 29 33  0  0  0  0  0  0  0  0999 V2000
    8.8270   -7.0288   18.4251 C   0  0  0  0  0  0  0  0  0  0  0  0
    9.1576   -4.6236   15.8860 O   0  0  0  0  0  0  0  0  0  0  0  0
    9.1509   -5.9108   17.7177 C   0  0  0  0  0  0  0  0  0  0  0  0
    3.6373   -9.5349   16.0582 N   0  0  0  0  0  0  0  0  0  0  0  0
    9.9275   -4.8001   18.0438 N   0  0  0  0  0  0  0  0  0  0  0  0
    8.5908   -5.7425   16.4412 C   0  0  0  0  0  0  0  0  0  0  0  0
   10.5993   -4.8981   21.6068 C   0  0  0  0  0  0  0  0  0  0  0  0
   10.4258   -3.0106   23.0998 C   0  0  0  0  0  0  0  0  0  0  0  0
   10.2148   -3.4364   25.4200 C   0  0  0  0  0  0  0  0  0  0  0  0
    9.7853   -1.1840   24.4927 C   0  0  0  0  0  0  0  0  0  0  0  0
    5.0276   -8.5227   17.5352 C   0  0  0  0  0  0  0  0  0  0  0  0
    9.8187   -2.0895   25.5800 C   0  0  0  0  0  0  0  0  0  0  0  0
    5.6473   -8.7216   15.3158 C   0  0  0  0  0  0  0  0  0  0  0  0
   10.7581   -3.1233   19.4720 N   0  0  0  0  0  0  0  0  0  0  0  0
    9.9571   -4.0573   16.8866 C   0  0  0  0  0  0  0  0  0  0  0  0
    7.6213   -6.5618   16.0087 C   0  0  0  0  0  0  0  0  0  0  0  0
   10.8583   -2.6527   20.7222 C   0  0  0  0  0  0  0  0  0  0  0  0
   10.6412   -3.5089   21.7936 C   0  0  0  0  0  0  0  0  0  0  0  0
   10.4972   -3.8968   24.1589 C   0  0  0  0  0  0  0  0  0  0  0  0
    5.9260   -8.2736   16.5517 C   0  0  0  0  0  0  0  0  0  0  0  0
    3.8816   -9.1166   17.2493 C   0  0  0  0  0  0  0  0  0  0  0  0
   10.1297   -1.6575   23.2324 C   0  0  0  0  0  0  0  0  0  0  0  0
    9.4684   -1.6929   26.7263 F   0  0  0  0  0  0  0  0  0  0  0  0
    7.7963   -7.7906   17.9837 C   0  0  0  0  0  0  0  0  0  0  0  0
   10.5884   -3.0725   16.7902 O   0  0  0  0  0  0  0  0  0  0  0  0
   10.4323   -5.3494   20.3516 C   0  0  0  0  0  0  0  0  0  0  0  0
    7.1156   -7.5454   16.8218 C   0  0  0  0  0  0  0  0  0  0  0  0
   10.3885   -4.4388   19.2773 C   0  0  0  0  0  0  0  0  0  0  0  0
    4.5160   -9.3822   15.0841 C   0  0  0  0  0  0  0  0  0  0  0  0
  1  3  4  0
  1 24  4  0
  2  6  4  0
  2 15  4  0
  3  5  4  0
  3  6  4  0
  4 21  4  0
  4 29  4  0
  5 15  4  0
  5 28  1  0
  6 16  4  0
  7 18  4  0
  7 26  4  0
  8 18  1  0
  8 19  4  0
  8 22  4  0
  9 12  4  0
  9 19  4  0
 10 12  4  0
 10 22  4  0
 11 20  4  0
 11 21  4  0
 12 23  1  0
 13 20  4  0
 13 29  4  0
 14 17  4  0
 14 28  4  0
 15 25  2  0
 16 27  4  0
 17 18  4  0
 20 27  1  0
 24 27  4  0
 26 28  4  0
M  END
$$$$

 Created by Python create_sdf_string function

 29 33  0  0  0  0  0  0  0  0999 V2000
    8.8270   -7.0288   18.4251 C   0  0  0  0  0  0  0  0  0  0  0  0
    9.1576   -4.6236   15.8860 O   0  0  0  0  0  0  0  0  0  0  0  0
    9.1509   -5.9108   17.7177 C   0  0  0  0  0  0  0  0  0  0  0  0
    3.6373   -9.5349   16.0582 N   0  0  0  0  0  0  0  0  0  0  0  0
    9.9275   -4.8001   18.0438 N   0  0  0  0  0  0  0  0  0  0  0  0
    8.5908   -5.7425   16.4412 C   0  0  0  0  0  0  0  0  0  0  0  0
   10.5993   -4.8981   21.6068 C   0  0  0  0  0  0  0  0  0  0  0  0
   10.4258   -3.0106   23.0998 C   0  0  0  0  0  0  0  0  0  0  0  0
   10.2148   -3.4364   25.4200 C   0  0  0  0  0  0  0  0  0  0  0  0
    9.7853   -1.1840   24.4927 C   0  0  0  0  0  0  0  0  0  0  0  0
    5.0276   -8.5227   17.5352 C   0  0  0  0  0  0  0  0  0  0  0  0
    9.8187   -2.0895   25.5800 C   0  0  0  0  0  0  0  0  0  0  0  0
    5.6473   -8.7216   15.3158 C   0  0  0  0  0  0  0  0  0  0  0  0
   10.7581   -3.1233   19.4720 N   0  0  0  0  0  0  0  0  0  0  0  0
    9.9571   -4.0573   16.8866 C   0  0  0  0  0  0  0  0  0  0  0  0
    7.6213   -6.5618   16.0087 C   0  0  0  0  0  0  0  0  0  0  0  0
   10.8583   -2.6527   20.7222 C   0  0  0  0  0  0  0  0  0  0  0  0
   10.6412   -3.5089   21.7936 C   0  0  0  0  0  0  0  0  0  0  0  0
   10.4972   -3.8968   24.1589 C   0  0  0  0  0  0  0  0  0  0  0  0
    5.9260   -8.2736   16.5517 C   0  0  0  0  0  0  0  0  0  0  0  0
    3.8816   -9.1166   17.2493 C   0  0  0  0  0  0  0  0  0  0  0  0
   10.1297   -1.6575   23.2324 C   0  0  0  0  0  0  0  0  0  0  0  0
    9.4684   -1.6929   26.7263 F   0  0  0  0  0  0  0  0  0  0  0  0
    7.7963   -7.7906   17.9837 C   0  0  0  0  0  0  0  0  0  0  0  0
   10.5884   -3.0725   16.7902 O   0  0  0  0  0  0  0  0  0  0  0  0
   10.4323   -5.3494   20.3516 C   0  0  0  0  0  0  0  0  0  0  0  0
    7.1156   -7.5454   16.8218 C   0  0  0  0  0  0  0  0  0  0  0  0
   10.3885   -4.4388   19.2773 C   0  0  0  0  0  0  0  0  0  0  0  0
    4.5160   -9.3822   15.0841 C   0  0  0  0  0  0  0  0  0  0  0  0
  1  3  4  0
  1 24  4  0
  2  6  4  0
  2 15  4  0
  3  5  4  0
  3  6  4  0
  4 21  4  0
  4 29  4  0
  5 15  4  0
  5 28  1  0
  6 16  4  0
  7 18  4  0
  7 26  4  0
  8 18  1  0
  8 19  4  0
  8 22  4  0
  9 12  4  0
  9 19  4  0
 10 12  4  0
 10 22  4  0
 11 20  4  0
 11 21  4  0
 12 23  1  0
 13 20  4  0
 13 29  4  0
 14 17  4  0
 14 28  4  0
 15 25  2  0
 16 27  4  0
 17 18  4  0
 20 27  1  0
 24 27  4  0
 26 28  4  0
M  END
$$$$

 Created by Python create_sdf_string function

 29 33  0  0  0  0  0  0  0  0999 V2000
    8.8270   -7.0288   18.4251 C   0  0  0  0  0  0  0  0  0  0  0  0
    9.1576   -4.6236   15.8860 O   0  0  0  0  0  0  0  0  0  0  0  0
    9.1509   -5.9108   17.7177 C   0  0  0  0  0  0  0  0  0  0  0  0
    3.6373   -9.5349   16.0582 N   0  0  0  0  0  0  0  0  0  0  0  0
    9.9275   -4.8001   18.0438 N   0  0  0  0  0  0  0  0  0  0  0  0
    8.5908   -5.7425   16.4412 C   0  0  0  0  0  0  0  0  0  0  0  0
   10.5993   -4.8981   21.6068 C   0  0  0  0  0  0  0  0  0  0  0  0
   10.4258   -3.0106   23.0998 C   0  0  0  0  0  0  0  0  0  0  0  0
   10.2148   -3.4364   25.4200 C   0  0  0  0  0  0  0  0  0  0  0  0
    9.7853   -1.1840   24.4927 C   0  0  0  0  0  0  0  0  0  0  0  0
    5.0276   -8.5227   17.5352 C   0  0  0  0  0  0  0  0  0  0  0  0
    9.8187   -2.0895   25.5800 C   0  0  0  0  0  0  0  0  0  0  0  0
    5.6473   -8.7216   15.3158 C   0  0  0  0  0  0  0  0  0  0  0  0
   10.7581   -3.1233   19.4720 N   0  0  0  0  0  0  0  0  0  0  0  0
    9.9571   -4.0573   16.8866 C   0  0  0  0  0  0  0  0  0  0  0  0
    7.6213   -6.5618   16.0087 C   0  0  0  0  0  0  0  0  0  0  0  0
   10.8583   -2.6527   20.7222 C   0  0  0  0  0  0  0  0  0  0  0  0
   10.6412   -3.5089   21.7936 C   0  0  0  0  0  0  0  0  0  0  0  0
   10.4972   -3.8968   24.1589 C   0  0  0  0  0  0  0  0  0  0  0  0
    5.9260   -8.2736   16.5517 C   0  0  0  0  0  0  0  0  0  0  0  0
    3.8816   -9.1166   17.2493 C   0  0  0  0  0  0  0  0  0  0  0  0
   10.1297   -1.6575   23.2324 C   0  0  0  0  0  0  0  0  0  0  0  0
    9.4684   -1.6929   26.7263 F   0  0  0  0  0  0  0  0  0  0  0  0
    7.7963   -7.7906   17.9837 C   0  0  0  0  0  0  0  0  0  0  0  0
   10.5884   -3.0725   16.7902 O   0  0  0  0  0  0  0  0  0  0  0  0
   10.4323   -5.3494   20.3516 C   0  0  0  0  0  0  0  0  0  0  0  0
    7.1156   -7.5454   16.8218 C   0  0  0  0  0  0  0  0  0  0  0  0
   10.3885   -4.4388   19.2773 C   0  0  0  0  0  0  0  0  0  0  0  0
    4.5160   -9.3822   15.0841 C   0  0  0  0  0  0  0  0  0  0  0  0
  1  3  4  0
  1 24  4  0
  2  6  4  0
  2 15  4  0
  3  5  4  0
  3  6  4  0
  4 21  4  0
  4 29  4  0
  5 15  4  0
  5 28  1  0
  6 16  4  0
  7 18  4  0
  7 26  4  0
  8 18  1  0
  8 19  4  0
  8 22  4  0
  9 12  4  0
  9 19  4  0
 10 12  4  0
 10 22  4  0
 11 20  4  0
 11 21  4  0
 12 23  1  0
 13 20  4  0
 13 29  4  0
 14 17  4  0
 14 28  4  0
 15 25  2  0
 16 27  4  0
 17 18  4  0
 20 27  1  0
 24 27  4  0
 26 28  4  0
M  END
$$$$

 Created by Python create_sdf_string function

 29 33  0  0  0  0  0  0  0  0999 V2000
    8.8270   -7.0288   18.4251 C   0  0  0  0  0  0  0  0  0  0  0  0
    9.1576   -4.6236   15.8860 O   0  0  0  0  0  0  0  0  0  0  0  0
    9.1509   -5.9108   17.7177 C   0  0  0  0  0  0  0  0  0  0  0  0
    3.6373   -9.5349   16.0582 N   0  0  0  0  0  0  0  0  0  0  0  0
    9.9275   -4.8001   18.0438 N   0  0  0  0  0  0  0  0  0  0  0  0
    8.5908   -5.7425   16.4412 C   0  0  0  0  0  0  0  0  0  0  0  0
   10.5993   -4.8981   21.6068 C   0  0  0  0  0  0  0  0  0  0  0  0
   10.4258   -3.0106   23.0998 C   0  0  0  0  0  0  0  0  0  0  0  0
   10.2148   -3.4364   25.4200 C   0  0  0  0  0  0  0  0  0  0  0  0
    9.7853   -1.1840   24.4927 C   0  0  0  0  0  0  0  0  0  0  0  0
    5.0276   -8.5227   17.5352 C   0  0  0  0  0  0  0  0  0  0  0  0
    9.8187   -2.0895   25.5800 C   0  0  0  0  0  0  0  0  0  0  0  0
    5.6473   -8.7216   15.3158 C   0  0  0  0  0  0  0  0  0  0  0  0
   10.7581   -3.1233   19.4720 N   0  0  0  0  0  0  0  0  0  0  0  0
    9.9571   -4.0573   16.8866 C   0  0  0  0  0  0  0  0  0  0  0  0
    7.6213   -6.5618   16.0087 C   0  0  0  0  0  0  0  0  0  0  0  0
   10.8583   -2.6527   20.7222 C   0  0  0  0  0  0  0  0  0  0  0  0
   10.6412   -3.5089   21.7936 C   0  0  0  0  0  0  0  0  0  0  0  0
   10.4972   -3.8968   24.1589 C   0  0  0  0  0  0  0  0  0  0  0  0
    5.9260   -8.2736   16.5517 C   0  0  0  0  0  0  0  0  0  0  0  0
    3.8816   -9.1166   17.2493 C   0  0  0  0  0  0  0  0  0  0  0  0
   10.1297   -1.6575   23.2324 C   0  0  0  0  0  0  0  0  0  0  0  0
    9.4684   -1.6929   26.7263 F   0  0  0  0  0  0  0  0  0  0  0  0
    7.7963   -7.7906   17.9837 C   0  0  0  0  0  0  0  0  0  0  0  0
   10.5884   -3.0725   16.7902 O   0  0  0  0  0  0  0  0  0  0  0  0
   10.4323   -5.3494   20.3516 C   0  0  0  0  0  0  0  0  0  0  0  0
    7.1156   -7.5454   16.8218 C   0  0  0  0  0  0  0  0  0  0  0  0
   10.3885   -4.4388   19.2773 C   0  0  0  0  0  0  0  0  0  0  0  0
    4.5160   -9.3822   15.0841 C   0  0  0  0  0  0  0  0  0  0  0  0
  1  3  4  0
  1 24  4  0
  2  6  4  0
  2 15  4  0
  3  5  4  0
  3  6  4  0
  4 21  4  0
  4 29  4  0
  5 15  4  0
  5 28  1  0
  6 16  4  0
  7 18  4  0
  7 26  4  0
  8 18  1  0
  8 19  4  0
  8 22  4  0
  9 12  4  0
  9 19  4  0
 10 12  4  0
 10 22  4  0
 11 20  4  0
 11 21  4  0
 12 23  1  0
 13 20  4  0
 13 29  4  0
 14 17  4  0
 14 28  4  0
 15 25  2  0
 16 27  4  0
 17 18  4  0
 20 27  1  0
 24 27  4  0
 26 28  4  0
M  END
$$$$

 Created by Python create_sdf_string function

 29 33  0  0  0  0  0  0  0  0999 V2000
    8.8270   -7.0288   18.4251 C   0  0  0  0  0  0  0  0  0  0  0  0
    9.1576   -4.6236   15.8860 O   0  0  0  0  0  0  0  0  0  0  0  0
    9.1509   -5.9108   17.7177 C   0  0  0  0  0  0  0  0  0  0  0  0
    3.6373   -9.5349   16.0582 N   0  0  0  0  0  0  0  0  0  0  0  0
    9.9275   -4.8001   18.0438 N   0  0  0  0  0  0  0  0  0  0  0  0
    8.5908   -5.7425   16.4412 C   0  0  0  0  0  0  0  0  0  0  0  0
   10.5993   -4.8981   21.6068 C   0  0  0  0  0  0  0  0  0  0  0  0
   10.4258   -3.0106   23.0998 C   0  0  0  0  0  0  0  0  0  0  0  0
   10.2148   -3.4364   25.4200 C   0  0  0  0  0  0  0  0  0  0  0  0
    9.7853   -1.1840   24.4927 C   0  0  0  0  0  0  0  0  0  0  0  0
    5.0276   -8.5227   17.5352 C   0  0  0  0  0  0  0  0  0  0  0  0
    9.8187   -2.0895   25.5800 C   0  0  0  0  0  0  0  0  0  0  0  0
    5.6473   -8.7216   15.3158 C   0  0  0  0  0  0  0  0  0  0  0  0
   10.7581   -3.1233   19.4720 N   0  0  0  0  0  0  0  0  0  0  0  0
    9.9571   -4.0573   16.8866 C   0  0  0  0  0  0  0  0  0  0  0  0
    7.6213   -6.5618   16.0087 C   0  0  0  0  0  0  0  0  0  0  0  0
   10.8583   -2.6527   20.7222 C   0  0  0  0  0  0  0  0  0  0  0  0
   10.6412   -3.5089   21.7936 C   0  0  0  0  0  0  0  0  0  0  0  0
   10.4972   -3.8968   24.1589 C   0  0  0  0  0  0  0  0  0  0  0  0
    5.9260   -8.2736   16.5517 C   0  0  0  0  0  0  0  0  0  0  0  0
    3.8816   -9.1166   17.2493 C   0  0  0  0  0  0  0  0  0  0  0  0
   10.1297   -1.6575   23.2324 C   0  0  0  0  0  0  0  0  0  0  0  0
    9.4684   -1.6929   26.7263 F   0  0  0  0  0  0  0  0  0  0  0  0
    7.7963   -7.7906   17.9837 C   0  0  0  0  0  0  0  0  0  0  0  0
   10.5884   -3.0725   16.7902 O   0  0  0  0  0  0  0  0  0  0  0  0
   10.4323   -5.3494   20.3516 C   0  0  0  0  0  0  0  0  0  0  0  0
    7.1156   -7.5454   16.8218 C   0  0  0  0  0  0  0  0  0  0  0  0
   10.3885   -4.4388   19.2773 C   0  0  0  0  0  0  0  0  0  0  0  0
    4.5160   -9.3822   15.0841 C   0  0  0  0  0  0  0  0  0  0  0  0
  1  3  4  0
  1 24  4  0
  2  6  4  0
  2 15  4  0
  3  5  4  0
  3  6  4  0
  4 21  4  0
  4 29  4  0
  5 15  4  0
  5 28  1  0
  6 16  4  0
  7 18  4  0
  7 26  4  0
  8 18  1  0
  8 19  4  0
  8 22  4  0
  9 12  4  0
  9 19  4  0
 10 12  4  0
 10 22  4  0
 11 20  4  0
 11 21  4  0
 12 23  1  0
 13 20  4  0
 13 29  4  0
 14 17  4  0
 14 28  4  0
 15 25  2  0
 16 27  4  0
 17 18  4  0
 20 27  1  0
 24 27  4  0
 26 28  4  0
M  END
$$$$

 Created by Python create_sdf_string function

 29 33  0  0  0  0  0  0  0  0999 V2000
    8.8270   -7.0288   18.4251 C   0  0  0  0  0  0  0  0  0  0  0  0
    9.1576   -4.6236   15.8860 O   0  0  0  0  0  0  0  0  0  0  0  0
    9.1509   -5.9108   17.7177 C   0  0  0  0  0  0  0  0  0  0  0  0
    3.6373   -9.5349   16.0582 N   0  0  0  0  0  0  0  0  0  0  0  0
    9.9275   -4.8001   18.0438 N   0  0  0  0  0  0  0  0  0  0  0  0
    8.5908   -5.7425   16.4412 C   0  0  0  0  0  0  0  0  0  0  0  0
   10.5993   -4.8981   21.6068 C   0  0  0  0  0  0  0  0  0  0  0  0
   10.4258   -3.0106   23.0998 C   0  0  0  0  0  0  0  0  0  0  0  0
   10.2148   -3.4364   25.4200 C   0  0  0  0  0  0  0  0  0  0  0  0
    9.7853   -1.1840   24.4927 C   0  0  0  0  0  0  0  0  0  0  0  0
    5.0276   -8.5227   17.5352 C   0  0  0  0  0  0  0  0  0  0  0  0
    9.8187   -2.0895   25.5800 C   0  0  0  0  0  0  0  0  0  0  0  0
    5.6473   -8.7216   15.3158 C   0  0  0  0  0  0  0  0  0  0  0  0
   10.7581   -3.1233   19.4720 N   0  0  0  0  0  0  0  0  0  0  0  0
    9.9571   -4.0573   16.8866 C   0  0  0  0  0  0  0  0  0  0  0  0
    7.6213   -6.5618   16.0087 C   0  0  0  0  0  0  0  0  0  0  0  0
   10.8583   -2.6527   20.7222 C   0  0  0  0  0  0  0  0  0  0  0  0
   10.6412   -3.5089   21.7936 C   0  0  0  0  0  0  0  0  0  0  0  0
   10.4972   -3.8968   24.1589 C   0  0  0  0  0  0  0  0  0  0  0  0
    5.9260   -8.2736   16.5517 C   0  0  0  0  0  0  0  0  0  0  0  0
    3.8816   -9.1166   17.2493 C   0  0  0  0  0  0  0  0  0  0  0  0
   10.1297   -1.6575   23.2324 C   0  0  0  0  0  0  0  0  0  0  0  0
    9.4684   -1.6929   26.7263 F   0  0  0  0  0  0  0  0  0  0  0  0
    7.7963   -7.7906   17.9837 C   0  0  0  0  0  0  0  0  0  0  0  0
   10.5884   -3.0725   16.7902 O   0  0  0  0  0  0  0  0  0  0  0  0
   10.4323   -5.3494   20.3516 C   0  0  0  0  0  0  0  0  0  0  0  0
    7.1156   -7.5454   16.8218 C   0  0  0  0  0  0  0  0  0  0  0  0
   10.3885   -4.4388   19.2773 C   0  0  0  0  0  0  0  0  0  0  0  0
    4.5160   -9.3822   15.0841 C   0  0  0  0  0  0  0  0  0  0  0  0
  1  3  4  0
  1 24  4  0
  2  6  4  0
  2 15  4  0
  3  5  4  0
  3  6  4  0
  4 21  4  0
  4 29  4  0
  5 15  4  0
  5 28  1  0
  6 16  4  0
  7 18  4  0
  7 26  4  0
  8 18  1  0
  8 19  4  0
  8 22  4  0
  9 12  4  0
  9 19  4  0
 10 12  4  0
 10 22  4  0
 11 20  4  0
 11 21  4  0
 12 23  1  0
 13 20  4  0
 13 29  4  0
 14 17  4  0
 14 28  4  0
 15 25  2  0
 16 27  4  0
 17 18  4  0
 20 27  1  0
 24 27  4  0
 26 28  4  0
M  END
$$$$

 Created by Python create_sdf_string function

 29 33  0  0  0  0  0  0  0  0999 V2000
    8.8270   -7.0288   18.4251 C   0  0  0  0  0  0  0  0  0  0  0  0
    9.1576   -4.6236   15.8860 O   0  0  0  0  0  0  0  0  0  0  0  0
    9.1509   -5.9108   17.7177 C   0  0  0  0  0  0  0  0  0  0  0  0
    3.6373   -9.5349   16.0582 N   0  0  0  0  0  0  0  0  0  0  0  0
    9.9275   -4.8001   18.0438 N   0  0  0  0  0  0  0  0  0  0  0  0
    8.5908   -5.7425   16.4412 C   0  0  0  0  0  0  0  0  0  0  0  0
   10.5993   -4.8981   21.6068 C   0  0  0  0  0  0  0  0  0  0  0  0
   10.4258   -3.0106   23.0998 C   0  0  0  0  0  0  0  0  0  0  0  0
   10.2148   -3.4364   25.4200 C   0  0  0  0  0  0  0  0  0  0  0  0
    9.7853   -1.1840   24.4927 C   0  0  0  0  0  0  0  0  0  0  0  0
    5.0276   -8.5227   17.5352 C   0  0  0  0  0  0  0  0  0  0  0  0
    9.8187   -2.0895   25.5800 C   0  0  0  0  0  0  0  0  0  0  0  0
    5.6473   -8.7216   15.3158 C   0  0  0  0  0  0  0  0  0  0  0  0
   10.7581   -3.1233   19.4720 N   0  0  0  0  0  0  0  0  0  0  0  0
    9.9571   -4.0573   16.8866 C   0  0  0  0  0  0  0  0  0  0  0  0
    7.6213   -6.5618   16.0087 C   0  0  0  0  0  0  0  0  0  0  0  0
   10.8583   -2.6527   20.7222 C   0  0  0  0  0  0  0  0  0  0  0  0
   10.6412   -3.5089   21.7936 C   0  0  0  0  0  0  0  0  0  0  0  0
   10.4972   -3.8968   24.1589 C   0  0  0  0  0  0  0  0  0  0  0  0
    5.9260   -8.2736   16.5517 C   0  0  0  0  0  0  0  0  0  0  0  0
    3.8816   -9.1166   17.2493 C   0  0  0  0  0  0  0  0  0  0  0  0
   10.1297   -1.6575   23.2324 C   0  0  0  0  0  0  0  0  0  0  0  0
    9.4684   -1.6929   26.7263 F   0  0  0  0  0  0  0  0  0  0  0  0
    7.7963   -7.7906   17.9837 C   0  0  0  0  0  0  0  0  0  0  0  0
   10.5884   -3.0725   16.7902 O   0  0  0  0  0  0  0  0  0  0  0  0
   10.4323   -5.3494   20.3516 C   0  0  0  0  0  0  0  0  0  0  0  0
    7.1156   -7.5454   16.8218 C   0  0  0  0  0  0  0  0  0  0  0  0
   10.3885   -4.4388   19.2773 C   0  0  0  0  0  0  0  0  0  0  0  0
    4.5160   -9.3822   15.0841 C   0  0  0  0  0  0  0  0  0  0  0  0
  1  3  4  0
  1 24  4  0
  2  6  4  0
  2 15  4  0
  3  5  4  0
  3  6  4  0
  4 21  4  0
  4 29  4  0
  5 15  4  0
  5 28  1  0
  6 16  4  0
  7 18  4  0
  7 26  4  0
  8 18  1  0
  8 19  4  0
  8 22  4  0
  9 12  4  0
  9 19  4  0
 10 12  4  0
 10 22  4  0
 11 20  4  0
 11 21  4  0
 12 23  1  0
 13 20  4  0
 13 29  4  0
 14 17  4  0
 14 28  4  0
 15 25  2  0
 16 27  4  0
 17 18  4  0
 20 27  1  0
 24 27  4  0
 26 28  4  0
M  END
$$$$

 Created by Python create_sdf_string function

 29 33  0  0  0  0  0  0  0  0999 V2000
    8.8270   -7.0288   18.4251 C   0  0  0  0  0  0  0  0  0  0  0  0
    9.1576   -4.6236   15.8860 O   0  0  0  0  0  0  0  0  0  0  0  0
    9.1509   -5.9108   17.7177 C   0  0  0  0  0  0  0  0  0  0  0  0
    3.6373   -9.5349   16.0582 N   0  0  0  0  0  0  0  0  0  0  0  0
    9.9275   -4.8001   18.0438 N   0  0  0  0  0  0  0  0  0  0  0  0
    8.5908   -5.7425   16.4412 C   0  0  0  0  0  0  0  0  0  0  0  0
   10.5993   -4.8981   21.6068 C   0  0  0  0  0  0  0  0  0  0  0  0
   10.4258   -3.0106   23.0998 C   0  0  0  0  0  0  0  0  0  0  0  0
   10.2148   -3.4364   25.4200 C   0  0  0  0  0  0  0  0  0  0  0  0
    9.7853   -1.1840   24.4927 C   0  0  0  0  0  0  0  0  0  0  0  0
    5.0276   -8.5227   17.5352 C   0  0  0  0  0  0  0  0  0  0  0  0
    9.8187   -2.0895   25.5800 C   0  0  0  0  0  0  0  0  0  0  0  0
    5.6473   -8.7216   15.3158 C   0  0  0  0  0  0  0  0  0  0  0  0
   10.7581   -3.1233   19.4720 N   0  0  0  0  0  0  0  0  0  0  0  0
    9.9571   -4.0573   16.8866 C   0  0  0  0  0  0  0  0  0  0  0  0
    7.6213   -6.5618   16.0087 C   0  0  0  0  0  0  0  0  0  0  0  0
   10.8583   -2.6527   20.7222 C   0  0  0  0  0  0  0  0  0  0  0  0
   10.6412   -3.5089   21.7936 C   0  0  0  0  0  0  0  0  0  0  0  0
   10.4972   -3.8968   24.1589 C   0  0  0  0  0  0  0  0  0  0  0  0
    5.9260   -8.2736   16.5517 C   0  0  0  0  0  0  0  0  0  0  0  0
    3.8816   -9.1166   17.2493 C   0  0  0  0  0  0  0  0  0  0  0  0
   10.1297   -1.6575   23.2324 C   0  0  0  0  0  0  0  0  0  0  0  0
    9.4684   -1.6929   26.7263 F   0  0  0  0  0  0  0  0  0  0  0  0
    7.7963   -7.7906   17.9837 C   0  0  0  0  0  0  0  0  0  0  0  0
   10.5884   -3.0725   16.7902 O   0  0  0  0  0  0  0  0  0  0  0  0
   10.4323   -5.3494   20.3516 C   0  0  0  0  0  0  0  0  0  0  0  0
    7.1156   -7.5454   16.8218 C   0  0  0  0  0  0  0  0  0  0  0  0
   10.3885   -4.4388   19.2773 C   0  0  0  0  0  0  0  0  0  0  0  0
    4.5160   -9.3822   15.0841 C   0  0  0  0  0  0  0  0  0  0  0  0
  1  3  4  0
  1 24  4  0
  2  6  4  0
  2 15  4  0
  3  5  4  0
  3  6  4  0
  4 21  4  0
  4 29  4  0
  5 15  4  0
  5 28  1  0
  6 16  4  0
  7 18  4  0
  7 26  4  0
  8 18  1  0
  8 19  4  0
  8 22  4  0
  9 12  4  0
  9 19  4  0
 10 12  4  0
 10 22  4  0
 11 20  4  0
 11 21  4  0
 12 23  1  0
 13 20  4  0
 13 29  4  0
 14 17  4  0
 14 28  4  0
 15 25  2  0
 16 27  4  0
 17 18  4  0
 20 27  1  0
 24 27  4  0
 26 28  4  0
M  END
$$$$

 Created by Python create_sdf_string function

 29 33  0  0  0  0  0  0  0  0999 V2000
    8.8270   -7.0288   18.4251 C   0  0  0  0  0  0  0  0  0  0  0  0
    9.1576   -4.6236   15.8860 O   0  0  0  0  0  0  0  0  0  0  0  0
    9.1509   -5.9108   17.7177 C   0  0  0  0  0  0  0  0  0  0  0  0
    3.6373   -9.5349   16.0582 N   0  0  0  0  0  0  0  0  0  0  0  0
    9.9275   -4.8001   18.0438 N   0  0  0  0  0  0  0  0  0  0  0  0
    8.5908   -5.7425   16.4412 C   0  0  0  0  0  0  0  0  0  0  0  0
   10.5993   -4.8981   21.6068 C   0  0  0  0  0  0  0  0  0  0  0  0
   10.4258   -3.0106   23.0998 C   0  0  0  0  0  0  0  0  0  0  0  0
   10.2148   -3.4364   25.4200 C   0  0  0  0  0  0  0  0  0  0  0  0
    9.7853   -1.1840   24.4927 C   0  0  0  0  0  0  0  0  0  0  0  0
    5.0276   -8.5227   17.5352 C   0  0  0  0  0  0  0  0  0  0  0  0
    9.8187   -2.0895   25.5800 C   0  0  0  0  0  0  0  0  0  0  0  0
    5.6473   -8.7216   15.3158 C   0  0  0  0  0  0  0  0  0  0  0  0
   10.7581   -3.1233   19.4720 N   0  0  0  0  0  0  0  0  0  0  0  0
    9.9571   -4.0573   16.8866 C   0  0  0  0  0  0  0  0  0  0  0  0
    7.6213   -6.5618   16.0087 C   0  0  0  0  0  0  0  0  0  0  0  0
   10.8583   -2.6527   20.7222 C   0  0  0  0  0  0  0  0  0  0  0  0
   10.6412   -3.5089   21.7936 C   0  0  0  0  0  0  0  0  0  0  0  0
   10.4972   -3.8968   24.1589 C   0  0  0  0  0  0  0  0  0  0  0  0
    5.9260   -8.2736   16.5517 C   0  0  0  0  0  0  0  0  0  0  0  0
    3.8816   -9.1166   17.2493 C   0  0  0  0  0  0  0  0  0  0  0  0
   10.1297   -1.6575   23.2324 C   0  0  0  0  0  0  0  0  0  0  0  0
    9.4684   -1.6929   26.7263 F   0  0  0  0  0  0  0  0  0  0  0  0
    7.7963   -7.7906   17.9837 C   0  0  0  0  0  0  0  0  0  0  0  0
   10.5884   -3.0725   16.7902 O   0  0  0  0  0  0  0  0  0  0  0  0
   10.4323   -5.3494   20.3516 C   0  0  0  0  0  0  0  0  0  0  0  0
    7.1156   -7.5454   16.8218 C   0  0  0  0  0  0  0  0  0  0  0  0
   10.3885   -4.4388   19.2773 C   0  0  0  0  0  0  0  0  0  0  0  0
    4.5160   -9.3822   15.0841 C   0  0  0  0  0  0  0  0  0  0  0  0
  1  3  4  0
  1 24  4  0
  2  6  4  0
  2 15  4  0
  3  5  4  0
  3  6  4  0
  4 21  4  0
  4 29  4  0
  5 15  4  0
  5 28  1  0
  6 16  4  0
  7 18  4  0
  7 26  4  0
  8 18  1  0
  8 19  4  0
  8 22  4  0
  9 12  4  0
  9 19  4  0
 10 12  4  0
 10 22  4  0
 11 20  4  0
 11 21  4  0
 12 23  1  0
 13 20  4  0
 13 29  4  0
 14 17  4  0
 14 28  4  0
 15 25  2  0
 16 27  4  0
 17 18  4  0
 20 27  1  0
 24 27  4  0
 26 28  4  0
M  END
$$$$

 Created by Python create_sdf_string function

 29 33  0  0  0  0  0  0  0  0999 V2000
    8.8270   -7.0288   18.4251 C   0  0  0  0  0  0  0  0  0  0  0  0
    9.1576   -4.6236   15.8860 O   0  0  0  0  0  0  0  0  0  0  0  0
    9.1509   -5.9108   17.7177 C   0  0  0  0  0  0  0  0  0  0  0  0
    3.6373   -9.5349   16.0582 N   0  0  0  0  0  0  0  0  0  0  0  0
    9.9275   -4.8001   18.0438 N   0  0  0  0  0  0  0  0  0  0  0  0
    8.5908   -5.7425   16.4412 C   0  0  0  0  0  0  0  0  0  0  0  0
   10.5993   -4.8981   21.6068 C   0  0  0  0  0  0  0  0  0  0  0  0
   10.4258   -3.0106   23.0998 C   0  0  0  0  0  0  0  0  0  0  0  0
   10.2148   -3.4364   25.4200 C   0  0  0  0  0  0  0  0  0  0  0  0
    9.7853   -1.1840   24.4927 C   0  0  0  0  0  0  0  0  0  0  0  0
    5.0276   -8.5227   17.5352 C   0  0  0  0  0  0  0  0  0  0  0  0
    9.8187   -2.0895   25.5800 C   0  0  0  0  0  0  0  0  0  0  0  0
    5.6473   -8.7216   15.3158 C   0  0  0  0  0  0  0  0  0  0  0  0
   10.7581   -3.1233   19.4720 N   0  0  0  0  0  0  0  0  0  0  0  0
    9.9571   -4.0573   16.8866 C   0  0  0  0  0  0  0  0  0  0  0  0
    7.6213   -6.5618   16.0087 C   0  0  0  0  0  0  0  0  0  0  0  0
   10.8583   -2.6527   20.7222 C   0  0  0  0  0  0  0  0  0  0  0  0
   10.6412   -3.5089   21.7936 C   0  0  0  0  0  0  0  0  0  0  0  0
   10.4972   -3.8968   24.1589 C   0  0  0  0  0  0  0  0  0  0  0  0
    5.9260   -8.2736   16.5517 C   0  0  0  0  0  0  0  0  0  0  0  0
    3.8816   -9.1166   17.2493 C   0  0  0  0  0  0  0  0  0  0  0  0
   10.1297   -1.6575   23.2324 C   0  0  0  0  0  0  0  0  0  0  0  0
    9.4684   -1.6929   26.7263 F   0  0  0  0  0  0  0  0  0  0  0  0
    7.7963   -7.7906   17.9837 C   0  0  0  0  0  0  0  0  0  0  0  0
   10.5884   -3.0725   16.7902 O   0  0  0  0  0  0  0  0  0  0  0  0
   10.4323   -5.3494   20.3516 C   0  0  0  0  0  0  0  0  0  0  0  0
    7.1156   -7.5454   16.8218 C   0  0  0  0  0  0  0  0  0  0  0  0
   10.3885   -4.4388   19.2773 C   0  0  0  0  0  0  0  0  0  0  0  0
    4.5160   -9.3822   15.0841 C   0  0  0  0  0  0  0  0  0  0  0  0
  1  3  4  0
  1 24  4  0
  2  6  4  0
  2 15  4  0
  3  5  4  0
  3  6  4  0
  4 21  4  0
  4 29  4  0
  5 15  4  0
  5 28  1  0
  6 16  4  0
  7 18  4  0
  7 26  4  0
  8 18  1  0
  8 19  4  0
  8 22  4  0
  9 12  4  0
  9 19  4  0
 10 12  4  0
 10 22  4  0
 11 20  4  0
 11 21  4  0
 12 23  1  0
 13 20  4  0
 13 29  4  0
 14 17  4  0
 14 28  4  0
 15 25  2  0
 16 27  4  0
 17 18  4  0
 20 27  1  0
 24 27  4  0
 26 28  4  0
M  END
$$$$

 Created by Python create_sdf_string function

 29 33  0  0  0  0  0  0  0  0999 V2000
    8.8270   -7.0288   18.4251 C   0  0  0  0  0  0  0  0  0  0  0  0
    9.1576   -4.6236   15.8860 O   0  0  0  0  0  0  0  0  0  0  0  0
    9.1509   -5.9108   17.7177 C   0  0  0  0  0  0  0  0  0  0  0  0
    3.6373   -9.5349   16.0582 N   0  0  0  0  0  0  0  0  0  0  0  0
    9.9275   -4.8001   18.0438 N   0  0  0  0  0  0  0  0  0  0  0  0
    8.5908   -5.7425   16.4412 C   0  0  0  0  0  0  0  0  0  0  0  0
   10.5993   -4.8981   21.6068 C   0  0  0  0  0  0  0  0  0  0  0  0
   10.4258   -3.0106   23.0998 C   0  0  0  0  0  0  0  0  0  0  0  0
   10.2148   -3.4364   25.4200 C   0  0  0  0  0  0  0  0  0  0  0  0
    9.7853   -1.1840   24.4927 C   0  0  0  0  0  0  0  0  0  0  0  0
    5.0276   -8.5227   17.5352 C   0  0  0  0  0  0  0  0  0  0  0  0
    9.8187   -2.0895   25.5800 C   0  0  0  0  0  0  0  0  0  0  0  0
    5.6473   -8.7216   15.3158 C   0  0  0  0  0  0  0  0  0  0  0  0
   10.7581   -3.1233   19.4720 N   0  0  0  0  0  0  0  0  0  0  0  0
    9.9571   -4.0573   16.8866 C   0  0  0  0  0  0  0  0  0  0  0  0
    7.6213   -6.5618   16.0087 C   0  0  0  0  0  0  0  0  0  0  0  0
   10.8583   -2.6527   20.7222 C   0  0  0  0  0  0  0  0  0  0  0  0
   10.6412   -3.5089   21.7936 C   0  0  0  0  0  0  0  0  0  0  0  0
   10.4972   -3.8968   24.1589 C   0  0  0  0  0  0  0  0  0  0  0  0
    5.9260   -8.2736   16.5517 C   0  0  0  0  0  0  0  0  0  0  0  0
    3.8816   -9.1166   17.2493 C   0  0  0  0  0  0  0  0  0  0  0  0
   10.1297   -1.6575   23.2324 C   0  0  0  0  0  0  0  0  0  0  0  0
    9.4684   -1.6929   26.7263 F   0  0  0  0  0  0  0  0  0  0  0  0
    7.7963   -7.7906   17.9837 C   0  0  0  0  0  0  0  0  0  0  0  0
   10.5884   -3.0725   16.7902 O   0  0  0  0  0  0  0  0  0  0  0  0
   10.4323   -5.3494   20.3516 C   0  0  0  0  0  0  0  0  0  0  0  0
    7.1156   -7.5454   16.8218 C   0  0  0  0  0  0  0  0  0  0  0  0
   10.3885   -4.4388   19.2773 C   0  0  0  0  0  0  0  0  0  0  0  0
    4.5160   -9.3822   15.0841 C   0  0  0  0  0  0  0  0  0  0  0  0
  1  3  4  0
  1 24  4  0
  2  6  4  0
  2 15  4  0
  3  5  4  0
  3  6  4  0
  4 21  4  0
  4 29  4  0
  5 15  4  0
  5 28  1  0
  6 16  4  0
  7 18  4  0
  7 26  4  0
  8 18  1  0
  8 19  4  0
  8 22  4  0
  9 12  4  0
  9 19  4  0
 10 12  4  0
 10 22  4  0
 11 20  4  0
 11 21  4  0
 12 23  1  0
 13 20  4  0
 13 29  4  0
 14 17  4  0
 14 28  4  0
 15 25  2  0
 16 27  4  0
 17 18  4  0
 20 27  1  0
 24 27  4  0
 26 28  4  0
M  END
$$$$

 Created by Python create_sdf_string function

 29 33  0  0  0  0  0  0  0  0999 V2000
    8.8270   -7.0288   18.4251 C   0  0  0  0  0  0  0  0  0  0  0  0
    9.1576   -4.6236   15.8860 O   0  0  0  0  0  0  0  0  0  0  0  0
    9.1509   -5.9108   17.7177 C   0  0  0  0  0  0  0  0  0  0  0  0
    3.6373   -9.5349   16.0582 N   0  0  0  0  0  0  0  0  0  0  0  0
    9.9275   -4.8001   18.0438 N   0  0  0  0  0  0  0  0  0  0  0  0
    8.5908   -5.7425   16.4412 C   0  0  0  0  0  0  0  0  0  0  0  0
   10.5993   -4.8981   21.6068 C   0  0  0  0  0  0  0  0  0  0  0  0
   10.4258   -3.0106   23.0998 C   0  0  0  0  0  0  0  0  0  0  0  0
   10.2148   -3.4364   25.4200 C   0  0  0  0  0  0  0  0  0  0  0  0
    9.7853   -1.1840   24.4927 C   0  0  0  0  0  0  0  0  0  0  0  0
    5.0276   -8.5227   17.5352 C   0  0  0  0  0  0  0  0  0  0  0  0
    9.8187   -2.0895   25.5800 C   0  0  0  0  0  0  0  0  0  0  0  0
    5.6473   -8.7216   15.3158 C   0  0  0  0  0  0  0  0  0  0  0  0
   10.7581   -3.1233   19.4720 N   0  0  0  0  0  0  0  0  0  0  0  0
    9.9571   -4.0573   16.8866 C   0  0  0  0  0  0  0  0  0  0  0  0
    7.6213   -6.5618   16.0087 C   0  0  0  0  0  0  0  0  0  0  0  0
   10.8583   -2.6527   20.7222 C   0  0  0  0  0  0  0  0  0  0  0  0
   10.6412   -3.5089   21.7936 C   0  0  0  0  0  0  0  0  0  0  0  0
   10.4972   -3.8968   24.1589 C   0  0  0  0  0  0  0  0  0  0  0  0
    5.9260   -8.2736   16.5517 C   0  0  0  0  0  0  0  0  0  0  0  0
    3.8816   -9.1166   17.2493 C   0  0  0  0  0  0  0  0  0  0  0  0
   10.1297   -1.6575   23.2324 C   0  0  0  0  0  0  0  0  0  0  0  0
    9.4684   -1.6929   26.7263 F   0  0  0  0  0  0  0  0  0  0  0  0
    7.7963   -7.7906   17.9837 C   0  0  0  0  0  0  0  0  0  0  0  0
   10.5884   -3.0725   16.7902 O   0  0  0  0  0  0  0  0  0  0  0  0
   10.4323   -5.3494   20.3516 C   0  0  0  0  0  0  0  0  0  0  0  0
    7.1156   -7.5454   16.8218 C   0  0  0  0  0  0  0  0  0  0  0  0
   10.3885   -4.4388   19.2773 C   0  0  0  0  0  0  0  0  0  0  0  0
    4.5160   -9.3822   15.0841 C   0  0  0  0  0  0  0  0  0  0  0  0
  1  3  4  0
  1 24  4  0
  2  6  4  0
  2 15  4  0
  3  5  4  0
  3  6  4  0
  4 21  4  0
  4 29  4  0
  5 15  4  0
  5 28  1  0
  6 16  4  0
  7 18  4  0
  7 26  4  0
  8 18  1  0
  8 19  4  0
  8 22  4  0
  9 12  4  0
  9 19  4  0
 10 12  4  0
 10 22  4  0
 11 20  4  0
 11 21  4  0
 12 23  1  0
 13 20  4  0
 13 29  4  0
 14 17  4  0
 14 28  4  0
 15 25  2  0
 16 27  4  0
 17 18  4  0
 20 27  1  0
 24 27  4  0
 26 28  4  0
M  END
$$$$

 Created by Python create_sdf_string function

 29 33  0  0  0  0  0  0  0  0999 V2000
    8.8270   -7.0288   18.4251 C   0  0  0  0  0  0  0  0  0  0  0  0
    9.1576   -4.6236   15.8860 O   0  0  0  0  0  0  0  0  0  0  0  0
    9.1509   -5.9108   17.7177 C   0  0  0  0  0  0  0  0  0  0  0  0
    3.6373   -9.5349   16.0582 N   0  0  0  0  0  0  0  0  0  0  0  0
    9.9275   -4.8001   18.0438 N   0  0  0  0  0  0  0  0  0  0  0  0
    8.5908   -5.7425   16.4412 C   0  0  0  0  0  0  0  0  0  0  0  0
   10.5993   -4.8981   21.6068 C   0  0  0  0  0  0  0  0  0  0  0  0
   10.4258   -3.0106   23.0998 C   0  0  0  0  0  0  0  0  0  0  0  0
   10.2148   -3.4364   25.4200 C   0  0  0  0  0  0  0  0  0  0  0  0
    9.7853   -1.1840   24.4927 C   0  0  0  0  0  0  0  0  0  0  0  0
    5.0276   -8.5227   17.5352 C   0  0  0  0  0  0  0  0  0  0  0  0
    9.8187   -2.0895   25.5800 C   0  0  0  0  0  0  0  0  0  0  0  0
    5.6473   -8.7216   15.3158 C   0  0  0  0  0  0  0  0  0  0  0  0
   10.7581   -3.1233   19.4720 N   0  0  0  0  0  0  0  0  0  0  0  0
    9.9571   -4.0573   16.8866 C   0  0  0  0  0  0  0  0  0  0  0  0
    7.6213   -6.5618   16.0087 C   0  0  0  0  0  0  0  0  0  0  0  0
   10.8583   -2.6527   20.7222 C   0  0  0  0  0  0  0  0  0  0  0  0
   10.6412   -3.5089   21.7936 C   0  0  0  0  0  0  0  0  0  0  0  0
   10.4972   -3.8968   24.1589 C   0  0  0  0  0  0  0  0  0  0  0  0
    5.9260   -8.2736   16.5517 C   0  0  0  0  0  0  0  0  0  0  0  0
    3.8816   -9.1166   17.2493 C   0  0  0  0  0  0  0  0  0  0  0  0
   10.1297   -1.6575   23.2324 C   0  0  0  0  0  0  0  0  0  0  0  0
    9.4684   -1.6929   26.7263 F   0  0  0  0  0  0  0  0  0  0  0  0
    7.7963   -7.7906   17.9837 C   0  0  0  0  0  0  0  0  0  0  0  0
   10.5884   -3.0725   16.7902 O   0  0  0  0  0  0  0  0  0  0  0  0
   10.4323   -5.3494   20.3516 C   0  0  0  0  0  0  0  0  0  0  0  0
    7.1156   -7.5454   16.8218 C   0  0  0  0  0  0  0  0  0  0  0  0
   10.3885   -4.4388   19.2773 C   0  0  0  0  0  0  0  0  0  0  0  0
    4.5160   -9.3822   15.0841 C   0  0  0  0  0  0  0  0  0  0  0  0
  1  3  4  0
  1 24  4  0
  2  6  4  0
  2 15  4  0
  3  5  4  0
  3  6  4  0
  4 21  4  0
  4 29  4  0
  5 15  4  0
  5 28  1  0
  6 16  4  0
  7 18  4  0
  7 26  4  0
  8 18  1  0
  8 19  4  0
  8 22  4  0
  9 12  4  0
  9 19  4  0
 10 12  4  0
 10 22  4  0
 11 20  4  0
 11 21  4  0
 12 23  1  0
 13 20  4  0
 13 29  4  0
 14 17  4  0
 14 28  4  0
 15 25  2  0
 16 27  4  0
 17 18  4  0
 20 27  1  0
 24 27  4  0
 26 28  4  0
M  END
$$$$

 Created by Python create_sdf_string function

 29 33  0  0  0  0  0  0  0  0999 V2000
    8.8270   -7.0288   18.4251 C   0  0  0  0  0  0  0  0  0  0  0  0
    9.1576   -4.6236   15.8860 O   0  0  0  0  0  0  0  0  0  0  0  0
    9.1509   -5.9108   17.7177 C   0  0  0  0  0  0  0  0  0  0  0  0
    3.6373   -9.5349   16.0582 N   0  0  0  0  0  0  0  0  0  0  0  0
    9.9275   -4.8001   18.0438 N   0  0  0  0  0  0  0  0  0  0  0  0
    8.5908   -5.7425   16.4412 C   0  0  0  0  0  0  0  0  0  0  0  0
   10.5993   -4.8981   21.6068 C   0  0  0  0  0  0  0  0  0  0  0  0
   10.4258   -3.0106   23.0998 C   0  0  0  0  0  0  0  0  0  0  0  0
   10.2148   -3.4364   25.4200 C   0  0  0  0  0  0  0  0  0  0  0  0
    9.7853   -1.1840   24.4927 C   0  0  0  0  0  0  0  0  0  0  0  0
    5.0276   -8.5227   17.5352 C   0  0  0  0  0  0  0  0  0  0  0  0
    9.8187   -2.0895   25.5800 C   0  0  0  0  0  0  0  0  0  0  0  0
    5.6473   -8.7216   15.3158 C   0  0  0  0  0  0  0  0  0  0  0  0
   10.7581   -3.1233   19.4720 N   0  0  0  0  0  0  0  0  0  0  0  0
    9.9571   -4.0573   16.8866 C   0  0  0  0  0  0  0  0  0  0  0  0
    7.6213   -6.5618   16.0087 C   0  0  0  0  0  0  0  0  0  0  0  0
   10.8583   -2.6527   20.7222 C   0  0  0  0  0  0  0  0  0  0  0  0
   10.6412   -3.5089   21.7936 C   0  0  0  0  0  0  0  0  0  0  0  0
   10.4972   -3.8968   24.1589 C   0  0  0  0  0  0  0  0  0  0  0  0
    5.9260   -8.2736   16.5517 C   0  0  0  0  0  0  0  0  0  0  0  0
    3.8816   -9.1166   17.2493 C   0  0  0  0  0  0  0  0  0  0  0  0
   10.1297   -1.6575   23.2324 C   0  0  0  0  0  0  0  0  0  0  0  0
    9.4684   -1.6929   26.7263 F   0  0  0  0  0  0  0  0  0  0  0  0
    7.7963   -7.7906   17.9837 C   0  0  0  0  0  0  0  0  0  0  0  0
   10.5884   -3.0725   16.7902 O   0  0  0  0  0  0  0  0  0  0  0  0
   10.4323   -5.3494   20.3516 C   0  0  0  0  0  0  0  0  0  0  0  0
    7.1156   -7.5454   16.8218 C   0  0  0  0  0  0  0  0  0  0  0  0
   10.3885   -4.4388   19.2773 C   0  0  0  0  0  0  0  0  0  0  0  0
    4.5160   -9.3822   15.0841 C   0  0  0  0  0  0  0  0  0  0  0  0
  1  3  4  0
  1 24  4  0
  2  6  4  0
  2 15  4  0
  3  5  4  0
  3  6  4  0
  4 21  4  0
  4 29  4  0
  5 15  4  0
  5 28  1  0
  6 16  4  0
  7 18  4  0
  7 26  4  0
  8 18  1  0
  8 19  4  0
  8 22  4  0
  9 12  4  0
  9 19  4  0
 10 12  4  0
 10 22  4  0
 11 20  4  0
 11 21  4  0
 12 23  1  0
 13 20  4  0
 13 29  4  0
 14 17  4  0
 14 28  4  0
 15 25  2  0
 16 27  4  0
 17 18  4  0
 20 27  1  0
 24 27  4  0
 26 28  4  0
M  END
$$$$

 Created by Python create_sdf_string function

 29 33  0  0  0  0  0  0  0  0999 V2000
    8.8270   -7.0288   18.4251 C   0  0  0  0  0  0  0  0  0  0  0  0
    9.1576   -4.6236   15.8860 O   0  0  0  0  0  0  0  0  0  0  0  0
    9.1509   -5.9108   17.7177 C   0  0  0  0  0  0  0  0  0  0  0  0
    3.6373   -9.5349   16.0582 N   0  0  0  0  0  0  0  0  0  0  0  0
    9.9275   -4.8001   18.0438 N   0  0  0  0  0  0  0  0  0  0  0  0
    8.5908   -5.7425   16.4412 C   0  0  0  0  0  0  0  0  0  0  0  0
   10.5993   -4.8981   21.6068 C   0  0  0  0  0  0  0  0  0  0  0  0
   10.4258   -3.0106   23.0998 C   0  0  0  0  0  0  0  0  0  0  0  0
   10.2148   -3.4364   25.4200 C   0  0  0  0  0  0  0  0  0  0  0  0
    9.7853   -1.1840   24.4927 C   0  0  0  0  0  0  0  0  0  0  0  0
    5.0276   -8.5227   17.5352 C   0  0  0  0  0  0  0  0  0  0  0  0
    9.8187   -2.0895   25.5800 C   0  0  0  0  0  0  0  0  0  0  0  0
    5.6473   -8.7216   15.3158 C   0  0  0  0  0  0  0  0  0  0  0  0
   10.7581   -3.1233   19.4720 N   0  0  0  0  0  0  0  0  0  0  0  0
    9.9571   -4.0573   16.8866 C   0  0  0  0  0  0  0  0  0  0  0  0
    7.6213   -6.5618   16.0087 C   0  0  0  0  0  0  0  0  0  0  0  0
   10.8583   -2.6527   20.7222 C   0  0  0  0  0  0  0  0  0  0  0  0
   10.6412   -3.5089   21.7936 C   0  0  0  0  0  0  0  0  0  0  0  0
   10.4972   -3.8968   24.1589 C   0  0  0  0  0  0  0  0  0  0  0  0
    5.9260   -8.2736   16.5517 C   0  0  0  0  0  0  0  0  0  0  0  0
    3.8816   -9.1166   17.2493 C   0  0  0  0  0  0  0  0  0  0  0  0
   10.1297   -1.6575   23.2324 C   0  0  0  0  0  0  0  0  0  0  0  0
    9.4684   -1.6929   26.7263 F   0  0  0  0  0  0  0  0  0  0  0  0
    7.7963   -7.7906   17.9837 C   0  0  0  0  0  0  0  0  0  0  0  0
   10.5884   -3.0725   16.7902 O   0  0  0  0  0  0  0  0  0  0  0  0
   10.4323   -5.3494   20.3516 C   0  0  0  0  0  0  0  0  0  0  0  0
    7.1156   -7.5454   16.8218 C   0  0  0  0  0  0  0  0  0  0  0  0
   10.3885   -4.4388   19.2773 C   0  0  0  0  0  0  0  0  0  0  0  0
    4.5160   -9.3822   15.0841 C   0  0  0  0  0  0  0  0  0  0  0  0
  1  3  4  0
  1 24  4  0
  2  6  4  0
  2 15  4  0
  3  5  4  0
  3  6  4  0
  4 21  4  0
  4 29  4  0
  5 15  4  0
  5 28  1  0
  6 16  4  0
  7 18  4  0
  7 26  4  0
  8 18  1  0
  8 19  4  0
  8 22  4  0
  9 12  4  0
  9 19  4  0
 10 12  4  0
 10 22  4  0
 11 20  4  0
 11 21  4  0
 12 23  1  0
 13 20  4  0
 13 29  4  0
 14 17  4  0
 14 28  4  0
 15 25  2  0
 16 27  4  0
 17 18  4  0
 20 27  1  0
 24 27  4  0
 26 28  4  0
M  END
$$$$

 Created by Python create_sdf_string function

 29 33  0  0  0  0  0  0  0  0999 V2000
    8.8270   -7.0288   18.4251 C   0  0  0  0  0  0  0  0  0  0  0  0
    9.1576   -4.6236   15.8860 O   0  0  0  0  0  0  0  0  0  0  0  0
    9.1509   -5.9108   17.7177 C   0  0  0  0  0  0  0  0  0  0  0  0
    3.6373   -9.5349   16.0582 N   0  0  0  0  0  0  0  0  0  0  0  0
    9.9275   -4.8001   18.0438 N   0  0  0  0  0  0  0  0  0  0  0  0
    8.5908   -5.7425   16.4412 C   0  0  0  0  0  0  0  0  0  0  0  0
   10.5993   -4.8981   21.6068 C   0  0  0  0  0  0  0  0  0  0  0  0
   10.4258   -3.0106   23.0998 C   0  0  0  0  0  0  0  0  0  0  0  0
   10.2148   -3.4364   25.4200 C   0  0  0  0  0  0  0  0  0  0  0  0
    9.7853   -1.1840   24.4927 C   0  0  0  0  0  0  0  0  0  0  0  0
    5.0276   -8.5227   17.5352 C   0  0  0  0  0  0  0  0  0  0  0  0
    9.8187   -2.0895   25.5800 C   0  0  0  0  0  0  0  0  0  0  0  0
    5.6473   -8.7216   15.3158 C   0  0  0  0  0  0  0  0  0  0  0  0
   10.7581   -3.1233   19.4720 N   0  0  0  0  0  0  0  0  0  0  0  0
    9.9571   -4.0573   16.8866 C   0  0  0  0  0  0  0  0  0  0  0  0
    7.6213   -6.5618   16.0087 C   0  0  0  0  0  0  0  0  0  0  0  0
   10.8583   -2.6527   20.7222 C   0  0  0  0  0  0  0  0  0  0  0  0
   10.6412   -3.5089   21.7936 C   0  0  0  0  0  0  0  0  0  0  0  0
   10.4972   -3.8968   24.1589 C   0  0  0  0  0  0  0  0  0  0  0  0
    5.9260   -8.2736   16.5517 C   0  0  0  0  0  0  0  0  0  0  0  0
    3.8816   -9.1166   17.2493 C   0  0  0  0  0  0  0  0  0  0  0  0
   10.1297   -1.6575   23.2324 C   0  0  0  0  0  0  0  0  0  0  0  0
    9.4684   -1.6929   26.7263 F   0  0  0  0  0  0  0  0  0  0  0  0
    7.7963   -7.7906   17.9837 C   0  0  0  0  0  0  0  0  0  0  0  0
   10.5884   -3.0725   16.7902 O   0  0  0  0  0  0  0  0  0  0  0  0
   10.4323   -5.3494   20.3516 C   0  0  0  0  0  0  0  0  0  0  0  0
    7.1156   -7.5454   16.8218 C   0  0  0  0  0  0  0  0  0  0  0  0
   10.3885   -4.4388   19.2773 C   0  0  0  0  0  0  0  0  0  0  0  0
    4.5160   -9.3822   15.0841 C   0  0  0  0  0  0  0  0  0  0  0  0
  1  3  4  0
  1 24  4  0
  2  6  4  0
  2 15  4  0
  3  5  4  0
  3  6  4  0
  4 21  4  0
  4 29  4  0
  5 15  4  0
  5 28  1  0
  6 16  4  0
  7 18  4  0
  7 26  4  0
  8 18  1  0
  8 19  4  0
  8 22  4  0
  9 12  4  0
  9 19  4  0
 10 12  4  0
 10 22  4  0
 11 20  4  0
 11 21  4  0
 12 23  1  0
 13 20  4  0
 13 29  4  0
 14 17  4  0
 14 28  4  0
 15 25  2  0
 16 27  4  0
 17 18  4  0
 20 27  1  0
 24 27  4  0
 26 28  4  0
M  END
$$$$

 Created by Python create_sdf_string function

 29 33  0  0  0  0  0  0  0  0999 V2000
    8.8270   -7.0288   18.4251 C   0  0  0  0  0  0  0  0  0  0  0  0
    9.1576   -4.6236   15.8860 O   0  0  0  0  0  0  0  0  0  0  0  0
    9.1509   -5.9108   17.7177 C   0  0  0  0  0  0  0  0  0  0  0  0
    3.6373   -9.5349   16.0582 N   0  0  0  0  0  0  0  0  0  0  0  0
    9.9275   -4.8001   18.0438 N   0  0  0  0  0  0  0  0  0  0  0  0
    8.5908   -5.7425   16.4412 C   0  0  0  0  0  0  0  0  0  0  0  0
   10.5993   -4.8981   21.6068 C   0  0  0  0  0  0  0  0  0  0  0  0
   10.4258   -3.0106   23.0998 C   0  0  0  0  0  0  0  0  0  0  0  0
   10.2148   -3.4364   25.4200 C   0  0  0  0  0  0  0  0  0  0  0  0
    9.7853   -1.1840   24.4927 C   0  0  0  0  0  0  0  0  0  0  0  0
    5.0276   -8.5227   17.5352 C   0  0  0  0  0  0  0  0  0  0  0  0
    9.8187   -2.0895   25.5800 C   0  0  0  0  0  0  0  0  0  0  0  0
    5.6473   -8.7216   15.3158 C   0  0  0  0  0  0  0  0  0  0  0  0
   10.7581   -3.1233   19.4720 N   0  0  0  0  0  0  0  0  0  0  0  0
    9.9571   -4.0573   16.8866 C   0  0  0  0  0  0  0  0  0  0  0  0
    7.6213   -6.5618   16.0087 C   0  0  0  0  0  0  0  0  0  0  0  0
   10.8583   -2.6527   20.7222 C   0  0  0  0  0  0  0  0  0  0  0  0
   10.6412   -3.5089   21.7936 C   0  0  0  0  0  0  0  0  0  0  0  0
   10.4972   -3.8968   24.1589 C   0  0  0  0  0  0  0  0  0  0  0  0
    5.9260   -8.2736   16.5517 C   0  0  0  0  0  0  0  0  0  0  0  0
    3.8816   -9.1166   17.2493 C   0  0  0  0  0  0  0  0  0  0  0  0
   10.1297   -1.6575   23.2324 C   0  0  0  0  0  0  0  0  0  0  0  0
    9.4684   -1.6929   26.7263 F   0  0  0  0  0  0  0  0  0  0  0  0
    7.7963   -7.7906   17.9837 C   0  0  0  0  0  0  0  0  0  0  0  0
   10.5884   -3.0725   16.7902 O   0  0  0  0  0  0  0  0  0  0  0  0
   10.4323   -5.3494   20.3516 C   0  0  0  0  0  0  0  0  0  0  0  0
    7.1156   -7.5454   16.8218 C   0  0  0  0  0  0  0  0  0  0  0  0
   10.3885   -4.4388   19.2773 C   0  0  0  0  0  0  0  0  0  0  0  0
    4.5160   -9.3822   15.0841 C   0  0  0  0  0  0  0  0  0  0  0  0
  1  3  4  0
  1 24  4  0
  2  6  4  0
  2 15  4  0
  3  5  4  0
  3  6  4  0
  4 21  4  0
  4 29  4  0
  5 15  4  0
  5 28  1  0
  6 16  4  0
  7 18  4  0
  7 26  4  0
  8 18  1  0
  8 19  4  0
  8 22  4  0
  9 12  4  0
  9 19  4  0
 10 12  4  0
 10 22  4  0
 11 20  4  0
 11 21  4  0
 12 23  1  0
 13 20  4  0
 13 29  4  0
 14 17  4  0
 14 28  4  0
 15 25  2  0
 16 27  4  0
 17 18  4  0
 20 27  1  0
 24 27  4  0
 26 28  4  0
M  END
$$$$

 Created by Python create_sdf_string function

 29 33  0  0  0  0  0  0  0  0999 V2000
    8.8270   -7.0288   18.4251 C   0  0  0  0  0  0  0  0  0  0  0  0
    9.1576   -4.6236   15.8860 O   0  0  0  0  0  0  0  0  0  0  0  0
    9.1509   -5.9108   17.7177 C   0  0  0  0  0  0  0  0  0  0  0  0
    3.6373   -9.5349   16.0582 N   0  0  0  0  0  0  0  0  0  0  0  0
    9.9275   -4.8001   18.0438 N   0  0  0  0  0  0  0  0  0  0  0  0
    8.5908   -5.7425   16.4412 C   0  0  0  0  0  0  0  0  0  0  0  0
   10.5993   -4.8981   21.6068 C   0  0  0  0  0  0  0  0  0  0  0  0
   10.4258   -3.0106   23.0998 C   0  0  0  0  0  0  0  0  0  0  0  0
   10.2148   -3.4364   25.4200 C   0  0  0  0  0  0  0  0  0  0  0  0
    9.7853   -1.1840   24.4927 C   0  0  0  0  0  0  0  0  0  0  0  0
    5.0276   -8.5227   17.5352 C   0  0  0  0  0  0  0  0  0  0  0  0
    9.8187   -2.0895   25.5800 C   0  0  0  0  0  0  0  0  0  0  0  0
    5.6473   -8.7216   15.3158 C   0  0  0  0  0  0  0  0  0  0  0  0
   10.7581   -3.1233   19.4720 N   0  0  0  0  0  0  0  0  0  0  0  0
    9.9571   -4.0573   16.8866 C   0  0  0  0  0  0  0  0  0  0  0  0
    7.6213   -6.5618   16.0087 C   0  0  0  0  0  0  0  0  0  0  0  0
   10.8583   -2.6527   20.7222 C   0  0  0  0  0  0  0  0  0  0  0  0
   10.6412   -3.5089   21.7936 C   0  0  0  0  0  0  0  0  0  0  0  0
   10.4972   -3.8968   24.1589 C   0  0  0  0  0  0  0  0  0  0  0  0
    5.9260   -8.2736   16.5517 C   0  0  0  0  0  0  0  0  0  0  0  0
    3.8816   -9.1166   17.2493 C   0  0  0  0  0  0  0  0  0  0  0  0
   10.1297   -1.6575   23.2324 C   0  0  0  0  0  0  0  0  0  0  0  0
    9.4684   -1.6929   26.7263 F   0  0  0  0  0  0  0  0  0  0  0  0
    7.7963   -7.7906   17.9837 C   0  0  0  0  0  0  0  0  0  0  0  0
   10.5884   -3.0725   16.7902 O   0  0  0  0  0  0  0  0  0  0  0  0
   10.4323   -5.3494   20.3516 C   0  0  0  0  0  0  0  0  0  0  0  0
    7.1156   -7.5454   16.8218 C   0  0  0  0  0  0  0  0  0  0  0  0
   10.3885   -4.4388   19.2773 C   0  0  0  0  0  0  0  0  0  0  0  0
    4.5160   -9.3822   15.0841 C   0  0  0  0  0  0  0  0  0  0  0  0
  1  3  4  0
  1 24  4  0
  2  6  4  0
  2 15  4  0
  3  5  4  0
  3  6  4  0
  4 21  4  0
  4 29  4  0
  5 15  4  0
  5 28  1  0
  6 16  4  0
  7 18  4  0
  7 26  4  0
  8 18  1  0
  8 19  4  0
  8 22  4  0
  9 12  4  0
  9 19  4  0
 10 12  4  0
 10 22  4  0
 11 20  4  0
 11 21  4  0
 12 23  1  0
 13 20  4  0
 13 29  4  0
 14 17  4  0
 14 28  4  0
 15 25  2  0
 16 27  4  0
 17 18  4  0
 20 27  1  0
 24 27  4  0
 26 28  4  0
M  END
$$$$

 Created by Python create_sdf_string function

 29 33  0  0  0  0  0  0  0  0999 V2000
    8.8270   -7.0288   18.4251 C   0  0  0  0  0  0  0  0  0  0  0  0
    9.1576   -4.6236   15.8860 O   0  0  0  0  0  0  0  0  0  0  0  0
    9.1509   -5.9108   17.7177 C   0  0  0  0  0  0  0  0  0  0  0  0
    3.6373   -9.5349   16.0582 N   0  0  0  0  0  0  0  0  0  0  0  0
    9.9275   -4.8001   18.0438 N   0  0  0  0  0  0  0  0  0  0  0  0
    8.5908   -5.7425   16.4412 C   0  0  0  0  0  0  0  0  0  0  0  0
   10.5993   -4.8981   21.6068 C   0  0  0  0  0  0  0  0  0  0  0  0
   10.4258   -3.0106   23.0998 C   0  0  0  0  0  0  0  0  0  0  0  0
   10.2148   -3.4364   25.4200 C   0  0  0  0  0  0  0  0  0  0  0  0
    9.7853   -1.1840   24.4927 C   0  0  0  0  0  0  0  0  0  0  0  0
    5.0276   -8.5227   17.5352 C   0  0  0  0  0  0  0  0  0  0  0  0
    9.8187   -2.0895   25.5800 C   0  0  0  0  0  0  0  0  0  0  0  0
    5.6473   -8.7216   15.3158 C   0  0  0  0  0  0  0  0  0  0  0  0
   10.7581   -3.1233   19.4720 N   0  0  0  0  0  0  0  0  0  0  0  0
    9.9571   -4.0573   16.8866 C   0  0  0  0  0  0  0  0  0  0  0  0
    7.6213   -6.5618   16.0087 C   0  0  0  0  0  0  0  0  0  0  0  0
   10.8583   -2.6527   20.7222 C   0  0  0  0  0  0  0  0  0  0  0  0
   10.6412   -3.5089   21.7936 C   0  0  0  0  0  0  0  0  0  0  0  0
   10.4972   -3.8968   24.1589 C   0  0  0  0  0  0  0  0  0  0  0  0
    5.9260   -8.2736   16.5517 C   0  0  0  0  0  0  0  0  0  0  0  0
    3.8816   -9.1166   17.2493 C   0  0  0  0  0  0  0  0  0  0  0  0
   10.1297   -1.6575   23.2324 C   0  0  0  0  0  0  0  0  0  0  0  0
    9.4684   -1.6929   26.7263 F   0  0  0  0  0  0  0  0  0  0  0  0
    7.7963   -7.7906   17.9837 C   0  0  0  0  0  0  0  0  0  0  0  0
   10.5884   -3.0725   16.7902 O   0  0  0  0  0  0  0  0  0  0  0  0
   10.4323   -5.3494   20.3516 C   0  0  0  0  0  0  0  0  0  0  0  0
    7.1156   -7.5454   16.8218 C   0  0  0  0  0  0  0  0  0  0  0  0
   10.3885   -4.4388   19.2773 C   0  0  0  0  0  0  0  0  0  0  0  0
    4.5160   -9.3822   15.0841 C   0  0  0  0  0  0  0  0  0  0  0  0
  1  3  4  0
  1 24  4  0
  2  6  4  0
  2 15  4  0
  3  5  4  0
  3  6  4  0
  4 21  4  0
  4 29  4  0
  5 15  4  0
  5 28  1  0
  6 16  4  0
  7 18  4  0
  7 26  4  0
  8 18  1  0
  8 19  4  0
  8 22  4  0
  9 12  4  0
  9 19  4  0
 10 12  4  0
 10 22  4  0
 11 20  4  0
 11 21  4  0
 12 23  1  0
 13 20  4  0
 13 29  4  0
 14 17  4  0
 14 28  4  0
 15 25  2  0
 16 27  4  0
 17 18  4  0
 20 27  1  0
 24 27  4  0
 26 28  4  0
M  END
$$$$

 Created by Python create_sdf_string function

 29 33  0  0  0  0  0  0  0  0999 V2000
    8.8270   -7.0288   18.4251 C   0  0  0  0  0  0  0  0  0  0  0  0
    9.1576   -4.6236   15.8860 O   0  0  0  0  0  0  0  0  0  0  0  0
    9.1509   -5.9108   17.7177 C   0  0  0  0  0  0  0  0  0  0  0  0
    3.6373   -9.5349   16.0582 N   0  0  0  0  0  0  0  0  0  0  0  0
    9.9275   -4.8001   18.0438 N   0  0  0  0  0  0  0  0  0  0  0  0
    8.5908   -5.7425   16.4412 C   0  0  0  0  0  0  0  0  0  0  0  0
   10.5993   -4.8981   21.6068 C   0  0  0  0  0  0  0  0  0  0  0  0
   10.4258   -3.0106   23.0998 C   0  0  0  0  0  0  0  0  0  0  0  0
   10.2148   -3.4364   25.4200 C   0  0  0  0  0  0  0  0  0  0  0  0
    9.7853   -1.1840   24.4927 C   0  0  0  0  0  0  0  0  0  0  0  0
    5.0276   -8.5227   17.5352 C   0  0  0  0  0  0  0  0  0  0  0  0
    9.8187   -2.0895   25.5800 C   0  0  0  0  0  0  0  0  0  0  0  0
    5.6473   -8.7216   15.3158 C   0  0  0  0  0  0  0  0  0  0  0  0
   10.7581   -3.1233   19.4720 N   0  0  0  0  0  0  0  0  0  0  0  0
    9.9571   -4.0573   16.8866 C   0  0  0  0  0  0  0  0  0  0  0  0
    7.6213   -6.5618   16.0087 C   0  0  0  0  0  0  0  0  0  0  0  0
   10.8583   -2.6527   20.7222 C   0  0  0  0  0  0  0  0  0  0  0  0
   10.6412   -3.5089   21.7936 C   0  0  0  0  0  0  0  0  0  0  0  0
   10.4972   -3.8968   24.1589 C   0  0  0  0  0  0  0  0  0  0  0  0
    5.9260   -8.2736   16.5517 C   0  0  0  0  0  0  0  0  0  0  0  0
    3.8816   -9.1166   17.2493 C   0  0  0  0  0  0  0  0  0  0  0  0
   10.1297   -1.6575   23.2324 C   0  0  0  0  0  0  0  0  0  0  0  0
    9.4684   -1.6929   26.7263 F   0  0  0  0  0  0  0  0  0  0  0  0
    7.7963   -7.7906   17.9837 C   0  0  0  0  0  0  0  0  0  0  0  0
   10.5884   -3.0725   16.7902 O   0  0  0  0  0  0  0  0  0  0  0  0
   10.4323   -5.3494   20.3516 C   0  0  0  0  0  0  0  0  0  0  0  0
    7.1156   -7.5454   16.8218 C   0  0  0  0  0  0  0  0  0  0  0  0
   10.3885   -4.4388   19.2773 C   0  0  0  0  0  0  0  0  0  0  0  0
    4.5160   -9.3822   15.0841 C   0  0  0  0  0  0  0  0  0  0  0  0
  1  3  4  0
  1 24  4  0
  2  6  4  0
  2 15  4  0
  3  5  4  0
  3  6  4  0
  4 21  4  0
  4 29  4  0
  5 15  4  0
  5 28  1  0
  6 16  4  0
  7 18  4  0
  7 26  4  0
  8 18  1  0
  8 19  4  0
  8 22  4  0
  9 12  4  0
  9 19  4  0
 10 12  4  0
 10 22  4  0
 11 20  4  0
 11 21  4  0
 12 23  1  0
 13 20  4  0
 13 29  4  0
 14 17  4  0
 14 28  4  0
 15 25  2  0
 16 27  4  0
 17 18  4  0
 20 27  1  0
 24 27  4  0
 26 28  4  0
M  END
$$$$

 Created by Python create_sdf_string function

 29 33  0  0  0  0  0  0  0  0999 V2000
    8.8270   -7.0288   18.4251 C   0  0  0  0  0  0  0  0  0  0  0  0
    9.1576   -4.6236   15.8860 O   0  0  0  0  0  0  0  0  0  0  0  0
    9.1509   -5.9108   17.7177 C   0  0  0  0  0  0  0  0  0  0  0  0
    3.6373   -9.5349   16.0582 N   0  0  0  0  0  0  0  0  0  0  0  0
    9.9275   -4.8001   18.0438 N   0  0  0  0  0  0  0  0  0  0  0  0
    8.5908   -5.7425   16.4412 C   0  0  0  0  0  0  0  0  0  0  0  0
   10.5993   -4.8981   21.6068 C   0  0  0  0  0  0  0  0  0  0  0  0
   10.4258   -3.0106   23.0998 C   0  0  0  0  0  0  0  0  0  0  0  0
   10.2148   -3.4364   25.4200 C   0  0  0  0  0  0  0  0  0  0  0  0
    9.7853   -1.1840   24.4927 C   0  0  0  0  0  0  0  0  0  0  0  0
    5.0276   -8.5227   17.5352 C   0  0  0  0  0  0  0  0  0  0  0  0
    9.8187   -2.0895   25.5800 C   0  0  0  0  0  0  0  0  0  0  0  0
    5.6473   -8.7216   15.3158 C   0  0  0  0  0  0  0  0  0  0  0  0
   10.7581   -3.1233   19.4720 N   0  0  0  0  0  0  0  0  0  0  0  0
    9.9571   -4.0573   16.8866 C   0  0  0  0  0  0  0  0  0  0  0  0
    7.6213   -6.5618   16.0087 C   0  0  0  0  0  0  0  0  0  0  0  0
   10.8583   -2.6527   20.7222 C   0  0  0  0  0  0  0  0  0  0  0  0
   10.6412   -3.5089   21.7936 C   0  0  0  0  0  0  0  0  0  0  0  0
   10.4972   -3.8968   24.1589 C   0  0  0  0  0  0  0  0  0  0  0  0
    5.9260   -8.2736   16.5517 C   0  0  0  0  0  0  0  0  0  0  0  0
    3.8816   -9.1166   17.2493 C   0  0  0  0  0  0  0  0  0  0  0  0
   10.1297   -1.6575   23.2324 C   0  0  0  0  0  0  0  0  0  0  0  0
    9.4684   -1.6929   26.7263 F   0  0  0  0  0  0  0  0  0  0  0  0
    7.7963   -7.7906   17.9837 C   0  0  0  0  0  0  0  0  0  0  0  0
   10.5884   -3.0725   16.7902 O   0  0  0  0  0  0  0  0  0  0  0  0
   10.4323   -5.3494   20.3516 C   0  0  0  0  0  0  0  0  0  0  0  0
    7.1156   -7.5454   16.8218 C   0  0  0  0  0  0  0  0  0  0  0  0
   10.3885   -4.4388   19.2773 C   0  0  0  0  0  0  0  0  0  0  0  0
    4.5160   -9.3822   15.0841 C   0  0  0  0  0  0  0  0  0  0  0  0
  1  3  4  0
  1 24  4  0
  2  6  4  0
  2 15  4  0
  3  5  4  0
  3  6  4  0
  4 21  4  0
  4 29  4  0
  5 15  4  0
  5 28  1  0
  6 16  4  0
  7 18  4  0
  7 26  4  0
  8 18  1  0
  8 19  4  0
  8 22  4  0
  9 12  4  0
  9 19  4  0
 10 12  4  0
 10 22  4  0
 11 20  4  0
 11 21  4  0
 12 23  1  0
 13 20  4  0
 13 29  4  0
 14 17  4  0
 14 28  4  0
 15 25  2  0
 16 27  4  0
 17 18  4  0
 20 27  1  0
 24 27  4  0
 26 28  4  0
M  END
$$$$

 Created by Python create_sdf_string function

 29 33  0  0  0  0  0  0  0  0999 V2000
    8.8270   -7.0288   18.4251 C   0  0  0  0  0  0  0  0  0  0  0  0
    9.1576   -4.6236   15.8860 O   0  0  0  0  0  0  0  0  0  0  0  0
    9.1509   -5.9108   17.7177 C   0  0  0  0  0  0  0  0  0  0  0  0
    3.6373   -9.5349   16.0582 N   0  0  0  0  0  0  0  0  0  0  0  0
    9.9275   -4.8001   18.0438 N   0  0  0  0  0  0  0  0  0  0  0  0
    8.5908   -5.7425   16.4412 C   0  0  0  0  0  0  0  0  0  0  0  0
   10.5993   -4.8981   21.6068 C   0  0  0  0  0  0  0  0  0  0  0  0
   10.4258   -3.0106   23.0998 C   0  0  0  0  0  0  0  0  0  0  0  0
   10.2148   -3.4364   25.4200 C   0  0  0  0  0  0  0  0  0  0  0  0
    9.7853   -1.1840   24.4927 C   0  0  0  0  0  0  0  0  0  0  0  0
    5.0276   -8.5227   17.5352 C   0  0  0  0  0  0  0  0  0  0  0  0
    9.8187   -2.0895   25.5800 C   0  0  0  0  0  0  0  0  0  0  0  0
    5.6473   -8.7216   15.3158 C   0  0  0  0  0  0  0  0  0  0  0  0
   10.7581   -3.1233   19.4720 N   0  0  0  0  0  0  0  0  0  0  0  0
    9.9571   -4.0573   16.8866 C   0  0  0  0  0  0  0  0  0  0  0  0
    7.6213   -6.5618   16.0087 C   0  0  0  0  0  0  0  0  0  0  0  0
   10.8583   -2.6527   20.7222 C   0  0  0  0  0  0  0  0  0  0  0  0
   10.6412   -3.5089   21.7936 C   0  0  0  0  0  0  0  0  0  0  0  0
   10.4972   -3.8968   24.1589 C   0  0  0  0  0  0  0  0  0  0  0  0
    5.9260   -8.2736   16.5517 C   0  0  0  0  0  0  0  0  0  0  0  0
    3.8816   -9.1166   17.2493 C   0  0  0  0  0  0  0  0  0  0  0  0
   10.1297   -1.6575   23.2324 C   0  0  0  0  0  0  0  0  0  0  0  0
    9.4684   -1.6929   26.7263 F   0  0  0  0  0  0  0  0  0  0  0  0
    7.7963   -7.7906   17.9837 C   0  0  0  0  0  0  0  0  0  0  0  0
   10.5884   -3.0725   16.7902 O   0  0  0  0  0  0  0  0  0  0  0  0
   10.4323   -5.3494   20.3516 C   0  0  0  0  0  0  0  0  0  0  0  0
    7.1156   -7.5454   16.8218 C   0  0  0  0  0  0  0  0  0  0  0  0
   10.3885   -4.4388   19.2773 C   0  0  0  0  0  0  0  0  0  0  0  0
    4.5160   -9.3822   15.0841 C   0  0  0  0  0  0  0  0  0  0  0  0
  1  3  4  0
  1 24  4  0
  2  6  4  0
  2 15  4  0
  3  5  4  0
  3  6  4  0
  4 21  4  0
  4 29  4  0
  5 15  4  0
  5 28  1  0
  6 16  4  0
  7 18  4  0
  7 26  4  0
  8 18  1  0
  8 19  4  0
  8 22  4  0
  9 12  4  0
  9 19  4  0
 10 12  4  0
 10 22  4  0
 11 20  4  0
 11 21  4  0
 12 23  1  0
 13 20  4  0
 13 29  4  0
 14 17  4  0
 14 28  4  0
 15 25  2  0
 16 27  4  0
 17 18  4  0
 20 27  1  0
 24 27  4  0
 26 28  4  0
M  END
$$$$

 Created by Python create_sdf_string function

 29 33  0  0  0  0  0  0  0  0999 V2000
    8.8270   -7.0288   18.4251 C   0  0  0  0  0  0  0  0  0  0  0  0
    9.1576   -4.6236   15.8860 O   0  0  0  0  0  0  0  0  0  0  0  0
    9.1509   -5.9108   17.7177 C   0  0  0  0  0  0  0  0  0  0  0  0
    3.6373   -9.5349   16.0582 N   0  0  0  0  0  0  0  0  0  0  0  0
    9.9275   -4.8001   18.0438 N   0  0  0  0  0  0  0  0  0  0  0  0
    8.5908   -5.7425   16.4412 C   0  0  0  0  0  0  0  0  0  0  0  0
   10.5993   -4.8981   21.6068 C   0  0  0  0  0  0  0  0  0  0  0  0
   10.4258   -3.0106   23.0998 C   0  0  0  0  0  0  0  0  0  0  0  0
   10.2148   -3.4364   25.4200 C   0  0  0  0  0  0  0  0  0  0  0  0
    9.7853   -1.1840   24.4927 C   0  0  0  0  0  0  0  0  0  0  0  0
    5.0276   -8.5227   17.5352 C   0  0  0  0  0  0  0  0  0  0  0  0
    9.8187   -2.0895   25.5800 C   0  0  0  0  0  0  0  0  0  0  0  0
    5.6473   -8.7216   15.3158 C   0  0  0  0  0  0  0  0  0  0  0  0
   10.7581   -3.1233   19.4720 N   0  0  0  0  0  0  0  0  0  0  0  0
    9.9571   -4.0573   16.8866 C   0  0  0  0  0  0  0  0  0  0  0  0
    7.6213   -6.5618   16.0087 C   0  0  0  0  0  0  0  0  0  0  0  0
   10.8583   -2.6527   20.7222 C   0  0  0  0  0  0  0  0  0  0  0  0
   10.6412   -3.5089   21.7936 C   0  0  0  0  0  0  0  0  0  0  0  0
   10.4972   -3.8968   24.1589 C   0  0  0  0  0  0  0  0  0  0  0  0
    5.9260   -8.2736   16.5517 C   0  0  0  0  0  0  0  0  0  0  0  0
    3.8816   -9.1166   17.2493 C   0  0  0  0  0  0  0  0  0  0  0  0
   10.1297   -1.6575   23.2324 C   0  0  0  0  0  0  0  0  0  0  0  0
    9.4684   -1.6929   26.7263 F   0  0  0  0  0  0  0  0  0  0  0  0
    7.7963   -7.7906   17.9837 C   0  0  0  0  0  0  0  0  0  0  0  0
   10.5884   -3.0725   16.7902 O   0  0  0  0  0  0  0  0  0  0  0  0
   10.4323   -5.3494   20.3516 C   0  0  0  0  0  0  0  0  0  0  0  0
    7.1156   -7.5454   16.8218 C   0  0  0  0  0  0  0  0  0  0  0  0
   10.3885   -4.4388   19.2773 C   0  0  0  0  0  0  0  0  0  0  0  0
    4.5160   -9.3822   15.0841 C   0  0  0  0  0  0  0  0  0  0  0  0
  1  3  4  0
  1 24  4  0
  2  6  4  0
  2 15  4  0
  3  5  4  0
  3  6  4  0
  4 21  4  0
  4 29  4  0
  5 15  4  0
  5 28  1  0
  6 16  4  0
  7 18  4  0
  7 26  4  0
  8 18  1  0
  8 19  4  0
  8 22  4  0
  9 12  4  0
  9 19  4  0
 10 12  4  0
 10 22  4  0
 11 20  4  0
 11 21  4  0
 12 23  1  0
 13 20  4  0
 13 29  4  0
 14 17  4  0
 14 28  4  0
 15 25  2  0
 16 27  4  0
 17 18  4  0
 20 27  1  0
 24 27  4  0
 26 28  4  0
M  END
$$$$

 Created by Python create_sdf_string function

 29 33  0  0  0  0  0  0  0  0999 V2000
    8.8270   -7.0288   18.4251 C   0  0  0  0  0  0  0  0  0  0  0  0
    9.1576   -4.6236   15.8860 O   0  0  0  0  0  0  0  0  0  0  0  0
    9.1509   -5.9108   17.7177 C   0  0  0  0  0  0  0  0  0  0  0  0
    3.6373   -9.5349   16.0582 N   0  0  0  0  0  0  0  0  0  0  0  0
    9.9275   -4.8001   18.0438 N   0  0  0  0  0  0  0  0  0  0  0  0
    8.5908   -5.7425   16.4412 C   0  0  0  0  0  0  0  0  0  0  0  0
   10.5993   -4.8981   21.6068 C   0  0  0  0  0  0  0  0  0  0  0  0
   10.4258   -3.0106   23.0998 C   0  0  0  0  0  0  0  0  0  0  0  0
   10.2148   -3.4364   25.4200 C   0  0  0  0  0  0  0  0  0  0  0  0
    9.7853   -1.1840   24.4927 C   0  0  0  0  0  0  0  0  0  0  0  0
    5.0276   -8.5227   17.5352 C   0  0  0  0  0  0  0  0  0  0  0  0
    9.8187   -2.0895   25.5800 C   0  0  0  0  0  0  0  0  0  0  0  0
    5.6473   -8.7216   15.3158 C   0  0  0  0  0  0  0  0  0  0  0  0
   10.7581   -3.1233   19.4720 N   0  0  0  0  0  0  0  0  0  0  0  0
    9.9571   -4.0573   16.8866 C   0  0  0  0  0  0  0  0  0  0  0  0
    7.6213   -6.5618   16.0087 C   0  0  0  0  0  0  0  0  0  0  0  0
   10.8583   -2.6527   20.7222 C   0  0  0  0  0  0  0  0  0  0  0  0
   10.6412   -3.5089   21.7936 C   0  0  0  0  0  0  0  0  0  0  0  0
   10.4972   -3.8968   24.1589 C   0  0  0  0  0  0  0  0  0  0  0  0
    5.9260   -8.2736   16.5517 C   0  0  0  0  0  0  0  0  0  0  0  0
    3.8816   -9.1166   17.2493 C   0  0  0  0  0  0  0  0  0  0  0  0
   10.1297   -1.6575   23.2324 C   0  0  0  0  0  0  0  0  0  0  0  0
    9.4684   -1.6929   26.7263 F   0  0  0  0  0  0  0  0  0  0  0  0
    7.7963   -7.7906   17.9837 C   0  0  0  0  0  0  0  0  0  0  0  0
   10.5884   -3.0725   16.7902 O   0  0  0  0  0  0  0  0  0  0  0  0
   10.4323   -5.3494   20.3516 C   0  0  0  0  0  0  0  0  0  0  0  0
    7.1156   -7.5454   16.8218 C   0  0  0  0  0  0  0  0  0  0  0  0
   10.3885   -4.4388   19.2773 C   0  0  0  0  0  0  0  0  0  0  0  0
    4.5160   -9.3822   15.0841 C   0  0  0  0  0  0  0  0  0  0  0  0
  1  3  4  0
  1 24  4  0
  2  6  4  0
  2 15  4  0
  3  5  4  0
  3  6  4  0
  4 21  4  0
  4 29  4  0
  5 15  4  0
  5 28  1  0
  6 16  4  0
  7 18  4  0
  7 26  4  0
  8 18  1  0
  8 19  4  0
  8 22  4  0
  9 12  4  0
  9 19  4  0
 10 12  4  0
 10 22  4  0
 11 20  4  0
 11 21  4  0
 12 23  1  0
 13 20  4  0
 13 29  4  0
 14 17  4  0
 14 28  4  0
 15 25  2  0
 16 27  4  0
 17 18  4  0
 20 27  1  0
 24 27  4  0
 26 28  4  0
M  END
$$$$

 Created by Python create_sdf_string function

 29 33  0  0  0  0  0  0  0  0999 V2000
    8.8270   -7.0288   18.4251 C   0  0  0  0  0  0  0  0  0  0  0  0
    9.1576   -4.6236   15.8860 O   0  0  0  0  0  0  0  0  0  0  0  0
    9.1509   -5.9108   17.7177 C   0  0  0  0  0  0  0  0  0  0  0  0
    3.6373   -9.5349   16.0582 N   0  0  0  0  0  0  0  0  0  0  0  0
    9.9275   -4.8001   18.0438 N   0  0  0  0  0  0  0  0  0  0  0  0
    8.5908   -5.7425   16.4412 C   0  0  0  0  0  0  0  0  0  0  0  0
   10.5993   -4.8981   21.6068 C   0  0  0  0  0  0  0  0  0  0  0  0
   10.4258   -3.0106   23.0998 C   0  0  0  0  0  0  0  0  0  0  0  0
   10.2148   -3.4364   25.4200 C   0  0  0  0  0  0  0  0  0  0  0  0
    9.7853   -1.1840   24.4927 C   0  0  0  0  0  0  0  0  0  0  0  0
    5.0276   -8.5227   17.5352 C   0  0  0  0  0  0  0  0  0  0  0  0
    9.8187   -2.0895   25.5800 C   0  0  0  0  0  0  0  0  0  0  0  0
    5.6473   -8.7216   15.3158 C   0  0  0  0  0  0  0  0  0  0  0  0
   10.7581   -3.1233   19.4720 N   0  0  0  0  0  0  0  0  0  0  0  0
    9.9571   -4.0573   16.8866 C   0  0  0  0  0  0  0  0  0  0  0  0
    7.6213   -6.5618   16.0087 C   0  0  0  0  0  0  0  0  0  0  0  0
   10.8583   -2.6527   20.7222 C   0  0  0  0  0  0  0  0  0  0  0  0
   10.6412   -3.5089   21.7936 C   0  0  0  0  0  0  0  0  0  0  0  0
   10.4972   -3.8968   24.1589 C   0  0  0  0  0  0  0  0  0  0  0  0
    5.9260   -8.2736   16.5517 C   0  0  0  0  0  0  0  0  0  0  0  0
    3.8816   -9.1166   17.2493 C   0  0  0  0  0  0  0  0  0  0  0  0
   10.1297   -1.6575   23.2324 C   0  0  0  0  0  0  0  0  0  0  0  0
    9.4684   -1.6929   26.7263 F   0  0  0  0  0  0  0  0  0  0  0  0
    7.7963   -7.7906   17.9837 C   0  0  0  0  0  0  0  0  0  0  0  0
   10.5884   -3.0725   16.7902 O   0  0  0  0  0  0  0  0  0  0  0  0
   10.4323   -5.3494   20.3516 C   0  0  0  0  0  0  0  0  0  0  0  0
    7.1156   -7.5454   16.8218 C   0  0  0  0  0  0  0  0  0  0  0  0
   10.3885   -4.4388   19.2773 C   0  0  0  0  0  0  0  0  0  0  0  0
    4.5160   -9.3822   15.0841 C   0  0  0  0  0  0  0  0  0  0  0  0
  1  3  4  0
  1 24  4  0
  2  6  4  0
  2 15  4  0
  3  5  4  0
  3  6  4  0
  4 21  4  0
  4 29  4  0
  5 15  4  0
  5 28  1  0
  6 16  4  0
  7 18  4  0
  7 26  4  0
  8 18  1  0
  8 19  4  0
  8 22  4  0
  9 12  4  0
  9 19  4  0
 10 12  4  0
 10 22  4  0
 11 20  4  0
 11 21  4  0
 12 23  1  0
 13 20  4  0
 13 29  4  0
 14 17  4  0
 14 28  4  0
 15 25  2  0
 16 27  4  0
 17 18  4  0
 20 27  1  0
 24 27  4  0
 26 28  4  0
M  END
$$$$

 Created by Python create_sdf_string function

 29 33  0  0  0  0  0  0  0  0999 V2000
    8.8270   -7.0288   18.4251 C   0  0  0  0  0  0  0  0  0  0  0  0
    9.1576   -4.6236   15.8860 O   0  0  0  0  0  0  0  0  0  0  0  0
    9.1509   -5.9108   17.7177 C   0  0  0  0  0  0  0  0  0  0  0  0
    3.6373   -9.5349   16.0582 N   0  0  0  0  0  0  0  0  0  0  0  0
    9.9275   -4.8001   18.0438 N   0  0  0  0  0  0  0  0  0  0  0  0
    8.5908   -5.7425   16.4412 C   0  0  0  0  0  0  0  0  0  0  0  0
   10.5993   -4.8981   21.6068 C   0  0  0  0  0  0  0  0  0  0  0  0
   10.4258   -3.0106   23.0998 C   0  0  0  0  0  0  0  0  0  0  0  0
   10.2148   -3.4364   25.4200 C   0  0  0  0  0  0  0  0  0  0  0  0
    9.7853   -1.1840   24.4927 C   0  0  0  0  0  0  0  0  0  0  0  0
    5.0276   -8.5227   17.5352 C   0  0  0  0  0  0  0  0  0  0  0  0
    9.8187   -2.0895   25.5800 C   0  0  0  0  0  0  0  0  0  0  0  0
    5.6473   -8.7216   15.3158 C   0  0  0  0  0  0  0  0  0  0  0  0
   10.7581   -3.1233   19.4720 N   0  0  0  0  0  0  0  0  0  0  0  0
    9.9571   -4.0573   16.8866 C   0  0  0  0  0  0  0  0  0  0  0  0
    7.6213   -6.5618   16.0087 C   0  0  0  0  0  0  0  0  0  0  0  0
   10.8583   -2.6527   20.7222 C   0  0  0  0  0  0  0  0  0  0  0  0
   10.6412   -3.5089   21.7936 C   0  0  0  0  0  0  0  0  0  0  0  0
   10.4972   -3.8968   24.1589 C   0  0  0  0  0  0  0  0  0  0  0  0
    5.9260   -8.2736   16.5517 C   0  0  0  0  0  0  0  0  0  0  0  0
    3.8816   -9.1166   17.2493 C   0  0  0  0  0  0  0  0  0  0  0  0
   10.1297   -1.6575   23.2324 C   0  0  0  0  0  0  0  0  0  0  0  0
    9.4684   -1.6929   26.7263 F   0  0  0  0  0  0  0  0  0  0  0  0
    7.7963   -7.7906   17.9837 C   0  0  0  0  0  0  0  0  0  0  0  0
   10.5884   -3.0725   16.7902 O   0  0  0  0  0  0  0  0  0  0  0  0
   10.4323   -5.3494   20.3516 C   0  0  0  0  0  0  0  0  0  0  0  0
    7.1156   -7.5454   16.8218 C   0  0  0  0  0  0  0  0  0  0  0  0
   10.3885   -4.4388   19.2773 C   0  0  0  0  0  0  0  0  0  0  0  0
    4.5160   -9.3822   15.0841 C   0  0  0  0  0  0  0  0  0  0  0  0
  1  3  4  0
  1 24  4  0
  2  6  4  0
  2 15  4  0
  3  5  4  0
  3  6  4  0
  4 21  4  0
  4 29  4  0
  5 15  4  0
  5 28  1  0
  6 16  4  0
  7 18  4  0
  7 26  4  0
  8 18  1  0
  8 19  4  0
  8 22  4  0
  9 12  4  0
  9 19  4  0
 10 12  4  0
 10 22  4  0
 11 20  4  0
 11 21  4  0
 12 23  1  0
 13 20  4  0
 13 29  4  0
 14 17  4  0
 14 28  4  0
 15 25  2  0
 16 27  4  0
 17 18  4  0
 20 27  1  0
 24 27  4  0
 26 28  4  0
M  END
$$$$

 Created by Python create_sdf_string function

 29 33  0  0  0  0  0  0  0  0999 V2000
    8.8270   -7.0288   18.4251 C   0  0  0  0  0  0  0  0  0  0  0  0
    9.1576   -4.6236   15.8860 O   0  0  0  0  0  0  0  0  0  0  0  0
    9.1509   -5.9108   17.7177 C   0  0  0  0  0  0  0  0  0  0  0  0
    3.6373   -9.5349   16.0582 N   0  0  0  0  0  0  0  0  0  0  0  0
    9.9275   -4.8001   18.0438 N   0  0  0  0  0  0  0  0  0  0  0  0
    8.5908   -5.7425   16.4412 C   0  0  0  0  0  0  0  0  0  0  0  0
   10.5993   -4.8981   21.6068 C   0  0  0  0  0  0  0  0  0  0  0  0
   10.4258   -3.0106   23.0998 C   0  0  0  0  0  0  0  0  0  0  0  0
   10.2148   -3.4364   25.4200 C   0  0  0  0  0  0  0  0  0  0  0  0
    9.7853   -1.1840   24.4927 C   0  0  0  0  0  0  0  0  0  0  0  0
    5.0276   -8.5227   17.5352 C   0  0  0  0  0  0  0  0  0  0  0  0
    9.8187   -2.0895   25.5800 C   0  0  0  0  0  0  0  0  0  0  0  0
    5.6473   -8.7216   15.3158 C   0  0  0  0  0  0  0  0  0  0  0  0
   10.7581   -3.1233   19.4720 N   0  0  0  0  0  0  0  0  0  0  0  0
    9.9571   -4.0573   16.8866 C   0  0  0  0  0  0  0  0  0  0  0  0
    7.6213   -6.5618   16.0087 C   0  0  0  0  0  0  0  0  0  0  0  0
   10.8583   -2.6527   20.7222 C   0  0  0  0  0  0  0  0  0  0  0  0
   10.6412   -3.5089   21.7936 C   0  0  0  0  0  0  0  0  0  0  0  0
   10.4972   -3.8968   24.1589 C   0  0  0  0  0  0  0  0  0  0  0  0
    5.9260   -8.2736   16.5517 C   0  0  0  0  0  0  0  0  0  0  0  0
    3.8816   -9.1166   17.2493 C   0  0  0  0  0  0  0  0  0  0  0  0
   10.1297   -1.6575   23.2324 C   0  0  0  0  0  0  0  0  0  0  0  0
    9.4684   -1.6929   26.7263 F   0  0  0  0  0  0  0  0  0  0  0  0
    7.7963   -7.7906   17.9837 C   0  0  0  0  0  0  0  0  0  0  0  0
   10.5884   -3.0725   16.7902 O   0  0  0  0  0  0  0  0  0  0  0  0
   10.4323   -5.3494   20.3516 C   0  0  0  0  0  0  0  0  0  0  0  0
    7.1156   -7.5454   16.8218 C   0  0  0  0  0  0  0  0  0  0  0  0
   10.3885   -4.4388   19.2773 C   0  0  0  0  0  0  0  0  0  0  0  0
    4.5160   -9.3822   15.0841 C   0  0  0  0  0  0  0  0  0  0  0  0
  1  3  4  0
  1 24  4  0
  2  6  4  0
  2 15  4  0
  3  5  4  0
  3  6  4  0
  4 21  4  0
  4 29  4  0
  5 15  4  0
  5 28  1  0
  6 16  4  0
  7 18  4  0
  7 26  4  0
  8 18  1  0
  8 19  4  0
  8 22  4  0
  9 12  4  0
  9 19  4  0
 10 12  4  0
 10 22  4  0
 11 20  4  0
 11 21  4  0
 12 23  1  0
 13 20  4  0
 13 29  4  0
 14 17  4  0
 14 28  4  0
 15 25  2  0
 16 27  4  0
 17 18  4  0
 20 27  1  0
 24 27  4  0
 26 28  4  0
M  END
$$$$

 Created by Python create_sdf_string function

 29 33  0  0  0  0  0  0  0  0999 V2000
    8.8270   -7.0288   18.4251 C   0  0  0  0  0  0  0  0  0  0  0  0
    9.1576   -4.6236   15.8860 O   0  0  0  0  0  0  0  0  0  0  0  0
    9.1509   -5.9108   17.7177 C   0  0  0  0  0  0  0  0  0  0  0  0
    3.6373   -9.5349   16.0582 N   0  0  0  0  0  0  0  0  0  0  0  0
    9.9275   -4.8001   18.0438 N   0  0  0  0  0  0  0  0  0  0  0  0
    8.5908   -5.7425   16.4412 C   0  0  0  0  0  0  0  0  0  0  0  0
   10.5993   -4.8981   21.6068 C   0  0  0  0  0  0  0  0  0  0  0  0
   10.4258   -3.0106   23.0998 C   0  0  0  0  0  0  0  0  0  0  0  0
   10.2148   -3.4364   25.4200 C   0  0  0  0  0  0  0  0  0  0  0  0
    9.7853   -1.1840   24.4927 C   0  0  0  0  0  0  0  0  0  0  0  0
    5.0276   -8.5227   17.5352 C   0  0  0  0  0  0  0  0  0  0  0  0
    9.8187   -2.0895   25.5800 C   0  0  0  0  0  0  0  0  0  0  0  0
    5.6473   -8.7216   15.3158 C   0  0  0  0  0  0  0  0  0  0  0  0
   10.7581   -3.1233   19.4720 N   0  0  0  0  0  0  0  0  0  0  0  0
    9.9571   -4.0573   16.8866 C   0  0  0  0  0  0  0  0  0  0  0  0
    7.6213   -6.5618   16.0087 C   0  0  0  0  0  0  0  0  0  0  0  0
   10.8583   -2.6527   20.7222 C   0  0  0  0  0  0  0  0  0  0  0  0
   10.6412   -3.5089   21.7936 C   0  0  0  0  0  0  0  0  0  0  0  0
   10.4972   -3.8968   24.1589 C   0  0  0  0  0  0  0  0  0  0  0  0
    5.9260   -8.2736   16.5517 C   0  0  0  0  0  0  0  0  0  0  0  0
    3.8816   -9.1166   17.2493 C   0  0  0  0  0  0  0  0  0  0  0  0
   10.1297   -1.6575   23.2324 C   0  0  0  0  0  0  0  0  0  0  0  0
    9.4684   -1.6929   26.7263 F   0  0  0  0  0  0  0  0  0  0  0  0
    7.7963   -7.7906   17.9837 C   0  0  0  0  0  0  0  0  0  0  0  0
   10.5884   -3.0725   16.7902 O   0  0  0  0  0  0  0  0  0  0  0  0
   10.4323   -5.3494   20.3516 C   0  0  0  0  0  0  0  0  0  0  0  0
    7.1156   -7.5454   16.8218 C   0  0  0  0  0  0  0  0  0  0  0  0
   10.3885   -4.4388   19.2773 C   0  0  0  0  0  0  0  0  0  0  0  0
    4.5160   -9.3822   15.0841 C   0  0  0  0  0  0  0  0  0  0  0  0
  1  3  4  0
  1 24  4  0
  2  6  4  0
  2 15  4  0
  3  5  4  0
  3  6  4  0
  4 21  4  0
  4 29  4  0
  5 15  4  0
  5 28  1  0
  6 16  4  0
  7 18  4  0
  7 26  4  0
  8 18  1  0
  8 19  4  0
  8 22  4  0
  9 12  4  0
  9 19  4  0
 10 12  4  0
 10 22  4  0
 11 20  4  0
 11 21  4  0
 12 23  1  0
 13 20  4  0
 13 29  4  0
 14 17  4  0
 14 28  4  0
 15 25  2  0
 16 27  4  0
 17 18  4  0
 20 27  1  0
 24 27  4  0
 26 28  4  0
M  END
$$$$

 Created by Python create_sdf_string function

 29 33  0  0  0  0  0  0  0  0999 V2000
    8.8270   -7.0288   18.4251 C   0  0  0  0  0  0  0  0  0  0  0  0
    9.1576   -4.6236   15.8860 O   0  0  0  0  0  0  0  0  0  0  0  0
    9.1509   -5.9108   17.7177 C   0  0  0  0  0  0  0  0  0  0  0  0
    3.6373   -9.5349   16.0582 N   0  0  0  0  0  0  0  0  0  0  0  0
    9.9275   -4.8001   18.0438 N   0  0  0  0  0  0  0  0  0  0  0  0
    8.5908   -5.7425   16.4412 C   0  0  0  0  0  0  0  0  0  0  0  0
   10.5993   -4.8981   21.6068 C   0  0  0  0  0  0  0  0  0  0  0  0
   10.4258   -3.0106   23.0998 C   0  0  0  0  0  0  0  0  0  0  0  0
   10.2148   -3.4364   25.4200 C   0  0  0  0  0  0  0  0  0  0  0  0
    9.7853   -1.1840   24.4927 C   0  0  0  0  0  0  0  0  0  0  0  0
    5.0276   -8.5227   17.5352 C   0  0  0  0  0  0  0  0  0  0  0  0
    9.8187   -2.0895   25.5800 C   0  0  0  0  0  0  0  0  0  0  0  0
    5.6473   -8.7216   15.3158 C   0  0  0  0  0  0  0  0  0  0  0  0
   10.7581   -3.1233   19.4720 N   0  0  0  0  0  0  0  0  0  0  0  0
    9.9571   -4.0573   16.8866 C   0  0  0  0  0  0  0  0  0  0  0  0
    7.6213   -6.5618   16.0087 C   0  0  0  0  0  0  0  0  0  0  0  0
   10.8583   -2.6527   20.7222 C   0  0  0  0  0  0  0  0  0  0  0  0
   10.6412   -3.5089   21.7936 C   0  0  0  0  0  0  0  0  0  0  0  0
   10.4972   -3.8968   24.1589 C   0  0  0  0  0  0  0  0  0  0  0  0
    5.9260   -8.2736   16.5517 C   0  0  0  0  0  0  0  0  0  0  0  0
    3.8816   -9.1166   17.2493 C   0  0  0  0  0  0  0  0  0  0  0  0
   10.1297   -1.6575   23.2324 C   0  0  0  0  0  0  0  0  0  0  0  0
    9.4684   -1.6929   26.7263 F   0  0  0  0  0  0  0  0  0  0  0  0
    7.7963   -7.7906   17.9837 C   0  0  0  0  0  0  0  0  0  0  0  0
   10.5884   -3.0725   16.7902 O   0  0  0  0  0  0  0  0  0  0  0  0
   10.4323   -5.3494   20.3516 C   0  0  0  0  0  0  0  0  0  0  0  0
    7.1156   -7.5454   16.8218 C   0  0  0  0  0  0  0  0  0  0  0  0
   10.3885   -4.4388   19.2773 C   0  0  0  0  0  0  0  0  0  0  0  0
    4.5160   -9.3822   15.0841 C   0  0  0  0  0  0  0  0  0  0  0  0
  1  3  4  0
  1 24  4  0
  2  6  4  0
  2 15  4  0
  3  5  4  0
  3  6  4  0
  4 21  4  0
  4 29  4  0
  5 15  4  0
  5 28  1  0
  6 16  4  0
  7 18  4  0
  7 26  4  0
  8 18  1  0
  8 19  4  0
  8 22  4  0
  9 12  4  0
  9 19  4  0
 10 12  4  0
 10 22  4  0
 11 20  4  0
 11 21  4  0
 12 23  1  0
 13 20  4  0
 13 29  4  0
 14 17  4  0
 14 28  4  0
 15 25  2  0
 16 27  4  0
 17 18  4  0
 20 27  1  0
 24 27  4  0
 26 28  4  0
M  END
$$$$

 Created by Python create_sdf_string function

 29 33  0  0  0  0  0  0  0  0999 V2000
    8.8270   -7.0288   18.4251 C   0  0  0  0  0  0  0  0  0  0  0  0
    9.1576   -4.6236   15.8860 O   0  0  0  0  0  0  0  0  0  0  0  0
    9.1509   -5.9108   17.7177 C   0  0  0  0  0  0  0  0  0  0  0  0
    3.6373   -9.5349   16.0582 N   0  0  0  0  0  0  0  0  0  0  0  0
    9.9275   -4.8001   18.0438 N   0  0  0  0  0  0  0  0  0  0  0  0
    8.5908   -5.7425   16.4412 C   0  0  0  0  0  0  0  0  0  0  0  0
   10.5993   -4.8981   21.6068 C   0  0  0  0  0  0  0  0  0  0  0  0
   10.4258   -3.0106   23.0998 C   0  0  0  0  0  0  0  0  0  0  0  0
   10.2148   -3.4364   25.4200 C   0  0  0  0  0  0  0  0  0  0  0  0
    9.7853   -1.1840   24.4927 C   0  0  0  0  0  0  0  0  0  0  0  0
    5.0276   -8.5227   17.5352 C   0  0  0  0  0  0  0  0  0  0  0  0
    9.8187   -2.0895   25.5800 C   0  0  0  0  0  0  0  0  0  0  0  0
    5.6473   -8.7216   15.3158 C   0  0  0  0  0  0  0  0  0  0  0  0
   10.7581   -3.1233   19.4720 N   0  0  0  0  0  0  0  0  0  0  0  0
    9.9571   -4.0573   16.8866 C   0  0  0  0  0  0  0  0  0  0  0  0
    7.6213   -6.5618   16.0087 C   0  0  0  0  0  0  0  0  0  0  0  0
   10.8583   -2.6527   20.7222 C   0  0  0  0  0  0  0  0  0  0  0  0
   10.6412   -3.5089   21.7936 C   0  0  0  0  0  0  0  0  0  0  0  0
   10.4972   -3.8968   24.1589 C   0  0  0  0  0  0  0  0  0  0  0  0
    5.9260   -8.2736   16.5517 C   0  0  0  0  0  0  0  0  0  0  0  0
    3.8816   -9.1166   17.2493 C   0  0  0  0  0  0  0  0  0  0  0  0
   10.1297   -1.6575   23.2324 C   0  0  0  0  0  0  0  0  0  0  0  0
    9.4684   -1.6929   26.7263 F   0  0  0  0  0  0  0  0  0  0  0  0
    7.7963   -7.7906   17.9837 C   0  0  0  0  0  0  0  0  0  0  0  0
   10.5884   -3.0725   16.7902 O   0  0  0  0  0  0  0  0  0  0  0  0
   10.4323   -5.3494   20.3516 C   0  0  0  0  0  0  0  0  0  0  0  0
    7.1156   -7.5454   16.8218 C   0  0  0  0  0  0  0  0  0  0  0  0
   10.3885   -4.4388   19.2773 C   0  0  0  0  0  0  0  0  0  0  0  0
    4.5160   -9.3822   15.0841 C   0  0  0  0  0  0  0  0  0  0  0  0
  1  3  4  0
  1 24  4  0
  2  6  4  0
  2 15  4  0
  3  5  4  0
  3  6  4  0
  4 21  4  0
  4 29  4  0
  5 15  4  0
  5 28  1  0
  6 16  4  0
  7 18  4  0
  7 26  4  0
  8 18  1  0
  8 19  4  0
  8 22  4  0
  9 12  4  0
  9 19  4  0
 10 12  4  0
 10 22  4  0
 11 20  4  0
 11 21  4  0
 12 23  1  0
 13 20  4  0
 13 29  4  0
 14 17  4  0
 14 28  4  0
 15 25  2  0
 16 27  4  0
 17 18  4  0
 20 27  1  0
 24 27  4  0
 26 28  4  0
M  END
$$$$

 Created by Python create_sdf_string function

 29 33  0  0  0  0  0  0  0  0999 V2000
    8.8270   -7.0288   18.4251 C   0  0  0  0  0  0  0  0  0  0  0  0
    9.1576   -4.6236   15.8860 O   0  0  0  0  0  0  0  0  0  0  0  0
    9.1509   -5.9108   17.7177 C   0  0  0  0  0  0  0  0  0  0  0  0
    3.6373   -9.5349   16.0582 N   0  0  0  0  0  0  0  0  0  0  0  0
    9.9275   -4.8001   18.0438 N   0  0  0  0  0  0  0  0  0  0  0  0
    8.5908   -5.7425   16.4412 C   0  0  0  0  0  0  0  0  0  0  0  0
   10.5993   -4.8981   21.6068 C   0  0  0  0  0  0  0  0  0  0  0  0
   10.4258   -3.0106   23.0998 C   0  0  0  0  0  0  0  0  0  0  0  0
   10.2148   -3.4364   25.4200 C   0  0  0  0  0  0  0  0  0  0  0  0
    9.7853   -1.1840   24.4927 C   0  0  0  0  0  0  0  0  0  0  0  0
    5.0276   -8.5227   17.5352 C   0  0  0  0  0  0  0  0  0  0  0  0
    9.8187   -2.0895   25.5800 C   0  0  0  0  0  0  0  0  0  0  0  0
    5.6473   -8.7216   15.3158 C   0  0  0  0  0  0  0  0  0  0  0  0
   10.7581   -3.1233   19.4720 N   0  0  0  0  0  0  0  0  0  0  0  0
    9.9571   -4.0573   16.8866 C   0  0  0  0  0  0  0  0  0  0  0  0
    7.6213   -6.5618   16.0087 C   0  0  0  0  0  0  0  0  0  0  0  0
   10.8583   -2.6527   20.7222 C   0  0  0  0  0  0  0  0  0  0  0  0
   10.6412   -3.5089   21.7936 C   0  0  0  0  0  0  0  0  0  0  0  0
   10.4972   -3.8968   24.1589 C   0  0  0  0  0  0  0  0  0  0  0  0
    5.9260   -8.2736   16.5517 C   0  0  0  0  0  0  0  0  0  0  0  0
    3.8816   -9.1166   17.2493 C   0  0  0  0  0  0  0  0  0  0  0  0
   10.1297   -1.6575   23.2324 C   0  0  0  0  0  0  0  0  0  0  0  0
    9.4684   -1.6929   26.7263 F   0  0  0  0  0  0  0  0  0  0  0  0
    7.7963   -7.7906   17.9837 C   0  0  0  0  0  0  0  0  0  0  0  0
   10.5884   -3.0725   16.7902 O   0  0  0  0  0  0  0  0  0  0  0  0
   10.4323   -5.3494   20.3516 C   0  0  0  0  0  0  0  0  0  0  0  0
    7.1156   -7.5454   16.8218 C   0  0  0  0  0  0  0  0  0  0  0  0
   10.3885   -4.4388   19.2773 C   0  0  0  0  0  0  0  0  0  0  0  0
    4.5160   -9.3822   15.0841 C   0  0  0  0  0  0  0  0  0  0  0  0
  1  3  4  0
  1 24  4  0
  2  6  4  0
  2 15  4  0
  3  5  4  0
  3  6  4  0
  4 21  4  0
  4 29  4  0
  5 15  4  0
  5 28  1  0
  6 16  4  0
  7 18  4  0
  7 26  4  0
  8 18  1  0
  8 19  4  0
  8 22  4  0
  9 12  4  0
  9 19  4  0
 10 12  4  0
 10 22  4  0
 11 20  4  0
 11 21  4  0
 12 23  1  0
 13 20  4  0
 13 29  4  0
 14 17  4  0
 14 28  4  0
 15 25  2  0
 16 27  4  0
 17 18  4  0
 20 27  1  0
 24 27  4  0
 26 28  4  0
M  END
$$$$

 Created by Python create_sdf_string function

 29 33  0  0  0  0  0  0  0  0999 V2000
    8.8270   -7.0288   18.4251 C   0  0  0  0  0  0  0  0  0  0  0  0
    9.1576   -4.6236   15.8860 O   0  0  0  0  0  0  0  0  0  0  0  0
    9.1509   -5.9108   17.7177 C   0  0  0  0  0  0  0  0  0  0  0  0
    3.6373   -9.5349   16.0582 N   0  0  0  0  0  0  0  0  0  0  0  0
    9.9275   -4.8001   18.0438 N   0  0  0  0  0  0  0  0  0  0  0  0
    8.5908   -5.7425   16.4412 C   0  0  0  0  0  0  0  0  0  0  0  0
   10.5993   -4.8981   21.6068 C   0  0  0  0  0  0  0  0  0  0  0  0
   10.4258   -3.0106   23.0998 C   0  0  0  0  0  0  0  0  0  0  0  0
   10.2148   -3.4364   25.4200 C   0  0  0  0  0  0  0  0  0  0  0  0
    9.7853   -1.1840   24.4927 C   0  0  0  0  0  0  0  0  0  0  0  0
    5.0276   -8.5227   17.5352 C   0  0  0  0  0  0  0  0  0  0  0  0
    9.8187   -2.0895   25.5800 C   0  0  0  0  0  0  0  0  0  0  0  0
    5.6473   -8.7216   15.3158 C   0  0  0  0  0  0  0  0  0  0  0  0
   10.7581   -3.1233   19.4720 N   0  0  0  0  0  0  0  0  0  0  0  0
    9.9571   -4.0573   16.8866 C   0  0  0  0  0  0  0  0  0  0  0  0
    7.6213   -6.5618   16.0087 C   0  0  0  0  0  0  0  0  0  0  0  0
   10.8583   -2.6527   20.7222 C   0  0  0  0  0  0  0  0  0  0  0  0
   10.6412   -3.5089   21.7936 C   0  0  0  0  0  0  0  0  0  0  0  0
   10.4972   -3.8968   24.1589 C   0  0  0  0  0  0  0  0  0  0  0  0
    5.9260   -8.2736   16.5517 C   0  0  0  0  0  0  0  0  0  0  0  0
    3.8816   -9.1166   17.2493 C   0  0  0  0  0  0  0  0  0  0  0  0
   10.1297   -1.6575   23.2324 C   0  0  0  0  0  0  0  0  0  0  0  0
    9.4684   -1.6929   26.7263 F   0  0  0  0  0  0  0  0  0  0  0  0
    7.7963   -7.7906   17.9837 C   0  0  0  0  0  0  0  0  0  0  0  0
   10.5884   -3.0725   16.7902 O   0  0  0  0  0  0  0  0  0  0  0  0
   10.4323   -5.3494   20.3516 C   0  0  0  0  0  0  0  0  0  0  0  0
    7.1156   -7.5454   16.8218 C   0  0  0  0  0  0  0  0  0  0  0  0
   10.3885   -4.4388   19.2773 C   0  0  0  0  0  0  0  0  0  0  0  0
    4.5160   -9.3822   15.0841 C   0  0  0  0  0  0  0  0  0  0  0  0
  1  3  4  0
  1 24  4  0
  2  6  4  0
  2 15  4  0
  3  5  4  0
  3  6  4  0
  4 21  4  0
  4 29  4  0
  5 15  4  0
  5 28  1  0
  6 16  4  0
  7 18  4  0
  7 26  4  0
  8 18  1  0
  8 19  4  0
  8 22  4  0
  9 12  4  0
  9 19  4  0
 10 12  4  0
 10 22  4  0
 11 20  4  0
 11 21  4  0
 12 23  1  0
 13 20  4  0
 13 29  4  0
 14 17  4  0
 14 28  4  0
 15 25  2  0
 16 27  4  0
 17 18  4  0
 20 27  1  0
 24 27  4  0
 26 28  4  0
M  END
$$$$

 Created by Python create_sdf_string function

 29 33  0  0  0  0  0  0  0  0999 V2000
    8.8270   -7.0288   18.4251 C   0  0  0  0  0  0  0  0  0  0  0  0
    9.1576   -4.6236   15.8860 O   0  0  0  0  0  0  0  0  0  0  0  0
    9.1509   -5.9108   17.7177 C   0  0  0  0  0  0  0  0  0  0  0  0
    3.6373   -9.5349   16.0582 N   0  0  0  0  0  0  0  0  0  0  0  0
    9.9275   -4.8001   18.0438 N   0  0  0  0  0  0  0  0  0  0  0  0
    8.5908   -5.7425   16.4412 C   0  0  0  0  0  0  0  0  0  0  0  0
   10.5993   -4.8981   21.6068 C   0  0  0  0  0  0  0  0  0  0  0  0
   10.4258   -3.0106   23.0998 C   0  0  0  0  0  0  0  0  0  0  0  0
   10.2148   -3.4364   25.4200 C   0  0  0  0  0  0  0  0  0  0  0  0
    9.7853   -1.1840   24.4927 C   0  0  0  0  0  0  0  0  0  0  0  0
    5.0276   -8.5227   17.5352 C   0  0  0  0  0  0  0  0  0  0  0  0
    9.8187   -2.0895   25.5800 C   0  0  0  0  0  0  0  0  0  0  0  0
    5.6473   -8.7216   15.3158 C   0  0  0  0  0  0  0  0  0  0  0  0
   10.7581   -3.1233   19.4720 N   0  0  0  0  0  0  0  0  0  0  0  0
    9.9571   -4.0573   16.8866 C   0  0  0  0  0  0  0  0  0  0  0  0
    7.6213   -6.5618   16.0087 C   0  0  0  0  0  0  0  0  0  0  0  0
   10.8583   -2.6527   20.7222 C   0  0  0  0  0  0  0  0  0  0  0  0
   10.6412   -3.5089   21.7936 C   0  0  0  0  0  0  0  0  0  0  0  0
   10.4972   -3.8968   24.1589 C   0  0  0  0  0  0  0  0  0  0  0  0
    5.9260   -8.2736   16.5517 C   0  0  0  0  0  0  0  0  0  0  0  0
    3.8816   -9.1166   17.2493 C   0  0  0  0  0  0  0  0  0  0  0  0
   10.1297   -1.6575   23.2324 C   0  0  0  0  0  0  0  0  0  0  0  0
    9.4684   -1.6929   26.7263 F   0  0  0  0  0  0  0  0  0  0  0  0
    7.7963   -7.7906   17.9837 C   0  0  0  0  0  0  0  0  0  0  0  0
   10.5884   -3.0725   16.7902 O   0  0  0  0  0  0  0  0  0  0  0  0
   10.4323   -5.3494   20.3516 C   0  0  0  0  0  0  0  0  0  0  0  0
    7.1156   -7.5454   16.8218 C   0  0  0  0  0  0  0  0  0  0  0  0
   10.3885   -4.4388   19.2773 C   0  0  0  0  0  0  0  0  0  0  0  0
    4.5160   -9.3822   15.0841 C   0  0  0  0  0  0  0  0  0  0  0  0
  1  3  4  0
  1 24  4  0
  2  6  4  0
  2 15  4  0
  3  5  4  0
  3  6  4  0
  4 21  4  0
  4 29  4  0
  5 15  4  0
  5 28  1  0
  6 16  4  0
  7 18  4  0
  7 26  4  0
  8 18  1  0
  8 19  4  0
  8 22  4  0
  9 12  4  0
  9 19  4  0
 10 12  4  0
 10 22  4  0
 11 20  4  0
 11 21  4  0
 12 23  1  0
 13 20  4  0
 13 29  4  0
 14 17  4  0
 14 28  4  0
 15 25  2  0
 16 27  4  0
 17 18  4  0
 20 27  1  0
 24 27  4  0
 26 28  4  0
M  END
$$$$

 Created by Python create_sdf_string function

 29 33  0  0  0  0  0  0  0  0999 V2000
    8.8270   -7.0288   18.4251 C   0  0  0  0  0  0  0  0  0  0  0  0
    9.1576   -4.6236   15.8860 O   0  0  0  0  0  0  0  0  0  0  0  0
    9.1509   -5.9108   17.7177 C   0  0  0  0  0  0  0  0  0  0  0  0
    3.6373   -9.5349   16.0582 N   0  0  0  0  0  0  0  0  0  0  0  0
    9.9275   -4.8001   18.0438 N   0  0  0  0  0  0  0  0  0  0  0  0
    8.5908   -5.7425   16.4412 C   0  0  0  0  0  0  0  0  0  0  0  0
   10.5993   -4.8981   21.6068 C   0  0  0  0  0  0  0  0  0  0  0  0
   10.4258   -3.0106   23.0998 C   0  0  0  0  0  0  0  0  0  0  0  0
   10.2148   -3.4364   25.4200 C   0  0  0  0  0  0  0  0  0  0  0  0
    9.7853   -1.1840   24.4927 C   0  0  0  0  0  0  0  0  0  0  0  0
    5.0276   -8.5227   17.5352 C   0  0  0  0  0  0  0  0  0  0  0  0
    9.8187   -2.0895   25.5800 C   0  0  0  0  0  0  0  0  0  0  0  0
    5.6473   -8.7216   15.3158 C   0  0  0  0  0  0  0  0  0  0  0  0
   10.7581   -3.1233   19.4720 N   0  0  0  0  0  0  0  0  0  0  0  0
    9.9571   -4.0573   16.8866 C   0  0  0  0  0  0  0  0  0  0  0  0
    7.6213   -6.5618   16.0087 C   0  0  0  0  0  0  0  0  0  0  0  0
   10.8583   -2.6527   20.7222 C   0  0  0  0  0  0  0  0  0  0  0  0
   10.6412   -3.5089   21.7936 C   0  0  0  0  0  0  0  0  0  0  0  0
   10.4972   -3.8968   24.1589 C   0  0  0  0  0  0  0  0  0  0  0  0
    5.9260   -8.2736   16.5517 C   0  0  0  0  0  0  0  0  0  0  0  0
    3.8816   -9.1166   17.2493 C   0  0  0  0  0  0  0  0  0  0  0  0
   10.1297   -1.6575   23.2324 C   0  0  0  0  0  0  0  0  0  0  0  0
    9.4684   -1.6929   26.7263 F   0  0  0  0  0  0  0  0  0  0  0  0
    7.7963   -7.7906   17.9837 C   0  0  0  0  0  0  0  0  0  0  0  0
   10.5884   -3.0725   16.7902 O   0  0  0  0  0  0  0  0  0  0  0  0
   10.4323   -5.3494   20.3516 C   0  0  0  0  0  0  0  0  0  0  0  0
    7.1156   -7.5454   16.8218 C   0  0  0  0  0  0  0  0  0  0  0  0
   10.3885   -4.4388   19.2773 C   0  0  0  0  0  0  0  0  0  0  0  0
    4.5160   -9.3822   15.0841 C   0  0  0  0  0  0  0  0  0  0  0  0
  1  3  4  0
  1 24  4  0
  2  6  4  0
  2 15  4  0
  3  5  4  0
  3  6  4  0
  4 21  4  0
  4 29  4  0
  5 15  4  0
  5 28  1  0
  6 16  4  0
  7 18  4  0
  7 26  4  0
  8 18  1  0
  8 19  4  0
  8 22  4  0
  9 12  4  0
  9 19  4  0
 10 12  4  0
 10 22  4  0
 11 20  4  0
 11 21  4  0
 12 23  1  0
 13 20  4  0
 13 29  4  0
 14 17  4  0
 14 28  4  0
 15 25  2  0
 16 27  4  0
 17 18  4  0
 20 27  1  0
 24 27  4  0
 26 28  4  0
M  END
$$$$

 Created by Python create_sdf_string function

 29 33  0  0  0  0  0  0  0  0999 V2000
    8.8270   -7.0288   18.4251 C   0  0  0  0  0  0  0  0  0  0  0  0
    9.1576   -4.6236   15.8860 O   0  0  0  0  0  0  0  0  0  0  0  0
    9.1509   -5.9108   17.7177 C   0  0  0  0  0  0  0  0  0  0  0  0
    3.6373   -9.5349   16.0582 N   0  0  0  0  0  0  0  0  0  0  0  0
    9.9275   -4.8001   18.0438 N   0  0  0  0  0  0  0  0  0  0  0  0
    8.5908   -5.7425   16.4412 C   0  0  0  0  0  0  0  0  0  0  0  0
   10.5993   -4.8981   21.6068 C   0  0  0  0  0  0  0  0  0  0  0  0
   10.4258   -3.0106   23.0998 C   0  0  0  0  0  0  0  0  0  0  0  0
   10.2148   -3.4364   25.4200 C   0  0  0  0  0  0  0  0  0  0  0  0
    9.7853   -1.1840   24.4927 C   0  0  0  0  0  0  0  0  0  0  0  0
    5.0276   -8.5227   17.5352 C   0  0  0  0  0  0  0  0  0  0  0  0
    9.8187   -2.0895   25.5800 C   0  0  0  0  0  0  0  0  0  0  0  0
    5.6473   -8.7216   15.3158 C   0  0  0  0  0  0  0  0  0  0  0  0
   10.7581   -3.1233   19.4720 N   0  0  0  0  0  0  0  0  0  0  0  0
    9.9571   -4.0573   16.8866 C   0  0  0  0  0  0  0  0  0  0  0  0
    7.6213   -6.5618   16.0087 C   0  0  0  0  0  0  0  0  0  0  0  0
   10.8583   -2.6527   20.7222 C   0  0  0  0  0  0  0  0  0  0  0  0
   10.6412   -3.5089   21.7936 C   0  0  0  0  0  0  0  0  0  0  0  0
   10.4972   -3.8968   24.1589 C   0  0  0  0  0  0  0  0  0  0  0  0
    5.9260   -8.2736   16.5517 C   0  0  0  0  0  0  0  0  0  0  0  0
    3.8816   -9.1166   17.2493 C   0  0  0  0  0  0  0  0  0  0  0  0
   10.1297   -1.6575   23.2324 C   0  0  0  0  0  0  0  0  0  0  0  0
    9.4684   -1.6929   26.7263 F   0  0  0  0  0  0  0  0  0  0  0  0
    7.7963   -7.7906   17.9837 C   0  0  0  0  0  0  0  0  0  0  0  0
   10.5884   -3.0725   16.7902 O   0  0  0  0  0  0  0  0  0  0  0  0
   10.4323   -5.3494   20.3516 C   0  0  0  0  0  0  0  0  0  0  0  0
    7.1156   -7.5454   16.8218 C   0  0  0  0  0  0  0  0  0  0  0  0
   10.3885   -4.4388   19.2773 C   0  0  0  0  0  0  0  0  0  0  0  0
    4.5160   -9.3822   15.0841 C   0  0  0  0  0  0  0  0  0  0  0  0
  1  3  4  0
  1 24  4  0
  2  6  4  0
  2 15  4  0
  3  5  4  0
  3  6  4  0
  4 21  4  0
  4 29  4  0
  5 15  4  0
  5 28  1  0
  6 16  4  0
  7 18  4  0
  7 26  4  0
  8 18  1  0
  8 19  4  0
  8 22  4  0
  9 12  4  0
  9 19  4  0
 10 12  4  0
 10 22  4  0
 11 20  4  0
 11 21  4  0
 12 23  1  0
 13 20  4  0
 13 29  4  0
 14 17  4  0
 14 28  4  0
 15 25  2  0
 16 27  4  0
 17 18  4  0
 20 27  1  0
 24 27  4  0
 26 28  4  0
M  END
$$$$

 Created by Python create_sdf_string function

 29 33  0  0  0  0  0  0  0  0999 V2000
    8.8270   -7.0288   18.4251 C   0  0  0  0  0  0  0  0  0  0  0  0
    9.1576   -4.6236   15.8860 O   0  0  0  0  0  0  0  0  0  0  0  0
    9.1509   -5.9108   17.7177 C   0  0  0  0  0  0  0  0  0  0  0  0
    3.6373   -9.5349   16.0582 N   0  0  0  0  0  0  0  0  0  0  0  0
    9.9275   -4.8001   18.0438 N   0  0  0  0  0  0  0  0  0  0  0  0
    8.5908   -5.7425   16.4412 C   0  0  0  0  0  0  0  0  0  0  0  0
   10.5993   -4.8981   21.6068 C   0  0  0  0  0  0  0  0  0  0  0  0
   10.4258   -3.0106   23.0998 C   0  0  0  0  0  0  0  0  0  0  0  0
   10.2148   -3.4364   25.4200 C   0  0  0  0  0  0  0  0  0  0  0  0
    9.7853   -1.1840   24.4927 C   0  0  0  0  0  0  0  0  0  0  0  0
    5.0276   -8.5227   17.5352 C   0  0  0  0  0  0  0  0  0  0  0  0
    9.8187   -2.0895   25.5800 C   0  0  0  0  0  0  0  0  0  0  0  0
    5.6473   -8.7216   15.3158 C   0  0  0  0  0  0  0  0  0  0  0  0
   10.7581   -3.1233   19.4720 N   0  0  0  0  0  0  0  0  0  0  0  0
    9.9571   -4.0573   16.8866 C   0  0  0  0  0  0  0  0  0  0  0  0
    7.6213   -6.5618   16.0087 C   0  0  0  0  0  0  0  0  0  0  0  0
   10.8583   -2.6527   20.7222 C   0  0  0  0  0  0  0  0  0  0  0  0
   10.6412   -3.5089   21.7936 C   0  0  0  0  0  0  0  0  0  0  0  0
   10.4972   -3.8968   24.1589 C   0  0  0  0  0  0  0  0  0  0  0  0
    5.9260   -8.2736   16.5517 C   0  0  0  0  0  0  0  0  0  0  0  0
    3.8816   -9.1166   17.2493 C   0  0  0  0  0  0  0  0  0  0  0  0
   10.1297   -1.6575   23.2324 C   0  0  0  0  0  0  0  0  0  0  0  0
    9.4684   -1.6929   26.7263 F   0  0  0  0  0  0  0  0  0  0  0  0
    7.7963   -7.7906   17.9837 C   0  0  0  0  0  0  0  0  0  0  0  0
   10.5884   -3.0725   16.7902 O   0  0  0  0  0  0  0  0  0  0  0  0
   10.4323   -5.3494   20.3516 C   0  0  0  0  0  0  0  0  0  0  0  0
    7.1156   -7.5454   16.8218 C   0  0  0  0  0  0  0  0  0  0  0  0
   10.3885   -4.4388   19.2773 C   0  0  0  0  0  0  0  0  0  0  0  0
    4.5160   -9.3822   15.0841 C   0  0  0  0  0  0  0  0  0  0  0  0
  1  3  4  0
  1 24  4  0
  2  6  4  0
  2 15  4  0
  3  5  4  0
  3  6  4  0
  4 21  4  0
  4 29  4  0
  5 15  4  0
  5 28  1  0
  6 16  4  0
  7 18  4  0
  7 26  4  0
  8 18  1  0
  8 19  4  0
  8 22  4  0
  9 12  4  0
  9 19  4  0
 10 12  4  0
 10 22  4  0
 11 20  4  0
 11 21  4  0
 12 23  1  0
 13 20  4  0
 13 29  4  0
 14 17  4  0
 14 28  4  0
 15 25  2  0
 16 27  4  0
 17 18  4  0
 20 27  1  0
 24 27  4  0
 26 28  4  0
M  END
$$$$

 Created by Python create_sdf_string function

 29 33  0  0  0  0  0  0  0  0999 V2000
    8.8270   -7.0288   18.4251 C   0  0  0  0  0  0  0  0  0  0  0  0
    9.1576   -4.6236   15.8860 O   0  0  0  0  0  0  0  0  0  0  0  0
    9.1509   -5.9108   17.7177 C   0  0  0  0  0  0  0  0  0  0  0  0
    3.6373   -9.5349   16.0582 N   0  0  0  0  0  0  0  0  0  0  0  0
    9.9275   -4.8001   18.0438 N   0  0  0  0  0  0  0  0  0  0  0  0
    8.5908   -5.7425   16.4412 C   0  0  0  0  0  0  0  0  0  0  0  0
   10.5993   -4.8981   21.6068 C   0  0  0  0  0  0  0  0  0  0  0  0
   10.4258   -3.0106   23.0998 C   0  0  0  0  0  0  0  0  0  0  0  0
   10.2148   -3.4364   25.4200 C   0  0  0  0  0  0  0  0  0  0  0  0
    9.7853   -1.1840   24.4927 C   0  0  0  0  0  0  0  0  0  0  0  0
    5.0276   -8.5227   17.5352 C   0  0  0  0  0  0  0  0  0  0  0  0
    9.8187   -2.0895   25.5800 C   0  0  0  0  0  0  0  0  0  0  0  0
    5.6473   -8.7216   15.3158 C   0  0  0  0  0  0  0  0  0  0  0  0
   10.7581   -3.1233   19.4720 N   0  0  0  0  0  0  0  0  0  0  0  0
    9.9571   -4.0573   16.8866 C   0  0  0  0  0  0  0  0  0  0  0  0
    7.6213   -6.5618   16.0087 C   0  0  0  0  0  0  0  0  0  0  0  0
   10.8583   -2.6527   20.7222 C   0  0  0  0  0  0  0  0  0  0  0  0
   10.6412   -3.5089   21.7936 C   0  0  0  0  0  0  0  0  0  0  0  0
   10.4972   -3.8968   24.1589 C   0  0  0  0  0  0  0  0  0  0  0  0
    5.9260   -8.2736   16.5517 C   0  0  0  0  0  0  0  0  0  0  0  0
    3.8816   -9.1166   17.2493 C   0  0  0  0  0  0  0  0  0  0  0  0
   10.1297   -1.6575   23.2324 C   0  0  0  0  0  0  0  0  0  0  0  0
    9.4684   -1.6929   26.7263 F   0  0  0  0  0  0  0  0  0  0  0  0
    7.7963   -7.7906   17.9837 C   0  0  0  0  0  0  0  0  0  0  0  0
   10.5884   -3.0725   16.7902 O   0  0  0  0  0  0  0  0  0  0  0  0
   10.4323   -5.3494   20.3516 C   0  0  0  0  0  0  0  0  0  0  0  0
    7.1156   -7.5454   16.8218 C   0  0  0  0  0  0  0  0  0  0  0  0
   10.3885   -4.4388   19.2773 C   0  0  0  0  0  0  0  0  0  0  0  0
    4.5160   -9.3822   15.0841 C   0  0  0  0  0  0  0  0  0  0  0  0
  1  3  4  0
  1 24  4  0
  2  6  4  0
  2 15  4  0
  3  5  4  0
  3  6  4  0
  4 21  4  0
  4 29  4  0
  5 15  4  0
  5 28  1  0
  6 16  4  0
  7 18  4  0
  7 26  4  0
  8 18  1  0
  8 19  4  0
  8 22  4  0
  9 12  4  0
  9 19  4  0
 10 12  4  0
 10 22  4  0
 11 20  4  0
 11 21  4  0
 12 23  1  0
 13 20  4  0
 13 29  4  0
 14 17  4  0
 14 28  4  0
 15 25  2  0
 16 27  4  0
 17 18  4  0
 20 27  1  0
 24 27  4  0
 26 28  4  0
M  END
$$$$

 Created by Python create_sdf_string function

 29 33  0  0  0  0  0  0  0  0999 V2000
    8.8270   -7.0288   18.4251 C   0  0  0  0  0  0  0  0  0  0  0  0
    9.1576   -4.6236   15.8860 O   0  0  0  0  0  0  0  0  0  0  0  0
    9.1509   -5.9108   17.7177 C   0  0  0  0  0  0  0  0  0  0  0  0
    3.6373   -9.5349   16.0582 N   0  0  0  0  0  0  0  0  0  0  0  0
    9.9275   -4.8001   18.0438 N   0  0  0  0  0  0  0  0  0  0  0  0
    8.5908   -5.7425   16.4412 C   0  0  0  0  0  0  0  0  0  0  0  0
   10.5993   -4.8981   21.6068 C   0  0  0  0  0  0  0  0  0  0  0  0
   10.4258   -3.0106   23.0998 C   0  0  0  0  0  0  0  0  0  0  0  0
   10.2148   -3.4364   25.4200 C   0  0  0  0  0  0  0  0  0  0  0  0
    9.7853   -1.1840   24.4927 C   0  0  0  0  0  0  0  0  0  0  0  0
    5.0276   -8.5227   17.5352 C   0  0  0  0  0  0  0  0  0  0  0  0
    9.8187   -2.0895   25.5800 C   0  0  0  0  0  0  0  0  0  0  0  0
    5.6473   -8.7216   15.3158 C   0  0  0  0  0  0  0  0  0  0  0  0
   10.7581   -3.1233   19.4720 N   0  0  0  0  0  0  0  0  0  0  0  0
    9.9571   -4.0573   16.8866 C   0  0  0  0  0  0  0  0  0  0  0  0
    7.6213   -6.5618   16.0087 C   0  0  0  0  0  0  0  0  0  0  0  0
   10.8583   -2.6527   20.7222 C   0  0  0  0  0  0  0  0  0  0  0  0
   10.6412   -3.5089   21.7936 C   0  0  0  0  0  0  0  0  0  0  0  0
   10.4972   -3.8968   24.1589 C   0  0  0  0  0  0  0  0  0  0  0  0
    5.9260   -8.2736   16.5517 C   0  0  0  0  0  0  0  0  0  0  0  0
    3.8816   -9.1166   17.2493 C   0  0  0  0  0  0  0  0  0  0  0  0
   10.1297   -1.6575   23.2324 C   0  0  0  0  0  0  0  0  0  0  0  0
    9.4684   -1.6929   26.7263 F   0  0  0  0  0  0  0  0  0  0  0  0
    7.7963   -7.7906   17.9837 C   0  0  0  0  0  0  0  0  0  0  0  0
   10.5884   -3.0725   16.7902 O   0  0  0  0  0  0  0  0  0  0  0  0
   10.4323   -5.3494   20.3516 C   0  0  0  0  0  0  0  0  0  0  0  0
    7.1156   -7.5454   16.8218 C   0  0  0  0  0  0  0  0  0  0  0  0
   10.3885   -4.4388   19.2773 C   0  0  0  0  0  0  0  0  0  0  0  0
    4.5160   -9.3822   15.0841 C   0  0  0  0  0  0  0  0  0  0  0  0
  1  3  4  0
  1 24  4  0
  2  6  4  0
  2 15  4  0
  3  5  4  0
  3  6  4  0
  4 21  4  0
  4 29  4  0
  5 15  4  0
  5 28  1  0
  6 16  4  0
  7 18  4  0
  7 26  4  0
  8 18  1  0
  8 19  4  0
  8 22  4  0
  9 12  4  0
  9 19  4  0
 10 12  4  0
 10 22  4  0
 11 20  4  0
 11 21  4  0
 12 23  1  0
 13 20  4  0
 13 29  4  0
 14 17  4  0
 14 28  4  0
 15 25  2  0
 16 27  4  0
 17 18  4  0
 20 27  1  0
 24 27  4  0
 26 28  4  0
M  END
$$$$

 Created by Python create_sdf_string function

 29 33  0  0  0  0  0  0  0  0999 V2000
    8.8270   -7.0288   18.4251 C   0  0  0  0  0  0  0  0  0  0  0  0
    9.1576   -4.6236   15.8860 O   0  0  0  0  0  0  0  0  0  0  0  0
    9.1509   -5.9108   17.7177 C   0  0  0  0  0  0  0  0  0  0  0  0
    3.6373   -9.5349   16.0582 N   0  0  0  0  0  0  0  0  0  0  0  0
    9.9275   -4.8001   18.0438 N   0  0  0  0  0  0  0  0  0  0  0  0
    8.5908   -5.7425   16.4412 C   0  0  0  0  0  0  0  0  0  0  0  0
   10.5993   -4.8981   21.6068 C   0  0  0  0  0  0  0  0  0  0  0  0
   10.4258   -3.0106   23.0998 C   0  0  0  0  0  0  0  0  0  0  0  0
   10.2148   -3.4364   25.4200 C   0  0  0  0  0  0  0  0  0  0  0  0
    9.7853   -1.1840   24.4927 C   0  0  0  0  0  0  0  0  0  0  0  0
    5.0276   -8.5227   17.5352 C   0  0  0  0  0  0  0  0  0  0  0  0
    9.8187   -2.0895   25.5800 C   0  0  0  0  0  0  0  0  0  0  0  0
    5.6473   -8.7216   15.3158 C   0  0  0  0  0  0  0  0  0  0  0  0
   10.7581   -3.1233   19.4720 N   0  0  0  0  0  0  0  0  0  0  0  0
    9.9571   -4.0573   16.8866 C   0  0  0  0  0  0  0  0  0  0  0  0
    7.6213   -6.5618   16.0087 C   0  0  0  0  0  0  0  0  0  0  0  0
   10.8583   -2.6527   20.7222 C   0  0  0  0  0  0  0  0  0  0  0  0
   10.6412   -3.5089   21.7936 C   0  0  0  0  0  0  0  0  0  0  0  0
   10.4972   -3.8968   24.1589 C   0  0  0  0  0  0  0  0  0  0  0  0
    5.9260   -8.2736   16.5517 C   0  0  0  0  0  0  0  0  0  0  0  0
    3.8816   -9.1166   17.2493 C   0  0  0  0  0  0  0  0  0  0  0  0
   10.1297   -1.6575   23.2324 C   0  0  0  0  0  0  0  0  0  0  0  0
    9.4684   -1.6929   26.7263 F   0  0  0  0  0  0  0  0  0  0  0  0
    7.7963   -7.7906   17.9837 C   0  0  0  0  0  0  0  0  0  0  0  0
   10.5884   -3.0725   16.7902 O   0  0  0  0  0  0  0  0  0  0  0  0
   10.4323   -5.3494   20.3516 C   0  0  0  0  0  0  0  0  0  0  0  0
    7.1156   -7.5454   16.8218 C   0  0  0  0  0  0  0  0  0  0  0  0
   10.3885   -4.4388   19.2773 C   0  0  0  0  0  0  0  0  0  0  0  0
    4.5160   -9.3822   15.0841 C   0  0  0  0  0  0  0  0  0  0  0  0
  1  3  4  0
  1 24  4  0
  2  6  4  0
  2 15  4  0
  3  5  4  0
  3  6  4  0
  4 21  4  0
  4 29  4  0
  5 15  4  0
  5 28  1  0
  6 16  4  0
  7 18  4  0
  7 26  4  0
  8 18  1  0
  8 19  4  0
  8 22  4  0
  9 12  4  0
  9 19  4  0
 10 12  4  0
 10 22  4  0
 11 20  4  0
 11 21  4  0
 12 23  1  0
 13 20  4  0
 13 29  4  0
 14 17  4  0
 14 28  4  0
 15 25  2  0
 16 27  4  0
 17 18  4  0
 20 27  1  0
 24 27  4  0
 26 28  4  0
M  END
$$$$

 Created by Python create_sdf_string function

 29 33  0  0  0  0  0  0  0  0999 V2000
    8.8270   -7.0288   18.4251 C   0  0  0  0  0  0  0  0  0  0  0  0
    9.1576   -4.6236   15.8860 O   0  0  0  0  0  0  0  0  0  0  0  0
    9.1509   -5.9108   17.7177 C   0  0  0  0  0  0  0  0  0  0  0  0
    3.6373   -9.5349   16.0582 N   0  0  0  0  0  0  0  0  0  0  0  0
    9.9275   -4.8001   18.0438 N   0  0  0  0  0  0  0  0  0  0  0  0
    8.5908   -5.7425   16.4412 C   0  0  0  0  0  0  0  0  0  0  0  0
   10.5993   -4.8981   21.6068 C   0  0  0  0  0  0  0  0  0  0  0  0
   10.4258   -3.0106   23.0998 C   0  0  0  0  0  0  0  0  0  0  0  0
   10.2148   -3.4364   25.4200 C   0  0  0  0  0  0  0  0  0  0  0  0
    9.7853   -1.1840   24.4927 C   0  0  0  0  0  0  0  0  0  0  0  0
    5.0276   -8.5227   17.5352 C   0  0  0  0  0  0  0  0  0  0  0  0
    9.8187   -2.0895   25.5800 C   0  0  0  0  0  0  0  0  0  0  0  0
    5.6473   -8.7216   15.3158 C   0  0  0  0  0  0  0  0  0  0  0  0
   10.7581   -3.1233   19.4720 N   0  0  0  0  0  0  0  0  0  0  0  0
    9.9571   -4.0573   16.8866 C   0  0  0  0  0  0  0  0  0  0  0  0
    7.6213   -6.5618   16.0087 C   0  0  0  0  0  0  0  0  0  0  0  0
   10.8583   -2.6527   20.7222 C   0  0  0  0  0  0  0  0  0  0  0  0
   10.6412   -3.5089   21.7936 C   0  0  0  0  0  0  0  0  0  0  0  0
   10.4972   -3.8968   24.1589 C   0  0  0  0  0  0  0  0  0  0  0  0
    5.9260   -8.2736   16.5517 C   0  0  0  0  0  0  0  0  0  0  0  0
    3.8816   -9.1166   17.2493 C   0  0  0  0  0  0  0  0  0  0  0  0
   10.1297   -1.6575   23.2324 C   0  0  0  0  0  0  0  0  0  0  0  0
    9.4684   -1.6929   26.7263 F   0  0  0  0  0  0  0  0  0  0  0  0
    7.7963   -7.7906   17.9837 C   0  0  0  0  0  0  0  0  0  0  0  0
   10.5884   -3.0725   16.7902 O   0  0  0  0  0  0  0  0  0  0  0  0
   10.4323   -5.3494   20.3516 C   0  0  0  0  0  0  0  0  0  0  0  0
    7.1156   -7.5454   16.8218 C   0  0  0  0  0  0  0  0  0  0  0  0
   10.3885   -4.4388   19.2773 C   0  0  0  0  0  0  0  0  0  0  0  0
    4.5160   -9.3822   15.0841 C   0  0  0  0  0  0  0  0  0  0  0  0
  1  3  4  0
  1 24  4  0
  2  6  4  0
  2 15  4  0
  3  5  4  0
  3  6  4  0
  4 21  4  0
  4 29  4  0
  5 15  4  0
  5 28  1  0
  6 16  4  0
  7 18  4  0
  7 26  4  0
  8 18  1  0
  8 19  4  0
  8 22  4  0
  9 12  4  0
  9 19  4  0
 10 12  4  0
 10 22  4  0
 11 20  4  0
 11 21  4  0
 12 23  1  0
 13 20  4  0
 13 29  4  0
 14 17  4  0
 14 28  4  0
 15 25  2  0
 16 27  4  0
 17 18  4  0
 20 27  1  0
 24 27  4  0
 26 28  4  0
M  END
$$$$

 Created by Python create_sdf_string function

 29 33  0  0  0  0  0  0  0  0999 V2000
    8.8270   -7.0288   18.4251 C   0  0  0  0  0  0  0  0  0  0  0  0
    9.1576   -4.6236   15.8860 O   0  0  0  0  0  0  0  0  0  0  0  0
    9.1509   -5.9108   17.7177 C   0  0  0  0  0  0  0  0  0  0  0  0
    3.6373   -9.5349   16.0582 N   0  0  0  0  0  0  0  0  0  0  0  0
    9.9275   -4.8001   18.0438 N   0  0  0  0  0  0  0  0  0  0  0  0
    8.5908   -5.7425   16.4412 C   0  0  0  0  0  0  0  0  0  0  0  0
   10.5993   -4.8981   21.6068 C   0  0  0  0  0  0  0  0  0  0  0  0
   10.4258   -3.0106   23.0998 C   0  0  0  0  0  0  0  0  0  0  0  0
   10.2148   -3.4364   25.4200 C   0  0  0  0  0  0  0  0  0  0  0  0
    9.7853   -1.1840   24.4927 C   0  0  0  0  0  0  0  0  0  0  0  0
    5.0276   -8.5227   17.5352 C   0  0  0  0  0  0  0  0  0  0  0  0
    9.8187   -2.0895   25.5800 C   0  0  0  0  0  0  0  0  0  0  0  0
    5.6473   -8.7216   15.3158 C   0  0  0  0  0  0  0  0  0  0  0  0
   10.7581   -3.1233   19.4720 N   0  0  0  0  0  0  0  0  0  0  0  0
    9.9571   -4.0573   16.8866 C   0  0  0  0  0  0  0  0  0  0  0  0
    7.6213   -6.5618   16.0087 C   0  0  0  0  0  0  0  0  0  0  0  0
   10.8583   -2.6527   20.7222 C   0  0  0  0  0  0  0  0  0  0  0  0
   10.6412   -3.5089   21.7936 C   0  0  0  0  0  0  0  0  0  0  0  0
   10.4972   -3.8968   24.1589 C   0  0  0  0  0  0  0  0  0  0  0  0
    5.9260   -8.2736   16.5517 C   0  0  0  0  0  0  0  0  0  0  0  0
    3.8816   -9.1166   17.2493 C   0  0  0  0  0  0  0  0  0  0  0  0
   10.1297   -1.6575   23.2324 C   0  0  0  0  0  0  0  0  0  0  0  0
    9.4684   -1.6929   26.7263 F   0  0  0  0  0  0  0  0  0  0  0  0
    7.7963   -7.7906   17.9837 C   0  0  0  0  0  0  0  0  0  0  0  0
   10.5884   -3.0725   16.7902 O   0  0  0  0  0  0  0  0  0  0  0  0
   10.4323   -5.3494   20.3516 C   0  0  0  0  0  0  0  0  0  0  0  0
    7.1156   -7.5454   16.8218 C   0  0  0  0  0  0  0  0  0  0  0  0
   10.3885   -4.4388   19.2773 C   0  0  0  0  0  0  0  0  0  0  0  0
    4.5160   -9.3822   15.0841 C   0  0  0  0  0  0  0  0  0  0  0  0
  1  3  4  0
  1 24  4  0
  2  6  4  0
  2 15  4  0
  3  5  4  0
  3  6  4  0
  4 21  4  0
  4 29  4  0
  5 15  4  0
  5 28  1  0
  6 16  4  0
  7 18  4  0
  7 26  4  0
  8 18  1  0
  8 19  4  0
  8 22  4  0
  9 12  4  0
  9 19  4  0
 10 12  4  0
 10 22  4  0
 11 20  4  0
 11 21  4  0
 12 23  1  0
 13 20  4  0
 13 29  4  0
 14 17  4  0
 14 28  4  0
 15 25  2  0
 16 27  4  0
 17 18  4  0
 20 27  1  0
 24 27  4  0
 26 28  4  0
M  END
$$$$

 Created by Python create_sdf_string function

 29 33  0  0  0  0  0  0  0  0999 V2000
    8.8270   -7.0288   18.4251 C   0  0  0  0  0  0  0  0  0  0  0  0
    9.1576   -4.6236   15.8860 O   0  0  0  0  0  0  0  0  0  0  0  0
    9.1509   -5.9108   17.7177 C   0  0  0  0  0  0  0  0  0  0  0  0
    3.6373   -9.5349   16.0582 N   0  0  0  0  0  0  0  0  0  0  0  0
    9.9275   -4.8001   18.0438 N   0  0  0  0  0  0  0  0  0  0  0  0
    8.5908   -5.7425   16.4412 C   0  0  0  0  0  0  0  0  0  0  0  0
   10.5993   -4.8981   21.6068 C   0  0  0  0  0  0  0  0  0  0  0  0
   10.4258   -3.0106   23.0998 C   0  0  0  0  0  0  0  0  0  0  0  0
   10.2148   -3.4364   25.4200 C   0  0  0  0  0  0  0  0  0  0  0  0
    9.7853   -1.1840   24.4927 C   0  0  0  0  0  0  0  0  0  0  0  0
    5.0276   -8.5227   17.5352 C   0  0  0  0  0  0  0  0  0  0  0  0
    9.8187   -2.0895   25.5800 C   0  0  0  0  0  0  0  0  0  0  0  0
    5.6473   -8.7216   15.3158 C   0  0  0  0  0  0  0  0  0  0  0  0
   10.7581   -3.1233   19.4720 N   0  0  0  0  0  0  0  0  0  0  0  0
    9.9571   -4.0573   16.8866 C   0  0  0  0  0  0  0  0  0  0  0  0
    7.6213   -6.5618   16.0087 C   0  0  0  0  0  0  0  0  0  0  0  0
   10.8583   -2.6527   20.7222 C   0  0  0  0  0  0  0  0  0  0  0  0
   10.6412   -3.5089   21.7936 C   0  0  0  0  0  0  0  0  0  0  0  0
   10.4972   -3.8968   24.1589 C   0  0  0  0  0  0  0  0  0  0  0  0
    5.9260   -8.2736   16.5517 C   0  0  0  0  0  0  0  0  0  0  0  0
    3.8816   -9.1166   17.2493 C   0  0  0  0  0  0  0  0  0  0  0  0
   10.1297   -1.6575   23.2324 C   0  0  0  0  0  0  0  0  0  0  0  0
    9.4684   -1.6929   26.7263 F   0  0  0  0  0  0  0  0  0  0  0  0
    7.7963   -7.7906   17.9837 C   0  0  0  0  0  0  0  0  0  0  0  0
   10.5884   -3.0725   16.7902 O   0  0  0  0  0  0  0  0  0  0  0  0
   10.4323   -5.3494   20.3516 C   0  0  0  0  0  0  0  0  0  0  0  0
    7.1156   -7.5454   16.8218 C   0  0  0  0  0  0  0  0  0  0  0  0
   10.3885   -4.4388   19.2773 C   0  0  0  0  0  0  0  0  0  0  0  0
    4.5160   -9.3822   15.0841 C   0  0  0  0  0  0  0  0  0  0  0  0
  1  3  4  0
  1 24  4  0
  2  6  4  0
  2 15  4  0
  3  5  4  0
  3  6  4  0
  4 21  4  0
  4 29  4  0
  5 15  4  0
  5 28  1  0
  6 16  4  0
  7 18  4  0
  7 26  4  0
  8 18  1  0
  8 19  4  0
  8 22  4  0
  9 12  4  0
  9 19  4  0
 10 12  4  0
 10 22  4  0
 11 20  4  0
 11 21  4  0
 12 23  1  0
 13 20  4  0
 13 29  4  0
 14 17  4  0
 14 28  4  0
 15 25  2  0
 16 27  4  0
 17 18  4  0
 20 27  1  0
 24 27  4  0
 26 28  4  0
M  END
$$$$

 Created by Python create_sdf_string function

 29 33  0  0  0  0  0  0  0  0999 V2000
    8.8270   -7.0288   18.4251 C   0  0  0  0  0  0  0  0  0  0  0  0
    9.1576   -4.6236   15.8860 O   0  0  0  0  0  0  0  0  0  0  0  0
    9.1509   -5.9108   17.7177 C   0  0  0  0  0  0  0  0  0  0  0  0
    3.6373   -9.5349   16.0582 N   0  0  0  0  0  0  0  0  0  0  0  0
    9.9275   -4.8001   18.0438 N   0  0  0  0  0  0  0  0  0  0  0  0
    8.5908   -5.7425   16.4412 C   0  0  0  0  0  0  0  0  0  0  0  0
   10.5993   -4.8981   21.6068 C   0  0  0  0  0  0  0  0  0  0  0  0
   10.4258   -3.0106   23.0998 C   0  0  0  0  0  0  0  0  0  0  0  0
   10.2148   -3.4364   25.4200 C   0  0  0  0  0  0  0  0  0  0  0  0
    9.7853   -1.1840   24.4927 C   0  0  0  0  0  0  0  0  0  0  0  0
    5.0276   -8.5227   17.5352 C   0  0  0  0  0  0  0  0  0  0  0  0
    9.8187   -2.0895   25.5800 C   0  0  0  0  0  0  0  0  0  0  0  0
    5.6473   -8.7216   15.3158 C   0  0  0  0  0  0  0  0  0  0  0  0
   10.7581   -3.1233   19.4720 N   0  0  0  0  0  0  0  0  0  0  0  0
    9.9571   -4.0573   16.8866 C   0  0  0  0  0  0  0  0  0  0  0  0
    7.6213   -6.5618   16.0087 C   0  0  0  0  0  0  0  0  0  0  0  0
   10.8583   -2.6527   20.7222 C   0  0  0  0  0  0  0  0  0  0  0  0
   10.6412   -3.5089   21.7936 C   0  0  0  0  0  0  0  0  0  0  0  0
   10.4972   -3.8968   24.1589 C   0  0  0  0  0  0  0  0  0  0  0  0
    5.9260   -8.2736   16.5517 C   0  0  0  0  0  0  0  0  0  0  0  0
    3.8816   -9.1166   17.2493 C   0  0  0  0  0  0  0  0  0  0  0  0
   10.1297   -1.6575   23.2324 C   0  0  0  0  0  0  0  0  0  0  0  0
    9.4684   -1.6929   26.7263 F   0  0  0  0  0  0  0  0  0  0  0  0
    7.7963   -7.7906   17.9837 C   0  0  0  0  0  0  0  0  0  0  0  0
   10.5884   -3.0725   16.7902 O   0  0  0  0  0  0  0  0  0  0  0  0
   10.4323   -5.3494   20.3516 C   0  0  0  0  0  0  0  0  0  0  0  0
    7.1156   -7.5454   16.8218 C   0  0  0  0  0  0  0  0  0  0  0  0
   10.3885   -4.4388   19.2773 C   0  0  0  0  0  0  0  0  0  0  0  0
    4.5160   -9.3822   15.0841 C   0  0  0  0  0  0  0  0  0  0  0  0
  1  3  4  0
  1 24  4  0
  2  6  4  0
  2 15  4  0
  3  5  4  0
  3  6  4  0
  4 21  4  0
  4 29  4  0
  5 15  4  0
  5 28  1  0
  6 16  4  0
  7 18  4  0
  7 26  4  0
  8 18  1  0
  8 19  4  0
  8 22  4  0
  9 12  4  0
  9 19  4  0
 10 12  4  0
 10 22  4  0
 11 20  4  0
 11 21  4  0
 12 23  1  0
 13 20  4  0
 13 29  4  0
 14 17  4  0
 14 28  4  0
 15 25  2  0
 16 27  4  0
 17 18  4  0
 20 27  1  0
 24 27  4  0
 26 28  4  0
M  END
$$$$

 Created by Python create_sdf_string function

 29 33  0  0  0  0  0  0  0  0999 V2000
    8.8270   -7.0288   18.4251 C   0  0  0  0  0  0  0  0  0  0  0  0
    9.1576   -4.6236   15.8860 O   0  0  0  0  0  0  0  0  0  0  0  0
    9.1509   -5.9108   17.7177 C   0  0  0  0  0  0  0  0  0  0  0  0
    3.6373   -9.5349   16.0582 N   0  0  0  0  0  0  0  0  0  0  0  0
    9.9275   -4.8001   18.0438 N   0  0  0  0  0  0  0  0  0  0  0  0
    8.5908   -5.7425   16.4412 C   0  0  0  0  0  0  0  0  0  0  0  0
   10.5993   -4.8981   21.6068 C   0  0  0  0  0  0  0  0  0  0  0  0
   10.4258   -3.0106   23.0998 C   0  0  0  0  0  0  0  0  0  0  0  0
   10.2148   -3.4364   25.4200 C   0  0  0  0  0  0  0  0  0  0  0  0
    9.7853   -1.1840   24.4927 C   0  0  0  0  0  0  0  0  0  0  0  0
    5.0276   -8.5227   17.5352 C   0  0  0  0  0  0  0  0  0  0  0  0
    9.8187   -2.0895   25.5800 C   0  0  0  0  0  0  0  0  0  0  0  0
    5.6473   -8.7216   15.3158 C   0  0  0  0  0  0  0  0  0  0  0  0
   10.7581   -3.1233   19.4720 N   0  0  0  0  0  0  0  0  0  0  0  0
    9.9571   -4.0573   16.8866 C   0  0  0  0  0  0  0  0  0  0  0  0
    7.6213   -6.5618   16.0087 C   0  0  0  0  0  0  0  0  0  0  0  0
   10.8583   -2.6527   20.7222 C   0  0  0  0  0  0  0  0  0  0  0  0
   10.6412   -3.5089   21.7936 C   0  0  0  0  0  0  0  0  0  0  0  0
   10.4972   -3.8968   24.1589 C   0  0  0  0  0  0  0  0  0  0  0  0
    5.9260   -8.2736   16.5517 C   0  0  0  0  0  0  0  0  0  0  0  0
    3.8816   -9.1166   17.2493 C   0  0  0  0  0  0  0  0  0  0  0  0
   10.1297   -1.6575   23.2324 C   0  0  0  0  0  0  0  0  0  0  0  0
    9.4684   -1.6929   26.7263 F   0  0  0  0  0  0  0  0  0  0  0  0
    7.7963   -7.7906   17.9837 C   0  0  0  0  0  0  0  0  0  0  0  0
   10.5884   -3.0725   16.7902 O   0  0  0  0  0  0  0  0  0  0  0  0
   10.4323   -5.3494   20.3516 C   0  0  0  0  0  0  0  0  0  0  0  0
    7.1156   -7.5454   16.8218 C   0  0  0  0  0  0  0  0  0  0  0  0
   10.3885   -4.4388   19.2773 C   0  0  0  0  0  0  0  0  0  0  0  0
    4.5160   -9.3822   15.0841 C   0  0  0  0  0  0  0  0  0  0  0  0
  1  3  4  0
  1 24  4  0
  2  6  4  0
  2 15  4  0
  3  5  4  0
  3  6  4  0
  4 21  4  0
  4 29  4  0
  5 15  4  0
  5 28  1  0
  6 16  4  0
  7 18  4  0
  7 26  4  0
  8 18  1  0
  8 19  4  0
  8 22  4  0
  9 12  4  0
  9 19  4  0
 10 12  4  0
 10 22  4  0
 11 20  4  0
 11 21  4  0
 12 23  1  0
 13 20  4  0
 13 29  4  0
 14 17  4  0
 14 28  4  0
 15 25  2  0
 16 27  4  0
 17 18  4  0
 20 27  1  0
 24 27  4  0
 26 28  4  0
M  END
$$$$

 Created by Python create_sdf_string function

 29 33  0  0  0  0  0  0  0  0999 V2000
    8.8270   -7.0288   18.4251 C   0  0  0  0  0  0  0  0  0  0  0  0
    9.1576   -4.6236   15.8860 O   0  0  0  0  0  0  0  0  0  0  0  0
    9.1509   -5.9108   17.7177 C   0  0  0  0  0  0  0  0  0  0  0  0
    3.6373   -9.5349   16.0582 N   0  0  0  0  0  0  0  0  0  0  0  0
    9.9275   -4.8001   18.0438 N   0  0  0  0  0  0  0  0  0  0  0  0
    8.5908   -5.7425   16.4412 C   0  0  0  0  0  0  0  0  0  0  0  0
   10.5993   -4.8981   21.6068 C   0  0  0  0  0  0  0  0  0  0  0  0
   10.4258   -3.0106   23.0998 C   0  0  0  0  0  0  0  0  0  0  0  0
   10.2148   -3.4364   25.4200 C   0  0  0  0  0  0  0  0  0  0  0  0
    9.7853   -1.1840   24.4927 C   0  0  0  0  0  0  0  0  0  0  0  0
    5.0276   -8.5227   17.5352 C   0  0  0  0  0  0  0  0  0  0  0  0
    9.8187   -2.0895   25.5800 C   0  0  0  0  0  0  0  0  0  0  0  0
    5.6473   -8.7216   15.3158 C   0  0  0  0  0  0  0  0  0  0  0  0
   10.7581   -3.1233   19.4720 N   0  0  0  0  0  0  0  0  0  0  0  0
    9.9571   -4.0573   16.8866 C   0  0  0  0  0  0  0  0  0  0  0  0
    7.6213   -6.5618   16.0087 C   0  0  0  0  0  0  0  0  0  0  0  0
   10.8583   -2.6527   20.7222 C   0  0  0  0  0  0  0  0  0  0  0  0
   10.6412   -3.5089   21.7936 C   0  0  0  0  0  0  0  0  0  0  0  0
   10.4972   -3.8968   24.1589 C   0  0  0  0  0  0  0  0  0  0  0  0
    5.9260   -8.2736   16.5517 C   0  0  0  0  0  0  0  0  0  0  0  0
    3.8816   -9.1166   17.2493 C   0  0  0  0  0  0  0  0  0  0  0  0
   10.1297   -1.6575   23.2324 C   0  0  0  0  0  0  0  0  0  0  0  0
    9.4684   -1.6929   26.7263 F   0  0  0  0  0  0  0  0  0  0  0  0
    7.7963   -7.7906   17.9837 C   0  0  0  0  0  0  0  0  0  0  0  0
   10.5884   -3.0725   16.7902 O   0  0  0  0  0  0  0  0  0  0  0  0
   10.4323   -5.3494   20.3516 C   0  0  0  0  0  0  0  0  0  0  0  0
    7.1156   -7.5454   16.8218 C   0  0  0  0  0  0  0  0  0  0  0  0
   10.3885   -4.4388   19.2773 C   0  0  0  0  0  0  0  0  0  0  0  0
    4.5160   -9.3822   15.0841 C   0  0  0  0  0  0  0  0  0  0  0  0
  1  3  4  0
  1 24  4  0
  2  6  4  0
  2 15  4  0
  3  5  4  0
  3  6  4  0
  4 21  4  0
  4 29  4  0
  5 15  4  0
  5 28  1  0
  6 16  4  0
  7 18  4  0
  7 26  4  0
  8 18  1  0
  8 19  4  0
  8 22  4  0
  9 12  4  0
  9 19  4  0
 10 12  4  0
 10 22  4  0
 11 20  4  0
 11 21  4  0
 12 23  1  0
 13 20  4  0
 13 29  4  0
 14 17  4  0
 14 28  4  0
 15 25  2  0
 16 27  4  0
 17 18  4  0
 20 27  1  0
 24 27  4  0
 26 28  4  0
M  END
$$$$

 Created by Python create_sdf_string function

 29 33  0  0  0  0  0  0  0  0999 V2000
    8.8270   -7.0288   18.4251 C   0  0  0  0  0  0  0  0  0  0  0  0
    9.1576   -4.6236   15.8860 O   0  0  0  0  0  0  0  0  0  0  0  0
    9.1509   -5.9108   17.7177 C   0  0  0  0  0  0  0  0  0  0  0  0
    3.6373   -9.5349   16.0582 N   0  0  0  0  0  0  0  0  0  0  0  0
    9.9275   -4.8001   18.0438 N   0  0  0  0  0  0  0  0  0  0  0  0
    8.5908   -5.7425   16.4412 C   0  0  0  0  0  0  0  0  0  0  0  0
   10.5993   -4.8981   21.6068 C   0  0  0  0  0  0  0  0  0  0  0  0
   10.4258   -3.0106   23.0998 C   0  0  0  0  0  0  0  0  0  0  0  0
   10.2148   -3.4364   25.4200 C   0  0  0  0  0  0  0  0  0  0  0  0
    9.7853   -1.1840   24.4927 C   0  0  0  0  0  0  0  0  0  0  0  0
    5.0276   -8.5227   17.5352 C   0  0  0  0  0  0  0  0  0  0  0  0
    9.8187   -2.0895   25.5800 C   0  0  0  0  0  0  0  0  0  0  0  0
    5.6473   -8.7216   15.3158 C   0  0  0  0  0  0  0  0  0  0  0  0
   10.7581   -3.1233   19.4720 N   0  0  0  0  0  0  0  0  0  0  0  0
    9.9571   -4.0573   16.8866 C   0  0  0  0  0  0  0  0  0  0  0  0
    7.6213   -6.5618   16.0087 C   0  0  0  0  0  0  0  0  0  0  0  0
   10.8583   -2.6527   20.7222 C   0  0  0  0  0  0  0  0  0  0  0  0
   10.6412   -3.5089   21.7936 C   0  0  0  0  0  0  0  0  0  0  0  0
   10.4972   -3.8968   24.1589 C   0  0  0  0  0  0  0  0  0  0  0  0
    5.9260   -8.2736   16.5517 C   0  0  0  0  0  0  0  0  0  0  0  0
    3.8816   -9.1166   17.2493 C   0  0  0  0  0  0  0  0  0  0  0  0
   10.1297   -1.6575   23.2324 C   0  0  0  0  0  0  0  0  0  0  0  0
    9.4684   -1.6929   26.7263 F   0  0  0  0  0  0  0  0  0  0  0  0
    7.7963   -7.7906   17.9837 C   0  0  0  0  0  0  0  0  0  0  0  0
   10.5884   -3.0725   16.7902 O   0  0  0  0  0  0  0  0  0  0  0  0
   10.4323   -5.3494   20.3516 C   0  0  0  0  0  0  0  0  0  0  0  0
    7.1156   -7.5454   16.8218 C   0  0  0  0  0  0  0  0  0  0  0  0
   10.3885   -4.4388   19.2773 C   0  0  0  0  0  0  0  0  0  0  0  0
    4.5160   -9.3822   15.0841 C   0  0  0  0  0  0  0  0  0  0  0  0
  1  3  4  0
  1 24  4  0
  2  6  4  0
  2 15  4  0
  3  5  4  0
  3  6  4  0
  4 21  4  0
  4 29  4  0
  5 15  4  0
  5 28  1  0
  6 16  4  0
  7 18  4  0
  7 26  4  0
  8 18  1  0
  8 19  4  0
  8 22  4  0
  9 12  4  0
  9 19  4  0
 10 12  4  0
 10 22  4  0
 11 20  4  0
 11 21  4  0
 12 23  1  0
 13 20  4  0
 13 29  4  0
 14 17  4  0
 14 28  4  0
 15 25  2  0
 16 27  4  0
 17 18  4  0
 20 27  1  0
 24 27  4  0
 26 28  4  0
M  END
$$$$

 Created by Python create_sdf_string function

 29 33  0  0  0  0  0  0  0  0999 V2000
    8.8270   -7.0288   18.4251 C   0  0  0  0  0  0  0  0  0  0  0  0
    9.1576   -4.6236   15.8860 O   0  0  0  0  0  0  0  0  0  0  0  0
    9.1509   -5.9108   17.7177 C   0  0  0  0  0  0  0  0  0  0  0  0
    3.6373   -9.5349   16.0582 N   0  0  0  0  0  0  0  0  0  0  0  0
    9.9275   -4.8001   18.0438 N   0  0  0  0  0  0  0  0  0  0  0  0
    8.5908   -5.7425   16.4412 C   0  0  0  0  0  0  0  0  0  0  0  0
   10.5993   -4.8981   21.6068 C   0  0  0  0  0  0  0  0  0  0  0  0
   10.4258   -3.0106   23.0998 C   0  0  0  0  0  0  0  0  0  0  0  0
   10.2148   -3.4364   25.4200 C   0  0  0  0  0  0  0  0  0  0  0  0
    9.7853   -1.1840   24.4927 C   0  0  0  0  0  0  0  0  0  0  0  0
    5.0276   -8.5227   17.5352 C   0  0  0  0  0  0  0  0  0  0  0  0
    9.8187   -2.0895   25.5800 C   0  0  0  0  0  0  0  0  0  0  0  0
    5.6473   -8.7216   15.3158 C   0  0  0  0  0  0  0  0  0  0  0  0
   10.7581   -3.1233   19.4720 N   0  0  0  0  0  0  0  0  0  0  0  0
    9.9571   -4.0573   16.8866 C   0  0  0  0  0  0  0  0  0  0  0  0
    7.6213   -6.5618   16.0087 C   0  0  0  0  0  0  0  0  0  0  0  0
   10.8583   -2.6527   20.7222 C   0  0  0  0  0  0  0  0  0  0  0  0
   10.6412   -3.5089   21.7936 C   0  0  0  0  0  0  0  0  0  0  0  0
   10.4972   -3.8968   24.1589 C   0  0  0  0  0  0  0  0  0  0  0  0
    5.9260   -8.2736   16.5517 C   0  0  0  0  0  0  0  0  0  0  0  0
    3.8816   -9.1166   17.2493 C   0  0  0  0  0  0  0  0  0  0  0  0
   10.1297   -1.6575   23.2324 C   0  0  0  0  0  0  0  0  0  0  0  0
    9.4684   -1.6929   26.7263 F   0  0  0  0  0  0  0  0  0  0  0  0
    7.7963   -7.7906   17.9837 C   0  0  0  0  0  0  0  0  0  0  0  0
   10.5884   -3.0725   16.7902 O   0  0  0  0  0  0  0  0  0  0  0  0
   10.4323   -5.3494   20.3516 C   0  0  0  0  0  0  0  0  0  0  0  0
    7.1156   -7.5454   16.8218 C   0  0  0  0  0  0  0  0  0  0  0  0
   10.3885   -4.4388   19.2773 C   0  0  0  0  0  0  0  0  0  0  0  0
    4.5160   -9.3822   15.0841 C   0  0  0  0  0  0  0  0  0  0  0  0
  1  3  4  0
  1 24  4  0
  2  6  4  0
  2 15  4  0
  3  5  4  0
  3  6  4  0
  4 21  4  0
  4 29  4  0
  5 15  4  0
  5 28  1  0
  6 16  4  0
  7 18  4  0
  7 26  4  0
  8 18  1  0
  8 19  4  0
  8 22  4  0
  9 12  4  0
  9 19  4  0
 10 12  4  0
 10 22  4  0
 11 20  4  0
 11 21  4  0
 12 23  1  0
 13 20  4  0
 13 29  4  0
 14 17  4  0
 14 28  4  0
 15 25  2  0
 16 27  4  0
 17 18  4  0
 20 27  1  0
 24 27  4  0
 26 28  4  0
M  END
$$$$

 Created by Python create_sdf_string function

 29 33  0  0  0  0  0  0  0  0999 V2000
    8.8270   -7.0288   18.4251 C   0  0  0  0  0  0  0  0  0  0  0  0
    9.1576   -4.6236   15.8860 O   0  0  0  0  0  0  0  0  0  0  0  0
    9.1509   -5.9108   17.7177 C   0  0  0  0  0  0  0  0  0  0  0  0
    3.6373   -9.5349   16.0582 N   0  0  0  0  0  0  0  0  0  0  0  0
    9.9275   -4.8001   18.0438 N   0  0  0  0  0  0  0  0  0  0  0  0
    8.5908   -5.7425   16.4412 C   0  0  0  0  0  0  0  0  0  0  0  0
   10.5993   -4.8981   21.6068 C   0  0  0  0  0  0  0  0  0  0  0  0
   10.4258   -3.0106   23.0998 C   0  0  0  0  0  0  0  0  0  0  0  0
   10.2148   -3.4364   25.4200 C   0  0  0  0  0  0  0  0  0  0  0  0
    9.7853   -1.1840   24.4927 C   0  0  0  0  0  0  0  0  0  0  0  0
    5.0276   -8.5227   17.5352 C   0  0  0  0  0  0  0  0  0  0  0  0
    9.8187   -2.0895   25.5800 C   0  0  0  0  0  0  0  0  0  0  0  0
    5.6473   -8.7216   15.3158 C   0  0  0  0  0  0  0  0  0  0  0  0
   10.7581   -3.1233   19.4720 N   0  0  0  0  0  0  0  0  0  0  0  0
    9.9571   -4.0573   16.8866 C   0  0  0  0  0  0  0  0  0  0  0  0
    7.6213   -6.5618   16.0087 C   0  0  0  0  0  0  0  0  0  0  0  0
   10.8583   -2.6527   20.7222 C   0  0  0  0  0  0  0  0  0  0  0  0
   10.6412   -3.5089   21.7936 C   0  0  0  0  0  0  0  0  0  0  0  0
   10.4972   -3.8968   24.1589 C   0  0  0  0  0  0  0  0  0  0  0  0
    5.9260   -8.2736   16.5517 C   0  0  0  0  0  0  0  0  0  0  0  0
    3.8816   -9.1166   17.2493 C   0  0  0  0  0  0  0  0  0  0  0  0
   10.1297   -1.6575   23.2324 C   0  0  0  0  0  0  0  0  0  0  0  0
    9.4684   -1.6929   26.7263 F   0  0  0  0  0  0  0  0  0  0  0  0
    7.7963   -7.7906   17.9837 C   0  0  0  0  0  0  0  0  0  0  0  0
   10.5884   -3.0725   16.7902 O   0  0  0  0  0  0  0  0  0  0  0  0
   10.4323   -5.3494   20.3516 C   0  0  0  0  0  0  0  0  0  0  0  0
    7.1156   -7.5454   16.8218 C   0  0  0  0  0  0  0  0  0  0  0  0
   10.3885   -4.4388   19.2773 C   0  0  0  0  0  0  0  0  0  0  0  0
    4.5160   -9.3822   15.0841 C   0  0  0  0  0  0  0  0  0  0  0  0
  1  3  4  0
  1 24  4  0
  2  6  4  0
  2 15  4  0
  3  5  4  0
  3  6  4  0
  4 21  4  0
  4 29  4  0
  5 15  4  0
  5 28  1  0
  6 16  4  0
  7 18  4  0
  7 26  4  0
  8 18  1  0
  8 19  4  0
  8 22  4  0
  9 12  4  0
  9 19  4  0
 10 12  4  0
 10 22  4  0
 11 20  4  0
 11 21  4  0
 12 23  1  0
 13 20  4  0
 13 29  4  0
 14 17  4  0
 14 28  4  0
 15 25  2  0
 16 27  4  0
 17 18  4  0
 20 27  1  0
 24 27  4  0
 26 28  4  0
M  END
$$$$

 Created by Python create_sdf_string function

 29 33  0  0  0  0  0  0  0  0999 V2000
    8.8270   -7.0288   18.4251 C   0  0  0  0  0  0  0  0  0  0  0  0
    9.1576   -4.6236   15.8860 O   0  0  0  0  0  0  0  0  0  0  0  0
    9.1509   -5.9108   17.7177 C   0  0  0  0  0  0  0  0  0  0  0  0
    3.6373   -9.5349   16.0582 N   0  0  0  0  0  0  0  0  0  0  0  0
    9.9275   -4.8001   18.0438 N   0  0  0  0  0  0  0  0  0  0  0  0
    8.5908   -5.7425   16.4412 C   0  0  0  0  0  0  0  0  0  0  0  0
   10.5993   -4.8981   21.6068 C   0  0  0  0  0  0  0  0  0  0  0  0
   10.4258   -3.0106   23.0998 C   0  0  0  0  0  0  0  0  0  0  0  0
   10.2148   -3.4364   25.4200 C   0  0  0  0  0  0  0  0  0  0  0  0
    9.7853   -1.1840   24.4927 C   0  0  0  0  0  0  0  0  0  0  0  0
    5.0276   -8.5227   17.5352 C   0  0  0  0  0  0  0  0  0  0  0  0
    9.8187   -2.0895   25.5800 C   0  0  0  0  0  0  0  0  0  0  0  0
    5.6473   -8.7216   15.3158 C   0  0  0  0  0  0  0  0  0  0  0  0
   10.7581   -3.1233   19.4720 N   0  0  0  0  0  0  0  0  0  0  0  0
    9.9571   -4.0573   16.8866 C   0  0  0  0  0  0  0  0  0  0  0  0
    7.6213   -6.5618   16.0087 C   0  0  0  0  0  0  0  0  0  0  0  0
   10.8583   -2.6527   20.7222 C   0  0  0  0  0  0  0  0  0  0  0  0
   10.6412   -3.5089   21.7936 C   0  0  0  0  0  0  0  0  0  0  0  0
   10.4972   -3.8968   24.1589 C   0  0  0  0  0  0  0  0  0  0  0  0
    5.9260   -8.2736   16.5517 C   0  0  0  0  0  0  0  0  0  0  0  0
    3.8816   -9.1166   17.2493 C   0  0  0  0  0  0  0  0  0  0  0  0
   10.1297   -1.6575   23.2324 C   0  0  0  0  0  0  0  0  0  0  0  0
    9.4684   -1.6929   26.7263 F   0  0  0  0  0  0  0  0  0  0  0  0
    7.7963   -7.7906   17.9837 C   0  0  0  0  0  0  0  0  0  0  0  0
   10.5884   -3.0725   16.7902 O   0  0  0  0  0  0  0  0  0  0  0  0
   10.4323   -5.3494   20.3516 C   0  0  0  0  0  0  0  0  0  0  0  0
    7.1156   -7.5454   16.8218 C   0  0  0  0  0  0  0  0  0  0  0  0
   10.3885   -4.4388   19.2773 C   0  0  0  0  0  0  0  0  0  0  0  0
    4.5160   -9.3822   15.0841 C   0  0  0  0  0  0  0  0  0  0  0  0
  1  3  4  0
  1 24  4  0
  2  6  4  0
  2 15  4  0
  3  5  4  0
  3  6  4  0
  4 21  4  0
  4 29  4  0
  5 15  4  0
  5 28  1  0
  6 16  4  0
  7 18  4  0
  7 26  4  0
  8 18  1  0
  8 19  4  0
  8 22  4  0
  9 12  4  0
  9 19  4  0
 10 12  4  0
 10 22  4  0
 11 20  4  0
 11 21  4  0
 12 23  1  0
 13 20  4  0
 13 29  4  0
 14 17  4  0
 14 28  4  0
 15 25  2  0
 16 27  4  0
 17 18  4  0
 20 27  1  0
 24 27  4  0
 26 28  4  0
M  END
$$$$

 Created by Python create_sdf_string function

 29 33  0  0  0  0  0  0  0  0999 V2000
    8.8270   -7.0288   18.4251 C   0  0  0  0  0  0  0  0  0  0  0  0
    9.1576   -4.6236   15.8860 O   0  0  0  0  0  0  0  0  0  0  0  0
    9.1509   -5.9108   17.7177 C   0  0  0  0  0  0  0  0  0  0  0  0
    3.6373   -9.5349   16.0582 N   0  0  0  0  0  0  0  0  0  0  0  0
    9.9275   -4.8001   18.0438 N   0  0  0  0  0  0  0  0  0  0  0  0
    8.5908   -5.7425   16.4412 C   0  0  0  0  0  0  0  0  0  0  0  0
   10.5993   -4.8981   21.6068 C   0  0  0  0  0  0  0  0  0  0  0  0
   10.4258   -3.0106   23.0998 C   0  0  0  0  0  0  0  0  0  0  0  0
   10.2148   -3.4364   25.4200 C   0  0  0  0  0  0  0  0  0  0  0  0
    9.7853   -1.1840   24.4927 C   0  0  0  0  0  0  0  0  0  0  0  0
    5.0276   -8.5227   17.5352 C   0  0  0  0  0  0  0  0  0  0  0  0
    9.8187   -2.0895   25.5800 C   0  0  0  0  0  0  0  0  0  0  0  0
    5.6473   -8.7216   15.3158 C   0  0  0  0  0  0  0  0  0  0  0  0
   10.7581   -3.1233   19.4720 N   0  0  0  0  0  0  0  0  0  0  0  0
    9.9571   -4.0573   16.8866 C   0  0  0  0  0  0  0  0  0  0  0  0
    7.6213   -6.5618   16.0087 C   0  0  0  0  0  0  0  0  0  0  0  0
   10.8583   -2.6527   20.7222 C   0  0  0  0  0  0  0  0  0  0  0  0
   10.6412   -3.5089   21.7936 C   0  0  0  0  0  0  0  0  0  0  0  0
   10.4972   -3.8968   24.1589 C   0  0  0  0  0  0  0  0  0  0  0  0
    5.9260   -8.2736   16.5517 C   0  0  0  0  0  0  0  0  0  0  0  0
    3.8816   -9.1166   17.2493 C   0  0  0  0  0  0  0  0  0  0  0  0
   10.1297   -1.6575   23.2324 C   0  0  0  0  0  0  0  0  0  0  0  0
    9.4684   -1.6929   26.7263 F   0  0  0  0  0  0  0  0  0  0  0  0
    7.7963   -7.7906   17.9837 C   0  0  0  0  0  0  0  0  0  0  0  0
   10.5884   -3.0725   16.7902 O   0  0  0  0  0  0  0  0  0  0  0  0
   10.4323   -5.3494   20.3516 C   0  0  0  0  0  0  0  0  0  0  0  0
    7.1156   -7.5454   16.8218 C   0  0  0  0  0  0  0  0  0  0  0  0
   10.3885   -4.4388   19.2773 C   0  0  0  0  0  0  0  0  0  0  0  0
    4.5160   -9.3822   15.0841 C   0  0  0  0  0  0  0  0  0  0  0  0
  1  3  4  0
  1 24  4  0
  2  6  4  0
  2 15  4  0
  3  5  4  0
  3  6  4  0
  4 21  4  0
  4 29  4  0
  5 15  4  0
  5 28  1  0
  6 16  4  0
  7 18  4  0
  7 26  4  0
  8 18  1  0
  8 19  4  0
  8 22  4  0
  9 12  4  0
  9 19  4  0
 10 12  4  0
 10 22  4  0
 11 20  4  0
 11 21  4  0
 12 23  1  0
 13 20  4  0
 13 29  4  0
 14 17  4  0
 14 28  4  0
 15 25  2  0
 16 27  4  0
 17 18  4  0
 20 27  1  0
 24 27  4  0
 26 28  4  0
M  END
$$$$

 Created by Python create_sdf_string function

 29 33  0  0  0  0  0  0  0  0999 V2000
    8.8270   -7.0288   18.4251 C   0  0  0  0  0  0  0  0  0  0  0  0
    9.1576   -4.6236   15.8860 O   0  0  0  0  0  0  0  0  0  0  0  0
    9.1509   -5.9108   17.7177 C   0  0  0  0  0  0  0  0  0  0  0  0
    3.6373   -9.5349   16.0582 N   0  0  0  0  0  0  0  0  0  0  0  0
    9.9275   -4.8001   18.0438 N   0  0  0  0  0  0  0  0  0  0  0  0
    8.5908   -5.7425   16.4412 C   0  0  0  0  0  0  0  0  0  0  0  0
   10.5993   -4.8981   21.6068 C   0  0  0  0  0  0  0  0  0  0  0  0
   10.4258   -3.0106   23.0998 C   0  0  0  0  0  0  0  0  0  0  0  0
   10.2148   -3.4364   25.4200 C   0  0  0  0  0  0  0  0  0  0  0  0
    9.7853   -1.1840   24.4927 C   0  0  0  0  0  0  0  0  0  0  0  0
    5.0276   -8.5227   17.5352 C   0  0  0  0  0  0  0  0  0  0  0  0
    9.8187   -2.0895   25.5800 C   0  0  0  0  0  0  0  0  0  0  0  0
    5.6473   -8.7216   15.3158 C   0  0  0  0  0  0  0  0  0  0  0  0
   10.7581   -3.1233   19.4720 N   0  0  0  0  0  0  0  0  0  0  0  0
    9.9571   -4.0573   16.8866 C   0  0  0  0  0  0  0  0  0  0  0  0
    7.6213   -6.5618   16.0087 C   0  0  0  0  0  0  0  0  0  0  0  0
   10.8583   -2.6527   20.7222 C   0  0  0  0  0  0  0  0  0  0  0  0
   10.6412   -3.5089   21.7936 C   0  0  0  0  0  0  0  0  0  0  0  0
   10.4972   -3.8968   24.1589 C   0  0  0  0  0  0  0  0  0  0  0  0
    5.9260   -8.2736   16.5517 C   0  0  0  0  0  0  0  0  0  0  0  0
    3.8816   -9.1166   17.2493 C   0  0  0  0  0  0  0  0  0  0  0  0
   10.1297   -1.6575   23.2324 C   0  0  0  0  0  0  0  0  0  0  0  0
    9.4684   -1.6929   26.7263 F   0  0  0  0  0  0  0  0  0  0  0  0
    7.7963   -7.7906   17.9837 C   0  0  0  0  0  0  0  0  0  0  0  0
   10.5884   -3.0725   16.7902 O   0  0  0  0  0  0  0  0  0  0  0  0
   10.4323   -5.3494   20.3516 C   0  0  0  0  0  0  0  0  0  0  0  0
    7.1156   -7.5454   16.8218 C   0  0  0  0  0  0  0  0  0  0  0  0
   10.3885   -4.4388   19.2773 C   0  0  0  0  0  0  0  0  0  0  0  0
    4.5160   -9.3822   15.0841 C   0  0  0  0  0  0  0  0  0  0  0  0
  1  3  4  0
  1 24  4  0
  2  6  4  0
  2 15  4  0
  3  5  4  0
  3  6  4  0
  4 21  4  0
  4 29  4  0
  5 15  4  0
  5 28  1  0
  6 16  4  0
  7 18  4  0
  7 26  4  0
  8 18  1  0
  8 19  4  0
  8 22  4  0
  9 12  4  0
  9 19  4  0
 10 12  4  0
 10 22  4  0
 11 20  4  0
 11 21  4  0
 12 23  1  0
 13 20  4  0
 13 29  4  0
 14 17  4  0
 14 28  4  0
 15 25  2  0
 16 27  4  0
 17 18  4  0
 20 27  1  0
 24 27  4  0
 26 28  4  0
M  END
$$$$

 Created by Python create_sdf_string function

 29 33  0  0  0  0  0  0  0  0999 V2000
    8.8270   -7.0288   18.4251 C   0  0  0  0  0  0  0  0  0  0  0  0
    9.1576   -4.6236   15.8860 O   0  0  0  0  0  0  0  0  0  0  0  0
    9.1509   -5.9108   17.7177 C   0  0  0  0  0  0  0  0  0  0  0  0
    3.6373   -9.5349   16.0582 N   0  0  0  0  0  0  0  0  0  0  0  0
    9.9275   -4.8001   18.0438 N   0  0  0  0  0  0  0  0  0  0  0  0
    8.5908   -5.7425   16.4412 C   0  0  0  0  0  0  0  0  0  0  0  0
   10.5993   -4.8981   21.6068 C   0  0  0  0  0  0  0  0  0  0  0  0
   10.4258   -3.0106   23.0998 C   0  0  0  0  0  0  0  0  0  0  0  0
   10.2148   -3.4364   25.4200 C   0  0  0  0  0  0  0  0  0  0  0  0
    9.7853   -1.1840   24.4927 C   0  0  0  0  0  0  0  0  0  0  0  0
    5.0276   -8.5227   17.5352 C   0  0  0  0  0  0  0  0  0  0  0  0
    9.8187   -2.0895   25.5800 C   0  0  0  0  0  0  0  0  0  0  0  0
    5.6473   -8.7216   15.3158 C   0  0  0  0  0  0  0  0  0  0  0  0
   10.7581   -3.1233   19.4720 N   0  0  0  0  0  0  0  0  0  0  0  0
    9.9571   -4.0573   16.8866 C   0  0  0  0  0  0  0  0  0  0  0  0
    7.6213   -6.5618   16.0087 C   0  0  0  0  0  0  0  0  0  0  0  0
   10.8583   -2.6527   20.7222 C   0  0  0  0  0  0  0  0  0  0  0  0
   10.6412   -3.5089   21.7936 C   0  0  0  0  0  0  0  0  0  0  0  0
   10.4972   -3.8968   24.1589 C   0  0  0  0  0  0  0  0  0  0  0  0
    5.9260   -8.2736   16.5517 C   0  0  0  0  0  0  0  0  0  0  0  0
    3.8816   -9.1166   17.2493 C   0  0  0  0  0  0  0  0  0  0  0  0
   10.1297   -1.6575   23.2324 C   0  0  0  0  0  0  0  0  0  0  0  0
    9.4684   -1.6929   26.7263 F   0  0  0  0  0  0  0  0  0  0  0  0
    7.7963   -7.7906   17.9837 C   0  0  0  0  0  0  0  0  0  0  0  0
   10.5884   -3.0725   16.7902 O   0  0  0  0  0  0  0  0  0  0  0  0
   10.4323   -5.3494   20.3516 C   0  0  0  0  0  0  0  0  0  0  0  0
    7.1156   -7.5454   16.8218 C   0  0  0  0  0  0  0  0  0  0  0  0
   10.3885   -4.4388   19.2773 C   0  0  0  0  0  0  0  0  0  0  0  0
    4.5160   -9.3822   15.0841 C   0  0  0  0  0  0  0  0  0  0  0  0
  1  3  4  0
  1 24  4  0
  2  6  4  0
  2 15  4  0
  3  5  4  0
  3  6  4  0
  4 21  4  0
  4 29  4  0
  5 15  4  0
  5 28  1  0
  6 16  4  0
  7 18  4  0
  7 26  4  0
  8 18  1  0
  8 19  4  0
  8 22  4  0
  9 12  4  0
  9 19  4  0
 10 12  4  0
 10 22  4  0
 11 20  4  0
 11 21  4  0
 12 23  1  0
 13 20  4  0
 13 29  4  0
 14 17  4  0
 14 28  4  0
 15 25  2  0
 16 27  4  0
 17 18  4  0
 20 27  1  0
 24 27  4  0
 26 28  4  0
M  END
$$$$

 Created by Python create_sdf_string function

 29 33  0  0  0  0  0  0  0  0999 V2000
    8.8270   -7.0288   18.4251 C   0  0  0  0  0  0  0  0  0  0  0  0
    9.1576   -4.6236   15.8860 O   0  0  0  0  0  0  0  0  0  0  0  0
    9.1509   -5.9108   17.7177 C   0  0  0  0  0  0  0  0  0  0  0  0
    3.6373   -9.5349   16.0582 N   0  0  0  0  0  0  0  0  0  0  0  0
    9.9275   -4.8001   18.0438 N   0  0  0  0  0  0  0  0  0  0  0  0
    8.5908   -5.7425   16.4412 C   0  0  0  0  0  0  0  0  0  0  0  0
   10.5993   -4.8981   21.6068 C   0  0  0  0  0  0  0  0  0  0  0  0
   10.4258   -3.0106   23.0998 C   0  0  0  0  0  0  0  0  0  0  0  0
   10.2148   -3.4364   25.4200 C   0  0  0  0  0  0  0  0  0  0  0  0
    9.7853   -1.1840   24.4927 C   0  0  0  0  0  0  0  0  0  0  0  0
    5.0276   -8.5227   17.5352 C   0  0  0  0  0  0  0  0  0  0  0  0
    9.8187   -2.0895   25.5800 C   0  0  0  0  0  0  0  0  0  0  0  0
    5.6473   -8.7216   15.3158 C   0  0  0  0  0  0  0  0  0  0  0  0
   10.7581   -3.1233   19.4720 N   0  0  0  0  0  0  0  0  0  0  0  0
    9.9571   -4.0573   16.8866 C   0  0  0  0  0  0  0  0  0  0  0  0
    7.6213   -6.5618   16.0087 C   0  0  0  0  0  0  0  0  0  0  0  0
   10.8583   -2.6527   20.7222 C   0  0  0  0  0  0  0  0  0  0  0  0
   10.6412   -3.5089   21.7936 C   0  0  0  0  0  0  0  0  0  0  0  0
   10.4972   -3.8968   24.1589 C   0  0  0  0  0  0  0  0  0  0  0  0
    5.9260   -8.2736   16.5517 C   0  0  0  0  0  0  0  0  0  0  0  0
    3.8816   -9.1166   17.2493 C   0  0  0  0  0  0  0  0  0  0  0  0
   10.1297   -1.6575   23.2324 C   0  0  0  0  0  0  0  0  0  0  0  0
    9.4684   -1.6929   26.7263 F   0  0  0  0  0  0  0  0  0  0  0  0
    7.7963   -7.7906   17.9837 C   0  0  0  0  0  0  0  0  0  0  0  0
   10.5884   -3.0725   16.7902 O   0  0  0  0  0  0  0  0  0  0  0  0
   10.4323   -5.3494   20.3516 C   0  0  0  0  0  0  0  0  0  0  0  0
    7.1156   -7.5454   16.8218 C   0  0  0  0  0  0  0  0  0  0  0  0
   10.3885   -4.4388   19.2773 C   0  0  0  0  0  0  0  0  0  0  0  0
    4.5160   -9.3822   15.0841 C   0  0  0  0  0  0  0  0  0  0  0  0
  1  3  4  0
  1 24  4  0
  2  6  4  0
  2 15  4  0
  3  5  4  0
  3  6  4  0
  4 21  4  0
  4 29  4  0
  5 15  4  0
  5 28  1  0
  6 16  4  0
  7 18  4  0
  7 26  4  0
  8 18  1  0
  8 19  4  0
  8 22  4  0
  9 12  4  0
  9 19  4  0
 10 12  4  0
 10 22  4  0
 11 20  4  0
 11 21  4  0
 12 23  1  0
 13 20  4  0
 13 29  4  0
 14 17  4  0
 14 28  4  0
 15 25  2  0
 16 27  4  0
 17 18  4  0
 20 27  1  0
 24 27  4  0
 26 28  4  0
M  END
$$$$

 Created by Python create_sdf_string function

 29 33  0  0  0  0  0  0  0  0999 V2000
    8.8270   -7.0288   18.4251 C   0  0  0  0  0  0  0  0  0  0  0  0
    9.1576   -4.6236   15.8860 O   0  0  0  0  0  0  0  0  0  0  0  0
    9.1509   -5.9108   17.7177 C   0  0  0  0  0  0  0  0  0  0  0  0
    3.6373   -9.5349   16.0582 N   0  0  0  0  0  0  0  0  0  0  0  0
    9.9275   -4.8001   18.0438 N   0  0  0  0  0  0  0  0  0  0  0  0
    8.5908   -5.7425   16.4412 C   0  0  0  0  0  0  0  0  0  0  0  0
   10.5993   -4.8981   21.6068 C   0  0  0  0  0  0  0  0  0  0  0  0
   10.4258   -3.0106   23.0998 C   0  0  0  0  0  0  0  0  0  0  0  0
   10.2148   -3.4364   25.4200 C   0  0  0  0  0  0  0  0  0  0  0  0
    9.7853   -1.1840   24.4927 C   0  0  0  0  0  0  0  0  0  0  0  0
    5.0276   -8.5227   17.5352 C   0  0  0  0  0  0  0  0  0  0  0  0
    9.8187   -2.0895   25.5800 C   0  0  0  0  0  0  0  0  0  0  0  0
    5.6473   -8.7216   15.3158 C   0  0  0  0  0  0  0  0  0  0  0  0
   10.7581   -3.1233   19.4720 N   0  0  0  0  0  0  0  0  0  0  0  0
    9.9571   -4.0573   16.8866 C   0  0  0  0  0  0  0  0  0  0  0  0
    7.6213   -6.5618   16.0087 C   0  0  0  0  0  0  0  0  0  0  0  0
   10.8583   -2.6527   20.7222 C   0  0  0  0  0  0  0  0  0  0  0  0
   10.6412   -3.5089   21.7936 C   0  0  0  0  0  0  0  0  0  0  0  0
   10.4972   -3.8968   24.1589 C   0  0  0  0  0  0  0  0  0  0  0  0
    5.9260   -8.2736   16.5517 C   0  0  0  0  0  0  0  0  0  0  0  0
    3.8816   -9.1166   17.2493 C   0  0  0  0  0  0  0  0  0  0  0  0
   10.1297   -1.6575   23.2324 C   0  0  0  0  0  0  0  0  0  0  0  0
    9.4684   -1.6929   26.7263 F   0  0  0  0  0  0  0  0  0  0  0  0
    7.7963   -7.7906   17.9837 C   0  0  0  0  0  0  0  0  0  0  0  0
   10.5884   -3.0725   16.7902 O   0  0  0  0  0  0  0  0  0  0  0  0
   10.4323   -5.3494   20.3516 C   0  0  0  0  0  0  0  0  0  0  0  0
    7.1156   -7.5454   16.8218 C   0  0  0  0  0  0  0  0  0  0  0  0
   10.3885   -4.4388   19.2773 C   0  0  0  0  0  0  0  0  0  0  0  0
    4.5160   -9.3822   15.0841 C   0  0  0  0  0  0  0  0  0  0  0  0
  1  3  4  0
  1 24  4  0
  2  6  4  0
  2 15  4  0
  3  5  4  0
  3  6  4  0
  4 21  4  0
  4 29  4  0
  5 15  4  0
  5 28  1  0
  6 16  4  0
  7 18  4  0
  7 26  4  0
  8 18  1  0
  8 19  4  0
  8 22  4  0
  9 12  4  0
  9 19  4  0
 10 12  4  0
 10 22  4  0
 11 20  4  0
 11 21  4  0
 12 23  1  0
 13 20  4  0
 13 29  4  0
 14 17  4  0
 14 28  4  0
 15 25  2  0
 16 27  4  0
 17 18  4  0
 20 27  1  0
 24 27  4  0
 26 28  4  0
M  END
$$$$

 Created by Python create_sdf_string function

 29 33  0  0  0  0  0  0  0  0999 V2000
    8.8270   -7.0288   18.4251 C   0  0  0  0  0  0  0  0  0  0  0  0
    9.1576   -4.6236   15.8860 O   0  0  0  0  0  0  0  0  0  0  0  0
    9.1509   -5.9108   17.7177 C   0  0  0  0  0  0  0  0  0  0  0  0
    3.6373   -9.5349   16.0582 N   0  0  0  0  0  0  0  0  0  0  0  0
    9.9275   -4.8001   18.0438 N   0  0  0  0  0  0  0  0  0  0  0  0
    8.5908   -5.7425   16.4412 C   0  0  0  0  0  0  0  0  0  0  0  0
   10.5993   -4.8981   21.6068 C   0  0  0  0  0  0  0  0  0  0  0  0
   10.4258   -3.0106   23.0998 C   0  0  0  0  0  0  0  0  0  0  0  0
   10.2148   -3.4364   25.4200 C   0  0  0  0  0  0  0  0  0  0  0  0
    9.7853   -1.1840   24.4927 C   0  0  0  0  0  0  0  0  0  0  0  0
    5.0276   -8.5227   17.5352 C   0  0  0  0  0  0  0  0  0  0  0  0
    9.8187   -2.0895   25.5800 C   0  0  0  0  0  0  0  0  0  0  0  0
    5.6473   -8.7216   15.3158 C   0  0  0  0  0  0  0  0  0  0  0  0
   10.7581   -3.1233   19.4720 N   0  0  0  0  0  0  0  0  0  0  0  0
    9.9571   -4.0573   16.8866 C   0  0  0  0  0  0  0  0  0  0  0  0
    7.6213   -6.5618   16.0087 C   0  0  0  0  0  0  0  0  0  0  0  0
   10.8583   -2.6527   20.7222 C   0  0  0  0  0  0  0  0  0  0  0  0
   10.6412   -3.5089   21.7936 C   0  0  0  0  0  0  0  0  0  0  0  0
   10.4972   -3.8968   24.1589 C   0  0  0  0  0  0  0  0  0  0  0  0
    5.9260   -8.2736   16.5517 C   0  0  0  0  0  0  0  0  0  0  0  0
    3.8816   -9.1166   17.2493 C   0  0  0  0  0  0  0  0  0  0  0  0
   10.1297   -1.6575   23.2324 C   0  0  0  0  0  0  0  0  0  0  0  0
    9.4684   -1.6929   26.7263 F   0  0  0  0  0  0  0  0  0  0  0  0
    7.7963   -7.7906   17.9837 C   0  0  0  0  0  0  0  0  0  0  0  0
   10.5884   -3.0725   16.7902 O   0  0  0  0  0  0  0  0  0  0  0  0
   10.4323   -5.3494   20.3516 C   0  0  0  0  0  0  0  0  0  0  0  0
    7.1156   -7.5454   16.8218 C   0  0  0  0  0  0  0  0  0  0  0  0
   10.3885   -4.4388   19.2773 C   0  0  0  0  0  0  0  0  0  0  0  0
    4.5160   -9.3822   15.0841 C   0  0  0  0  0  0  0  0  0  0  0  0
  1  3  4  0
  1 24  4  0
  2  6  4  0
  2 15  4  0
  3  5  4  0
  3  6  4  0
  4 21  4  0
  4 29  4  0
  5 15  4  0
  5 28  1  0
  6 16  4  0
  7 18  4  0
  7 26  4  0
  8 18  1  0
  8 19  4  0
  8 22  4  0
  9 12  4  0
  9 19  4  0
 10 12  4  0
 10 22  4  0
 11 20  4  0
 11 21  4  0
 12 23  1  0
 13 20  4  0
 13 29  4  0
 14 17  4  0
 14 28  4  0
 15 25  2  0
 16 27  4  0
 17 18  4  0
 20 27  1  0
 24 27  4  0
 26 28  4  0
M  END
$$$$

 Created by Python create_sdf_string function

 29 33  0  0  0  0  0  0  0  0999 V2000
    8.8270   -7.0288   18.4251 C   0  0  0  0  0  0  0  0  0  0  0  0
    9.1576   -4.6236   15.8860 O   0  0  0  0  0  0  0  0  0  0  0  0
    9.1509   -5.9108   17.7177 C   0  0  0  0  0  0  0  0  0  0  0  0
    3.6373   -9.5349   16.0582 N   0  0  0  0  0  0  0  0  0  0  0  0
    9.9275   -4.8001   18.0438 N   0  0  0  0  0  0  0  0  0  0  0  0
    8.5908   -5.7425   16.4412 C   0  0  0  0  0  0  0  0  0  0  0  0
   10.5993   -4.8981   21.6068 C   0  0  0  0  0  0  0  0  0  0  0  0
   10.4258   -3.0106   23.0998 C   0  0  0  0  0  0  0  0  0  0  0  0
   10.2148   -3.4364   25.4200 C   0  0  0  0  0  0  0  0  0  0  0  0
    9.7853   -1.1840   24.4927 C   0  0  0  0  0  0  0  0  0  0  0  0
    5.0276   -8.5227   17.5352 C   0  0  0  0  0  0  0  0  0  0  0  0
    9.8187   -2.0895   25.5800 C   0  0  0  0  0  0  0  0  0  0  0  0
    5.6473   -8.7216   15.3158 C   0  0  0  0  0  0  0  0  0  0  0  0
   10.7581   -3.1233   19.4720 N   0  0  0  0  0  0  0  0  0  0  0  0
    9.9571   -4.0573   16.8866 C   0  0  0  0  0  0  0  0  0  0  0  0
    7.6213   -6.5618   16.0087 C   0  0  0  0  0  0  0  0  0  0  0  0
   10.8583   -2.6527   20.7222 C   0  0  0  0  0  0  0  0  0  0  0  0
   10.6412   -3.5089   21.7936 C   0  0  0  0  0  0  0  0  0  0  0  0
   10.4972   -3.8968   24.1589 C   0  0  0  0  0  0  0  0  0  0  0  0
    5.9260   -8.2736   16.5517 C   0  0  0  0  0  0  0  0  0  0  0  0
    3.8816   -9.1166   17.2493 C   0  0  0  0  0  0  0  0  0  0  0  0
   10.1297   -1.6575   23.2324 C   0  0  0  0  0  0  0  0  0  0  0  0
    9.4684   -1.6929   26.7263 F   0  0  0  0  0  0  0  0  0  0  0  0
    7.7963   -7.7906   17.9837 C   0  0  0  0  0  0  0  0  0  0  0  0
   10.5884   -3.0725   16.7902 O   0  0  0  0  0  0  0  0  0  0  0  0
   10.4323   -5.3494   20.3516 C   0  0  0  0  0  0  0  0  0  0  0  0
    7.1156   -7.5454   16.8218 C   0  0  0  0  0  0  0  0  0  0  0  0
   10.3885   -4.4388   19.2773 C   0  0  0  0  0  0  0  0  0  0  0  0
    4.5160   -9.3822   15.0841 C   0  0  0  0  0  0  0  0  0  0  0  0
  1  3  4  0
  1 24  4  0
  2  6  4  0
  2 15  4  0
  3  5  4  0
  3  6  4  0
  4 21  4  0
  4 29  4  0
  5 15  4  0
  5 28  1  0
  6 16  4  0
  7 18  4  0
  7 26  4  0
  8 18  1  0
  8 19  4  0
  8 22  4  0
  9 12  4  0
  9 19  4  0
 10 12  4  0
 10 22  4  0
 11 20  4  0
 11 21  4  0
 12 23  1  0
 13 20  4  0
 13 29  4  0
 14 17  4  0
 14 28  4  0
 15 25  2  0
 16 27  4  0
 17 18  4  0
 20 27  1  0
 24 27  4  0
 26 28  4  0
M  END
$$$$

 Created by Python create_sdf_string function

 29 33  0  0  0  0  0  0  0  0999 V2000
    8.8270   -7.0288   18.4251 C   0  0  0  0  0  0  0  0  0  0  0  0
    9.1576   -4.6236   15.8860 O   0  0  0  0  0  0  0  0  0  0  0  0
    9.1509   -5.9108   17.7177 C   0  0  0  0  0  0  0  0  0  0  0  0
    3.6373   -9.5349   16.0582 N   0  0  0  0  0  0  0  0  0  0  0  0
    9.9275   -4.8001   18.0438 N   0  0  0  0  0  0  0  0  0  0  0  0
    8.5908   -5.7425   16.4412 C   0  0  0  0  0  0  0  0  0  0  0  0
   10.5993   -4.8981   21.6068 C   0  0  0  0  0  0  0  0  0  0  0  0
   10.4258   -3.0106   23.0998 C   0  0  0  0  0  0  0  0  0  0  0  0
   10.2148   -3.4364   25.4200 C   0  0  0  0  0  0  0  0  0  0  0  0
    9.7853   -1.1840   24.4927 C   0  0  0  0  0  0  0  0  0  0  0  0
    5.0276   -8.5227   17.5352 C   0  0  0  0  0  0  0  0  0  0  0  0
    9.8187   -2.0895   25.5800 C   0  0  0  0  0  0  0  0  0  0  0  0
    5.6473   -8.7216   15.3158 C   0  0  0  0  0  0  0  0  0  0  0  0
   10.7581   -3.1233   19.4720 N   0  0  0  0  0  0  0  0  0  0  0  0
    9.9571   -4.0573   16.8866 C   0  0  0  0  0  0  0  0  0  0  0  0
    7.6213   -6.5618   16.0087 C   0  0  0  0  0  0  0  0  0  0  0  0
   10.8583   -2.6527   20.7222 C   0  0  0  0  0  0  0  0  0  0  0  0
   10.6412   -3.5089   21.7936 C   0  0  0  0  0  0  0  0  0  0  0  0
   10.4972   -3.8968   24.1589 C   0  0  0  0  0  0  0  0  0  0  0  0
    5.9260   -8.2736   16.5517 C   0  0  0  0  0  0  0  0  0  0  0  0
    3.8816   -9.1166   17.2493 C   0  0  0  0  0  0  0  0  0  0  0  0
   10.1297   -1.6575   23.2324 C   0  0  0  0  0  0  0  0  0  0  0  0
    9.4684   -1.6929   26.7263 F   0  0  0  0  0  0  0  0  0  0  0  0
    7.7963   -7.7906   17.9837 C   0  0  0  0  0  0  0  0  0  0  0  0
   10.5884   -3.0725   16.7902 O   0  0  0  0  0  0  0  0  0  0  0  0
   10.4323   -5.3494   20.3516 C   0  0  0  0  0  0  0  0  0  0  0  0
    7.1156   -7.5454   16.8218 C   0  0  0  0  0  0  0  0  0  0  0  0
   10.3885   -4.4388   19.2773 C   0  0  0  0  0  0  0  0  0  0  0  0
    4.5160   -9.3822   15.0841 C   0  0  0  0  0  0  0  0  0  0  0  0
  1  3  4  0
  1 24  4  0
  2  6  4  0
  2 15  4  0
  3  5  4  0
  3  6  4  0
  4 21  4  0
  4 29  4  0
  5 15  4  0
  5 28  1  0
  6 16  4  0
  7 18  4  0
  7 26  4  0
  8 18  1  0
  8 19  4  0
  8 22  4  0
  9 12  4  0
  9 19  4  0
 10 12  4  0
 10 22  4  0
 11 20  4  0
 11 21  4  0
 12 23  1  0
 13 20  4  0
 13 29  4  0
 14 17  4  0
 14 28  4  0
 15 25  2  0
 16 27  4  0
 17 18  4  0
 20 27  1  0
 24 27  4  0
 26 28  4  0
M  END
$$$$

 Created by Python create_sdf_string function

 29 33  0  0  0  0  0  0  0  0999 V2000
    8.8270   -7.0288   18.4251 C   0  0  0  0  0  0  0  0  0  0  0  0
    9.1576   -4.6236   15.8860 O   0  0  0  0  0  0  0  0  0  0  0  0
    9.1509   -5.9108   17.7177 C   0  0  0  0  0  0  0  0  0  0  0  0
    3.6373   -9.5349   16.0582 N   0  0  0  0  0  0  0  0  0  0  0  0
    9.9275   -4.8001   18.0438 N   0  0  0  0  0  0  0  0  0  0  0  0
    8.5908   -5.7425   16.4412 C   0  0  0  0  0  0  0  0  0  0  0  0
   10.5993   -4.8981   21.6068 C   0  0  0  0  0  0  0  0  0  0  0  0
   10.4258   -3.0106   23.0998 C   0  0  0  0  0  0  0  0  0  0  0  0
   10.2148   -3.4364   25.4200 C   0  0  0  0  0  0  0  0  0  0  0  0
    9.7853   -1.1840   24.4927 C   0  0  0  0  0  0  0  0  0  0  0  0
    5.0276   -8.5227   17.5352 C   0  0  0  0  0  0  0  0  0  0  0  0
    9.8187   -2.0895   25.5800 C   0  0  0  0  0  0  0  0  0  0  0  0
    5.6473   -8.7216   15.3158 C   0  0  0  0  0  0  0  0  0  0  0  0
   10.7581   -3.1233   19.4720 N   0  0  0  0  0  0  0  0  0  0  0  0
    9.9571   -4.0573   16.8866 C   0  0  0  0  0  0  0  0  0  0  0  0
    7.6213   -6.5618   16.0087 C   0  0  0  0  0  0  0  0  0  0  0  0
   10.8583   -2.6527   20.7222 C   0  0  0  0  0  0  0  0  0  0  0  0
   10.6412   -3.5089   21.7936 C   0  0  0  0  0  0  0  0  0  0  0  0
   10.4972   -3.8968   24.1589 C   0  0  0  0  0  0  0  0  0  0  0  0
    5.9260   -8.2736   16.5517 C   0  0  0  0  0  0  0  0  0  0  0  0
    3.8816   -9.1166   17.2493 C   0  0  0  0  0  0  0  0  0  0  0  0
   10.1297   -1.6575   23.2324 C   0  0  0  0  0  0  0  0  0  0  0  0
    9.4684   -1.6929   26.7263 F   0  0  0  0  0  0  0  0  0  0  0  0
    7.7963   -7.7906   17.9837 C   0  0  0  0  0  0  0  0  0  0  0  0
   10.5884   -3.0725   16.7902 O   0  0  0  0  0  0  0  0  0  0  0  0
   10.4323   -5.3494   20.3516 C   0  0  0  0  0  0  0  0  0  0  0  0
    7.1156   -7.5454   16.8218 C   0  0  0  0  0  0  0  0  0  0  0  0
   10.3885   -4.4388   19.2773 C   0  0  0  0  0  0  0  0  0  0  0  0
    4.5160   -9.3822   15.0841 C   0  0  0  0  0  0  0  0  0  0  0  0
  1  3  4  0
  1 24  4  0
  2  6  4  0
  2 15  4  0
  3  5  4  0
  3  6  4  0
  4 21  4  0
  4 29  4  0
  5 15  4  0
  5 28  1  0
  6 16  4  0
  7 18  4  0
  7 26  4  0
  8 18  1  0
  8 19  4  0
  8 22  4  0
  9 12  4  0
  9 19  4  0
 10 12  4  0
 10 22  4  0
 11 20  4  0
 11 21  4  0
 12 23  1  0
 13 20  4  0
 13 29  4  0
 14 17  4  0
 14 28  4  0
 15 25  2  0
 16 27  4  0
 17 18  4  0
 20 27  1  0
 24 27  4  0
 26 28  4  0
M  END
$$$$

 Created by Python create_sdf_string function

 29 33  0  0  0  0  0  0  0  0999 V2000
    8.8270   -7.0288   18.4251 C   0  0  0  0  0  0  0  0  0  0  0  0
    9.1576   -4.6236   15.8860 O   0  0  0  0  0  0  0  0  0  0  0  0
    9.1509   -5.9108   17.7177 C   0  0  0  0  0  0  0  0  0  0  0  0
    3.6373   -9.5349   16.0582 N   0  0  0  0  0  0  0  0  0  0  0  0
    9.9275   -4.8001   18.0438 N   0  0  0  0  0  0  0  0  0  0  0  0
    8.5908   -5.7425   16.4412 C   0  0  0  0  0  0  0  0  0  0  0  0
   10.5993   -4.8981   21.6068 C   0  0  0  0  0  0  0  0  0  0  0  0
   10.4258   -3.0106   23.0998 C   0  0  0  0  0  0  0  0  0  0  0  0
   10.2148   -3.4364   25.4200 C   0  0  0  0  0  0  0  0  0  0  0  0
    9.7853   -1.1840   24.4927 C   0  0  0  0  0  0  0  0  0  0  0  0
    5.0276   -8.5227   17.5352 C   0  0  0  0  0  0  0  0  0  0  0  0
    9.8187   -2.0895   25.5800 C   0  0  0  0  0  0  0  0  0  0  0  0
    5.6473   -8.7216   15.3158 C   0  0  0  0  0  0  0  0  0  0  0  0
   10.7581   -3.1233   19.4720 N   0  0  0  0  0  0  0  0  0  0  0  0
    9.9571   -4.0573   16.8866 C   0  0  0  0  0  0  0  0  0  0  0  0
    7.6213   -6.5618   16.0087 C   0  0  0  0  0  0  0  0  0  0  0  0
   10.8583   -2.6527   20.7222 C   0  0  0  0  0  0  0  0  0  0  0  0
   10.6412   -3.5089   21.7936 C   0  0  0  0  0  0  0  0  0  0  0  0
   10.4972   -3.8968   24.1589 C   0  0  0  0  0  0  0  0  0  0  0  0
    5.9260   -8.2736   16.5517 C   0  0  0  0  0  0  0  0  0  0  0  0
    3.8816   -9.1166   17.2493 C   0  0  0  0  0  0  0  0  0  0  0  0
   10.1297   -1.6575   23.2324 C   0  0  0  0  0  0  0  0  0  0  0  0
    9.4684   -1.6929   26.7263 F   0  0  0  0  0  0  0  0  0  0  0  0
    7.7963   -7.7906   17.9837 C   0  0  0  0  0  0  0  0  0  0  0  0
   10.5884   -3.0725   16.7902 O   0  0  0  0  0  0  0  0  0  0  0  0
   10.4323   -5.3494   20.3516 C   0  0  0  0  0  0  0  0  0  0  0  0
    7.1156   -7.5454   16.8218 C   0  0  0  0  0  0  0  0  0  0  0  0
   10.3885   -4.4388   19.2773 C   0  0  0  0  0  0  0  0  0  0  0  0
    4.5160   -9.3822   15.0841 C   0  0  0  0  0  0  0  0  0  0  0  0
  1  3  4  0
  1 24  4  0
  2  6  4  0
  2 15  4  0
  3  5  4  0
  3  6  4  0
  4 21  4  0
  4 29  4  0
  5 15  4  0
  5 28  1  0
  6 16  4  0
  7 18  4  0
  7 26  4  0
  8 18  1  0
  8 19  4  0
  8 22  4  0
  9 12  4  0
  9 19  4  0
 10 12  4  0
 10 22  4  0
 11 20  4  0
 11 21  4  0
 12 23  1  0
 13 20  4  0
 13 29  4  0
 14 17  4  0
 14 28  4  0
 15 25  2  0
 16 27  4  0
 17 18  4  0
 20 27  1  0
 24 27  4  0
 26 28  4  0
M  END
$$$$

 Created by Python create_sdf_string function

 29 33  0  0  0  0  0  0  0  0999 V2000
    8.8270   -7.0288   18.4251 C   0  0  0  0  0  0  0  0  0  0  0  0
    9.1576   -4.6236   15.8860 O   0  0  0  0  0  0  0  0  0  0  0  0
    9.1509   -5.9108   17.7177 C   0  0  0  0  0  0  0  0  0  0  0  0
    3.6373   -9.5349   16.0582 N   0  0  0  0  0  0  0  0  0  0  0  0
    9.9275   -4.8001   18.0438 N   0  0  0  0  0  0  0  0  0  0  0  0
    8.5908   -5.7425   16.4412 C   0  0  0  0  0  0  0  0  0  0  0  0
   10.5993   -4.8981   21.6068 C   0  0  0  0  0  0  0  0  0  0  0  0
   10.4258   -3.0106   23.0998 C   0  0  0  0  0  0  0  0  0  0  0  0
   10.2148   -3.4364   25.4200 C   0  0  0  0  0  0  0  0  0  0  0  0
    9.7853   -1.1840   24.4927 C   0  0  0  0  0  0  0  0  0  0  0  0
    5.0276   -8.5227   17.5352 C   0  0  0  0  0  0  0  0  0  0  0  0
    9.8187   -2.0895   25.5800 C   0  0  0  0  0  0  0  0  0  0  0  0
    5.6473   -8.7216   15.3158 C   0  0  0  0  0  0  0  0  0  0  0  0
   10.7581   -3.1233   19.4720 N   0  0  0  0  0  0  0  0  0  0  0  0
    9.9571   -4.0573   16.8866 C   0  0  0  0  0  0  0  0  0  0  0  0
    7.6213   -6.5618   16.0087 C   0  0  0  0  0  0  0  0  0  0  0  0
   10.8583   -2.6527   20.7222 C   0  0  0  0  0  0  0  0  0  0  0  0
   10.6412   -3.5089   21.7936 C   0  0  0  0  0  0  0  0  0  0  0  0
   10.4972   -3.8968   24.1589 C   0  0  0  0  0  0  0  0  0  0  0  0
    5.9260   -8.2736   16.5517 C   0  0  0  0  0  0  0  0  0  0  0  0
    3.8816   -9.1166   17.2493 C   0  0  0  0  0  0  0  0  0  0  0  0
   10.1297   -1.6575   23.2324 C   0  0  0  0  0  0  0  0  0  0  0  0
    9.4684   -1.6929   26.7263 F   0  0  0  0  0  0  0  0  0  0  0  0
    7.7963   -7.7906   17.9837 C   0  0  0  0  0  0  0  0  0  0  0  0
   10.5884   -3.0725   16.7902 O   0  0  0  0  0  0  0  0  0  0  0  0
   10.4323   -5.3494   20.3516 C   0  0  0  0  0  0  0  0  0  0  0  0
    7.1156   -7.5454   16.8218 C   0  0  0  0  0  0  0  0  0  0  0  0
   10.3885   -4.4388   19.2773 C   0  0  0  0  0  0  0  0  0  0  0  0
    4.5160   -9.3822   15.0841 C   0  0  0  0  0  0  0  0  0  0  0  0
  1  3  4  0
  1 24  4  0
  2  6  4  0
  2 15  4  0
  3  5  4  0
  3  6  4  0
  4 21  4  0
  4 29  4  0
  5 15  4  0
  5 28  1  0
  6 16  4  0
  7 18  4  0
  7 26  4  0
  8 18  1  0
  8 19  4  0
  8 22  4  0
  9 12  4  0
  9 19  4  0
 10 12  4  0
 10 22  4  0
 11 20  4  0
 11 21  4  0
 12 23  1  0
 13 20  4  0
 13 29  4  0
 14 17  4  0
 14 28  4  0
 15 25  2  0
 16 27  4  0
 17 18  4  0
 20 27  1  0
 24 27  4  0
 26 28  4  0
M  END
$$$$

 Created by Python create_sdf_string function

 29 33  0  0  0  0  0  0  0  0999 V2000
    8.8270   -7.0288   18.4251 C   0  0  0  0  0  0  0  0  0  0  0  0
    9.1576   -4.6236   15.8860 O   0  0  0  0  0  0  0  0  0  0  0  0
    9.1509   -5.9108   17.7177 C   0  0  0  0  0  0  0  0  0  0  0  0
    3.6373   -9.5349   16.0582 N   0  0  0  0  0  0  0  0  0  0  0  0
    9.9275   -4.8001   18.0438 N   0  0  0  0  0  0  0  0  0  0  0  0
    8.5908   -5.7425   16.4412 C   0  0  0  0  0  0  0  0  0  0  0  0
   10.5993   -4.8981   21.6068 C   0  0  0  0  0  0  0  0  0  0  0  0
   10.4258   -3.0106   23.0998 C   0  0  0  0  0  0  0  0  0  0  0  0
   10.2148   -3.4364   25.4200 C   0  0  0  0  0  0  0  0  0  0  0  0
    9.7853   -1.1840   24.4927 C   0  0  0  0  0  0  0  0  0  0  0  0
    5.0276   -8.5227   17.5352 C   0  0  0  0  0  0  0  0  0  0  0  0
    9.8187   -2.0895   25.5800 C   0  0  0  0  0  0  0  0  0  0  0  0
    5.6473   -8.7216   15.3158 C   0  0  0  0  0  0  0  0  0  0  0  0
   10.7581   -3.1233   19.4720 N   0  0  0  0  0  0  0  0  0  0  0  0
    9.9571   -4.0573   16.8866 C   0  0  0  0  0  0  0  0  0  0  0  0
    7.6213   -6.5618   16.0087 C   0  0  0  0  0  0  0  0  0  0  0  0
   10.8583   -2.6527   20.7222 C   0  0  0  0  0  0  0  0  0  0  0  0
   10.6412   -3.5089   21.7936 C   0  0  0  0  0  0  0  0  0  0  0  0
   10.4972   -3.8968   24.1589 C   0  0  0  0  0  0  0  0  0  0  0  0
    5.9260   -8.2736   16.5517 C   0  0  0  0  0  0  0  0  0  0  0  0
    3.8816   -9.1166   17.2493 C   0  0  0  0  0  0  0  0  0  0  0  0
   10.1297   -1.6575   23.2324 C   0  0  0  0  0  0  0  0  0  0  0  0
    9.4684   -1.6929   26.7263 F   0  0  0  0  0  0  0  0  0  0  0  0
    7.7963   -7.7906   17.9837 C   0  0  0  0  0  0  0  0  0  0  0  0
   10.5884   -3.0725   16.7902 O   0  0  0  0  0  0  0  0  0  0  0  0
   10.4323   -5.3494   20.3516 C   0  0  0  0  0  0  0  0  0  0  0  0
    7.1156   -7.5454   16.8218 C   0  0  0  0  0  0  0  0  0  0  0  0
   10.3885   -4.4388   19.2773 C   0  0  0  0  0  0  0  0  0  0  0  0
    4.5160   -9.3822   15.0841 C   0  0  0  0  0  0  0  0  0  0  0  0
  1  3  4  0
  1 24  4  0
  2  6  4  0
  2 15  4  0
  3  5  4  0
  3  6  4  0
  4 21  4  0
  4 29  4  0
  5 15  4  0
  5 28  1  0
  6 16  4  0
  7 18  4  0
  7 26  4  0
  8 18  1  0
  8 19  4  0
  8 22  4  0
  9 12  4  0
  9 19  4  0
 10 12  4  0
 10 22  4  0
 11 20  4  0
 11 21  4  0
 12 23  1  0
 13 20  4  0
 13 29  4  0
 14 17  4  0
 14 28  4  0
 15 25  2  0
 16 27  4  0
 17 18  4  0
 20 27  1  0
 24 27  4  0
 26 28  4  0
M  END
$$$$

 Created by Python create_sdf_string function

 29 33  0  0  0  0  0  0  0  0999 V2000
    8.8270   -7.0288   18.4251 C   0  0  0  0  0  0  0  0  0  0  0  0
    9.1576   -4.6236   15.8860 O   0  0  0  0  0  0  0  0  0  0  0  0
    9.1509   -5.9108   17.7177 C   0  0  0  0  0  0  0  0  0  0  0  0
    3.6373   -9.5349   16.0582 N   0  0  0  0  0  0  0  0  0  0  0  0
    9.9275   -4.8001   18.0438 N   0  0  0  0  0  0  0  0  0  0  0  0
    8.5908   -5.7425   16.4412 C   0  0  0  0  0  0  0  0  0  0  0  0
   10.5993   -4.8981   21.6068 C   0  0  0  0  0  0  0  0  0  0  0  0
   10.4258   -3.0106   23.0998 C   0  0  0  0  0  0  0  0  0  0  0  0
   10.2148   -3.4364   25.4200 C   0  0  0  0  0  0  0  0  0  0  0  0
    9.7853   -1.1840   24.4927 C   0  0  0  0  0  0  0  0  0  0  0  0
    5.0276   -8.5227   17.5352 C   0  0  0  0  0  0  0  0  0  0  0  0
    9.8187   -2.0895   25.5800 C   0  0  0  0  0  0  0  0  0  0  0  0
    5.6473   -8.7216   15.3158 C   0  0  0  0  0  0  0  0  0  0  0  0
   10.7581   -3.1233   19.4720 N   0  0  0  0  0  0  0  0  0  0  0  0
    9.9571   -4.0573   16.8866 C   0  0  0  0  0  0  0  0  0  0  0  0
    7.6213   -6.5618   16.0087 C   0  0  0  0  0  0  0  0  0  0  0  0
   10.8583   -2.6527   20.7222 C   0  0  0  0  0  0  0  0  0  0  0  0
   10.6412   -3.5089   21.7936 C   0  0  0  0  0  0  0  0  0  0  0  0
   10.4972   -3.8968   24.1589 C   0  0  0  0  0  0  0  0  0  0  0  0
    5.9260   -8.2736   16.5517 C   0  0  0  0  0  0  0  0  0  0  0  0
    3.8816   -9.1166   17.2493 C   0  0  0  0  0  0  0  0  0  0  0  0
   10.1297   -1.6575   23.2324 C   0  0  0  0  0  0  0  0  0  0  0  0
    9.4684   -1.6929   26.7263 F   0  0  0  0  0  0  0  0  0  0  0  0
    7.7963   -7.7906   17.9837 C   0  0  0  0  0  0  0  0  0  0  0  0
   10.5884   -3.0725   16.7902 O   0  0  0  0  0  0  0  0  0  0  0  0
   10.4323   -5.3494   20.3516 C   0  0  0  0  0  0  0  0  0  0  0  0
    7.1156   -7.5454   16.8218 C   0  0  0  0  0  0  0  0  0  0  0  0
   10.3885   -4.4388   19.2773 C   0  0  0  0  0  0  0  0  0  0  0  0
    4.5160   -9.3822   15.0841 C   0  0  0  0  0  0  0  0  0  0  0  0
  1  3  4  0
  1 24  4  0
  2  6  4  0
  2 15  4  0
  3  5  4  0
  3  6  4  0
  4 21  4  0
  4 29  4  0
  5 15  4  0
  5 28  1  0
  6 16  4  0
  7 18  4  0
  7 26  4  0
  8 18  1  0
  8 19  4  0
  8 22  4  0
  9 12  4  0
  9 19  4  0
 10 12  4  0
 10 22  4  0
 11 20  4  0
 11 21  4  0
 12 23  1  0
 13 20  4  0
 13 29  4  0
 14 17  4  0
 14 28  4  0
 15 25  2  0
 16 27  4  0
 17 18  4  0
 20 27  1  0
 24 27  4  0
 26 28  4  0
M  END
$$$$

 Created by Python create_sdf_string function

 29 33  0  0  0  0  0  0  0  0999 V2000
    8.8270   -7.0288   18.4251 C   0  0  0  0  0  0  0  0  0  0  0  0
    9.1576   -4.6236   15.8860 O   0  0  0  0  0  0  0  0  0  0  0  0
    9.1509   -5.9108   17.7177 C   0  0  0  0  0  0  0  0  0  0  0  0
    3.6373   -9.5349   16.0582 N   0  0  0  0  0  0  0  0  0  0  0  0
    9.9275   -4.8001   18.0438 N   0  0  0  0  0  0  0  0  0  0  0  0
    8.5908   -5.7425   16.4412 C   0  0  0  0  0  0  0  0  0  0  0  0
   10.5993   -4.8981   21.6068 C   0  0  0  0  0  0  0  0  0  0  0  0
   10.4258   -3.0106   23.0998 C   0  0  0  0  0  0  0  0  0  0  0  0
   10.2148   -3.4364   25.4200 C   0  0  0  0  0  0  0  0  0  0  0  0
    9.7853   -1.1840   24.4927 C   0  0  0  0  0  0  0  0  0  0  0  0
    5.0276   -8.5227   17.5352 C   0  0  0  0  0  0  0  0  0  0  0  0
    9.8187   -2.0895   25.5800 C   0  0  0  0  0  0  0  0  0  0  0  0
    5.6473   -8.7216   15.3158 C   0  0  0  0  0  0  0  0  0  0  0  0
   10.7581   -3.1233   19.4720 N   0  0  0  0  0  0  0  0  0  0  0  0
    9.9571   -4.0573   16.8866 C   0  0  0  0  0  0  0  0  0  0  0  0
    7.6213   -6.5618   16.0087 C   0  0  0  0  0  0  0  0  0  0  0  0
   10.8583   -2.6527   20.7222 C   0  0  0  0  0  0  0  0  0  0  0  0
   10.6412   -3.5089   21.7936 C   0  0  0  0  0  0  0  0  0  0  0  0
   10.4972   -3.8968   24.1589 C   0  0  0  0  0  0  0  0  0  0  0  0
    5.9260   -8.2736   16.5517 C   0  0  0  0  0  0  0  0  0  0  0  0
    3.8816   -9.1166   17.2493 C   0  0  0  0  0  0  0  0  0  0  0  0
   10.1297   -1.6575   23.2324 C   0  0  0  0  0  0  0  0  0  0  0  0
    9.4684   -1.6929   26.7263 F   0  0  0  0  0  0  0  0  0  0  0  0
    7.7963   -7.7906   17.9837 C   0  0  0  0  0  0  0  0  0  0  0  0
   10.5884   -3.0725   16.7902 O   0  0  0  0  0  0  0  0  0  0  0  0
   10.4323   -5.3494   20.3516 C   0  0  0  0  0  0  0  0  0  0  0  0
    7.1156   -7.5454   16.8218 C   0  0  0  0  0  0  0  0  0  0  0  0
   10.3885   -4.4388   19.2773 C   0  0  0  0  0  0  0  0  0  0  0  0
    4.5160   -9.3822   15.0841 C   0  0  0  0  0  0  0  0  0  0  0  0
  1  3  4  0
  1 24  4  0
  2  6  4  0
  2 15  4  0
  3  5  4  0
  3  6  4  0
  4 21  4  0
  4 29  4  0
  5 15  4  0
  5 28  1  0
  6 16  4  0
  7 18  4  0
  7 26  4  0
  8 18  1  0
  8 19  4  0
  8 22  4  0
  9 12  4  0
  9 19  4  0
 10 12  4  0
 10 22  4  0
 11 20  4  0
 11 21  4  0
 12 23  1  0
 13 20  4  0
 13 29  4  0
 14 17  4  0
 14 28  4  0
 15 25  2  0
 16 27  4  0
 17 18  4  0
 20 27  1  0
 24 27  4  0
 26 28  4  0
M  END
$$$$

 Created by Python create_sdf_string function

 29 33  0  0  0  0  0  0  0  0999 V2000
    8.8270   -7.0288   18.4251 C   0  0  0  0  0  0  0  0  0  0  0  0
    9.1576   -4.6236   15.8860 O   0  0  0  0  0  0  0  0  0  0  0  0
    9.1509   -5.9108   17.7177 C   0  0  0  0  0  0  0  0  0  0  0  0
    3.6373   -9.5349   16.0582 N   0  0  0  0  0  0  0  0  0  0  0  0
    9.9275   -4.8001   18.0438 N   0  0  0  0  0  0  0  0  0  0  0  0
    8.5908   -5.7425   16.4412 C   0  0  0  0  0  0  0  0  0  0  0  0
   10.5993   -4.8981   21.6068 C   0  0  0  0  0  0  0  0  0  0  0  0
   10.4258   -3.0106   23.0998 C   0  0  0  0  0  0  0  0  0  0  0  0
   10.2148   -3.4364   25.4200 C   0  0  0  0  0  0  0  0  0  0  0  0
    9.7853   -1.1840   24.4927 C   0  0  0  0  0  0  0  0  0  0  0  0
    5.0276   -8.5227   17.5352 C   0  0  0  0  0  0  0  0  0  0  0  0
    9.8187   -2.0895   25.5800 C   0  0  0  0  0  0  0  0  0  0  0  0
    5.6473   -8.7216   15.3158 C   0  0  0  0  0  0  0  0  0  0  0  0
   10.7581   -3.1233   19.4720 N   0  0  0  0  0  0  0  0  0  0  0  0
    9.9571   -4.0573   16.8866 C   0  0  0  0  0  0  0  0  0  0  0  0
    7.6213   -6.5618   16.0087 C   0  0  0  0  0  0  0  0  0  0  0  0
   10.8583   -2.6527   20.7222 C   0  0  0  0  0  0  0  0  0  0  0  0
   10.6412   -3.5089   21.7936 C   0  0  0  0  0  0  0  0  0  0  0  0
   10.4972   -3.8968   24.1589 C   0  0  0  0  0  0  0  0  0  0  0  0
    5.9260   -8.2736   16.5517 C   0  0  0  0  0  0  0  0  0  0  0  0
    3.8816   -9.1166   17.2493 C   0  0  0  0  0  0  0  0  0  0  0  0
   10.1297   -1.6575   23.2324 C   0  0  0  0  0  0  0  0  0  0  0  0
    9.4684   -1.6929   26.7263 F   0  0  0  0  0  0  0  0  0  0  0  0
    7.7963   -7.7906   17.9837 C   0  0  0  0  0  0  0  0  0  0  0  0
   10.5884   -3.0725   16.7902 O   0  0  0  0  0  0  0  0  0  0  0  0
   10.4323   -5.3494   20.3516 C   0  0  0  0  0  0  0  0  0  0  0  0
    7.1156   -7.5454   16.8218 C   0  0  0  0  0  0  0  0  0  0  0  0
   10.3885   -4.4388   19.2773 C   0  0  0  0  0  0  0  0  0  0  0  0
    4.5160   -9.3822   15.0841 C   0  0  0  0  0  0  0  0  0  0  0  0
  1  3  4  0
  1 24  4  0
  2  6  4  0
  2 15  4  0
  3  5  4  0
  3  6  4  0
  4 21  4  0
  4 29  4  0
  5 15  4  0
  5 28  1  0
  6 16  4  0
  7 18  4  0
  7 26  4  0
  8 18  1  0
  8 19  4  0
  8 22  4  0
  9 12  4  0
  9 19  4  0
 10 12  4  0
 10 22  4  0
 11 20  4  0
 11 21  4  0
 12 23  1  0
 13 20  4  0
 13 29  4  0
 14 17  4  0
 14 28  4  0
 15 25  2  0
 16 27  4  0
 17 18  4  0
 20 27  1  0
 24 27  4  0
 26 28  4  0
M  END
$$$$

 Created by Python create_sdf_string function

 29 33  0  0  0  0  0  0  0  0999 V2000
    8.8270   -7.0288   18.4251 C   0  0  0  0  0  0  0  0  0  0  0  0
    9.1576   -4.6236   15.8860 O   0  0  0  0  0  0  0  0  0  0  0  0
    9.1509   -5.9108   17.7177 C   0  0  0  0  0  0  0  0  0  0  0  0
    3.6373   -9.5349   16.0582 N   0  0  0  0  0  0  0  0  0  0  0  0
    9.9275   -4.8001   18.0438 N   0  0  0  0  0  0  0  0  0  0  0  0
    8.5908   -5.7425   16.4412 C   0  0  0  0  0  0  0  0  0  0  0  0
   10.5993   -4.8981   21.6068 C   0  0  0  0  0  0  0  0  0  0  0  0
   10.4258   -3.0106   23.0998 C   0  0  0  0  0  0  0  0  0  0  0  0
   10.2148   -3.4364   25.4200 C   0  0  0  0  0  0  0  0  0  0  0  0
    9.7853   -1.1840   24.4927 C   0  0  0  0  0  0  0  0  0  0  0  0
    5.0276   -8.5227   17.5352 C   0  0  0  0  0  0  0  0  0  0  0  0
    9.8187   -2.0895   25.5800 C   0  0  0  0  0  0  0  0  0  0  0  0
    5.6473   -8.7216   15.3158 C   0  0  0  0  0  0  0  0  0  0  0  0
   10.7581   -3.1233   19.4720 N   0  0  0  0  0  0  0  0  0  0  0  0
    9.9571   -4.0573   16.8866 C   0  0  0  0  0  0  0  0  0  0  0  0
    7.6213   -6.5618   16.0087 C   0  0  0  0  0  0  0  0  0  0  0  0
   10.8583   -2.6527   20.7222 C   0  0  0  0  0  0  0  0  0  0  0  0
   10.6412   -3.5089   21.7936 C   0  0  0  0  0  0  0  0  0  0  0  0
   10.4972   -3.8968   24.1589 C   0  0  0  0  0  0  0  0  0  0  0  0
    5.9260   -8.2736   16.5517 C   0  0  0  0  0  0  0  0  0  0  0  0
    3.8816   -9.1166   17.2493 C   0  0  0  0  0  0  0  0  0  0  0  0
   10.1297   -1.6575   23.2324 C   0  0  0  0  0  0  0  0  0  0  0  0
    9.4684   -1.6929   26.7263 F   0  0  0  0  0  0  0  0  0  0  0  0
    7.7963   -7.7906   17.9837 C   0  0  0  0  0  0  0  0  0  0  0  0
   10.5884   -3.0725   16.7902 O   0  0  0  0  0  0  0  0  0  0  0  0
   10.4323   -5.3494   20.3516 C   0  0  0  0  0  0  0  0  0  0  0  0
    7.1156   -7.5454   16.8218 C   0  0  0  0  0  0  0  0  0  0  0  0
   10.3885   -4.4388   19.2773 C   0  0  0  0  0  0  0  0  0  0  0  0
    4.5160   -9.3822   15.0841 C   0  0  0  0  0  0  0  0  0  0  0  0
  1  3  4  0
  1 24  4  0
  2  6  4  0
  2 15  4  0
  3  5  4  0
  3  6  4  0
  4 21  4  0
  4 29  4  0
  5 15  4  0
  5 28  1  0
  6 16  4  0
  7 18  4  0
  7 26  4  0
  8 18  1  0
  8 19  4  0
  8 22  4  0
  9 12  4  0
  9 19  4  0
 10 12  4  0
 10 22  4  0
 11 20  4  0
 11 21  4  0
 12 23  1  0
 13 20  4  0
 13 29  4  0
 14 17  4  0
 14 28  4  0
 15 25  2  0
 16 27  4  0
 17 18  4  0
 20 27  1  0
 24 27  4  0
 26 28  4  0
M  END
$$$$

 Created by Python create_sdf_string function

 29 33  0  0  0  0  0  0  0  0999 V2000
    8.8270   -7.0288   18.4251 C   0  0  0  0  0  0  0  0  0  0  0  0
    9.1576   -4.6236   15.8860 O   0  0  0  0  0  0  0  0  0  0  0  0
    9.1509   -5.9108   17.7177 C   0  0  0  0  0  0  0  0  0  0  0  0
    3.6373   -9.5349   16.0582 N   0  0  0  0  0  0  0  0  0  0  0  0
    9.9275   -4.8001   18.0438 N   0  0  0  0  0  0  0  0  0  0  0  0
    8.5908   -5.7425   16.4412 C   0  0  0  0  0  0  0  0  0  0  0  0
   10.5993   -4.8981   21.6068 C   0  0  0  0  0  0  0  0  0  0  0  0
   10.4258   -3.0106   23.0998 C   0  0  0  0  0  0  0  0  0  0  0  0
   10.2148   -3.4364   25.4200 C   0  0  0  0  0  0  0  0  0  0  0  0
    9.7853   -1.1840   24.4927 C   0  0  0  0  0  0  0  0  0  0  0  0
    5.0276   -8.5227   17.5352 C   0  0  0  0  0  0  0  0  0  0  0  0
    9.8187   -2.0895   25.5800 C   0  0  0  0  0  0  0  0  0  0  0  0
    5.6473   -8.7216   15.3158 C   0  0  0  0  0  0  0  0  0  0  0  0
   10.7581   -3.1233   19.4720 N   0  0  0  0  0  0  0  0  0  0  0  0
    9.9571   -4.0573   16.8866 C   0  0  0  0  0  0  0  0  0  0  0  0
    7.6213   -6.5618   16.0087 C   0  0  0  0  0  0  0  0  0  0  0  0
   10.8583   -2.6527   20.7222 C   0  0  0  0  0  0  0  0  0  0  0  0
   10.6412   -3.5089   21.7936 C   0  0  0  0  0  0  0  0  0  0  0  0
   10.4972   -3.8968   24.1589 C   0  0  0  0  0  0  0  0  0  0  0  0
    5.9260   -8.2736   16.5517 C   0  0  0  0  0  0  0  0  0  0  0  0
    3.8816   -9.1166   17.2493 C   0  0  0  0  0  0  0  0  0  0  0  0
   10.1297   -1.6575   23.2324 C   0  0  0  0  0  0  0  0  0  0  0  0
    9.4684   -1.6929   26.7263 F   0  0  0  0  0  0  0  0  0  0  0  0
    7.7963   -7.7906   17.9837 C   0  0  0  0  0  0  0  0  0  0  0  0
   10.5884   -3.0725   16.7902 O   0  0  0  0  0  0  0  0  0  0  0  0
   10.4323   -5.3494   20.3516 C   0  0  0  0  0  0  0  0  0  0  0  0
    7.1156   -7.5454   16.8218 C   0  0  0  0  0  0  0  0  0  0  0  0
   10.3885   -4.4388   19.2773 C   0  0  0  0  0  0  0  0  0  0  0  0
    4.5160   -9.3822   15.0841 C   0  0  0  0  0  0  0  0  0  0  0  0
  1  3  4  0
  1 24  4  0
  2  6  4  0
  2 15  4  0
  3  5  4  0
  3  6  4  0
  4 21  4  0
  4 29  4  0
  5 15  4  0
  5 28  1  0
  6 16  4  0
  7 18  4  0
  7 26  4  0
  8 18  1  0
  8 19  4  0
  8 22  4  0
  9 12  4  0
  9 19  4  0
 10 12  4  0
 10 22  4  0
 11 20  4  0
 11 21  4  0
 12 23  1  0
 13 20  4  0
 13 29  4  0
 14 17  4  0
 14 28  4  0
 15 25  2  0
 16 27  4  0
 17 18  4  0
 20 27  1  0
 24 27  4  0
 26 28  4  0
M  END
$$$$

 Created by Python create_sdf_string function

 29 33  0  0  0  0  0  0  0  0999 V2000
    8.8270   -7.0288   18.4251 C   0  0  0  0  0  0  0  0  0  0  0  0
    9.1576   -4.6236   15.8860 O   0  0  0  0  0  0  0  0  0  0  0  0
    9.1509   -5.9108   17.7177 C   0  0  0  0  0  0  0  0  0  0  0  0
    3.6373   -9.5349   16.0582 N   0  0  0  0  0  0  0  0  0  0  0  0
    9.9275   -4.8001   18.0438 N   0  0  0  0  0  0  0  0  0  0  0  0
    8.5908   -5.7425   16.4412 C   0  0  0  0  0  0  0  0  0  0  0  0
   10.5993   -4.8981   21.6068 C   0  0  0  0  0  0  0  0  0  0  0  0
   10.4258   -3.0106   23.0998 C   0  0  0  0  0  0  0  0  0  0  0  0
   10.2148   -3.4364   25.4200 C   0  0  0  0  0  0  0  0  0  0  0  0
    9.7853   -1.1840   24.4927 C   0  0  0  0  0  0  0  0  0  0  0  0
    5.0276   -8.5227   17.5352 C   0  0  0  0  0  0  0  0  0  0  0  0
    9.8187   -2.0895   25.5800 C   0  0  0  0  0  0  0  0  0  0  0  0
    5.6473   -8.7216   15.3158 C   0  0  0  0  0  0  0  0  0  0  0  0
   10.7581   -3.1233   19.4720 N   0  0  0  0  0  0  0  0  0  0  0  0
    9.9571   -4.0573   16.8866 C   0  0  0  0  0  0  0  0  0  0  0  0
    7.6213   -6.5618   16.0087 C   0  0  0  0  0  0  0  0  0  0  0  0
   10.8583   -2.6527   20.7222 C   0  0  0  0  0  0  0  0  0  0  0  0
   10.6412   -3.5089   21.7936 C   0  0  0  0  0  0  0  0  0  0  0  0
   10.4972   -3.8968   24.1589 C   0  0  0  0  0  0  0  0  0  0  0  0
    5.9260   -8.2736   16.5517 C   0  0  0  0  0  0  0  0  0  0  0  0
    3.8816   -9.1166   17.2493 C   0  0  0  0  0  0  0  0  0  0  0  0
   10.1297   -1.6575   23.2324 C   0  0  0  0  0  0  0  0  0  0  0  0
    9.4684   -1.6929   26.7263 F   0  0  0  0  0  0  0  0  0  0  0  0
    7.7963   -7.7906   17.9837 C   0  0  0  0  0  0  0  0  0  0  0  0
   10.5884   -3.0725   16.7902 O   0  0  0  0  0  0  0  0  0  0  0  0
   10.4323   -5.3494   20.3516 C   0  0  0  0  0  0  0  0  0  0  0  0
    7.1156   -7.5454   16.8218 C   0  0  0  0  0  0  0  0  0  0  0  0
   10.3885   -4.4388   19.2773 C   0  0  0  0  0  0  0  0  0  0  0  0
    4.5160   -9.3822   15.0841 C   0  0  0  0  0  0  0  0  0  0  0  0
  1  3  4  0
  1 24  4  0
  2  6  4  0
  2 15  4  0
  3  5  4  0
  3  6  4  0
  4 21  4  0
  4 29  4  0
  5 15  4  0
  5 28  1  0
  6 16  4  0
  7 18  4  0
  7 26  4  0
  8 18  1  0
  8 19  4  0
  8 22  4  0
  9 12  4  0
  9 19  4  0
 10 12  4  0
 10 22  4  0
 11 20  4  0
 11 21  4  0
 12 23  1  0
 13 20  4  0
 13 29  4  0
 14 17  4  0
 14 28  4  0
 15 25  2  0
 16 27  4  0
 17 18  4  0
 20 27  1  0
 24 27  4  0
 26 28  4  0
M  END
$$$$

 Created by Python create_sdf_string function

 29 33  0  0  0  0  0  0  0  0999 V2000
    8.8270   -7.0288   18.4251 C   0  0  0  0  0  0  0  0  0  0  0  0
    9.1576   -4.6236   15.8860 O   0  0  0  0  0  0  0  0  0  0  0  0
    9.1509   -5.9108   17.7177 C   0  0  0  0  0  0  0  0  0  0  0  0
    3.6373   -9.5349   16.0582 N   0  0  0  0  0  0  0  0  0  0  0  0
    9.9275   -4.8001   18.0438 N   0  0  0  0  0  0  0  0  0  0  0  0
    8.5908   -5.7425   16.4412 C   0  0  0  0  0  0  0  0  0  0  0  0
   10.5993   -4.8981   21.6068 C   0  0  0  0  0  0  0  0  0  0  0  0
   10.4258   -3.0106   23.0998 C   0  0  0  0  0  0  0  0  0  0  0  0
   10.2148   -3.4364   25.4200 C   0  0  0  0  0  0  0  0  0  0  0  0
    9.7853   -1.1840   24.4927 C   0  0  0  0  0  0  0  0  0  0  0  0
    5.0276   -8.5227   17.5352 C   0  0  0  0  0  0  0  0  0  0  0  0
    9.8187   -2.0895   25.5800 C   0  0  0  0  0  0  0  0  0  0  0  0
    5.6473   -8.7216   15.3158 C   0  0  0  0  0  0  0  0  0  0  0  0
   10.7581   -3.1233   19.4720 N   0  0  0  0  0  0  0  0  0  0  0  0
    9.9571   -4.0573   16.8866 C   0  0  0  0  0  0  0  0  0  0  0  0
    7.6213   -6.5618   16.0087 C   0  0  0  0  0  0  0  0  0  0  0  0
   10.8583   -2.6527   20.7222 C   0  0  0  0  0  0  0  0  0  0  0  0
   10.6412   -3.5089   21.7936 C   0  0  0  0  0  0  0  0  0  0  0  0
   10.4972   -3.8968   24.1589 C   0  0  0  0  0  0  0  0  0  0  0  0
    5.9260   -8.2736   16.5517 C   0  0  0  0  0  0  0  0  0  0  0  0
    3.8816   -9.1166   17.2493 C   0  0  0  0  0  0  0  0  0  0  0  0
   10.1297   -1.6575   23.2324 C   0  0  0  0  0  0  0  0  0  0  0  0
    9.4684   -1.6929   26.7263 F   0  0  0  0  0  0  0  0  0  0  0  0
    7.7963   -7.7906   17.9837 C   0  0  0  0  0  0  0  0  0  0  0  0
   10.5884   -3.0725   16.7902 O   0  0  0  0  0  0  0  0  0  0  0  0
   10.4323   -5.3494   20.3516 C   0  0  0  0  0  0  0  0  0  0  0  0
    7.1156   -7.5454   16.8218 C   0  0  0  0  0  0  0  0  0  0  0  0
   10.3885   -4.4388   19.2773 C   0  0  0  0  0  0  0  0  0  0  0  0
    4.5160   -9.3822   15.0841 C   0  0  0  0  0  0  0  0  0  0  0  0
  1  3  4  0
  1 24  4  0
  2  6  4  0
  2 15  4  0
  3  5  4  0
  3  6  4  0
  4 21  4  0
  4 29  4  0
  5 15  4  0
  5 28  1  0
  6 16  4  0
  7 18  4  0
  7 26  4  0
  8 18  1  0
  8 19  4  0
  8 22  4  0
  9 12  4  0
  9 19  4  0
 10 12  4  0
 10 22  4  0
 11 20  4  0
 11 21  4  0
 12 23  1  0
 13 20  4  0
 13 29  4  0
 14 17  4  0
 14 28  4  0
 15 25  2  0
 16 27  4  0
 17 18  4  0
 20 27  1  0
 24 27  4  0
 26 28  4  0
M  END
$$$$

 Created by Python create_sdf_string function

 29 33  0  0  0  0  0  0  0  0999 V2000
    8.8270   -7.0288   18.4251 C   0  0  0  0  0  0  0  0  0  0  0  0
    9.1576   -4.6236   15.8860 O   0  0  0  0  0  0  0  0  0  0  0  0
    9.1509   -5.9108   17.7177 C   0  0  0  0  0  0  0  0  0  0  0  0
    3.6373   -9.5349   16.0582 N   0  0  0  0  0  0  0  0  0  0  0  0
    9.9275   -4.8001   18.0438 N   0  0  0  0  0  0  0  0  0  0  0  0
    8.5908   -5.7425   16.4412 C   0  0  0  0  0  0  0  0  0  0  0  0
   10.5993   -4.8981   21.6068 C   0  0  0  0  0  0  0  0  0  0  0  0
   10.4258   -3.0106   23.0998 C   0  0  0  0  0  0  0  0  0  0  0  0
   10.2148   -3.4364   25.4200 C   0  0  0  0  0  0  0  0  0  0  0  0
    9.7853   -1.1840   24.4927 C   0  0  0  0  0  0  0  0  0  0  0  0
    5.0276   -8.5227   17.5352 C   0  0  0  0  0  0  0  0  0  0  0  0
    9.8187   -2.0895   25.5800 C   0  0  0  0  0  0  0  0  0  0  0  0
    5.6473   -8.7216   15.3158 C   0  0  0  0  0  0  0  0  0  0  0  0
   10.7581   -3.1233   19.4720 N   0  0  0  0  0  0  0  0  0  0  0  0
    9.9571   -4.0573   16.8866 C   0  0  0  0  0  0  0  0  0  0  0  0
    7.6213   -6.5618   16.0087 C   0  0  0  0  0  0  0  0  0  0  0  0
   10.8583   -2.6527   20.7222 C   0  0  0  0  0  0  0  0  0  0  0  0
   10.6412   -3.5089   21.7936 C   0  0  0  0  0  0  0  0  0  0  0  0
   10.4972   -3.8968   24.1589 C   0  0  0  0  0  0  0  0  0  0  0  0
    5.9260   -8.2736   16.5517 C   0  0  0  0  0  0  0  0  0  0  0  0
    3.8816   -9.1166   17.2493 C   0  0  0  0  0  0  0  0  0  0  0  0
   10.1297   -1.6575   23.2324 C   0  0  0  0  0  0  0  0  0  0  0  0
    9.4684   -1.6929   26.7263 F   0  0  0  0  0  0  0  0  0  0  0  0
    7.7963   -7.7906   17.9837 C   0  0  0  0  0  0  0  0  0  0  0  0
   10.5884   -3.0725   16.7902 O   0  0  0  0  0  0  0  0  0  0  0  0
   10.4323   -5.3494   20.3516 C   0  0  0  0  0  0  0  0  0  0  0  0
    7.1156   -7.5454   16.8218 C   0  0  0  0  0  0  0  0  0  0  0  0
   10.3885   -4.4388   19.2773 C   0  0  0  0  0  0  0  0  0  0  0  0
    4.5160   -9.3822   15.0841 C   0  0  0  0  0  0  0  0  0  0  0  0
  1  3  4  0
  1 24  4  0
  2  6  4  0
  2 15  4  0
  3  5  4  0
  3  6  4  0
  4 21  4  0
  4 29  4  0
  5 15  4  0
  5 28  1  0
  6 16  4  0
  7 18  4  0
  7 26  4  0
  8 18  1  0
  8 19  4  0
  8 22  4  0
  9 12  4  0
  9 19  4  0
 10 12  4  0
 10 22  4  0
 11 20  4  0
 11 21  4  0
 12 23  1  0
 13 20  4  0
 13 29  4  0
 14 17  4  0
 14 28  4  0
 15 25  2  0
 16 27  4  0
 17 18  4  0
 20 27  1  0
 24 27  4  0
 26 28  4  0
M  END
$$$$

 Created by Python create_sdf_string function

 29 33  0  0  0  0  0  0  0  0999 V2000
    8.8270   -7.0288   18.4251 C   0  0  0  0  0  0  0  0  0  0  0  0
    9.1576   -4.6236   15.8860 O   0  0  0  0  0  0  0  0  0  0  0  0
    9.1509   -5.9108   17.7177 C   0  0  0  0  0  0  0  0  0  0  0  0
    3.6373   -9.5349   16.0582 N   0  0  0  0  0  0  0  0  0  0  0  0
    9.9275   -4.8001   18.0438 N   0  0  0  0  0  0  0  0  0  0  0  0
    8.5908   -5.7425   16.4412 C   0  0  0  0  0  0  0  0  0  0  0  0
   10.5993   -4.8981   21.6068 C   0  0  0  0  0  0  0  0  0  0  0  0
   10.4258   -3.0106   23.0998 C   0  0  0  0  0  0  0  0  0  0  0  0
   10.2148   -3.4364   25.4200 C   0  0  0  0  0  0  0  0  0  0  0  0
    9.7853   -1.1840   24.4927 C   0  0  0  0  0  0  0  0  0  0  0  0
    5.0276   -8.5227   17.5352 C   0  0  0  0  0  0  0  0  0  0  0  0
    9.8187   -2.0895   25.5800 C   0  0  0  0  0  0  0  0  0  0  0  0
    5.6473   -8.7216   15.3158 C   0  0  0  0  0  0  0  0  0  0  0  0
   10.7581   -3.1233   19.4720 N   0  0  0  0  0  0  0  0  0  0  0  0
    9.9571   -4.0573   16.8866 C   0  0  0  0  0  0  0  0  0  0  0  0
    7.6213   -6.5618   16.0087 C   0  0  0  0  0  0  0  0  0  0  0  0
   10.8583   -2.6527   20.7222 C   0  0  0  0  0  0  0  0  0  0  0  0
   10.6412   -3.5089   21.7936 C   0  0  0  0  0  0  0  0  0  0  0  0
   10.4972   -3.8968   24.1589 C   0  0  0  0  0  0  0  0  0  0  0  0
    5.9260   -8.2736   16.5517 C   0  0  0  0  0  0  0  0  0  0  0  0
    3.8816   -9.1166   17.2493 C   0  0  0  0  0  0  0  0  0  0  0  0
   10.1297   -1.6575   23.2324 C   0  0  0  0  0  0  0  0  0  0  0  0
    9.4684   -1.6929   26.7263 F   0  0  0  0  0  0  0  0  0  0  0  0
    7.7963   -7.7906   17.9837 C   0  0  0  0  0  0  0  0  0  0  0  0
   10.5884   -3.0725   16.7902 O   0  0  0  0  0  0  0  0  0  0  0  0
   10.4323   -5.3494   20.3516 C   0  0  0  0  0  0  0  0  0  0  0  0
    7.1156   -7.5454   16.8218 C   0  0  0  0  0  0  0  0  0  0  0  0
   10.3885   -4.4388   19.2773 C   0  0  0  0  0  0  0  0  0  0  0  0
    4.5160   -9.3822   15.0841 C   0  0  0  0  0  0  0  0  0  0  0  0
  1  3  4  0
  1 24  4  0
  2  6  4  0
  2 15  4  0
  3  5  4  0
  3  6  4  0
  4 21  4  0
  4 29  4  0
  5 15  4  0
  5 28  1  0
  6 16  4  0
  7 18  4  0
  7 26  4  0
  8 18  1  0
  8 19  4  0
  8 22  4  0
  9 12  4  0
  9 19  4  0
 10 12  4  0
 10 22  4  0
 11 20  4  0
 11 21  4  0
 12 23  1  0
 13 20  4  0
 13 29  4  0
 14 17  4  0
 14 28  4  0
 15 25  2  0
 16 27  4  0
 17 18  4  0
 20 27  1  0
 24 27  4  0
 26 28  4  0
M  END
$$$$

 Created by Python create_sdf_string function

 29 33  0  0  0  0  0  0  0  0999 V2000
    8.8270   -7.0288   18.4251 C   0  0  0  0  0  0  0  0  0  0  0  0
    9.1576   -4.6236   15.8860 O   0  0  0  0  0  0  0  0  0  0  0  0
    9.1509   -5.9108   17.7177 C   0  0  0  0  0  0  0  0  0  0  0  0
    3.6373   -9.5349   16.0582 N   0  0  0  0  0  0  0  0  0  0  0  0
    9.9275   -4.8001   18.0438 N   0  0  0  0  0  0  0  0  0  0  0  0
    8.5908   -5.7425   16.4412 C   0  0  0  0  0  0  0  0  0  0  0  0
   10.5993   -4.8981   21.6068 C   0  0  0  0  0  0  0  0  0  0  0  0
   10.4258   -3.0106   23.0998 C   0  0  0  0  0  0  0  0  0  0  0  0
   10.2148   -3.4364   25.4200 C   0  0  0  0  0  0  0  0  0  0  0  0
    9.7853   -1.1840   24.4927 C   0  0  0  0  0  0  0  0  0  0  0  0
    5.0276   -8.5227   17.5352 C   0  0  0  0  0  0  0  0  0  0  0  0
    9.8187   -2.0895   25.5800 C   0  0  0  0  0  0  0  0  0  0  0  0
    5.6473   -8.7216   15.3158 C   0  0  0  0  0  0  0  0  0  0  0  0
   10.7581   -3.1233   19.4720 N   0  0  0  0  0  0  0  0  0  0  0  0
    9.9571   -4.0573   16.8866 C   0  0  0  0  0  0  0  0  0  0  0  0
    7.6213   -6.5618   16.0087 C   0  0  0  0  0  0  0  0  0  0  0  0
   10.8583   -2.6527   20.7222 C   0  0  0  0  0  0  0  0  0  0  0  0
   10.6412   -3.5089   21.7936 C   0  0  0  0  0  0  0  0  0  0  0  0
   10.4972   -3.8968   24.1589 C   0  0  0  0  0  0  0  0  0  0  0  0
    5.9260   -8.2736   16.5517 C   0  0  0  0  0  0  0  0  0  0  0  0
    3.8816   -9.1166   17.2493 C   0  0  0  0  0  0  0  0  0  0  0  0
   10.1297   -1.6575   23.2324 C   0  0  0  0  0  0  0  0  0  0  0  0
    9.4684   -1.6929   26.7263 F   0  0  0  0  0  0  0  0  0  0  0  0
    7.7963   -7.7906   17.9837 C   0  0  0  0  0  0  0  0  0  0  0  0
   10.5884   -3.0725   16.7902 O   0  0  0  0  0  0  0  0  0  0  0  0
   10.4323   -5.3494   20.3516 C   0  0  0  0  0  0  0  0  0  0  0  0
    7.1156   -7.5454   16.8218 C   0  0  0  0  0  0  0  0  0  0  0  0
   10.3885   -4.4388   19.2773 C   0  0  0  0  0  0  0  0  0  0  0  0
    4.5160   -9.3822   15.0841 C   0  0  0  0  0  0  0  0  0  0  0  0
  1  3  4  0
  1 24  4  0
  2  6  4  0
  2 15  4  0
  3  5  4  0
  3  6  4  0
  4 21  4  0
  4 29  4  0
  5 15  4  0
  5 28  1  0
  6 16  4  0
  7 18  4  0
  7 26  4  0
  8 18  1  0
  8 19  4  0
  8 22  4  0
  9 12  4  0
  9 19  4  0
 10 12  4  0
 10 22  4  0
 11 20  4  0
 11 21  4  0
 12 23  1  0
 13 20  4  0
 13 29  4  0
 14 17  4  0
 14 28  4  0
 15 25  2  0
 16 27  4  0
 17 18  4  0
 20 27  1  0
 24 27  4  0
 26 28  4  0
M  END
$$$$

 Created by Python create_sdf_string function

 29 33  0  0  0  0  0  0  0  0999 V2000
    8.8270   -7.0288   18.4251 C   0  0  0  0  0  0  0  0  0  0  0  0
    9.1576   -4.6236   15.8860 O   0  0  0  0  0  0  0  0  0  0  0  0
    9.1509   -5.9108   17.7177 C   0  0  0  0  0  0  0  0  0  0  0  0
    3.6373   -9.5349   16.0582 N   0  0  0  0  0  0  0  0  0  0  0  0
    9.9275   -4.8001   18.0438 N   0  0  0  0  0  0  0  0  0  0  0  0
    8.5908   -5.7425   16.4412 C   0  0  0  0  0  0  0  0  0  0  0  0
   10.5993   -4.8981   21.6068 C   0  0  0  0  0  0  0  0  0  0  0  0
   10.4258   -3.0106   23.0998 C   0  0  0  0  0  0  0  0  0  0  0  0
   10.2148   -3.4364   25.4200 C   0  0  0  0  0  0  0  0  0  0  0  0
    9.7853   -1.1840   24.4927 C   0  0  0  0  0  0  0  0  0  0  0  0
    5.0276   -8.5227   17.5352 C   0  0  0  0  0  0  0  0  0  0  0  0
    9.8187   -2.0895   25.5800 C   0  0  0  0  0  0  0  0  0  0  0  0
    5.6473   -8.7216   15.3158 C   0  0  0  0  0  0  0  0  0  0  0  0
   10.7581   -3.1233   19.4720 N   0  0  0  0  0  0  0  0  0  0  0  0
    9.9571   -4.0573   16.8866 C   0  0  0  0  0  0  0  0  0  0  0  0
    7.6213   -6.5618   16.0087 C   0  0  0  0  0  0  0  0  0  0  0  0
   10.8583   -2.6527   20.7222 C   0  0  0  0  0  0  0  0  0  0  0  0
   10.6412   -3.5089   21.7936 C   0  0  0  0  0  0  0  0  0  0  0  0
   10.4972   -3.8968   24.1589 C   0  0  0  0  0  0  0  0  0  0  0  0
    5.9260   -8.2736   16.5517 C   0  0  0  0  0  0  0  0  0  0  0  0
    3.8816   -9.1166   17.2493 C   0  0  0  0  0  0  0  0  0  0  0  0
   10.1297   -1.6575   23.2324 C   0  0  0  0  0  0  0  0  0  0  0  0
    9.4684   -1.6929   26.7263 F   0  0  0  0  0  0  0  0  0  0  0  0
    7.7963   -7.7906   17.9837 C   0  0  0  0  0  0  0  0  0  0  0  0
   10.5884   -3.0725   16.7902 O   0  0  0  0  0  0  0  0  0  0  0  0
   10.4323   -5.3494   20.3516 C   0  0  0  0  0  0  0  0  0  0  0  0
    7.1156   -7.5454   16.8218 C   0  0  0  0  0  0  0  0  0  0  0  0
   10.3885   -4.4388   19.2773 C   0  0  0  0  0  0  0  0  0  0  0  0
    4.5160   -9.3822   15.0841 C   0  0  0  0  0  0  0  0  0  0  0  0
  1  3  4  0
  1 24  4  0
  2  6  4  0
  2 15  4  0
  3  5  4  0
  3  6  4  0
  4 21  4  0
  4 29  4  0
  5 15  4  0
  5 28  1  0
  6 16  4  0
  7 18  4  0
  7 26  4  0
  8 18  1  0
  8 19  4  0
  8 22  4  0
  9 12  4  0
  9 19  4  0
 10 12  4  0
 10 22  4  0
 11 20  4  0
 11 21  4  0
 12 23  1  0
 13 20  4  0
 13 29  4  0
 14 17  4  0
 14 28  4  0
 15 25  2  0
 16 27  4  0
 17 18  4  0
 20 27  1  0
 24 27  4  0
 26 28  4  0
M  END
$$$$

 Created by Python create_sdf_string function

 29 33  0  0  0  0  0  0  0  0999 V2000
    8.8270   -7.0288   18.4251 C   0  0  0  0  0  0  0  0  0  0  0  0
    9.1576   -4.6236   15.8860 O   0  0  0  0  0  0  0  0  0  0  0  0
    9.1509   -5.9108   17.7177 C   0  0  0  0  0  0  0  0  0  0  0  0
    3.6373   -9.5349   16.0582 N   0  0  0  0  0  0  0  0  0  0  0  0
    9.9275   -4.8001   18.0438 N   0  0  0  0  0  0  0  0  0  0  0  0
    8.5908   -5.7425   16.4412 C   0  0  0  0  0  0  0  0  0  0  0  0
   10.5993   -4.8981   21.6068 C   0  0  0  0  0  0  0  0  0  0  0  0
   10.4258   -3.0106   23.0998 C   0  0  0  0  0  0  0  0  0  0  0  0
   10.2148   -3.4364   25.4200 C   0  0  0  0  0  0  0  0  0  0  0  0
    9.7853   -1.1840   24.4927 C   0  0  0  0  0  0  0  0  0  0  0  0
    5.0276   -8.5227   17.5352 C   0  0  0  0  0  0  0  0  0  0  0  0
    9.8187   -2.0895   25.5800 C   0  0  0  0  0  0  0  0  0  0  0  0
    5.6473   -8.7216   15.3158 C   0  0  0  0  0  0  0  0  0  0  0  0
   10.7581   -3.1233   19.4720 N   0  0  0  0  0  0  0  0  0  0  0  0
    9.9571   -4.0573   16.8866 C   0  0  0  0  0  0  0  0  0  0  0  0
    7.6213   -6.5618   16.0087 C   0  0  0  0  0  0  0  0  0  0  0  0
   10.8583   -2.6527   20.7222 C   0  0  0  0  0  0  0  0  0  0  0  0
   10.6412   -3.5089   21.7936 C   0  0  0  0  0  0  0  0  0  0  0  0
   10.4972   -3.8968   24.1589 C   0  0  0  0  0  0  0  0  0  0  0  0
    5.9260   -8.2736   16.5517 C   0  0  0  0  0  0  0  0  0  0  0  0
    3.8816   -9.1166   17.2493 C   0  0  0  0  0  0  0  0  0  0  0  0
   10.1297   -1.6575   23.2324 C   0  0  0  0  0  0  0  0  0  0  0  0
    9.4684   -1.6929   26.7263 F   0  0  0  0  0  0  0  0  0  0  0  0
    7.7963   -7.7906   17.9837 C   0  0  0  0  0  0  0  0  0  0  0  0
   10.5884   -3.0725   16.7902 O   0  0  0  0  0  0  0  0  0  0  0  0
   10.4323   -5.3494   20.3516 C   0  0  0  0  0  0  0  0  0  0  0  0
    7.1156   -7.5454   16.8218 C   0  0  0  0  0  0  0  0  0  0  0  0
   10.3885   -4.4388   19.2773 C   0  0  0  0  0  0  0  0  0  0  0  0
    4.5160   -9.3822   15.0841 C   0  0  0  0  0  0  0  0  0  0  0  0
  1  3  4  0
  1 24  4  0
  2  6  4  0
  2 15  4  0
  3  5  4  0
  3  6  4  0
  4 21  4  0
  4 29  4  0
  5 15  4  0
  5 28  1  0
  6 16  4  0
  7 18  4  0
  7 26  4  0
  8 18  1  0
  8 19  4  0
  8 22  4  0
  9 12  4  0
  9 19  4  0
 10 12  4  0
 10 22  4  0
 11 20  4  0
 11 21  4  0
 12 23  1  0
 13 20  4  0
 13 29  4  0
 14 17  4  0
 14 28  4  0
 15 25  2  0
 16 27  4  0
 17 18  4  0
 20 27  1  0
 24 27  4  0
 26 28  4  0
M  END
$$$$

 Created by Python create_sdf_string function

 29 33  0  0  0  0  0  0  0  0999 V2000
    8.8270   -7.0288   18.4251 C   0  0  0  0  0  0  0  0  0  0  0  0
    9.1576   -4.6236   15.8860 O   0  0  0  0  0  0  0  0  0  0  0  0
    9.1509   -5.9108   17.7177 C   0  0  0  0  0  0  0  0  0  0  0  0
    3.6373   -9.5349   16.0582 N   0  0  0  0  0  0  0  0  0  0  0  0
    9.9275   -4.8001   18.0438 N   0  0  0  0  0  0  0  0  0  0  0  0
    8.5908   -5.7425   16.4412 C   0  0  0  0  0  0  0  0  0  0  0  0
   10.5993   -4.8981   21.6068 C   0  0  0  0  0  0  0  0  0  0  0  0
   10.4258   -3.0106   23.0998 C   0  0  0  0  0  0  0  0  0  0  0  0
   10.2148   -3.4364   25.4200 C   0  0  0  0  0  0  0  0  0  0  0  0
    9.7853   -1.1840   24.4927 C   0  0  0  0  0  0  0  0  0  0  0  0
    5.0276   -8.5227   17.5352 C   0  0  0  0  0  0  0  0  0  0  0  0
    9.8187   -2.0895   25.5800 C   0  0  0  0  0  0  0  0  0  0  0  0
    5.6473   -8.7216   15.3158 C   0  0  0  0  0  0  0  0  0  0  0  0
   10.7581   -3.1233   19.4720 N   0  0  0  0  0  0  0  0  0  0  0  0
    9.9571   -4.0573   16.8866 C   0  0  0  0  0  0  0  0  0  0  0  0
    7.6213   -6.5618   16.0087 C   0  0  0  0  0  0  0  0  0  0  0  0
   10.8583   -2.6527   20.7222 C   0  0  0  0  0  0  0  0  0  0  0  0
   10.6412   -3.5089   21.7936 C   0  0  0  0  0  0  0  0  0  0  0  0
   10.4972   -3.8968   24.1589 C   0  0  0  0  0  0  0  0  0  0  0  0
    5.9260   -8.2736   16.5517 C   0  0  0  0  0  0  0  0  0  0  0  0
    3.8816   -9.1166   17.2493 C   0  0  0  0  0  0  0  0  0  0  0  0
   10.1297   -1.6575   23.2324 C   0  0  0  0  0  0  0  0  0  0  0  0
    9.4684   -1.6929   26.7263 F   0  0  0  0  0  0  0  0  0  0  0  0
    7.7963   -7.7906   17.9837 C   0  0  0  0  0  0  0  0  0  0  0  0
   10.5884   -3.0725   16.7902 O   0  0  0  0  0  0  0  0  0  0  0  0
   10.4323   -5.3494   20.3516 C   0  0  0  0  0  0  0  0  0  0  0  0
    7.1156   -7.5454   16.8218 C   0  0  0  0  0  0  0  0  0  0  0  0
   10.3885   -4.4388   19.2773 C   0  0  0  0  0  0  0  0  0  0  0  0
    4.5160   -9.3822   15.0841 C   0  0  0  0  0  0  0  0  0  0  0  0
  1  3  4  0
  1 24  4  0
  2  6  4  0
  2 15  4  0
  3  5  4  0
  3  6  4  0
  4 21  4  0
  4 29  4  0
  5 15  4  0
  5 28  1  0
  6 16  4  0
  7 18  4  0
  7 26  4  0
  8 18  1  0
  8 19  4  0
  8 22  4  0
  9 12  4  0
  9 19  4  0
 10 12  4  0
 10 22  4  0
 11 20  4  0
 11 21  4  0
 12 23  1  0
 13 20  4  0
 13 29  4  0
 14 17  4  0
 14 28  4  0
 15 25  2  0
 16 27  4  0
 17 18  4  0
 20 27  1  0
 24 27  4  0
 26 28  4  0
M  END
$$$$

 Created by Python create_sdf_string function

 29 33  0  0  0  0  0  0  0  0999 V2000
    8.8270   -7.0288   18.4251 C   0  0  0  0  0  0  0  0  0  0  0  0
    9.1576   -4.6236   15.8860 O   0  0  0  0  0  0  0  0  0  0  0  0
    9.1509   -5.9108   17.7177 C   0  0  0  0  0  0  0  0  0  0  0  0
    3.6373   -9.5349   16.0582 N   0  0  0  0  0  0  0  0  0  0  0  0
    9.9275   -4.8001   18.0438 N   0  0  0  0  0  0  0  0  0  0  0  0
    8.5908   -5.7425   16.4412 C   0  0  0  0  0  0  0  0  0  0  0  0
   10.5993   -4.8981   21.6068 C   0  0  0  0  0  0  0  0  0  0  0  0
   10.4258   -3.0106   23.0998 C   0  0  0  0  0  0  0  0  0  0  0  0
   10.2148   -3.4364   25.4200 C   0  0  0  0  0  0  0  0  0  0  0  0
    9.7853   -1.1840   24.4927 C   0  0  0  0  0  0  0  0  0  0  0  0
    5.0276   -8.5227   17.5352 C   0  0  0  0  0  0  0  0  0  0  0  0
    9.8187   -2.0895   25.5800 C   0  0  0  0  0  0  0  0  0  0  0  0
    5.6473   -8.7216   15.3158 C   0  0  0  0  0  0  0  0  0  0  0  0
   10.7581   -3.1233   19.4720 N   0  0  0  0  0  0  0  0  0  0  0  0
    9.9571   -4.0573   16.8866 C   0  0  0  0  0  0  0  0  0  0  0  0
    7.6213   -6.5618   16.0087 C   0  0  0  0  0  0  0  0  0  0  0  0
   10.8583   -2.6527   20.7222 C   0  0  0  0  0  0  0  0  0  0  0  0
   10.6412   -3.5089   21.7936 C   0  0  0  0  0  0  0  0  0  0  0  0
   10.4972   -3.8968   24.1589 C   0  0  0  0  0  0  0  0  0  0  0  0
    5.9260   -8.2736   16.5517 C   0  0  0  0  0  0  0  0  0  0  0  0
    3.8816   -9.1166   17.2493 C   0  0  0  0  0  0  0  0  0  0  0  0
   10.1297   -1.6575   23.2324 C   0  0  0  0  0  0  0  0  0  0  0  0
    9.4684   -1.6929   26.7263 F   0  0  0  0  0  0  0  0  0  0  0  0
    7.7963   -7.7906   17.9837 C   0  0  0  0  0  0  0  0  0  0  0  0
   10.5884   -3.0725   16.7902 O   0  0  0  0  0  0  0  0  0  0  0  0
   10.4323   -5.3494   20.3516 C   0  0  0  0  0  0  0  0  0  0  0  0
    7.1156   -7.5454   16.8218 C   0  0  0  0  0  0  0  0  0  0  0  0
   10.3885   -4.4388   19.2773 C   0  0  0  0  0  0  0  0  0  0  0  0
    4.5160   -9.3822   15.0841 C   0  0  0  0  0  0  0  0  0  0  0  0
  1  3  4  0
  1 24  4  0
  2  6  4  0
  2 15  4  0
  3  5  4  0
  3  6  4  0
  4 21  4  0
  4 29  4  0
  5 15  4  0
  5 28  1  0
  6 16  4  0
  7 18  4  0
  7 26  4  0
  8 18  1  0
  8 19  4  0
  8 22  4  0
  9 12  4  0
  9 19  4  0
 10 12  4  0
 10 22  4  0
 11 20  4  0
 11 21  4  0
 12 23  1  0
 13 20  4  0
 13 29  4  0
 14 17  4  0
 14 28  4  0
 15 25  2  0
 16 27  4  0
 17 18  4  0
 20 27  1  0
 24 27  4  0
 26 28  4  0
M  END
$$$$

 Created by Python create_sdf_string function

 29 33  0  0  0  0  0  0  0  0999 V2000
    8.8270   -7.0288   18.4251 C   0  0  0  0  0  0  0  0  0  0  0  0
    9.1576   -4.6236   15.8860 O   0  0  0  0  0  0  0  0  0  0  0  0
    9.1509   -5.9108   17.7177 C   0  0  0  0  0  0  0  0  0  0  0  0
    3.6373   -9.5349   16.0582 N   0  0  0  0  0  0  0  0  0  0  0  0
    9.9275   -4.8001   18.0438 N   0  0  0  0  0  0  0  0  0  0  0  0
    8.5908   -5.7425   16.4412 C   0  0  0  0  0  0  0  0  0  0  0  0
   10.5993   -4.8981   21.6068 C   0  0  0  0  0  0  0  0  0  0  0  0
   10.4258   -3.0106   23.0998 C   0  0  0  0  0  0  0  0  0  0  0  0
   10.2148   -3.4364   25.4200 C   0  0  0  0  0  0  0  0  0  0  0  0
    9.7853   -1.1840   24.4927 C   0  0  0  0  0  0  0  0  0  0  0  0
    5.0276   -8.5227   17.5352 C   0  0  0  0  0  0  0  0  0  0  0  0
    9.8187   -2.0895   25.5800 C   0  0  0  0  0  0  0  0  0  0  0  0
    5.6473   -8.7216   15.3158 C   0  0  0  0  0  0  0  0  0  0  0  0
   10.7581   -3.1233   19.4720 N   0  0  0  0  0  0  0  0  0  0  0  0
    9.9571   -4.0573   16.8866 C   0  0  0  0  0  0  0  0  0  0  0  0
    7.6213   -6.5618   16.0087 C   0  0  0  0  0  0  0  0  0  0  0  0
   10.8583   -2.6527   20.7222 C   0  0  0  0  0  0  0  0  0  0  0  0
   10.6412   -3.5089   21.7936 C   0  0  0  0  0  0  0  0  0  0  0  0
   10.4972   -3.8968   24.1589 C   0  0  0  0  0  0  0  0  0  0  0  0
    5.9260   -8.2736   16.5517 C   0  0  0  0  0  0  0  0  0  0  0  0
    3.8816   -9.1166   17.2493 C   0  0  0  0  0  0  0  0  0  0  0  0
   10.1297   -1.6575   23.2324 C   0  0  0  0  0  0  0  0  0  0  0  0
    9.4684   -1.6929   26.7263 F   0  0  0  0  0  0  0  0  0  0  0  0
    7.7963   -7.7906   17.9837 C   0  0  0  0  0  0  0  0  0  0  0  0
   10.5884   -3.0725   16.7902 O   0  0  0  0  0  0  0  0  0  0  0  0
   10.4323   -5.3494   20.3516 C   0  0  0  0  0  0  0  0  0  0  0  0
    7.1156   -7.5454   16.8218 C   0  0  0  0  0  0  0  0  0  0  0  0
   10.3885   -4.4388   19.2773 C   0  0  0  0  0  0  0  0  0  0  0  0
    4.5160   -9.3822   15.0841 C   0  0  0  0  0  0  0  0  0  0  0  0
  1  3  4  0
  1 24  4  0
  2  6  4  0
  2 15  4  0
  3  5  4  0
  3  6  4  0
  4 21  4  0
  4 29  4  0
  5 15  4  0
  5 28  1  0
  6 16  4  0
  7 18  4  0
  7 26  4  0
  8 18  1  0
  8 19  4  0
  8 22  4  0
  9 12  4  0
  9 19  4  0
 10 12  4  0
 10 22  4  0
 11 20  4  0
 11 21  4  0
 12 23  1  0
 13 20  4  0
 13 29  4  0
 14 17  4  0
 14 28  4  0
 15 25  2  0
 16 27  4  0
 17 18  4  0
 20 27  1  0
 24 27  4  0
 26 28  4  0
M  END
$$$$

 Created by Python create_sdf_string function

 29 33  0  0  0  0  0  0  0  0999 V2000
    8.8270   -7.0288   18.4251 C   0  0  0  0  0  0  0  0  0  0  0  0
    9.1576   -4.6236   15.8860 O   0  0  0  0  0  0  0  0  0  0  0  0
    9.1509   -5.9108   17.7177 C   0  0  0  0  0  0  0  0  0  0  0  0
    3.6373   -9.5349   16.0582 N   0  0  0  0  0  0  0  0  0  0  0  0
    9.9275   -4.8001   18.0438 N   0  0  0  0  0  0  0  0  0  0  0  0
    8.5908   -5.7425   16.4412 C   0  0  0  0  0  0  0  0  0  0  0  0
   10.5993   -4.8981   21.6068 C   0  0  0  0  0  0  0  0  0  0  0  0
   10.4258   -3.0106   23.0998 C   0  0  0  0  0  0  0  0  0  0  0  0
   10.2148   -3.4364   25.4200 C   0  0  0  0  0  0  0  0  0  0  0  0
    9.7853   -1.1840   24.4927 C   0  0  0  0  0  0  0  0  0  0  0  0
    5.0276   -8.5227   17.5352 C   0  0  0  0  0  0  0  0  0  0  0  0
    9.8187   -2.0895   25.5800 C   0  0  0  0  0  0  0  0  0  0  0  0
    5.6473   -8.7216   15.3158 C   0  0  0  0  0  0  0  0  0  0  0  0
   10.7581   -3.1233   19.4720 N   0  0  0  0  0  0  0  0  0  0  0  0
    9.9571   -4.0573   16.8866 C   0  0  0  0  0  0  0  0  0  0  0  0
    7.6213   -6.5618   16.0087 C   0  0  0  0  0  0  0  0  0  0  0  0
   10.8583   -2.6527   20.7222 C   0  0  0  0  0  0  0  0  0  0  0  0
   10.6412   -3.5089   21.7936 C   0  0  0  0  0  0  0  0  0  0  0  0
   10.4972   -3.8968   24.1589 C   0  0  0  0  0  0  0  0  0  0  0  0
    5.9260   -8.2736   16.5517 C   0  0  0  0  0  0  0  0  0  0  0  0
    3.8816   -9.1166   17.2493 C   0  0  0  0  0  0  0  0  0  0  0  0
   10.1297   -1.6575   23.2324 C   0  0  0  0  0  0  0  0  0  0  0  0
    9.4684   -1.6929   26.7263 F   0  0  0  0  0  0  0  0  0  0  0  0
    7.7963   -7.7906   17.9837 C   0  0  0  0  0  0  0  0  0  0  0  0
   10.5884   -3.0725   16.7902 O   0  0  0  0  0  0  0  0  0  0  0  0
   10.4323   -5.3494   20.3516 C   0  0  0  0  0  0  0  0  0  0  0  0
    7.1156   -7.5454   16.8218 C   0  0  0  0  0  0  0  0  0  0  0  0
   10.3885   -4.4388   19.2773 C   0  0  0  0  0  0  0  0  0  0  0  0
    4.5160   -9.3822   15.0841 C   0  0  0  0  0  0  0  0  0  0  0  0
  1  3  4  0
  1 24  4  0
  2  6  4  0
  2 15  4  0
  3  5  4  0
  3  6  4  0
  4 21  4  0
  4 29  4  0
  5 15  4  0
  5 28  1  0
  6 16  4  0
  7 18  4  0
  7 26  4  0
  8 18  1  0
  8 19  4  0
  8 22  4  0
  9 12  4  0
  9 19  4  0
 10 12  4  0
 10 22  4  0
 11 20  4  0
 11 21  4  0
 12 23  1  0
 13 20  4  0
 13 29  4  0
 14 17  4  0
 14 28  4  0
 15 25  2  0
 16 27  4  0
 17 18  4  0
 20 27  1  0
 24 27  4  0
 26 28  4  0
M  END
$$$$

 Created by Python create_sdf_string function

 29 33  0  0  0  0  0  0  0  0999 V2000
    8.8270   -7.0288   18.4251 C   0  0  0  0  0  0  0  0  0  0  0  0
    9.1576   -4.6236   15.8860 O   0  0  0  0  0  0  0  0  0  0  0  0
    9.1509   -5.9108   17.7177 C   0  0  0  0  0  0  0  0  0  0  0  0
    3.6373   -9.5349   16.0582 N   0  0  0  0  0  0  0  0  0  0  0  0
    9.9275   -4.8001   18.0438 N   0  0  0  0  0  0  0  0  0  0  0  0
    8.5908   -5.7425   16.4412 C   0  0  0  0  0  0  0  0  0  0  0  0
   10.5993   -4.8981   21.6068 C   0  0  0  0  0  0  0  0  0  0  0  0
   10.4258   -3.0106   23.0998 C   0  0  0  0  0  0  0  0  0  0  0  0
   10.2148   -3.4364   25.4200 C   0  0  0  0  0  0  0  0  0  0  0  0
    9.7853   -1.1840   24.4927 C   0  0  0  0  0  0  0  0  0  0  0  0
    5.0276   -8.5227   17.5352 C   0  0  0  0  0  0  0  0  0  0  0  0
    9.8187   -2.0895   25.5800 C   0  0  0  0  0  0  0  0  0  0  0  0
    5.6473   -8.7216   15.3158 C   0  0  0  0  0  0  0  0  0  0  0  0
   10.7581   -3.1233   19.4720 N   0  0  0  0  0  0  0  0  0  0  0  0
    9.9571   -4.0573   16.8866 C   0  0  0  0  0  0  0  0  0  0  0  0
    7.6213   -6.5618   16.0087 C   0  0  0  0  0  0  0  0  0  0  0  0
   10.8583   -2.6527   20.7222 C   0  0  0  0  0  0  0  0  0  0  0  0
   10.6412   -3.5089   21.7936 C   0  0  0  0  0  0  0  0  0  0  0  0
   10.4972   -3.8968   24.1589 C   0  0  0  0  0  0  0  0  0  0  0  0
    5.9260   -8.2736   16.5517 C   0  0  0  0  0  0  0  0  0  0  0  0
    3.8816   -9.1166   17.2493 C   0  0  0  0  0  0  0  0  0  0  0  0
   10.1297   -1.6575   23.2324 C   0  0  0  0  0  0  0  0  0  0  0  0
    9.4684   -1.6929   26.7263 F   0  0  0  0  0  0  0  0  0  0  0  0
    7.7963   -7.7906   17.9837 C   0  0  0  0  0  0  0  0  0  0  0  0
   10.5884   -3.0725   16.7902 O   0  0  0  0  0  0  0  0  0  0  0  0
   10.4323   -5.3494   20.3516 C   0  0  0  0  0  0  0  0  0  0  0  0
    7.1156   -7.5454   16.8218 C   0  0  0  0  0  0  0  0  0  0  0  0
   10.3885   -4.4388   19.2773 C   0  0  0  0  0  0  0  0  0  0  0  0
    4.5160   -9.3822   15.0841 C   0  0  0  0  0  0  0  0  0  0  0  0
  1  3  4  0
  1 24  4  0
  2  6  4  0
  2 15  4  0
  3  5  4  0
  3  6  4  0
  4 21  4  0
  4 29  4  0
  5 15  4  0
  5 28  1  0
  6 16  4  0
  7 18  4  0
  7 26  4  0
  8 18  1  0
  8 19  4  0
  8 22  4  0
  9 12  4  0
  9 19  4  0
 10 12  4  0
 10 22  4  0
 11 20  4  0
 11 21  4  0
 12 23  1  0
 13 20  4  0
 13 29  4  0
 14 17  4  0
 14 28  4  0
 15 25  2  0
 16 27  4  0
 17 18  4  0
 20 27  1  0
 24 27  4  0
 26 28  4  0
M  END
$$$$

 Created by Python create_sdf_string function

 29 33  0  0  0  0  0  0  0  0999 V2000
    8.8270   -7.0288   18.4251 C   0  0  0  0  0  0  0  0  0  0  0  0
    9.1576   -4.6236   15.8860 O   0  0  0  0  0  0  0  0  0  0  0  0
    9.1509   -5.9108   17.7177 C   0  0  0  0  0  0  0  0  0  0  0  0
    3.6373   -9.5349   16.0582 N   0  0  0  0  0  0  0  0  0  0  0  0
    9.9275   -4.8001   18.0438 N   0  0  0  0  0  0  0  0  0  0  0  0
    8.5908   -5.7425   16.4412 C   0  0  0  0  0  0  0  0  0  0  0  0
   10.5993   -4.8981   21.6068 C   0  0  0  0  0  0  0  0  0  0  0  0
   10.4258   -3.0106   23.0998 C   0  0  0  0  0  0  0  0  0  0  0  0
   10.2148   -3.4364   25.4200 C   0  0  0  0  0  0  0  0  0  0  0  0
    9.7853   -1.1840   24.4927 C   0  0  0  0  0  0  0  0  0  0  0  0
    5.0276   -8.5227   17.5352 C   0  0  0  0  0  0  0  0  0  0  0  0
    9.8187   -2.0895   25.5800 C   0  0  0  0  0  0  0  0  0  0  0  0
    5.6473   -8.7216   15.3158 C   0  0  0  0  0  0  0  0  0  0  0  0
   10.7581   -3.1233   19.4720 N   0  0  0  0  0  0  0  0  0  0  0  0
    9.9571   -4.0573   16.8866 C   0  0  0  0  0  0  0  0  0  0  0  0
    7.6213   -6.5618   16.0087 C   0  0  0  0  0  0  0  0  0  0  0  0
   10.8583   -2.6527   20.7222 C   0  0  0  0  0  0  0  0  0  0  0  0
   10.6412   -3.5089   21.7936 C   0  0  0  0  0  0  0  0  0  0  0  0
   10.4972   -3.8968   24.1589 C   0  0  0  0  0  0  0  0  0  0  0  0
    5.9260   -8.2736   16.5517 C   0  0  0  0  0  0  0  0  0  0  0  0
    3.8816   -9.1166   17.2493 C   0  0  0  0  0  0  0  0  0  0  0  0
   10.1297   -1.6575   23.2324 C   0  0  0  0  0  0  0  0  0  0  0  0
    9.4684   -1.6929   26.7263 F   0  0  0  0  0  0  0  0  0  0  0  0
    7.7963   -7.7906   17.9837 C   0  0  0  0  0  0  0  0  0  0  0  0
   10.5884   -3.0725   16.7902 O   0  0  0  0  0  0  0  0  0  0  0  0
   10.4323   -5.3494   20.3516 C   0  0  0  0  0  0  0  0  0  0  0  0
    7.1156   -7.5454   16.8218 C   0  0  0  0  0  0  0  0  0  0  0  0
   10.3885   -4.4388   19.2773 C   0  0  0  0  0  0  0  0  0  0  0  0
    4.5160   -9.3822   15.0841 C   0  0  0  0  0  0  0  0  0  0  0  0
  1  3  4  0
  1 24  4  0
  2  6  4  0
  2 15  4  0
  3  5  4  0
  3  6  4  0
  4 21  4  0
  4 29  4  0
  5 15  4  0
  5 28  1  0
  6 16  4  0
  7 18  4  0
  7 26  4  0
  8 18  1  0
  8 19  4  0
  8 22  4  0
  9 12  4  0
  9 19  4  0
 10 12  4  0
 10 22  4  0
 11 20  4  0
 11 21  4  0
 12 23  1  0
 13 20  4  0
 13 29  4  0
 14 17  4  0
 14 28  4  0
 15 25  2  0
 16 27  4  0
 17 18  4  0
 20 27  1  0
 24 27  4  0
 26 28  4  0
M  END
$$$$

 Created by Python create_sdf_string function

 29 33  0  0  0  0  0  0  0  0999 V2000
    8.8270   -7.0288   18.4251 C   0  0  0  0  0  0  0  0  0  0  0  0
    9.1576   -4.6236   15.8860 O   0  0  0  0  0  0  0  0  0  0  0  0
    9.1509   -5.9108   17.7177 C   0  0  0  0  0  0  0  0  0  0  0  0
    3.6373   -9.5349   16.0582 N   0  0  0  0  0  0  0  0  0  0  0  0
    9.9275   -4.8001   18.0438 N   0  0  0  0  0  0  0  0  0  0  0  0
    8.5908   -5.7425   16.4412 C   0  0  0  0  0  0  0  0  0  0  0  0
   10.5993   -4.8981   21.6068 C   0  0  0  0  0  0  0  0  0  0  0  0
   10.4258   -3.0106   23.0998 C   0  0  0  0  0  0  0  0  0  0  0  0
   10.2148   -3.4364   25.4200 C   0  0  0  0  0  0  0  0  0  0  0  0
    9.7853   -1.1840   24.4927 C   0  0  0  0  0  0  0  0  0  0  0  0
    5.0276   -8.5227   17.5352 C   0  0  0  0  0  0  0  0  0  0  0  0
    9.8187   -2.0895   25.5800 C   0  0  0  0  0  0  0  0  0  0  0  0
    5.6473   -8.7216   15.3158 C   0  0  0  0  0  0  0  0  0  0  0  0
   10.7581   -3.1233   19.4720 N   0  0  0  0  0  0  0  0  0  0  0  0
    9.9571   -4.0573   16.8866 C   0  0  0  0  0  0  0  0  0  0  0  0
    7.6213   -6.5618   16.0087 C   0  0  0  0  0  0  0  0  0  0  0  0
   10.8583   -2.6527   20.7222 C   0  0  0  0  0  0  0  0  0  0  0  0
   10.6412   -3.5089   21.7936 C   0  0  0  0  0  0  0  0  0  0  0  0
   10.4972   -3.8968   24.1589 C   0  0  0  0  0  0  0  0  0  0  0  0
    5.9260   -8.2736   16.5517 C   0  0  0  0  0  0  0  0  0  0  0  0
    3.8816   -9.1166   17.2493 C   0  0  0  0  0  0  0  0  0  0  0  0
   10.1297   -1.6575   23.2324 C   0  0  0  0  0  0  0  0  0  0  0  0
    9.4684   -1.6929   26.7263 F   0  0  0  0  0  0  0  0  0  0  0  0
    7.7963   -7.7906   17.9837 C   0  0  0  0  0  0  0  0  0  0  0  0
   10.5884   -3.0725   16.7902 O   0  0  0  0  0  0  0  0  0  0  0  0
   10.4323   -5.3494   20.3516 C   0  0  0  0  0  0  0  0  0  0  0  0
    7.1156   -7.5454   16.8218 C   0  0  0  0  0  0  0  0  0  0  0  0
   10.3885   -4.4388   19.2773 C   0  0  0  0  0  0  0  0  0  0  0  0
    4.5160   -9.3822   15.0841 C   0  0  0  0  0  0  0  0  0  0  0  0
  1  3  4  0
  1 24  4  0
  2  6  4  0
  2 15  4  0
  3  5  4  0
  3  6  4  0
  4 21  4  0
  4 29  4  0
  5 15  4  0
  5 28  1  0
  6 16  4  0
  7 18  4  0
  7 26  4  0
  8 18  1  0
  8 19  4  0
  8 22  4  0
  9 12  4  0
  9 19  4  0
 10 12  4  0
 10 22  4  0
 11 20  4  0
 11 21  4  0
 12 23  1  0
 13 20  4  0
 13 29  4  0
 14 17  4  0
 14 28  4  0
 15 25  2  0
 16 27  4  0
 17 18  4  0
 20 27  1  0
 24 27  4  0
 26 28  4  0
M  END
$$$$

 Created by Python create_sdf_string function

 29 33  0  0  0  0  0  0  0  0999 V2000
    8.8270   -7.0288   18.4251 C   0  0  0  0  0  0  0  0  0  0  0  0
    9.1576   -4.6236   15.8860 O   0  0  0  0  0  0  0  0  0  0  0  0
    9.1509   -5.9108   17.7177 C   0  0  0  0  0  0  0  0  0  0  0  0
    3.6373   -9.5349   16.0582 N   0  0  0  0  0  0  0  0  0  0  0  0
    9.9275   -4.8001   18.0438 N   0  0  0  0  0  0  0  0  0  0  0  0
    8.5908   -5.7425   16.4412 C   0  0  0  0  0  0  0  0  0  0  0  0
   10.5993   -4.8981   21.6068 C   0  0  0  0  0  0  0  0  0  0  0  0
   10.4258   -3.0106   23.0998 C   0  0  0  0  0  0  0  0  0  0  0  0
   10.2148   -3.4364   25.4200 C   0  0  0  0  0  0  0  0  0  0  0  0
    9.7853   -1.1840   24.4927 C   0  0  0  0  0  0  0  0  0  0  0  0
    5.0276   -8.5227   17.5352 C   0  0  0  0  0  0  0  0  0  0  0  0
    9.8187   -2.0895   25.5800 C   0  0  0  0  0  0  0  0  0  0  0  0
    5.6473   -8.7216   15.3158 C   0  0  0  0  0  0  0  0  0  0  0  0
   10.7581   -3.1233   19.4720 N   0  0  0  0  0  0  0  0  0  0  0  0
    9.9571   -4.0573   16.8866 C   0  0  0  0  0  0  0  0  0  0  0  0
    7.6213   -6.5618   16.0087 C   0  0  0  0  0  0  0  0  0  0  0  0
   10.8583   -2.6527   20.7222 C   0  0  0  0  0  0  0  0  0  0  0  0
   10.6412   -3.5089   21.7936 C   0  0  0  0  0  0  0  0  0  0  0  0
   10.4972   -3.8968   24.1589 C   0  0  0  0  0  0  0  0  0  0  0  0
    5.9260   -8.2736   16.5517 C   0  0  0  0  0  0  0  0  0  0  0  0
    3.8816   -9.1166   17.2493 C   0  0  0  0  0  0  0  0  0  0  0  0
   10.1297   -1.6575   23.2324 C   0  0  0  0  0  0  0  0  0  0  0  0
    9.4684   -1.6929   26.7263 F   0  0  0  0  0  0  0  0  0  0  0  0
    7.7963   -7.7906   17.9837 C   0  0  0  0  0  0  0  0  0  0  0  0
   10.5884   -3.0725   16.7902 O   0  0  0  0  0  0  0  0  0  0  0  0
   10.4323   -5.3494   20.3516 C   0  0  0  0  0  0  0  0  0  0  0  0
    7.1156   -7.5454   16.8218 C   0  0  0  0  0  0  0  0  0  0  0  0
   10.3885   -4.4388   19.2773 C   0  0  0  0  0  0  0  0  0  0  0  0
    4.5160   -9.3822   15.0841 C   0  0  0  0  0  0  0  0  0  0  0  0
  1  3  4  0
  1 24  4  0
  2  6  4  0
  2 15  4  0
  3  5  4  0
  3  6  4  0
  4 21  4  0
  4 29  4  0
  5 15  4  0
  5 28  1  0
  6 16  4  0
  7 18  4  0
  7 26  4  0
  8 18  1  0
  8 19  4  0
  8 22  4  0
  9 12  4  0
  9 19  4  0
 10 12  4  0
 10 22  4  0
 11 20  4  0
 11 21  4  0
 12 23  1  0
 13 20  4  0
 13 29  4  0
 14 17  4  0
 14 28  4  0
 15 25  2  0
 16 27  4  0
 17 18  4  0
 20 27  1  0
 24 27  4  0
 26 28  4  0
M  END
$$$$

 Created by Python create_sdf_string function

 29 33  0  0  0  0  0  0  0  0999 V2000
    8.8270   -7.0288   18.4251 C   0  0  0  0  0  0  0  0  0  0  0  0
    9.1576   -4.6236   15.8860 O   0  0  0  0  0  0  0  0  0  0  0  0
    9.1509   -5.9108   17.7177 C   0  0  0  0  0  0  0  0  0  0  0  0
    3.6373   -9.5349   16.0582 N   0  0  0  0  0  0  0  0  0  0  0  0
    9.9275   -4.8001   18.0438 N   0  0  0  0  0  0  0  0  0  0  0  0
    8.5908   -5.7425   16.4412 C   0  0  0  0  0  0  0  0  0  0  0  0
   10.5993   -4.8981   21.6068 C   0  0  0  0  0  0  0  0  0  0  0  0
   10.4258   -3.0106   23.0998 C   0  0  0  0  0  0  0  0  0  0  0  0
   10.2148   -3.4364   25.4200 C   0  0  0  0  0  0  0  0  0  0  0  0
    9.7853   -1.1840   24.4927 C   0  0  0  0  0  0  0  0  0  0  0  0
    5.0276   -8.5227   17.5352 C   0  0  0  0  0  0  0  0  0  0  0  0
    9.8187   -2.0895   25.5800 C   0  0  0  0  0  0  0  0  0  0  0  0
    5.6473   -8.7216   15.3158 C   0  0  0  0  0  0  0  0  0  0  0  0
   10.7581   -3.1233   19.4720 N   0  0  0  0  0  0  0  0  0  0  0  0
    9.9571   -4.0573   16.8866 C   0  0  0  0  0  0  0  0  0  0  0  0
    7.6213   -6.5618   16.0087 C   0  0  0  0  0  0  0  0  0  0  0  0
   10.8583   -2.6527   20.7222 C   0  0  0  0  0  0  0  0  0  0  0  0
   10.6412   -3.5089   21.7936 C   0  0  0  0  0  0  0  0  0  0  0  0
   10.4972   -3.8968   24.1589 C   0  0  0  0  0  0  0  0  0  0  0  0
    5.9260   -8.2736   16.5517 C   0  0  0  0  0  0  0  0  0  0  0  0
    3.8816   -9.1166   17.2493 C   0  0  0  0  0  0  0  0  0  0  0  0
   10.1297   -1.6575   23.2324 C   0  0  0  0  0  0  0  0  0  0  0  0
    9.4684   -1.6929   26.7263 F   0  0  0  0  0  0  0  0  0  0  0  0
    7.7963   -7.7906   17.9837 C   0  0  0  0  0  0  0  0  0  0  0  0
   10.5884   -3.0725   16.7902 O   0  0  0  0  0  0  0  0  0  0  0  0
   10.4323   -5.3494   20.3516 C   0  0  0  0  0  0  0  0  0  0  0  0
    7.1156   -7.5454   16.8218 C   0  0  0  0  0  0  0  0  0  0  0  0
   10.3885   -4.4388   19.2773 C   0  0  0  0  0  0  0  0  0  0  0  0
    4.5160   -9.3822   15.0841 C   0  0  0  0  0  0  0  0  0  0  0  0
  1  3  4  0
  1 24  4  0
  2  6  4  0
  2 15  4  0
  3  5  4  0
  3  6  4  0
  4 21  4  0
  4 29  4  0
  5 15  4  0
  5 28  1  0
  6 16  4  0
  7 18  4  0
  7 26  4  0
  8 18  1  0
  8 19  4  0
  8 22  4  0
  9 12  4  0
  9 19  4  0
 10 12  4  0
 10 22  4  0
 11 20  4  0
 11 21  4  0
 12 23  1  0
 13 20  4  0
 13 29  4  0
 14 17  4  0
 14 28  4  0
 15 25  2  0
 16 27  4  0
 17 18  4  0
 20 27  1  0
 24 27  4  0
 26 28  4  0
M  END
$$$$

 Created by Python create_sdf_string function

 29 33  0  0  0  0  0  0  0  0999 V2000
    8.8270   -7.0288   18.4251 C   0  0  0  0  0  0  0  0  0  0  0  0
    9.1576   -4.6236   15.8860 O   0  0  0  0  0  0  0  0  0  0  0  0
    9.1509   -5.9108   17.7177 C   0  0  0  0  0  0  0  0  0  0  0  0
    3.6373   -9.5349   16.0582 N   0  0  0  0  0  0  0  0  0  0  0  0
    9.9275   -4.8001   18.0438 N   0  0  0  0  0  0  0  0  0  0  0  0
    8.5908   -5.7425   16.4412 C   0  0  0  0  0  0  0  0  0  0  0  0
   10.5993   -4.8981   21.6068 C   0  0  0  0  0  0  0  0  0  0  0  0
   10.4258   -3.0106   23.0998 C   0  0  0  0  0  0  0  0  0  0  0  0
   10.2148   -3.4364   25.4200 C   0  0  0  0  0  0  0  0  0  0  0  0
    9.7853   -1.1840   24.4927 C   0  0  0  0  0  0  0  0  0  0  0  0
    5.0276   -8.5227   17.5352 C   0  0  0  0  0  0  0  0  0  0  0  0
    9.8187   -2.0895   25.5800 C   0  0  0  0  0  0  0  0  0  0  0  0
    5.6473   -8.7216   15.3158 C   0  0  0  0  0  0  0  0  0  0  0  0
   10.7581   -3.1233   19.4720 N   0  0  0  0  0  0  0  0  0  0  0  0
    9.9571   -4.0573   16.8866 C   0  0  0  0  0  0  0  0  0  0  0  0
    7.6213   -6.5618   16.0087 C   0  0  0  0  0  0  0  0  0  0  0  0
   10.8583   -2.6527   20.7222 C   0  0  0  0  0  0  0  0  0  0  0  0
   10.6412   -3.5089   21.7936 C   0  0  0  0  0  0  0  0  0  0  0  0
   10.4972   -3.8968   24.1589 C   0  0  0  0  0  0  0  0  0  0  0  0
    5.9260   -8.2736   16.5517 C   0  0  0  0  0  0  0  0  0  0  0  0
    3.8816   -9.1166   17.2493 C   0  0  0  0  0  0  0  0  0  0  0  0
   10.1297   -1.6575   23.2324 C   0  0  0  0  0  0  0  0  0  0  0  0
    9.4684   -1.6929   26.7263 F   0  0  0  0  0  0  0  0  0  0  0  0
    7.7963   -7.7906   17.9837 C   0  0  0  0  0  0  0  0  0  0  0  0
   10.5884   -3.0725   16.7902 O   0  0  0  0  0  0  0  0  0  0  0  0
   10.4323   -5.3494   20.3516 C   0  0  0  0  0  0  0  0  0  0  0  0
    7.1156   -7.5454   16.8218 C   0  0  0  0  0  0  0  0  0  0  0  0
   10.3885   -4.4388   19.2773 C   0  0  0  0  0  0  0  0  0  0  0  0
    4.5160   -9.3822   15.0841 C   0  0  0  0  0  0  0  0  0  0  0  0
  1  3  4  0
  1 24  4  0
  2  6  4  0
  2 15  4  0
  3  5  4  0
  3  6  4  0
  4 21  4  0
  4 29  4  0
  5 15  4  0
  5 28  1  0
  6 16  4  0
  7 18  4  0
  7 26  4  0
  8 18  1  0
  8 19  4  0
  8 22  4  0
  9 12  4  0
  9 19  4  0
 10 12  4  0
 10 22  4  0
 11 20  4  0
 11 21  4  0
 12 23  1  0
 13 20  4  0
 13 29  4  0
 14 17  4  0
 14 28  4  0
 15 25  2  0
 16 27  4  0
 17 18  4  0
 20 27  1  0
 24 27  4  0
 26 28  4  0
M  END
$$$$

 Created by Python create_sdf_string function

 29 33  0  0  0  0  0  0  0  0999 V2000
    8.8270   -7.0288   18.4251 C   0  0  0  0  0  0  0  0  0  0  0  0
    9.1576   -4.6236   15.8860 O   0  0  0  0  0  0  0  0  0  0  0  0
    9.1509   -5.9108   17.7177 C   0  0  0  0  0  0  0  0  0  0  0  0
    3.6373   -9.5349   16.0582 N   0  0  0  0  0  0  0  0  0  0  0  0
    9.9275   -4.8001   18.0438 N   0  0  0  0  0  0  0  0  0  0  0  0
    8.5908   -5.7425   16.4412 C   0  0  0  0  0  0  0  0  0  0  0  0
   10.5993   -4.8981   21.6068 C   0  0  0  0  0  0  0  0  0  0  0  0
   10.4258   -3.0106   23.0998 C   0  0  0  0  0  0  0  0  0  0  0  0
   10.2148   -3.4364   25.4200 C   0  0  0  0  0  0  0  0  0  0  0  0
    9.7853   -1.1840   24.4927 C   0  0  0  0  0  0  0  0  0  0  0  0
    5.0276   -8.5227   17.5352 C   0  0  0  0  0  0  0  0  0  0  0  0
    9.8187   -2.0895   25.5800 C   0  0  0  0  0  0  0  0  0  0  0  0
    5.6473   -8.7216   15.3158 C   0  0  0  0  0  0  0  0  0  0  0  0
   10.7581   -3.1233   19.4720 N   0  0  0  0  0  0  0  0  0  0  0  0
    9.9571   -4.0573   16.8866 C   0  0  0  0  0  0  0  0  0  0  0  0
    7.6213   -6.5618   16.0087 C   0  0  0  0  0  0  0  0  0  0  0  0
   10.8583   -2.6527   20.7222 C   0  0  0  0  0  0  0  0  0  0  0  0
   10.6412   -3.5089   21.7936 C   0  0  0  0  0  0  0  0  0  0  0  0
   10.4972   -3.8968   24.1589 C   0  0  0  0  0  0  0  0  0  0  0  0
    5.9260   -8.2736   16.5517 C   0  0  0  0  0  0  0  0  0  0  0  0
    3.8816   -9.1166   17.2493 C   0  0  0  0  0  0  0  0  0  0  0  0
   10.1297   -1.6575   23.2324 C   0  0  0  0  0  0  0  0  0  0  0  0
    9.4684   -1.6929   26.7263 F   0  0  0  0  0  0  0  0  0  0  0  0
    7.7963   -7.7906   17.9837 C   0  0  0  0  0  0  0  0  0  0  0  0
   10.5884   -3.0725   16.7902 O   0  0  0  0  0  0  0  0  0  0  0  0
   10.4323   -5.3494   20.3516 C   0  0  0  0  0  0  0  0  0  0  0  0
    7.1156   -7.5454   16.8218 C   0  0  0  0  0  0  0  0  0  0  0  0
   10.3885   -4.4388   19.2773 C   0  0  0  0  0  0  0  0  0  0  0  0
    4.5160   -9.3822   15.0841 C   0  0  0  0  0  0  0  0  0  0  0  0
  1  3  4  0
  1 24  4  0
  2  6  4  0
  2 15  4  0
  3  5  4  0
  3  6  4  0
  4 21  4  0
  4 29  4  0
  5 15  4  0
  5 28  1  0
  6 16  4  0
  7 18  4  0
  7 26  4  0
  8 18  1  0
  8 19  4  0
  8 22  4  0
  9 12  4  0
  9 19  4  0
 10 12  4  0
 10 22  4  0
 11 20  4  0
 11 21  4  0
 12 23  1  0
 13 20  4  0
 13 29  4  0
 14 17  4  0
 14 28  4  0
 15 25  2  0
 16 27  4  0
 17 18  4  0
 20 27  1  0
 24 27  4  0
 26 28  4  0
M  END
$$$$

 Created by Python create_sdf_string function

 29 33  0  0  0  0  0  0  0  0999 V2000
    8.8270   -7.0288   18.4251 C   0  0  0  0  0  0  0  0  0  0  0  0
    9.1576   -4.6236   15.8860 O   0  0  0  0  0  0  0  0  0  0  0  0
    9.1509   -5.9108   17.7177 C   0  0  0  0  0  0  0  0  0  0  0  0
    3.6373   -9.5349   16.0582 N   0  0  0  0  0  0  0  0  0  0  0  0
    9.9275   -4.8001   18.0438 N   0  0  0  0  0  0  0  0  0  0  0  0
    8.5908   -5.7425   16.4412 C   0  0  0  0  0  0  0  0  0  0  0  0
   10.5993   -4.8981   21.6068 C   0  0  0  0  0  0  0  0  0  0  0  0
   10.4258   -3.0106   23.0998 C   0  0  0  0  0  0  0  0  0  0  0  0
   10.2148   -3.4364   25.4200 C   0  0  0  0  0  0  0  0  0  0  0  0
    9.7853   -1.1840   24.4927 C   0  0  0  0  0  0  0  0  0  0  0  0
    5.0276   -8.5227   17.5352 C   0  0  0  0  0  0  0  0  0  0  0  0
    9.8187   -2.0895   25.5800 C   0  0  0  0  0  0  0  0  0  0  0  0
    5.6473   -8.7216   15.3158 C   0  0  0  0  0  0  0  0  0  0  0  0
   10.7581   -3.1233   19.4720 N   0  0  0  0  0  0  0  0  0  0  0  0
    9.9571   -4.0573   16.8866 C   0  0  0  0  0  0  0  0  0  0  0  0
    7.6213   -6.5618   16.0087 C   0  0  0  0  0  0  0  0  0  0  0  0
   10.8583   -2.6527   20.7222 C   0  0  0  0  0  0  0  0  0  0  0  0
   10.6412   -3.5089   21.7936 C   0  0  0  0  0  0  0  0  0  0  0  0
   10.4972   -3.8968   24.1589 C   0  0  0  0  0  0  0  0  0  0  0  0
    5.9260   -8.2736   16.5517 C   0  0  0  0  0  0  0  0  0  0  0  0
    3.8816   -9.1166   17.2493 C   0  0  0  0  0  0  0  0  0  0  0  0
   10.1297   -1.6575   23.2324 C   0  0  0  0  0  0  0  0  0  0  0  0
    9.4684   -1.6929   26.7263 F   0  0  0  0  0  0  0  0  0  0  0  0
    7.7963   -7.7906   17.9837 C   0  0  0  0  0  0  0  0  0  0  0  0
   10.5884   -3.0725   16.7902 O   0  0  0  0  0  0  0  0  0  0  0  0
   10.4323   -5.3494   20.3516 C   0  0  0  0  0  0  0  0  0  0  0  0
    7.1156   -7.5454   16.8218 C   0  0  0  0  0  0  0  0  0  0  0  0
   10.3885   -4.4388   19.2773 C   0  0  0  0  0  0  0  0  0  0  0  0
    4.5160   -9.3822   15.0841 C   0  0  0  0  0  0  0  0  0  0  0  0
  1  3  4  0
  1 24  4  0
  2  6  4  0
  2 15  4  0
  3  5  4  0
  3  6  4  0
  4 21  4  0
  4 29  4  0
  5 15  4  0
  5 28  1  0
  6 16  4  0
  7 18  4  0
  7 26  4  0
  8 18  1  0
  8 19  4  0
  8 22  4  0
  9 12  4  0
  9 19  4  0
 10 12  4  0
 10 22  4  0
 11 20  4  0
 11 21  4  0
 12 23  1  0
 13 20  4  0
 13 29  4  0
 14 17  4  0
 14 28  4  0
 15 25  2  0
 16 27  4  0
 17 18  4  0
 20 27  1  0
 24 27  4  0
 26 28  4  0
M  END
$$$$

 Created by Python create_sdf_string function

 29 33  0  0  0  0  0  0  0  0999 V2000
    8.8270   -7.0288   18.4251 C   0  0  0  0  0  0  0  0  0  0  0  0
    9.1576   -4.6236   15.8860 O   0  0  0  0  0  0  0  0  0  0  0  0
    9.1509   -5.9108   17.7177 C   0  0  0  0  0  0  0  0  0  0  0  0
    3.6373   -9.5349   16.0582 N   0  0  0  0  0  0  0  0  0  0  0  0
    9.9275   -4.8001   18.0438 N   0  0  0  0  0  0  0  0  0  0  0  0
    8.5908   -5.7425   16.4412 C   0  0  0  0  0  0  0  0  0  0  0  0
   10.5993   -4.8981   21.6068 C   0  0  0  0  0  0  0  0  0  0  0  0
   10.4258   -3.0106   23.0998 C   0  0  0  0  0  0  0  0  0  0  0  0
   10.2148   -3.4364   25.4200 C   0  0  0  0  0  0  0  0  0  0  0  0
    9.7853   -1.1840   24.4927 C   0  0  0  0  0  0  0  0  0  0  0  0
    5.0276   -8.5227   17.5352 C   0  0  0  0  0  0  0  0  0  0  0  0
    9.8187   -2.0895   25.5800 C   0  0  0  0  0  0  0  0  0  0  0  0
    5.6473   -8.7216   15.3158 C   0  0  0  0  0  0  0  0  0  0  0  0
   10.7581   -3.1233   19.4720 N   0  0  0  0  0  0  0  0  0  0  0  0
    9.9571   -4.0573   16.8866 C   0  0  0  0  0  0  0  0  0  0  0  0
    7.6213   -6.5618   16.0087 C   0  0  0  0  0  0  0  0  0  0  0  0
   10.8583   -2.6527   20.7222 C   0  0  0  0  0  0  0  0  0  0  0  0
   10.6412   -3.5089   21.7936 C   0  0  0  0  0  0  0  0  0  0  0  0
   10.4972   -3.8968   24.1589 C   0  0  0  0  0  0  0  0  0  0  0  0
    5.9260   -8.2736   16.5517 C   0  0  0  0  0  0  0  0  0  0  0  0
    3.8816   -9.1166   17.2493 C   0  0  0  0  0  0  0  0  0  0  0  0
   10.1297   -1.6575   23.2324 C   0  0  0  0  0  0  0  0  0  0  0  0
    9.4684   -1.6929   26.7263 F   0  0  0  0  0  0  0  0  0  0  0  0
    7.7963   -7.7906   17.9837 C   0  0  0  0  0  0  0  0  0  0  0  0
   10.5884   -3.0725   16.7902 O   0  0  0  0  0  0  0  0  0  0  0  0
   10.4323   -5.3494   20.3516 C   0  0  0  0  0  0  0  0  0  0  0  0
    7.1156   -7.5454   16.8218 C   0  0  0  0  0  0  0  0  0  0  0  0
   10.3885   -4.4388   19.2773 C   0  0  0  0  0  0  0  0  0  0  0  0
    4.5160   -9.3822   15.0841 C   0  0  0  0  0  0  0  0  0  0  0  0
  1  3  4  0
  1 24  4  0
  2  6  4  0
  2 15  4  0
  3  5  4  0
  3  6  4  0
  4 21  4  0
  4 29  4  0
  5 15  4  0
  5 28  1  0
  6 16  4  0
  7 18  4  0
  7 26  4  0
  8 18  1  0
  8 19  4  0
  8 22  4  0
  9 12  4  0
  9 19  4  0
 10 12  4  0
 10 22  4  0
 11 20  4  0
 11 21  4  0
 12 23  1  0
 13 20  4  0
 13 29  4  0
 14 17  4  0
 14 28  4  0
 15 25  2  0
 16 27  4  0
 17 18  4  0
 20 27  1  0
 24 27  4  0
 26 28  4  0
M  END
$$$$

 Created by Python create_sdf_string function

 29 33  0  0  0  0  0  0  0  0999 V2000
    8.8270   -7.0288   18.4251 C   0  0  0  0  0  0  0  0  0  0  0  0
    9.1576   -4.6236   15.8860 O   0  0  0  0  0  0  0  0  0  0  0  0
    9.1509   -5.9108   17.7177 C   0  0  0  0  0  0  0  0  0  0  0  0
    3.6373   -9.5349   16.0582 N   0  0  0  0  0  0  0  0  0  0  0  0
    9.9275   -4.8001   18.0438 N   0  0  0  0  0  0  0  0  0  0  0  0
    8.5908   -5.7425   16.4412 C   0  0  0  0  0  0  0  0  0  0  0  0
   10.5993   -4.8981   21.6068 C   0  0  0  0  0  0  0  0  0  0  0  0
   10.4258   -3.0106   23.0998 C   0  0  0  0  0  0  0  0  0  0  0  0
   10.2148   -3.4364   25.4200 C   0  0  0  0  0  0  0  0  0  0  0  0
    9.7853   -1.1840   24.4927 C   0  0  0  0  0  0  0  0  0  0  0  0
    5.0276   -8.5227   17.5352 C   0  0  0  0  0  0  0  0  0  0  0  0
    9.8187   -2.0895   25.5800 C   0  0  0  0  0  0  0  0  0  0  0  0
    5.6473   -8.7216   15.3158 C   0  0  0  0  0  0  0  0  0  0  0  0
   10.7581   -3.1233   19.4720 N   0  0  0  0  0  0  0  0  0  0  0  0
    9.9571   -4.0573   16.8866 C   0  0  0  0  0  0  0  0  0  0  0  0
    7.6213   -6.5618   16.0087 C   0  0  0  0  0  0  0  0  0  0  0  0
   10.8583   -2.6527   20.7222 C   0  0  0  0  0  0  0  0  0  0  0  0
   10.6412   -3.5089   21.7936 C   0  0  0  0  0  0  0  0  0  0  0  0
   10.4972   -3.8968   24.1589 C   0  0  0  0  0  0  0  0  0  0  0  0
    5.9260   -8.2736   16.5517 C   0  0  0  0  0  0  0  0  0  0  0  0
    3.8816   -9.1166   17.2493 C   0  0  0  0  0  0  0  0  0  0  0  0
   10.1297   -1.6575   23.2324 C   0  0  0  0  0  0  0  0  0  0  0  0
    9.4684   -1.6929   26.7263 F   0  0  0  0  0  0  0  0  0  0  0  0
    7.7963   -7.7906   17.9837 C   0  0  0  0  0  0  0  0  0  0  0  0
   10.5884   -3.0725   16.7902 O   0  0  0  0  0  0  0  0  0  0  0  0
   10.4323   -5.3494   20.3516 C   0  0  0  0  0  0  0  0  0  0  0  0
    7.1156   -7.5454   16.8218 C   0  0  0  0  0  0  0  0  0  0  0  0
   10.3885   -4.4388   19.2773 C   0  0  0  0  0  0  0  0  0  0  0  0
    4.5160   -9.3822   15.0841 C   0  0  0  0  0  0  0  0  0  0  0  0
  1  3  4  0
  1 24  4  0
  2  6  4  0
  2 15  4  0
  3  5  4  0
  3  6  4  0
  4 21  4  0
  4 29  4  0
  5 15  4  0
  5 28  1  0
  6 16  4  0
  7 18  4  0
  7 26  4  0
  8 18  1  0
  8 19  4  0
  8 22  4  0
  9 12  4  0
  9 19  4  0
 10 12  4  0
 10 22  4  0
 11 20  4  0
 11 21  4  0
 12 23  1  0
 13 20  4  0
 13 29  4  0
 14 17  4  0
 14 28  4  0
 15 25  2  0
 16 27  4  0
 17 18  4  0
 20 27  1  0
 24 27  4  0
 26 28  4  0
M  END
$$$$

 Created by Python create_sdf_string function

 29 33  0  0  0  0  0  0  0  0999 V2000
    8.8270   -7.0288   18.4251 C   0  0  0  0  0  0  0  0  0  0  0  0
    9.1576   -4.6236   15.8860 O   0  0  0  0  0  0  0  0  0  0  0  0
    9.1509   -5.9108   17.7177 C   0  0  0  0  0  0  0  0  0  0  0  0
    3.6373   -9.5349   16.0582 N   0  0  0  0  0  0  0  0  0  0  0  0
    9.9275   -4.8001   18.0438 N   0  0  0  0  0  0  0  0  0  0  0  0
    8.5908   -5.7425   16.4412 C   0  0  0  0  0  0  0  0  0  0  0  0
   10.5993   -4.8981   21.6068 C   0  0  0  0  0  0  0  0  0  0  0  0
   10.4258   -3.0106   23.0998 C   0  0  0  0  0  0  0  0  0  0  0  0
   10.2148   -3.4364   25.4200 C   0  0  0  0  0  0  0  0  0  0  0  0
    9.7853   -1.1840   24.4927 C   0  0  0  0  0  0  0  0  0  0  0  0
    5.0276   -8.5227   17.5352 C   0  0  0  0  0  0  0  0  0  0  0  0
    9.8187   -2.0895   25.5800 C   0  0  0  0  0  0  0  0  0  0  0  0
    5.6473   -8.7216   15.3158 C   0  0  0  0  0  0  0  0  0  0  0  0
   10.7581   -3.1233   19.4720 N   0  0  0  0  0  0  0  0  0  0  0  0
    9.9571   -4.0573   16.8866 C   0  0  0  0  0  0  0  0  0  0  0  0
    7.6213   -6.5618   16.0087 C   0  0  0  0  0  0  0  0  0  0  0  0
   10.8583   -2.6527   20.7222 C   0  0  0  0  0  0  0  0  0  0  0  0
   10.6412   -3.5089   21.7936 C   0  0  0  0  0  0  0  0  0  0  0  0
   10.4972   -3.8968   24.1589 C   0  0  0  0  0  0  0  0  0  0  0  0
    5.9260   -8.2736   16.5517 C   0  0  0  0  0  0  0  0  0  0  0  0
    3.8816   -9.1166   17.2493 C   0  0  0  0  0  0  0  0  0  0  0  0
   10.1297   -1.6575   23.2324 C   0  0  0  0  0  0  0  0  0  0  0  0
    9.4684   -1.6929   26.7263 F   0  0  0  0  0  0  0  0  0  0  0  0
    7.7963   -7.7906   17.9837 C   0  0  0  0  0  0  0  0  0  0  0  0
   10.5884   -3.0725   16.7902 O   0  0  0  0  0  0  0  0  0  0  0  0
   10.4323   -5.3494   20.3516 C   0  0  0  0  0  0  0  0  0  0  0  0
    7.1156   -7.5454   16.8218 C   0  0  0  0  0  0  0  0  0  0  0  0
   10.3885   -4.4388   19.2773 C   0  0  0  0  0  0  0  0  0  0  0  0
    4.5160   -9.3822   15.0841 C   0  0  0  0  0  0  0  0  0  0  0  0
  1  3  4  0
  1 24  4  0
  2  6  4  0
  2 15  4  0
  3  5  4  0
  3  6  4  0
  4 21  4  0
  4 29  4  0
  5 15  4  0
  5 28  1  0
  6 16  4  0
  7 18  4  0
  7 26  4  0
  8 18  1  0
  8 19  4  0
  8 22  4  0
  9 12  4  0
  9 19  4  0
 10 12  4  0
 10 22  4  0
 11 20  4  0
 11 21  4  0
 12 23  1  0
 13 20  4  0
 13 29  4  0
 14 17  4  0
 14 28  4  0
 15 25  2  0
 16 27  4  0
 17 18  4  0
 20 27  1  0
 24 27  4  0
 26 28  4  0
M  END
$$$$

 Created by Python create_sdf_string function

 29 33  0  0  0  0  0  0  0  0999 V2000
    8.8270   -7.0288   18.4251 C   0  0  0  0  0  0  0  0  0  0  0  0
    9.1576   -4.6236   15.8860 O   0  0  0  0  0  0  0  0  0  0  0  0
    9.1509   -5.9108   17.7177 C   0  0  0  0  0  0  0  0  0  0  0  0
    3.6373   -9.5349   16.0582 N   0  0  0  0  0  0  0  0  0  0  0  0
    9.9275   -4.8001   18.0438 N   0  0  0  0  0  0  0  0  0  0  0  0
    8.5908   -5.7425   16.4412 C   0  0  0  0  0  0  0  0  0  0  0  0
   10.5993   -4.8981   21.6068 C   0  0  0  0  0  0  0  0  0  0  0  0
   10.4258   -3.0106   23.0998 C   0  0  0  0  0  0  0  0  0  0  0  0
   10.2148   -3.4364   25.4200 C   0  0  0  0  0  0  0  0  0  0  0  0
    9.7853   -1.1840   24.4927 C   0  0  0  0  0  0  0  0  0  0  0  0
    5.0276   -8.5227   17.5352 C   0  0  0  0  0  0  0  0  0  0  0  0
    9.8187   -2.0895   25.5800 C   0  0  0  0  0  0  0  0  0  0  0  0
    5.6473   -8.7216   15.3158 C   0  0  0  0  0  0  0  0  0  0  0  0
   10.7581   -3.1233   19.4720 N   0  0  0  0  0  0  0  0  0  0  0  0
    9.9571   -4.0573   16.8866 C   0  0  0  0  0  0  0  0  0  0  0  0
    7.6213   -6.5618   16.0087 C   0  0  0  0  0  0  0  0  0  0  0  0
   10.8583   -2.6527   20.7222 C   0  0  0  0  0  0  0  0  0  0  0  0
   10.6412   -3.5089   21.7936 C   0  0  0  0  0  0  0  0  0  0  0  0
   10.4972   -3.8968   24.1589 C   0  0  0  0  0  0  0  0  0  0  0  0
    5.9260   -8.2736   16.5517 C   0  0  0  0  0  0  0  0  0  0  0  0
    3.8816   -9.1166   17.2493 C   0  0  0  0  0  0  0  0  0  0  0  0
   10.1297   -1.6575   23.2324 C   0  0  0  0  0  0  0  0  0  0  0  0
    9.4684   -1.6929   26.7263 F   0  0  0  0  0  0  0  0  0  0  0  0
    7.7963   -7.7906   17.9837 C   0  0  0  0  0  0  0  0  0  0  0  0
   10.5884   -3.0725   16.7902 O   0  0  0  0  0  0  0  0  0  0  0  0
   10.4323   -5.3494   20.3516 C   0  0  0  0  0  0  0  0  0  0  0  0
    7.1156   -7.5454   16.8218 C   0  0  0  0  0  0  0  0  0  0  0  0
   10.3885   -4.4388   19.2773 C   0  0  0  0  0  0  0  0  0  0  0  0
    4.5160   -9.3822   15.0841 C   0  0  0  0  0  0  0  0  0  0  0  0
  1  3  4  0
  1 24  4  0
  2  6  4  0
  2 15  4  0
  3  5  4  0
  3  6  4  0
  4 21  4  0
  4 29  4  0
  5 15  4  0
  5 28  1  0
  6 16  4  0
  7 18  4  0
  7 26  4  0
  8 18  1  0
  8 19  4  0
  8 22  4  0
  9 12  4  0
  9 19  4  0
 10 12  4  0
 10 22  4  0
 11 20  4  0
 11 21  4  0
 12 23  1  0
 13 20  4  0
 13 29  4  0
 14 17  4  0
 14 28  4  0
 15 25  2  0
 16 27  4  0
 17 18  4  0
 20 27  1  0
 24 27  4  0
 26 28  4  0
M  END
$$$$

 Created by Python create_sdf_string function

 29 33  0  0  0  0  0  0  0  0999 V2000
    8.8270   -7.0288   18.4251 C   0  0  0  0  0  0  0  0  0  0  0  0
    9.1576   -4.6236   15.8860 O   0  0  0  0  0  0  0  0  0  0  0  0
    9.1509   -5.9108   17.7177 C   0  0  0  0  0  0  0  0  0  0  0  0
    3.6373   -9.5349   16.0582 N   0  0  0  0  0  0  0  0  0  0  0  0
    9.9275   -4.8001   18.0438 N   0  0  0  0  0  0  0  0  0  0  0  0
    8.5908   -5.7425   16.4412 C   0  0  0  0  0  0  0  0  0  0  0  0
   10.5993   -4.8981   21.6068 C   0  0  0  0  0  0  0  0  0  0  0  0
   10.4258   -3.0106   23.0998 C   0  0  0  0  0  0  0  0  0  0  0  0
   10.2148   -3.4364   25.4200 C   0  0  0  0  0  0  0  0  0  0  0  0
    9.7853   -1.1840   24.4927 C   0  0  0  0  0  0  0  0  0  0  0  0
    5.0276   -8.5227   17.5352 C   0  0  0  0  0  0  0  0  0  0  0  0
    9.8187   -2.0895   25.5800 C   0  0  0  0  0  0  0  0  0  0  0  0
    5.6473   -8.7216   15.3158 C   0  0  0  0  0  0  0  0  0  0  0  0
   10.7581   -3.1233   19.4720 N   0  0  0  0  0  0  0  0  0  0  0  0
    9.9571   -4.0573   16.8866 C   0  0  0  0  0  0  0  0  0  0  0  0
    7.6213   -6.5618   16.0087 C   0  0  0  0  0  0  0  0  0  0  0  0
   10.8583   -2.6527   20.7222 C   0  0  0  0  0  0  0  0  0  0  0  0
   10.6412   -3.5089   21.7936 C   0  0  0  0  0  0  0  0  0  0  0  0
   10.4972   -3.8968   24.1589 C   0  0  0  0  0  0  0  0  0  0  0  0
    5.9260   -8.2736   16.5517 C   0  0  0  0  0  0  0  0  0  0  0  0
    3.8816   -9.1166   17.2493 C   0  0  0  0  0  0  0  0  0  0  0  0
   10.1297   -1.6575   23.2324 C   0  0  0  0  0  0  0  0  0  0  0  0
    9.4684   -1.6929   26.7263 F   0  0  0  0  0  0  0  0  0  0  0  0
    7.7963   -7.7906   17.9837 C   0  0  0  0  0  0  0  0  0  0  0  0
   10.5884   -3.0725   16.7902 O   0  0  0  0  0  0  0  0  0  0  0  0
   10.4323   -5.3494   20.3516 C   0  0  0  0  0  0  0  0  0  0  0  0
    7.1156   -7.5454   16.8218 C   0  0  0  0  0  0  0  0  0  0  0  0
   10.3885   -4.4388   19.2773 C   0  0  0  0  0  0  0  0  0  0  0  0
    4.5160   -9.3822   15.0841 C   0  0  0  0  0  0  0  0  0  0  0  0
  1  3  4  0
  1 24  4  0
  2  6  4  0
  2 15  4  0
  3  5  4  0
  3  6  4  0
  4 21  4  0
  4 29  4  0
  5 15  4  0
  5 28  1  0
  6 16  4  0
  7 18  4  0
  7 26  4  0
  8 18  1  0
  8 19  4  0
  8 22  4  0
  9 12  4  0
  9 19  4  0
 10 12  4  0
 10 22  4  0
 11 20  4  0
 11 21  4  0
 12 23  1  0
 13 20  4  0
 13 29  4  0
 14 17  4  0
 14 28  4  0
 15 25  2  0
 16 27  4  0
 17 18  4  0
 20 27  1  0
 24 27  4  0
 26 28  4  0
M  END
$$$$

 Created by Python create_sdf_string function

 29 33  0  0  0  0  0  0  0  0999 V2000
    8.8270   -7.0288   18.4251 C   0  0  0  0  0  0  0  0  0  0  0  0
    9.1576   -4.6236   15.8860 O   0  0  0  0  0  0  0  0  0  0  0  0
    9.1509   -5.9108   17.7177 C   0  0  0  0  0  0  0  0  0  0  0  0
    3.6373   -9.5349   16.0582 N   0  0  0  0  0  0  0  0  0  0  0  0
    9.9275   -4.8001   18.0438 N   0  0  0  0  0  0  0  0  0  0  0  0
    8.5908   -5.7425   16.4412 C   0  0  0  0  0  0  0  0  0  0  0  0
   10.5993   -4.8981   21.6068 C   0  0  0  0  0  0  0  0  0  0  0  0
   10.4258   -3.0106   23.0998 C   0  0  0  0  0  0  0  0  0  0  0  0
   10.2148   -3.4364   25.4200 C   0  0  0  0  0  0  0  0  0  0  0  0
    9.7853   -1.1840   24.4927 C   0  0  0  0  0  0  0  0  0  0  0  0
    5.0276   -8.5227   17.5352 C   0  0  0  0  0  0  0  0  0  0  0  0
    9.8187   -2.0895   25.5800 C   0  0  0  0  0  0  0  0  0  0  0  0
    5.6473   -8.7216   15.3158 C   0  0  0  0  0  0  0  0  0  0  0  0
   10.7581   -3.1233   19.4720 N   0  0  0  0  0  0  0  0  0  0  0  0
    9.9571   -4.0573   16.8866 C   0  0  0  0  0  0  0  0  0  0  0  0
    7.6213   -6.5618   16.0087 C   0  0  0  0  0  0  0  0  0  0  0  0
   10.8583   -2.6527   20.7222 C   0  0  0  0  0  0  0  0  0  0  0  0
   10.6412   -3.5089   21.7936 C   0  0  0  0  0  0  0  0  0  0  0  0
   10.4972   -3.8968   24.1589 C   0  0  0  0  0  0  0  0  0  0  0  0
    5.9260   -8.2736   16.5517 C   0  0  0  0  0  0  0  0  0  0  0  0
    3.8816   -9.1166   17.2493 C   0  0  0  0  0  0  0  0  0  0  0  0
   10.1297   -1.6575   23.2324 C   0  0  0  0  0  0  0  0  0  0  0  0
    9.4684   -1.6929   26.7263 F   0  0  0  0  0  0  0  0  0  0  0  0
    7.7963   -7.7906   17.9837 C   0  0  0  0  0  0  0  0  0  0  0  0
   10.5884   -3.0725   16.7902 O   0  0  0  0  0  0  0  0  0  0  0  0
   10.4323   -5.3494   20.3516 C   0  0  0  0  0  0  0  0  0  0  0  0
    7.1156   -7.5454   16.8218 C   0  0  0  0  0  0  0  0  0  0  0  0
   10.3885   -4.4388   19.2773 C   0  0  0  0  0  0  0  0  0  0  0  0
    4.5160   -9.3822   15.0841 C   0  0  0  0  0  0  0  0  0  0  0  0
  1  3  4  0
  1 24  4  0
  2  6  4  0
  2 15  4  0
  3  5  4  0
  3  6  4  0
  4 21  4  0
  4 29  4  0
  5 15  4  0
  5 28  1  0
  6 16  4  0
  7 18  4  0
  7 26  4  0
  8 18  1  0
  8 19  4  0
  8 22  4  0
  9 12  4  0
  9 19  4  0
 10 12  4  0
 10 22  4  0
 11 20  4  0
 11 21  4  0
 12 23  1  0
 13 20  4  0
 13 29  4  0
 14 17  4  0
 14 28  4  0
 15 25  2  0
 16 27  4  0
 17 18  4  0
 20 27  1  0
 24 27  4  0
 26 28  4  0
M  END
$$$$

 Created by Python create_sdf_string function

 29 33  0  0  0  0  0  0  0  0999 V2000
    8.8270   -7.0288   18.4251 C   0  0  0  0  0  0  0  0  0  0  0  0
    9.1576   -4.6236   15.8860 O   0  0  0  0  0  0  0  0  0  0  0  0
    9.1509   -5.9108   17.7177 C   0  0  0  0  0  0  0  0  0  0  0  0
    3.6373   -9.5349   16.0582 N   0  0  0  0  0  0  0  0  0  0  0  0
    9.9275   -4.8001   18.0438 N   0  0  0  0  0  0  0  0  0  0  0  0
    8.5908   -5.7425   16.4412 C   0  0  0  0  0  0  0  0  0  0  0  0
   10.5993   -4.8981   21.6068 C   0  0  0  0  0  0  0  0  0  0  0  0
   10.4258   -3.0106   23.0998 C   0  0  0  0  0  0  0  0  0  0  0  0
   10.2148   -3.4364   25.4200 C   0  0  0  0  0  0  0  0  0  0  0  0
    9.7853   -1.1840   24.4927 C   0  0  0  0  0  0  0  0  0  0  0  0
    5.0276   -8.5227   17.5352 C   0  0  0  0  0  0  0  0  0  0  0  0
    9.8187   -2.0895   25.5800 C   0  0  0  0  0  0  0  0  0  0  0  0
    5.6473   -8.7216   15.3158 C   0  0  0  0  0  0  0  0  0  0  0  0
   10.7581   -3.1233   19.4720 N   0  0  0  0  0  0  0  0  0  0  0  0
    9.9571   -4.0573   16.8866 C   0  0  0  0  0  0  0  0  0  0  0  0
    7.6213   -6.5618   16.0087 C   0  0  0  0  0  0  0  0  0  0  0  0
   10.8583   -2.6527   20.7222 C   0  0  0  0  0  0  0  0  0  0  0  0
   10.6412   -3.5089   21.7936 C   0  0  0  0  0  0  0  0  0  0  0  0
   10.4972   -3.8968   24.1589 C   0  0  0  0  0  0  0  0  0  0  0  0
    5.9260   -8.2736   16.5517 C   0  0  0  0  0  0  0  0  0  0  0  0
    3.8816   -9.1166   17.2493 C   0  0  0  0  0  0  0  0  0  0  0  0
   10.1297   -1.6575   23.2324 C   0  0  0  0  0  0  0  0  0  0  0  0
    9.4684   -1.6929   26.7263 F   0  0  0  0  0  0  0  0  0  0  0  0
    7.7963   -7.7906   17.9837 C   0  0  0  0  0  0  0  0  0  0  0  0
   10.5884   -3.0725   16.7902 O   0  0  0  0  0  0  0  0  0  0  0  0
   10.4323   -5.3494   20.3516 C   0  0  0  0  0  0  0  0  0  0  0  0
    7.1156   -7.5454   16.8218 C   0  0  0  0  0  0  0  0  0  0  0  0
   10.3885   -4.4388   19.2773 C   0  0  0  0  0  0  0  0  0  0  0  0
    4.5160   -9.3822   15.0841 C   0  0  0  0  0  0  0  0  0  0  0  0
  1  3  4  0
  1 24  4  0
  2  6  4  0
  2 15  4  0
  3  5  4  0
  3  6  4  0
  4 21  4  0
  4 29  4  0
  5 15  4  0
  5 28  1  0
  6 16  4  0
  7 18  4  0
  7 26  4  0
  8 18  1  0
  8 19  4  0
  8 22  4  0
  9 12  4  0
  9 19  4  0
 10 12  4  0
 10 22  4  0
 11 20  4  0
 11 21  4  0
 12 23  1  0
 13 20  4  0
 13 29  4  0
 14 17  4  0
 14 28  4  0
 15 25  2  0
 16 27  4  0
 17 18  4  0
 20 27  1  0
 24 27  4  0
 26 28  4  0
M  END
$$$$

 Created by Python create_sdf_string function

 29 33  0  0  0  0  0  0  0  0999 V2000
    8.8270   -7.0288   18.4251 C   0  0  0  0  0  0  0  0  0  0  0  0
    9.1576   -4.6236   15.8860 O   0  0  0  0  0  0  0  0  0  0  0  0
    9.1509   -5.9108   17.7177 C   0  0  0  0  0  0  0  0  0  0  0  0
    3.6373   -9.5349   16.0582 N   0  0  0  0  0  0  0  0  0  0  0  0
    9.9275   -4.8001   18.0438 N   0  0  0  0  0  0  0  0  0  0  0  0
    8.5908   -5.7425   16.4412 C   0  0  0  0  0  0  0  0  0  0  0  0
   10.5993   -4.8981   21.6068 C   0  0  0  0  0  0  0  0  0  0  0  0
   10.4258   -3.0106   23.0998 C   0  0  0  0  0  0  0  0  0  0  0  0
   10.2148   -3.4364   25.4200 C   0  0  0  0  0  0  0  0  0  0  0  0
    9.7853   -1.1840   24.4927 C   0  0  0  0  0  0  0  0  0  0  0  0
    5.0276   -8.5227   17.5352 C   0  0  0  0  0  0  0  0  0  0  0  0
    9.8187   -2.0895   25.5800 C   0  0  0  0  0  0  0  0  0  0  0  0
    5.6473   -8.7216   15.3158 C   0  0  0  0  0  0  0  0  0  0  0  0
   10.7581   -3.1233   19.4720 N   0  0  0  0  0  0  0  0  0  0  0  0
    9.9571   -4.0573   16.8866 C   0  0  0  0  0  0  0  0  0  0  0  0
    7.6213   -6.5618   16.0087 C   0  0  0  0  0  0  0  0  0  0  0  0
   10.8583   -2.6527   20.7222 C   0  0  0  0  0  0  0  0  0  0  0  0
   10.6412   -3.5089   21.7936 C   0  0  0  0  0  0  0  0  0  0  0  0
   10.4972   -3.8968   24.1589 C   0  0  0  0  0  0  0  0  0  0  0  0
    5.9260   -8.2736   16.5517 C   0  0  0  0  0  0  0  0  0  0  0  0
    3.8816   -9.1166   17.2493 C   0  0  0  0  0  0  0  0  0  0  0  0
   10.1297   -1.6575   23.2324 C   0  0  0  0  0  0  0  0  0  0  0  0
    9.4684   -1.6929   26.7263 F   0  0  0  0  0  0  0  0  0  0  0  0
    7.7963   -7.7906   17.9837 C   0  0  0  0  0  0  0  0  0  0  0  0
   10.5884   -3.0725   16.7902 O   0  0  0  0  0  0  0  0  0  0  0  0
   10.4323   -5.3494   20.3516 C   0  0  0  0  0  0  0  0  0  0  0  0
    7.1156   -7.5454   16.8218 C   0  0  0  0  0  0  0  0  0  0  0  0
   10.3885   -4.4388   19.2773 C   0  0  0  0  0  0  0  0  0  0  0  0
    4.5160   -9.3822   15.0841 C   0  0  0  0  0  0  0  0  0  0  0  0
  1  3  4  0
  1 24  4  0
  2  6  4  0
  2 15  4  0
  3  5  4  0
  3  6  4  0
  4 21  4  0
  4 29  4  0
  5 15  4  0
  5 28  1  0
  6 16  4  0
  7 18  4  0
  7 26  4  0
  8 18  1  0
  8 19  4  0
  8 22  4  0
  9 12  4  0
  9 19  4  0
 10 12  4  0
 10 22  4  0
 11 20  4  0
 11 21  4  0
 12 23  1  0
 13 20  4  0
 13 29  4  0
 14 17  4  0
 14 28  4  0
 15 25  2  0
 16 27  4  0
 17 18  4  0
 20 27  1  0
 24 27  4  0
 26 28  4  0
M  END
$$$$

 Created by Python create_sdf_string function

 29 33  0  0  0  0  0  0  0  0999 V2000
    8.8270   -7.0288   18.4251 C   0  0  0  0  0  0  0  0  0  0  0  0
    9.1576   -4.6236   15.8860 O   0  0  0  0  0  0  0  0  0  0  0  0
    9.1509   -5.9108   17.7177 C   0  0  0  0  0  0  0  0  0  0  0  0
    3.6373   -9.5349   16.0582 N   0  0  0  0  0  0  0  0  0  0  0  0
    9.9275   -4.8001   18.0438 N   0  0  0  0  0  0  0  0  0  0  0  0
    8.5908   -5.7425   16.4412 C   0  0  0  0  0  0  0  0  0  0  0  0
   10.5993   -4.8981   21.6068 C   0  0  0  0  0  0  0  0  0  0  0  0
   10.4258   -3.0106   23.0998 C   0  0  0  0  0  0  0  0  0  0  0  0
   10.2148   -3.4364   25.4200 C   0  0  0  0  0  0  0  0  0  0  0  0
    9.7853   -1.1840   24.4927 C   0  0  0  0  0  0  0  0  0  0  0  0
    5.0276   -8.5227   17.5352 C   0  0  0  0  0  0  0  0  0  0  0  0
    9.8187   -2.0895   25.5800 C   0  0  0  0  0  0  0  0  0  0  0  0
    5.6473   -8.7216   15.3158 C   0  0  0  0  0  0  0  0  0  0  0  0
   10.7581   -3.1233   19.4720 N   0  0  0  0  0  0  0  0  0  0  0  0
    9.9571   -4.0573   16.8866 C   0  0  0  0  0  0  0  0  0  0  0  0
    7.6213   -6.5618   16.0087 C   0  0  0  0  0  0  0  0  0  0  0  0
   10.8583   -2.6527   20.7222 C   0  0  0  0  0  0  0  0  0  0  0  0
   10.6412   -3.5089   21.7936 C   0  0  0  0  0  0  0  0  0  0  0  0
   10.4972   -3.8968   24.1589 C   0  0  0  0  0  0  0  0  0  0  0  0
    5.9260   -8.2736   16.5517 C   0  0  0  0  0  0  0  0  0  0  0  0
    3.8816   -9.1166   17.2493 C   0  0  0  0  0  0  0  0  0  0  0  0
   10.1297   -1.6575   23.2324 C   0  0  0  0  0  0  0  0  0  0  0  0
    9.4684   -1.6929   26.7263 F   0  0  0  0  0  0  0  0  0  0  0  0
    7.7963   -7.7906   17.9837 C   0  0  0  0  0  0  0  0  0  0  0  0
   10.5884   -3.0725   16.7902 O   0  0  0  0  0  0  0  0  0  0  0  0
   10.4323   -5.3494   20.3516 C   0  0  0  0  0  0  0  0  0  0  0  0
    7.1156   -7.5454   16.8218 C   0  0  0  0  0  0  0  0  0  0  0  0
   10.3885   -4.4388   19.2773 C   0  0  0  0  0  0  0  0  0  0  0  0
    4.5160   -9.3822   15.0841 C   0  0  0  0  0  0  0  0  0  0  0  0
  1  3  4  0
  1 24  4  0
  2  6  4  0
  2 15  4  0
  3  5  4  0
  3  6  4  0
  4 21  4  0
  4 29  4  0
  5 15  4  0
  5 28  1  0
  6 16  4  0
  7 18  4  0
  7 26  4  0
  8 18  1  0
  8 19  4  0
  8 22  4  0
  9 12  4  0
  9 19  4  0
 10 12  4  0
 10 22  4  0
 11 20  4  0
 11 21  4  0
 12 23  1  0
 13 20  4  0
 13 29  4  0
 14 17  4  0
 14 28  4  0
 15 25  2  0
 16 27  4  0
 17 18  4  0
 20 27  1  0
 24 27  4  0
 26 28  4  0
M  END
$$$$

 Created by Python create_sdf_string function

 29 33  0  0  0  0  0  0  0  0999 V2000
    8.8270   -7.0288   18.4251 C   0  0  0  0  0  0  0  0  0  0  0  0
    9.1576   -4.6236   15.8860 O   0  0  0  0  0  0  0  0  0  0  0  0
    9.1509   -5.9108   17.7177 C   0  0  0  0  0  0  0  0  0  0  0  0
    3.6373   -9.5349   16.0582 N   0  0  0  0  0  0  0  0  0  0  0  0
    9.9275   -4.8001   18.0438 N   0  0  0  0  0  0  0  0  0  0  0  0
    8.5908   -5.7425   16.4412 C   0  0  0  0  0  0  0  0  0  0  0  0
   10.5993   -4.8981   21.6068 C   0  0  0  0  0  0  0  0  0  0  0  0
   10.4258   -3.0106   23.0998 C   0  0  0  0  0  0  0  0  0  0  0  0
   10.2148   -3.4364   25.4200 C   0  0  0  0  0  0  0  0  0  0  0  0
    9.7853   -1.1840   24.4927 C   0  0  0  0  0  0  0  0  0  0  0  0
    5.0276   -8.5227   17.5352 C   0  0  0  0  0  0  0  0  0  0  0  0
    9.8187   -2.0895   25.5800 C   0  0  0  0  0  0  0  0  0  0  0  0
    5.6473   -8.7216   15.3158 C   0  0  0  0  0  0  0  0  0  0  0  0
   10.7581   -3.1233   19.4720 N   0  0  0  0  0  0  0  0  0  0  0  0
    9.9571   -4.0573   16.8866 C   0  0  0  0  0  0  0  0  0  0  0  0
    7.6213   -6.5618   16.0087 C   0  0  0  0  0  0  0  0  0  0  0  0
   10.8583   -2.6527   20.7222 C   0  0  0  0  0  0  0  0  0  0  0  0
   10.6412   -3.5089   21.7936 C   0  0  0  0  0  0  0  0  0  0  0  0
   10.4972   -3.8968   24.1589 C   0  0  0  0  0  0  0  0  0  0  0  0
    5.9260   -8.2736   16.5517 C   0  0  0  0  0  0  0  0  0  0  0  0
    3.8816   -9.1166   17.2493 C   0  0  0  0  0  0  0  0  0  0  0  0
   10.1297   -1.6575   23.2324 C   0  0  0  0  0  0  0  0  0  0  0  0
    9.4684   -1.6929   26.7263 F   0  0  0  0  0  0  0  0  0  0  0  0
    7.7963   -7.7906   17.9837 C   0  0  0  0  0  0  0  0  0  0  0  0
   10.5884   -3.0725   16.7902 O   0  0  0  0  0  0  0  0  0  0  0  0
   10.4323   -5.3494   20.3516 C   0  0  0  0  0  0  0  0  0  0  0  0
    7.1156   -7.5454   16.8218 C   0  0  0  0  0  0  0  0  0  0  0  0
   10.3885   -4.4388   19.2773 C   0  0  0  0  0  0  0  0  0  0  0  0
    4.5160   -9.3822   15.0841 C   0  0  0  0  0  0  0  0  0  0  0  0
  1  3  4  0
  1 24  4  0
  2  6  4  0
  2 15  4  0
  3  5  4  0
  3  6  4  0
  4 21  4  0
  4 29  4  0
  5 15  4  0
  5 28  1  0
  6 16  4  0
  7 18  4  0
  7 26  4  0
  8 18  1  0
  8 19  4  0
  8 22  4  0
  9 12  4  0
  9 19  4  0
 10 12  4  0
 10 22  4  0
 11 20  4  0
 11 21  4  0
 12 23  1  0
 13 20  4  0
 13 29  4  0
 14 17  4  0
 14 28  4  0
 15 25  2  0
 16 27  4  0
 17 18  4  0
 20 27  1  0
 24 27  4  0
 26 28  4  0
M  END
$$$$

 Created by Python create_sdf_string function

 29 33  0  0  0  0  0  0  0  0999 V2000
    8.8270   -7.0288   18.4251 C   0  0  0  0  0  0  0  0  0  0  0  0
    9.1576   -4.6236   15.8860 O   0  0  0  0  0  0  0  0  0  0  0  0
    9.1509   -5.9108   17.7177 C   0  0  0  0  0  0  0  0  0  0  0  0
    3.6373   -9.5349   16.0582 N   0  0  0  0  0  0  0  0  0  0  0  0
    9.9275   -4.8001   18.0438 N   0  0  0  0  0  0  0  0  0  0  0  0
    8.5908   -5.7425   16.4412 C   0  0  0  0  0  0  0  0  0  0  0  0
   10.5993   -4.8981   21.6068 C   0  0  0  0  0  0  0  0  0  0  0  0
   10.4258   -3.0106   23.0998 C   0  0  0  0  0  0  0  0  0  0  0  0
   10.2148   -3.4364   25.4200 C   0  0  0  0  0  0  0  0  0  0  0  0
    9.7853   -1.1840   24.4927 C   0  0  0  0  0  0  0  0  0  0  0  0
    5.0276   -8.5227   17.5352 C   0  0  0  0  0  0  0  0  0  0  0  0
    9.8187   -2.0895   25.5800 C   0  0  0  0  0  0  0  0  0  0  0  0
    5.6473   -8.7216   15.3158 C   0  0  0  0  0  0  0  0  0  0  0  0
   10.7581   -3.1233   19.4720 N   0  0  0  0  0  0  0  0  0  0  0  0
    9.9571   -4.0573   16.8866 C   0  0  0  0  0  0  0  0  0  0  0  0
    7.6213   -6.5618   16.0087 C   0  0  0  0  0  0  0  0  0  0  0  0
   10.8583   -2.6527   20.7222 C   0  0  0  0  0  0  0  0  0  0  0  0
   10.6412   -3.5089   21.7936 C   0  0  0  0  0  0  0  0  0  0  0  0
   10.4972   -3.8968   24.1589 C   0  0  0  0  0  0  0  0  0  0  0  0
    5.9260   -8.2736   16.5517 C   0  0  0  0  0  0  0  0  0  0  0  0
    3.8816   -9.1166   17.2493 C   0  0  0  0  0  0  0  0  0  0  0  0
   10.1297   -1.6575   23.2324 C   0  0  0  0  0  0  0  0  0  0  0  0
    9.4684   -1.6929   26.7263 F   0  0  0  0  0  0  0  0  0  0  0  0
    7.7963   -7.7906   17.9837 C   0  0  0  0  0  0  0  0  0  0  0  0
   10.5884   -3.0725   16.7902 O   0  0  0  0  0  0  0  0  0  0  0  0
   10.4323   -5.3494   20.3516 C   0  0  0  0  0  0  0  0  0  0  0  0
    7.1156   -7.5454   16.8218 C   0  0  0  0  0  0  0  0  0  0  0  0
   10.3885   -4.4388   19.2773 C   0  0  0  0  0  0  0  0  0  0  0  0
    4.5160   -9.3822   15.0841 C   0  0  0  0  0  0  0  0  0  0  0  0
  1  3  4  0
  1 24  4  0
  2  6  4  0
  2 15  4  0
  3  5  4  0
  3  6  4  0
  4 21  4  0
  4 29  4  0
  5 15  4  0
  5 28  1  0
  6 16  4  0
  7 18  4  0
  7 26  4  0
  8 18  1  0
  8 19  4  0
  8 22  4  0
  9 12  4  0
  9 19  4  0
 10 12  4  0
 10 22  4  0
 11 20  4  0
 11 21  4  0
 12 23  1  0
 13 20  4  0
 13 29  4  0
 14 17  4  0
 14 28  4  0
 15 25  2  0
 16 27  4  0
 17 18  4  0
 20 27  1  0
 24 27  4  0
 26 28  4  0
M  END
$$$$

 Created by Python create_sdf_string function

 29 33  0  0  0  0  0  0  0  0999 V2000
    8.8270   -7.0288   18.4251 C   0  0  0  0  0  0  0  0  0  0  0  0
    9.1576   -4.6236   15.8860 O   0  0  0  0  0  0  0  0  0  0  0  0
    9.1509   -5.9108   17.7177 C   0  0  0  0  0  0  0  0  0  0  0  0
    3.6373   -9.5349   16.0582 N   0  0  0  0  0  0  0  0  0  0  0  0
    9.9275   -4.8001   18.0438 N   0  0  0  0  0  0  0  0  0  0  0  0
    8.5908   -5.7425   16.4412 C   0  0  0  0  0  0  0  0  0  0  0  0
   10.5993   -4.8981   21.6068 C   0  0  0  0  0  0  0  0  0  0  0  0
   10.4258   -3.0106   23.0998 C   0  0  0  0  0  0  0  0  0  0  0  0
   10.2148   -3.4364   25.4200 C   0  0  0  0  0  0  0  0  0  0  0  0
    9.7853   -1.1840   24.4927 C   0  0  0  0  0  0  0  0  0  0  0  0
    5.0276   -8.5227   17.5352 C   0  0  0  0  0  0  0  0  0  0  0  0
    9.8187   -2.0895   25.5800 C   0  0  0  0  0  0  0  0  0  0  0  0
    5.6473   -8.7216   15.3158 C   0  0  0  0  0  0  0  0  0  0  0  0
   10.7581   -3.1233   19.4720 N   0  0  0  0  0  0  0  0  0  0  0  0
    9.9571   -4.0573   16.8866 C   0  0  0  0  0  0  0  0  0  0  0  0
    7.6213   -6.5618   16.0087 C   0  0  0  0  0  0  0  0  0  0  0  0
   10.8583   -2.6527   20.7222 C   0  0  0  0  0  0  0  0  0  0  0  0
   10.6412   -3.5089   21.7936 C   0  0  0  0  0  0  0  0  0  0  0  0
   10.4972   -3.8968   24.1589 C   0  0  0  0  0  0  0  0  0  0  0  0
    5.9260   -8.2736   16.5517 C   0  0  0  0  0  0  0  0  0  0  0  0
    3.8816   -9.1166   17.2493 C   0  0  0  0  0  0  0  0  0  0  0  0
   10.1297   -1.6575   23.2324 C   0  0  0  0  0  0  0  0  0  0  0  0
    9.4684   -1.6929   26.7263 F   0  0  0  0  0  0  0  0  0  0  0  0
    7.7963   -7.7906   17.9837 C   0  0  0  0  0  0  0  0  0  0  0  0
   10.5884   -3.0725   16.7902 O   0  0  0  0  0  0  0  0  0  0  0  0
   10.4323   -5.3494   20.3516 C   0  0  0  0  0  0  0  0  0  0  0  0
    7.1156   -7.5454   16.8218 C   0  0  0  0  0  0  0  0  0  0  0  0
   10.3885   -4.4388   19.2773 C   0  0  0  0  0  0  0  0  0  0  0  0
    4.5160   -9.3822   15.0841 C   0  0  0  0  0  0  0  0  0  0  0  0
  1  3  4  0
  1 24  4  0
  2  6  4  0
  2 15  4  0
  3  5  4  0
  3  6  4  0
  4 21  4  0
  4 29  4  0
  5 15  4  0
  5 28  1  0
  6 16  4  0
  7 18  4  0
  7 26  4  0
  8 18  1  0
  8 19  4  0
  8 22  4  0
  9 12  4  0
  9 19  4  0
 10 12  4  0
 10 22  4  0
 11 20  4  0
 11 21  4  0
 12 23  1  0
 13 20  4  0
 13 29  4  0
 14 17  4  0
 14 28  4  0
 15 25  2  0
 16 27  4  0
 17 18  4  0
 20 27  1  0
 24 27  4  0
 26 28  4  0
M  END
$$$$

 Created by Python create_sdf_string function

 29 33  0  0  0  0  0  0  0  0999 V2000
    8.8270   -7.0288   18.4251 C   0  0  0  0  0  0  0  0  0  0  0  0
    9.1576   -4.6236   15.8860 O   0  0  0  0  0  0  0  0  0  0  0  0
    9.1509   -5.9108   17.7177 C   0  0  0  0  0  0  0  0  0  0  0  0
    3.6373   -9.5349   16.0582 N   0  0  0  0  0  0  0  0  0  0  0  0
    9.9275   -4.8001   18.0438 N   0  0  0  0  0  0  0  0  0  0  0  0
    8.5908   -5.7425   16.4412 C   0  0  0  0  0  0  0  0  0  0  0  0
   10.5993   -4.8981   21.6068 C   0  0  0  0  0  0  0  0  0  0  0  0
   10.4258   -3.0106   23.0998 C   0  0  0  0  0  0  0  0  0  0  0  0
   10.2148   -3.4364   25.4200 C   0  0  0  0  0  0  0  0  0  0  0  0
    9.7853   -1.1840   24.4927 C   0  0  0  0  0  0  0  0  0  0  0  0
    5.0276   -8.5227   17.5352 C   0  0  0  0  0  0  0  0  0  0  0  0
    9.8187   -2.0895   25.5800 C   0  0  0  0  0  0  0  0  0  0  0  0
    5.6473   -8.7216   15.3158 C   0  0  0  0  0  0  0  0  0  0  0  0
   10.7581   -3.1233   19.4720 N   0  0  0  0  0  0  0  0  0  0  0  0
    9.9571   -4.0573   16.8866 C   0  0  0  0  0  0  0  0  0  0  0  0
    7.6213   -6.5618   16.0087 C   0  0  0  0  0  0  0  0  0  0  0  0
   10.8583   -2.6527   20.7222 C   0  0  0  0  0  0  0  0  0  0  0  0
   10.6412   -3.5089   21.7936 C   0  0  0  0  0  0  0  0  0  0  0  0
   10.4972   -3.8968   24.1589 C   0  0  0  0  0  0  0  0  0  0  0  0
    5.9260   -8.2736   16.5517 C   0  0  0  0  0  0  0  0  0  0  0  0
    3.8816   -9.1166   17.2493 C   0  0  0  0  0  0  0  0  0  0  0  0
   10.1297   -1.6575   23.2324 C   0  0  0  0  0  0  0  0  0  0  0  0
    9.4684   -1.6929   26.7263 F   0  0  0  0  0  0  0  0  0  0  0  0
    7.7963   -7.7906   17.9837 C   0  0  0  0  0  0  0  0  0  0  0  0
   10.5884   -3.0725   16.7902 O   0  0  0  0  0  0  0  0  0  0  0  0
   10.4323   -5.3494   20.3516 C   0  0  0  0  0  0  0  0  0  0  0  0
    7.1156   -7.5454   16.8218 C   0  0  0  0  0  0  0  0  0  0  0  0
   10.3885   -4.4388   19.2773 C   0  0  0  0  0  0  0  0  0  0  0  0
    4.5160   -9.3822   15.0841 C   0  0  0  0  0  0  0  0  0  0  0  0
  1  3  4  0
  1 24  4  0
  2  6  4  0
  2 15  4  0
  3  5  4  0
  3  6  4  0
  4 21  4  0
  4 29  4  0
  5 15  4  0
  5 28  1  0
  6 16  4  0
  7 18  4  0
  7 26  4  0
  8 18  1  0
  8 19  4  0
  8 22  4  0
  9 12  4  0
  9 19  4  0
 10 12  4  0
 10 22  4  0
 11 20  4  0
 11 21  4  0
 12 23  1  0
 13 20  4  0
 13 29  4  0
 14 17  4  0
 14 28  4  0
 15 25  2  0
 16 27  4  0
 17 18  4  0
 20 27  1  0
 24 27  4  0
 26 28  4  0
M  END
$$$$

 Created by Python create_sdf_string function

 29 33  0  0  0  0  0  0  0  0999 V2000
    8.8270   -7.0288   18.4251 C   0  0  0  0  0  0  0  0  0  0  0  0
    9.1576   -4.6236   15.8860 O   0  0  0  0  0  0  0  0  0  0  0  0
    9.1509   -5.9108   17.7177 C   0  0  0  0  0  0  0  0  0  0  0  0
    3.6373   -9.5349   16.0582 N   0  0  0  0  0  0  0  0  0  0  0  0
    9.9275   -4.8001   18.0438 N   0  0  0  0  0  0  0  0  0  0  0  0
    8.5908   -5.7425   16.4412 C   0  0  0  0  0  0  0  0  0  0  0  0
   10.5993   -4.8981   21.6068 C   0  0  0  0  0  0  0  0  0  0  0  0
   10.4258   -3.0106   23.0998 C   0  0  0  0  0  0  0  0  0  0  0  0
   10.2148   -3.4364   25.4200 C   0  0  0  0  0  0  0  0  0  0  0  0
    9.7853   -1.1840   24.4927 C   0  0  0  0  0  0  0  0  0  0  0  0
    5.0276   -8.5227   17.5352 C   0  0  0  0  0  0  0  0  0  0  0  0
    9.8187   -2.0895   25.5800 C   0  0  0  0  0  0  0  0  0  0  0  0
    5.6473   -8.7216   15.3158 C   0  0  0  0  0  0  0  0  0  0  0  0
   10.7581   -3.1233   19.4720 N   0  0  0  0  0  0  0  0  0  0  0  0
    9.9571   -4.0573   16.8866 C   0  0  0  0  0  0  0  0  0  0  0  0
    7.6213   -6.5618   16.0087 C   0  0  0  0  0  0  0  0  0  0  0  0
   10.8583   -2.6527   20.7222 C   0  0  0  0  0  0  0  0  0  0  0  0
   10.6412   -3.5089   21.7936 C   0  0  0  0  0  0  0  0  0  0  0  0
   10.4972   -3.8968   24.1589 C   0  0  0  0  0  0  0  0  0  0  0  0
    5.9260   -8.2736   16.5517 C   0  0  0  0  0  0  0  0  0  0  0  0
    3.8816   -9.1166   17.2493 C   0  0  0  0  0  0  0  0  0  0  0  0
   10.1297   -1.6575   23.2324 C   0  0  0  0  0  0  0  0  0  0  0  0
    9.4684   -1.6929   26.7263 F   0  0  0  0  0  0  0  0  0  0  0  0
    7.7963   -7.7906   17.9837 C   0  0  0  0  0  0  0  0  0  0  0  0
   10.5884   -3.0725   16.7902 O   0  0  0  0  0  0  0  0  0  0  0  0
   10.4323   -5.3494   20.3516 C   0  0  0  0  0  0  0  0  0  0  0  0
    7.1156   -7.5454   16.8218 C   0  0  0  0  0  0  0  0  0  0  0  0
   10.3885   -4.4388   19.2773 C   0  0  0  0  0  0  0  0  0  0  0  0
    4.5160   -9.3822   15.0841 C   0  0  0  0  0  0  0  0  0  0  0  0
  1  3  4  0
  1 24  4  0
  2  6  4  0
  2 15  4  0
  3  5  4  0
  3  6  4  0
  4 21  4  0
  4 29  4  0
  5 15  4  0
  5 28  1  0
  6 16  4  0
  7 18  4  0
  7 26  4  0
  8 18  1  0
  8 19  4  0
  8 22  4  0
  9 12  4  0
  9 19  4  0
 10 12  4  0
 10 22  4  0
 11 20  4  0
 11 21  4  0
 12 23  1  0
 13 20  4  0
 13 29  4  0
 14 17  4  0
 14 28  4  0
 15 25  2  0
 16 27  4  0
 17 18  4  0
 20 27  1  0
 24 27  4  0
 26 28  4  0
M  END
$$$$

 Created by Python create_sdf_string function

 29 33  0  0  0  0  0  0  0  0999 V2000
    8.8270   -7.0288   18.4251 C   0  0  0  0  0  0  0  0  0  0  0  0
    9.1576   -4.6236   15.8860 O   0  0  0  0  0  0  0  0  0  0  0  0
    9.1509   -5.9108   17.7177 C   0  0  0  0  0  0  0  0  0  0  0  0
    3.6373   -9.5349   16.0582 N   0  0  0  0  0  0  0  0  0  0  0  0
    9.9275   -4.8001   18.0438 N   0  0  0  0  0  0  0  0  0  0  0  0
    8.5908   -5.7425   16.4412 C   0  0  0  0  0  0  0  0  0  0  0  0
   10.5993   -4.8981   21.6068 C   0  0  0  0  0  0  0  0  0  0  0  0
   10.4258   -3.0106   23.0998 C   0  0  0  0  0  0  0  0  0  0  0  0
   10.2148   -3.4364   25.4200 C   0  0  0  0  0  0  0  0  0  0  0  0
    9.7853   -1.1840   24.4927 C   0  0  0  0  0  0  0  0  0  0  0  0
    5.0276   -8.5227   17.5352 C   0  0  0  0  0  0  0  0  0  0  0  0
    9.8187   -2.0895   25.5800 C   0  0  0  0  0  0  0  0  0  0  0  0
    5.6473   -8.7216   15.3158 C   0  0  0  0  0  0  0  0  0  0  0  0
   10.7581   -3.1233   19.4720 N   0  0  0  0  0  0  0  0  0  0  0  0
    9.9571   -4.0573   16.8866 C   0  0  0  0  0  0  0  0  0  0  0  0
    7.6213   -6.5618   16.0087 C   0  0  0  0  0  0  0  0  0  0  0  0
   10.8583   -2.6527   20.7222 C   0  0  0  0  0  0  0  0  0  0  0  0
   10.6412   -3.5089   21.7936 C   0  0  0  0  0  0  0  0  0  0  0  0
   10.4972   -3.8968   24.1589 C   0  0  0  0  0  0  0  0  0  0  0  0
    5.9260   -8.2736   16.5517 C   0  0  0  0  0  0  0  0  0  0  0  0
    3.8816   -9.1166   17.2493 C   0  0  0  0  0  0  0  0  0  0  0  0
   10.1297   -1.6575   23.2324 C   0  0  0  0  0  0  0  0  0  0  0  0
    9.4684   -1.6929   26.7263 F   0  0  0  0  0  0  0  0  0  0  0  0
    7.7963   -7.7906   17.9837 C   0  0  0  0  0  0  0  0  0  0  0  0
   10.5884   -3.0725   16.7902 O   0  0  0  0  0  0  0  0  0  0  0  0
   10.4323   -5.3494   20.3516 C   0  0  0  0  0  0  0  0  0  0  0  0
    7.1156   -7.5454   16.8218 C   0  0  0  0  0  0  0  0  0  0  0  0
   10.3885   -4.4388   19.2773 C   0  0  0  0  0  0  0  0  0  0  0  0
    4.5160   -9.3822   15.0841 C   0  0  0  0  0  0  0  0  0  0  0  0
  1  3  4  0
  1 24  4  0
  2  6  4  0
  2 15  4  0
  3  5  4  0
  3  6  4  0
  4 21  4  0
  4 29  4  0
  5 15  4  0
  5 28  1  0
  6 16  4  0
  7 18  4  0
  7 26  4  0
  8 18  1  0
  8 19  4  0
  8 22  4  0
  9 12  4  0
  9 19  4  0
 10 12  4  0
 10 22  4  0
 11 20  4  0
 11 21  4  0
 12 23  1  0
 13 20  4  0
 13 29  4  0
 14 17  4  0
 14 28  4  0
 15 25  2  0
 16 27  4  0
 17 18  4  0
 20 27  1  0
 24 27  4  0
 26 28  4  0
M  END
$$$$

 Created by Python create_sdf_string function

 29 33  0  0  0  0  0  0  0  0999 V2000
    8.8270   -7.0288   18.4251 C   0  0  0  0  0  0  0  0  0  0  0  0
    9.1576   -4.6236   15.8860 O   0  0  0  0  0  0  0  0  0  0  0  0
    9.1509   -5.9108   17.7177 C   0  0  0  0  0  0  0  0  0  0  0  0
    3.6373   -9.5349   16.0582 N   0  0  0  0  0  0  0  0  0  0  0  0
    9.9275   -4.8001   18.0438 N   0  0  0  0  0  0  0  0  0  0  0  0
    8.5908   -5.7425   16.4412 C   0  0  0  0  0  0  0  0  0  0  0  0
   10.5993   -4.8981   21.6068 C   0  0  0  0  0  0  0  0  0  0  0  0
   10.4258   -3.0106   23.0998 C   0  0  0  0  0  0  0  0  0  0  0  0
   10.2148   -3.4364   25.4200 C   0  0  0  0  0  0  0  0  0  0  0  0
    9.7853   -1.1840   24.4927 C   0  0  0  0  0  0  0  0  0  0  0  0
    5.0276   -8.5227   17.5352 C   0  0  0  0  0  0  0  0  0  0  0  0
    9.8187   -2.0895   25.5800 C   0  0  0  0  0  0  0  0  0  0  0  0
    5.6473   -8.7216   15.3158 C   0  0  0  0  0  0  0  0  0  0  0  0
   10.7581   -3.1233   19.4720 N   0  0  0  0  0  0  0  0  0  0  0  0
    9.9571   -4.0573   16.8866 C   0  0  0  0  0  0  0  0  0  0  0  0
    7.6213   -6.5618   16.0087 C   0  0  0  0  0  0  0  0  0  0  0  0
   10.8583   -2.6527   20.7222 C   0  0  0  0  0  0  0  0  0  0  0  0
   10.6412   -3.5089   21.7936 C   0  0  0  0  0  0  0  0  0  0  0  0
   10.4972   -3.8968   24.1589 C   0  0  0  0  0  0  0  0  0  0  0  0
    5.9260   -8.2736   16.5517 C   0  0  0  0  0  0  0  0  0  0  0  0
    3.8816   -9.1166   17.2493 C   0  0  0  0  0  0  0  0  0  0  0  0
   10.1297   -1.6575   23.2324 C   0  0  0  0  0  0  0  0  0  0  0  0
    9.4684   -1.6929   26.7263 F   0  0  0  0  0  0  0  0  0  0  0  0
    7.7963   -7.7906   17.9837 C   0  0  0  0  0  0  0  0  0  0  0  0
   10.5884   -3.0725   16.7902 O   0  0  0  0  0  0  0  0  0  0  0  0
   10.4323   -5.3494   20.3516 C   0  0  0  0  0  0  0  0  0  0  0  0
    7.1156   -7.5454   16.8218 C   0  0  0  0  0  0  0  0  0  0  0  0
   10.3885   -4.4388   19.2773 C   0  0  0  0  0  0  0  0  0  0  0  0
    4.5160   -9.3822   15.0841 C   0  0  0  0  0  0  0  0  0  0  0  0
  1  3  4  0
  1 24  4  0
  2  6  4  0
  2 15  4  0
  3  5  4  0
  3  6  4  0
  4 21  4  0
  4 29  4  0
  5 15  4  0
  5 28  1  0
  6 16  4  0
  7 18  4  0
  7 26  4  0
  8 18  1  0
  8 19  4  0
  8 22  4  0
  9 12  4  0
  9 19  4  0
 10 12  4  0
 10 22  4  0
 11 20  4  0
 11 21  4  0
 12 23  1  0
 13 20  4  0
 13 29  4  0
 14 17  4  0
 14 28  4  0
 15 25  2  0
 16 27  4  0
 17 18  4  0
 20 27  1  0
 24 27  4  0
 26 28  4  0
M  END
$$$$

 Created by Python create_sdf_string function

 29 33  0  0  0  0  0  0  0  0999 V2000
    8.8270   -7.0288   18.4251 C   0  0  0  0  0  0  0  0  0  0  0  0
    9.1576   -4.6236   15.8860 O   0  0  0  0  0  0  0  0  0  0  0  0
    9.1509   -5.9108   17.7177 C   0  0  0  0  0  0  0  0  0  0  0  0
    3.6373   -9.5349   16.0582 N   0  0  0  0  0  0  0  0  0  0  0  0
    9.9275   -4.8001   18.0438 N   0  0  0  0  0  0  0  0  0  0  0  0
    8.5908   -5.7425   16.4412 C   0  0  0  0  0  0  0  0  0  0  0  0
   10.5993   -4.8981   21.6068 C   0  0  0  0  0  0  0  0  0  0  0  0
   10.4258   -3.0106   23.0998 C   0  0  0  0  0  0  0  0  0  0  0  0
   10.2148   -3.4364   25.4200 C   0  0  0  0  0  0  0  0  0  0  0  0
    9.7853   -1.1840   24.4927 C   0  0  0  0  0  0  0  0  0  0  0  0
    5.0276   -8.5227   17.5352 C   0  0  0  0  0  0  0  0  0  0  0  0
    9.8187   -2.0895   25.5800 C   0  0  0  0  0  0  0  0  0  0  0  0
    5.6473   -8.7216   15.3158 C   0  0  0  0  0  0  0  0  0  0  0  0
   10.7581   -3.1233   19.4720 N   0  0  0  0  0  0  0  0  0  0  0  0
    9.9571   -4.0573   16.8866 C   0  0  0  0  0  0  0  0  0  0  0  0
    7.6213   -6.5618   16.0087 C   0  0  0  0  0  0  0  0  0  0  0  0
   10.8583   -2.6527   20.7222 C   0  0  0  0  0  0  0  0  0  0  0  0
   10.6412   -3.5089   21.7936 C   0  0  0  0  0  0  0  0  0  0  0  0
   10.4972   -3.8968   24.1589 C   0  0  0  0  0  0  0  0  0  0  0  0
    5.9260   -8.2736   16.5517 C   0  0  0  0  0  0  0  0  0  0  0  0
    3.8816   -9.1166   17.2493 C   0  0  0  0  0  0  0  0  0  0  0  0
   10.1297   -1.6575   23.2324 C   0  0  0  0  0  0  0  0  0  0  0  0
    9.4684   -1.6929   26.7263 F   0  0  0  0  0  0  0  0  0  0  0  0
    7.7963   -7.7906   17.9837 C   0  0  0  0  0  0  0  0  0  0  0  0
   10.5884   -3.0725   16.7902 O   0  0  0  0  0  0  0  0  0  0  0  0
   10.4323   -5.3494   20.3516 C   0  0  0  0  0  0  0  0  0  0  0  0
    7.1156   -7.5454   16.8218 C   0  0  0  0  0  0  0  0  0  0  0  0
   10.3885   -4.4388   19.2773 C   0  0  0  0  0  0  0  0  0  0  0  0
    4.5160   -9.3822   15.0841 C   0  0  0  0  0  0  0  0  0  0  0  0
  1  3  4  0
  1 24  4  0
  2  6  4  0
  2 15  4  0
  3  5  4  0
  3  6  4  0
  4 21  4  0
  4 29  4  0
  5 15  4  0
  5 28  1  0
  6 16  4  0
  7 18  4  0
  7 26  4  0
  8 18  1  0
  8 19  4  0
  8 22  4  0
  9 12  4  0
  9 19  4  0
 10 12  4  0
 10 22  4  0
 11 20  4  0
 11 21  4  0
 12 23  1  0
 13 20  4  0
 13 29  4  0
 14 17  4  0
 14 28  4  0
 15 25  2  0
 16 27  4  0
 17 18  4  0
 20 27  1  0
 24 27  4  0
 26 28  4  0
M  END
$$$$

 Created by Python create_sdf_string function

 29 33  0  0  0  0  0  0  0  0999 V2000
    8.8270   -7.0288   18.4251 C   0  0  0  0  0  0  0  0  0  0  0  0
    9.1576   -4.6236   15.8860 O   0  0  0  0  0  0  0  0  0  0  0  0
    9.1509   -5.9108   17.7177 C   0  0  0  0  0  0  0  0  0  0  0  0
    3.6373   -9.5349   16.0582 N   0  0  0  0  0  0  0  0  0  0  0  0
    9.9275   -4.8001   18.0438 N   0  0  0  0  0  0  0  0  0  0  0  0
    8.5908   -5.7425   16.4412 C   0  0  0  0  0  0  0  0  0  0  0  0
   10.5993   -4.8981   21.6068 C   0  0  0  0  0  0  0  0  0  0  0  0
   10.4258   -3.0106   23.0998 C   0  0  0  0  0  0  0  0  0  0  0  0
   10.2148   -3.4364   25.4200 C   0  0  0  0  0  0  0  0  0  0  0  0
    9.7853   -1.1840   24.4927 C   0  0  0  0  0  0  0  0  0  0  0  0
    5.0276   -8.5227   17.5352 C   0  0  0  0  0  0  0  0  0  0  0  0
    9.8187   -2.0895   25.5800 C   0  0  0  0  0  0  0  0  0  0  0  0
    5.6473   -8.7216   15.3158 C   0  0  0  0  0  0  0  0  0  0  0  0
   10.7581   -3.1233   19.4720 N   0  0  0  0  0  0  0  0  0  0  0  0
    9.9571   -4.0573   16.8866 C   0  0  0  0  0  0  0  0  0  0  0  0
    7.6213   -6.5618   16.0087 C   0  0  0  0  0  0  0  0  0  0  0  0
   10.8583   -2.6527   20.7222 C   0  0  0  0  0  0  0  0  0  0  0  0
   10.6412   -3.5089   21.7936 C   0  0  0  0  0  0  0  0  0  0  0  0
   10.4972   -3.8968   24.1589 C   0  0  0  0  0  0  0  0  0  0  0  0
    5.9260   -8.2736   16.5517 C   0  0  0  0  0  0  0  0  0  0  0  0
    3.8816   -9.1166   17.2493 C   0  0  0  0  0  0  0  0  0  0  0  0
   10.1297   -1.6575   23.2324 C   0  0  0  0  0  0  0  0  0  0  0  0
    9.4684   -1.6929   26.7263 F   0  0  0  0  0  0  0  0  0  0  0  0
    7.7963   -7.7906   17.9837 C   0  0  0  0  0  0  0  0  0  0  0  0
   10.5884   -3.0725   16.7902 O   0  0  0  0  0  0  0  0  0  0  0  0
   10.4323   -5.3494   20.3516 C   0  0  0  0  0  0  0  0  0  0  0  0
    7.1156   -7.5454   16.8218 C   0  0  0  0  0  0  0  0  0  0  0  0
   10.3885   -4.4388   19.2773 C   0  0  0  0  0  0  0  0  0  0  0  0
    4.5160   -9.3822   15.0841 C   0  0  0  0  0  0  0  0  0  0  0  0
  1  3  4  0
  1 24  4  0
  2  6  4  0
  2 15  4  0
  3  5  4  0
  3  6  4  0
  4 21  4  0
  4 29  4  0
  5 15  4  0
  5 28  1  0
  6 16  4  0
  7 18  4  0
  7 26  4  0
  8 18  1  0
  8 19  4  0
  8 22  4  0
  9 12  4  0
  9 19  4  0
 10 12  4  0
 10 22  4  0
 11 20  4  0
 11 21  4  0
 12 23  1  0
 13 20  4  0
 13 29  4  0
 14 17  4  0
 14 28  4  0
 15 25  2  0
 16 27  4  0
 17 18  4  0
 20 27  1  0
 24 27  4  0
 26 28  4  0
M  END
$$$$

 Created by Python create_sdf_string function

 29 33  0  0  0  0  0  0  0  0999 V2000
    8.8270   -7.0288   18.4251 C   0  0  0  0  0  0  0  0  0  0  0  0
    9.1576   -4.6236   15.8860 O   0  0  0  0  0  0  0  0  0  0  0  0
    9.1509   -5.9108   17.7177 C   0  0  0  0  0  0  0  0  0  0  0  0
    3.6373   -9.5349   16.0582 N   0  0  0  0  0  0  0  0  0  0  0  0
    9.9275   -4.8001   18.0438 N   0  0  0  0  0  0  0  0  0  0  0  0
    8.5908   -5.7425   16.4412 C   0  0  0  0  0  0  0  0  0  0  0  0
   10.5993   -4.8981   21.6068 C   0  0  0  0  0  0  0  0  0  0  0  0
   10.4258   -3.0106   23.0998 C   0  0  0  0  0  0  0  0  0  0  0  0
   10.2148   -3.4364   25.4200 C   0  0  0  0  0  0  0  0  0  0  0  0
    9.7853   -1.1840   24.4927 C   0  0  0  0  0  0  0  0  0  0  0  0
    5.0276   -8.5227   17.5352 C   0  0  0  0  0  0  0  0  0  0  0  0
    9.8187   -2.0895   25.5800 C   0  0  0  0  0  0  0  0  0  0  0  0
    5.6473   -8.7216   15.3158 C   0  0  0  0  0  0  0  0  0  0  0  0
   10.7581   -3.1233   19.4720 N   0  0  0  0  0  0  0  0  0  0  0  0
    9.9571   -4.0573   16.8866 C   0  0  0  0  0  0  0  0  0  0  0  0
    7.6213   -6.5618   16.0087 C   0  0  0  0  0  0  0  0  0  0  0  0
   10.8583   -2.6527   20.7222 C   0  0  0  0  0  0  0  0  0  0  0  0
   10.6412   -3.5089   21.7936 C   0  0  0  0  0  0  0  0  0  0  0  0
   10.4972   -3.8968   24.1589 C   0  0  0  0  0  0  0  0  0  0  0  0
    5.9260   -8.2736   16.5517 C   0  0  0  0  0  0  0  0  0  0  0  0
    3.8816   -9.1166   17.2493 C   0  0  0  0  0  0  0  0  0  0  0  0
   10.1297   -1.6575   23.2324 C   0  0  0  0  0  0  0  0  0  0  0  0
    9.4684   -1.6929   26.7263 F   0  0  0  0  0  0  0  0  0  0  0  0
    7.7963   -7.7906   17.9837 C   0  0  0  0  0  0  0  0  0  0  0  0
   10.5884   -3.0725   16.7902 O   0  0  0  0  0  0  0  0  0  0  0  0
   10.4323   -5.3494   20.3516 C   0  0  0  0  0  0  0  0  0  0  0  0
    7.1156   -7.5454   16.8218 C   0  0  0  0  0  0  0  0  0  0  0  0
   10.3885   -4.4388   19.2773 C   0  0  0  0  0  0  0  0  0  0  0  0
    4.5160   -9.3822   15.0841 C   0  0  0  0  0  0  0  0  0  0  0  0
  1  3  4  0
  1 24  4  0
  2  6  4  0
  2 15  4  0
  3  5  4  0
  3  6  4  0
  4 21  4  0
  4 29  4  0
  5 15  4  0
  5 28  1  0
  6 16  4  0
  7 18  4  0
  7 26  4  0
  8 18  1  0
  8 19  4  0
  8 22  4  0
  9 12  4  0
  9 19  4  0
 10 12  4  0
 10 22  4  0
 11 20  4  0
 11 21  4  0
 12 23  1  0
 13 20  4  0
 13 29  4  0
 14 17  4  0
 14 28  4  0
 15 25  2  0
 16 27  4  0
 17 18  4  0
 20 27  1  0
 24 27  4  0
 26 28  4  0
M  END
$$$$

 Created by Python create_sdf_string function

 29 33  0  0  0  0  0  0  0  0999 V2000
    8.8270   -7.0288   18.4251 C   0  0  0  0  0  0  0  0  0  0  0  0
    9.1576   -4.6236   15.8860 O   0  0  0  0  0  0  0  0  0  0  0  0
    9.1509   -5.9108   17.7177 C   0  0  0  0  0  0  0  0  0  0  0  0
    3.6373   -9.5349   16.0582 N   0  0  0  0  0  0  0  0  0  0  0  0
    9.9275   -4.8001   18.0438 N   0  0  0  0  0  0  0  0  0  0  0  0
    8.5908   -5.7425   16.4412 C   0  0  0  0  0  0  0  0  0  0  0  0
   10.5993   -4.8981   21.6068 C   0  0  0  0  0  0  0  0  0  0  0  0
   10.4258   -3.0106   23.0998 C   0  0  0  0  0  0  0  0  0  0  0  0
   10.2148   -3.4364   25.4200 C   0  0  0  0  0  0  0  0  0  0  0  0
    9.7853   -1.1840   24.4927 C   0  0  0  0  0  0  0  0  0  0  0  0
    5.0276   -8.5227   17.5352 C   0  0  0  0  0  0  0  0  0  0  0  0
    9.8187   -2.0895   25.5800 C   0  0  0  0  0  0  0  0  0  0  0  0
    5.6473   -8.7216   15.3158 C   0  0  0  0  0  0  0  0  0  0  0  0
   10.7581   -3.1233   19.4720 N   0  0  0  0  0  0  0  0  0  0  0  0
    9.9571   -4.0573   16.8866 C   0  0  0  0  0  0  0  0  0  0  0  0
    7.6213   -6.5618   16.0087 C   0  0  0  0  0  0  0  0  0  0  0  0
   10.8583   -2.6527   20.7222 C   0  0  0  0  0  0  0  0  0  0  0  0
   10.6412   -3.5089   21.7936 C   0  0  0  0  0  0  0  0  0  0  0  0
   10.4972   -3.8968   24.1589 C   0  0  0  0  0  0  0  0  0  0  0  0
    5.9260   -8.2736   16.5517 C   0  0  0  0  0  0  0  0  0  0  0  0
    3.8816   -9.1166   17.2493 C   0  0  0  0  0  0  0  0  0  0  0  0
   10.1297   -1.6575   23.2324 C   0  0  0  0  0  0  0  0  0  0  0  0
    9.4684   -1.6929   26.7263 F   0  0  0  0  0  0  0  0  0  0  0  0
    7.7963   -7.7906   17.9837 C   0  0  0  0  0  0  0  0  0  0  0  0
   10.5884   -3.0725   16.7902 O   0  0  0  0  0  0  0  0  0  0  0  0
   10.4323   -5.3494   20.3516 C   0  0  0  0  0  0  0  0  0  0  0  0
    7.1156   -7.5454   16.8218 C   0  0  0  0  0  0  0  0  0  0  0  0
   10.3885   -4.4388   19.2773 C   0  0  0  0  0  0  0  0  0  0  0  0
    4.5160   -9.3822   15.0841 C   0  0  0  0  0  0  0  0  0  0  0  0
  1  3  4  0
  1 24  4  0
  2  6  4  0
  2 15  4  0
  3  5  4  0
  3  6  4  0
  4 21  4  0
  4 29  4  0
  5 15  4  0
  5 28  1  0
  6 16  4  0
  7 18  4  0
  7 26  4  0
  8 18  1  0
  8 19  4  0
  8 22  4  0
  9 12  4  0
  9 19  4  0
 10 12  4  0
 10 22  4  0
 11 20  4  0
 11 21  4  0
 12 23  1  0
 13 20  4  0
 13 29  4  0
 14 17  4  0
 14 28  4  0
 15 25  2  0
 16 27  4  0
 17 18  4  0
 20 27  1  0
 24 27  4  0
 26 28  4  0
M  END
$$$$

 Created by Python create_sdf_string function

 29 33  0  0  0  0  0  0  0  0999 V2000
    8.8270   -7.0288   18.4251 C   0  0  0  0  0  0  0  0  0  0  0  0
    9.1576   -4.6236   15.8860 O   0  0  0  0  0  0  0  0  0  0  0  0
    9.1509   -5.9108   17.7177 C   0  0  0  0  0  0  0  0  0  0  0  0
    3.6373   -9.5349   16.0582 N   0  0  0  0  0  0  0  0  0  0  0  0
    9.9275   -4.8001   18.0438 N   0  0  0  0  0  0  0  0  0  0  0  0
    8.5908   -5.7425   16.4412 C   0  0  0  0  0  0  0  0  0  0  0  0
   10.5993   -4.8981   21.6068 C   0  0  0  0  0  0  0  0  0  0  0  0
   10.4258   -3.0106   23.0998 C   0  0  0  0  0  0  0  0  0  0  0  0
   10.2148   -3.4364   25.4200 C   0  0  0  0  0  0  0  0  0  0  0  0
    9.7853   -1.1840   24.4927 C   0  0  0  0  0  0  0  0  0  0  0  0
    5.0276   -8.5227   17.5352 C   0  0  0  0  0  0  0  0  0  0  0  0
    9.8187   -2.0895   25.5800 C   0  0  0  0  0  0  0  0  0  0  0  0
    5.6473   -8.7216   15.3158 C   0  0  0  0  0  0  0  0  0  0  0  0
   10.7581   -3.1233   19.4720 N   0  0  0  0  0  0  0  0  0  0  0  0
    9.9571   -4.0573   16.8866 C   0  0  0  0  0  0  0  0  0  0  0  0
    7.6213   -6.5618   16.0087 C   0  0  0  0  0  0  0  0  0  0  0  0
   10.8583   -2.6527   20.7222 C   0  0  0  0  0  0  0  0  0  0  0  0
   10.6412   -3.5089   21.7936 C   0  0  0  0  0  0  0  0  0  0  0  0
   10.4972   -3.8968   24.1589 C   0  0  0  0  0  0  0  0  0  0  0  0
    5.9260   -8.2736   16.5517 C   0  0  0  0  0  0  0  0  0  0  0  0
    3.8816   -9.1166   17.2493 C   0  0  0  0  0  0  0  0  0  0  0  0
   10.1297   -1.6575   23.2324 C   0  0  0  0  0  0  0  0  0  0  0  0
    9.4684   -1.6929   26.7263 F   0  0  0  0  0  0  0  0  0  0  0  0
    7.7963   -7.7906   17.9837 C   0  0  0  0  0  0  0  0  0  0  0  0
   10.5884   -3.0725   16.7902 O   0  0  0  0  0  0  0  0  0  0  0  0
   10.4323   -5.3494   20.3516 C   0  0  0  0  0  0  0  0  0  0  0  0
    7.1156   -7.5454   16.8218 C   0  0  0  0  0  0  0  0  0  0  0  0
   10.3885   -4.4388   19.2773 C   0  0  0  0  0  0  0  0  0  0  0  0
    4.5160   -9.3822   15.0841 C   0  0  0  0  0  0  0  0  0  0  0  0
  1  3  4  0
  1 24  4  0
  2  6  4  0
  2 15  4  0
  3  5  4  0
  3  6  4  0
  4 21  4  0
  4 29  4  0
  5 15  4  0
  5 28  1  0
  6 16  4  0
  7 18  4  0
  7 26  4  0
  8 18  1  0
  8 19  4  0
  8 22  4  0
  9 12  4  0
  9 19  4  0
 10 12  4  0
 10 22  4  0
 11 20  4  0
 11 21  4  0
 12 23  1  0
 13 20  4  0
 13 29  4  0
 14 17  4  0
 14 28  4  0
 15 25  2  0
 16 27  4  0
 17 18  4  0
 20 27  1  0
 24 27  4  0
 26 28  4  0
M  END
$$$$

 Created by Python create_sdf_string function

 29 33  0  0  0  0  0  0  0  0999 V2000
    8.8270   -7.0288   18.4251 C   0  0  0  0  0  0  0  0  0  0  0  0
    9.1576   -4.6236   15.8860 O   0  0  0  0  0  0  0  0  0  0  0  0
    9.1509   -5.9108   17.7177 C   0  0  0  0  0  0  0  0  0  0  0  0
    3.6373   -9.5349   16.0582 N   0  0  0  0  0  0  0  0  0  0  0  0
    9.9275   -4.8001   18.0438 N   0  0  0  0  0  0  0  0  0  0  0  0
    8.5908   -5.7425   16.4412 C   0  0  0  0  0  0  0  0  0  0  0  0
   10.5993   -4.8981   21.6068 C   0  0  0  0  0  0  0  0  0  0  0  0
   10.4258   -3.0106   23.0998 C   0  0  0  0  0  0  0  0  0  0  0  0
   10.2148   -3.4364   25.4200 C   0  0  0  0  0  0  0  0  0  0  0  0
    9.7853   -1.1840   24.4927 C   0  0  0  0  0  0  0  0  0  0  0  0
    5.0276   -8.5227   17.5352 C   0  0  0  0  0  0  0  0  0  0  0  0
    9.8187   -2.0895   25.5800 C   0  0  0  0  0  0  0  0  0  0  0  0
    5.6473   -8.7216   15.3158 C   0  0  0  0  0  0  0  0  0  0  0  0
   10.7581   -3.1233   19.4720 N   0  0  0  0  0  0  0  0  0  0  0  0
    9.9571   -4.0573   16.8866 C   0  0  0  0  0  0  0  0  0  0  0  0
    7.6213   -6.5618   16.0087 C   0  0  0  0  0  0  0  0  0  0  0  0
   10.8583   -2.6527   20.7222 C   0  0  0  0  0  0  0  0  0  0  0  0
   10.6412   -3.5089   21.7936 C   0  0  0  0  0  0  0  0  0  0  0  0
   10.4972   -3.8968   24.1589 C   0  0  0  0  0  0  0  0  0  0  0  0
    5.9260   -8.2736   16.5517 C   0  0  0  0  0  0  0  0  0  0  0  0
    3.8816   -9.1166   17.2493 C   0  0  0  0  0  0  0  0  0  0  0  0
   10.1297   -1.6575   23.2324 C   0  0  0  0  0  0  0  0  0  0  0  0
    9.4684   -1.6929   26.7263 F   0  0  0  0  0  0  0  0  0  0  0  0
    7.7963   -7.7906   17.9837 C   0  0  0  0  0  0  0  0  0  0  0  0
   10.5884   -3.0725   16.7902 O   0  0  0  0  0  0  0  0  0  0  0  0
   10.4323   -5.3494   20.3516 C   0  0  0  0  0  0  0  0  0  0  0  0
    7.1156   -7.5454   16.8218 C   0  0  0  0  0  0  0  0  0  0  0  0
   10.3885   -4.4388   19.2773 C   0  0  0  0  0  0  0  0  0  0  0  0
    4.5160   -9.3822   15.0841 C   0  0  0  0  0  0  0  0  0  0  0  0
  1  3  4  0
  1 24  4  0
  2  6  4  0
  2 15  4  0
  3  5  4  0
  3  6  4  0
  4 21  4  0
  4 29  4  0
  5 15  4  0
  5 28  1  0
  6 16  4  0
  7 18  4  0
  7 26  4  0
  8 18  1  0
  8 19  4  0
  8 22  4  0
  9 12  4  0
  9 19  4  0
 10 12  4  0
 10 22  4  0
 11 20  4  0
 11 21  4  0
 12 23  1  0
 13 20  4  0
 13 29  4  0
 14 17  4  0
 14 28  4  0
 15 25  2  0
 16 27  4  0
 17 18  4  0
 20 27  1  0
 24 27  4  0
 26 28  4  0
M  END
$$$$

 Created by Python create_sdf_string function

 29 33  0  0  0  0  0  0  0  0999 V2000
    8.8270   -7.0288   18.4251 C   0  0  0  0  0  0  0  0  0  0  0  0
    9.1576   -4.6236   15.8860 O   0  0  0  0  0  0  0  0  0  0  0  0
    9.1509   -5.9108   17.7177 C   0  0  0  0  0  0  0  0  0  0  0  0
    3.6373   -9.5349   16.0582 N   0  0  0  0  0  0  0  0  0  0  0  0
    9.9275   -4.8001   18.0438 N   0  0  0  0  0  0  0  0  0  0  0  0
    8.5908   -5.7425   16.4412 C   0  0  0  0  0  0  0  0  0  0  0  0
   10.5993   -4.8981   21.6068 C   0  0  0  0  0  0  0  0  0  0  0  0
   10.4258   -3.0106   23.0998 C   0  0  0  0  0  0  0  0  0  0  0  0
   10.2148   -3.4364   25.4200 C   0  0  0  0  0  0  0  0  0  0  0  0
    9.7853   -1.1840   24.4927 C   0  0  0  0  0  0  0  0  0  0  0  0
    5.0276   -8.5227   17.5352 C   0  0  0  0  0  0  0  0  0  0  0  0
    9.8187   -2.0895   25.5800 C   0  0  0  0  0  0  0  0  0  0  0  0
    5.6473   -8.7216   15.3158 C   0  0  0  0  0  0  0  0  0  0  0  0
   10.7581   -3.1233   19.4720 N   0  0  0  0  0  0  0  0  0  0  0  0
    9.9571   -4.0573   16.8866 C   0  0  0  0  0  0  0  0  0  0  0  0
    7.6213   -6.5618   16.0087 C   0  0  0  0  0  0  0  0  0  0  0  0
   10.8583   -2.6527   20.7222 C   0  0  0  0  0  0  0  0  0  0  0  0
   10.6412   -3.5089   21.7936 C   0  0  0  0  0  0  0  0  0  0  0  0
   10.4972   -3.8968   24.1589 C   0  0  0  0  0  0  0  0  0  0  0  0
    5.9260   -8.2736   16.5517 C   0  0  0  0  0  0  0  0  0  0  0  0
    3.8816   -9.1166   17.2493 C   0  0  0  0  0  0  0  0  0  0  0  0
   10.1297   -1.6575   23.2324 C   0  0  0  0  0  0  0  0  0  0  0  0
    9.4684   -1.6929   26.7263 F   0  0  0  0  0  0  0  0  0  0  0  0
    7.7963   -7.7906   17.9837 C   0  0  0  0  0  0  0  0  0  0  0  0
   10.5884   -3.0725   16.7902 O   0  0  0  0  0  0  0  0  0  0  0  0
   10.4323   -5.3494   20.3516 C   0  0  0  0  0  0  0  0  0  0  0  0
    7.1156   -7.5454   16.8218 C   0  0  0  0  0  0  0  0  0  0  0  0
   10.3885   -4.4388   19.2773 C   0  0  0  0  0  0  0  0  0  0  0  0
    4.5160   -9.3822   15.0841 C   0  0  0  0  0  0  0  0  0  0  0  0
  1  3  4  0
  1 24  4  0
  2  6  4  0
  2 15  4  0
  3  5  4  0
  3  6  4  0
  4 21  4  0
  4 29  4  0
  5 15  4  0
  5 28  1  0
  6 16  4  0
  7 18  4  0
  7 26  4  0
  8 18  1  0
  8 19  4  0
  8 22  4  0
  9 12  4  0
  9 19  4  0
 10 12  4  0
 10 22  4  0
 11 20  4  0
 11 21  4  0
 12 23  1  0
 13 20  4  0
 13 29  4  0
 14 17  4  0
 14 28  4  0
 15 25  2  0
 16 27  4  0
 17 18  4  0
 20 27  1  0
 24 27  4  0
 26 28  4  0
M  END
$$$$

 Created by Python create_sdf_string function

 29 33  0  0  0  0  0  0  0  0999 V2000
    8.8270   -7.0288   18.4251 C   0  0  0  0  0  0  0  0  0  0  0  0
    9.1576   -4.6236   15.8860 O   0  0  0  0  0  0  0  0  0  0  0  0
    9.1509   -5.9108   17.7177 C   0  0  0  0  0  0  0  0  0  0  0  0
    3.6373   -9.5349   16.0582 N   0  0  0  0  0  0  0  0  0  0  0  0
    9.9275   -4.8001   18.0438 N   0  0  0  0  0  0  0  0  0  0  0  0
    8.5908   -5.7425   16.4412 C   0  0  0  0  0  0  0  0  0  0  0  0
   10.5993   -4.8981   21.6068 C   0  0  0  0  0  0  0  0  0  0  0  0
   10.4258   -3.0106   23.0998 C   0  0  0  0  0  0  0  0  0  0  0  0
   10.2148   -3.4364   25.4200 C   0  0  0  0  0  0  0  0  0  0  0  0
    9.7853   -1.1840   24.4927 C   0  0  0  0  0  0  0  0  0  0  0  0
    5.0276   -8.5227   17.5352 C   0  0  0  0  0  0  0  0  0  0  0  0
    9.8187   -2.0895   25.5800 C   0  0  0  0  0  0  0  0  0  0  0  0
    5.6473   -8.7216   15.3158 C   0  0  0  0  0  0  0  0  0  0  0  0
   10.7581   -3.1233   19.4720 N   0  0  0  0  0  0  0  0  0  0  0  0
    9.9571   -4.0573   16.8866 C   0  0  0  0  0  0  0  0  0  0  0  0
    7.6213   -6.5618   16.0087 C   0  0  0  0  0  0  0  0  0  0  0  0
   10.8583   -2.6527   20.7222 C   0  0  0  0  0  0  0  0  0  0  0  0
   10.6412   -3.5089   21.7936 C   0  0  0  0  0  0  0  0  0  0  0  0
   10.4972   -3.8968   24.1589 C   0  0  0  0  0  0  0  0  0  0  0  0
    5.9260   -8.2736   16.5517 C   0  0  0  0  0  0  0  0  0  0  0  0
    3.8816   -9.1166   17.2493 C   0  0  0  0  0  0  0  0  0  0  0  0
   10.1297   -1.6575   23.2324 C   0  0  0  0  0  0  0  0  0  0  0  0
    9.4684   -1.6929   26.7263 F   0  0  0  0  0  0  0  0  0  0  0  0
    7.7963   -7.7906   17.9837 C   0  0  0  0  0  0  0  0  0  0  0  0
   10.5884   -3.0725   16.7902 O   0  0  0  0  0  0  0  0  0  0  0  0
   10.4323   -5.3494   20.3516 C   0  0  0  0  0  0  0  0  0  0  0  0
    7.1156   -7.5454   16.8218 C   0  0  0  0  0  0  0  0  0  0  0  0
   10.3885   -4.4388   19.2773 C   0  0  0  0  0  0  0  0  0  0  0  0
    4.5160   -9.3822   15.0841 C   0  0  0  0  0  0  0  0  0  0  0  0
  1  3  4  0
  1 24  4  0
  2  6  4  0
  2 15  4  0
  3  5  4  0
  3  6  4  0
  4 21  4  0
  4 29  4  0
  5 15  4  0
  5 28  1  0
  6 16  4  0
  7 18  4  0
  7 26  4  0
  8 18  1  0
  8 19  4  0
  8 22  4  0
  9 12  4  0
  9 19  4  0
 10 12  4  0
 10 22  4  0
 11 20  4  0
 11 21  4  0
 12 23  1  0
 13 20  4  0
 13 29  4  0
 14 17  4  0
 14 28  4  0
 15 25  2  0
 16 27  4  0
 17 18  4  0
 20 27  1  0
 24 27  4  0
 26 28  4  0
M  END
$$$$

 Created by Python create_sdf_string function

 29 33  0  0  0  0  0  0  0  0999 V2000
    8.8270   -7.0288   18.4251 C   0  0  0  0  0  0  0  0  0  0  0  0
    9.1576   -4.6236   15.8860 O   0  0  0  0  0  0  0  0  0  0  0  0
    9.1509   -5.9108   17.7177 C   0  0  0  0  0  0  0  0  0  0  0  0
    3.6373   -9.5349   16.0582 N   0  0  0  0  0  0  0  0  0  0  0  0
    9.9275   -4.8001   18.0438 N   0  0  0  0  0  0  0  0  0  0  0  0
    8.5908   -5.7425   16.4412 C   0  0  0  0  0  0  0  0  0  0  0  0
   10.5993   -4.8981   21.6068 C   0  0  0  0  0  0  0  0  0  0  0  0
   10.4258   -3.0106   23.0998 C   0  0  0  0  0  0  0  0  0  0  0  0
   10.2148   -3.4364   25.4200 C   0  0  0  0  0  0  0  0  0  0  0  0
    9.7853   -1.1840   24.4927 C   0  0  0  0  0  0  0  0  0  0  0  0
    5.0276   -8.5227   17.5352 C   0  0  0  0  0  0  0  0  0  0  0  0
    9.8187   -2.0895   25.5800 C   0  0  0  0  0  0  0  0  0  0  0  0
    5.6473   -8.7216   15.3158 C   0  0  0  0  0  0  0  0  0  0  0  0
   10.7581   -3.1233   19.4720 N   0  0  0  0  0  0  0  0  0  0  0  0
    9.9571   -4.0573   16.8866 C   0  0  0  0  0  0  0  0  0  0  0  0
    7.6213   -6.5618   16.0087 C   0  0  0  0  0  0  0  0  0  0  0  0
   10.8583   -2.6527   20.7222 C   0  0  0  0  0  0  0  0  0  0  0  0
   10.6412   -3.5089   21.7936 C   0  0  0  0  0  0  0  0  0  0  0  0
   10.4972   -3.8968   24.1589 C   0  0  0  0  0  0  0  0  0  0  0  0
    5.9260   -8.2736   16.5517 C   0  0  0  0  0  0  0  0  0  0  0  0
    3.8816   -9.1166   17.2493 C   0  0  0  0  0  0  0  0  0  0  0  0
   10.1297   -1.6575   23.2324 C   0  0  0  0  0  0  0  0  0  0  0  0
    9.4684   -1.6929   26.7263 F   0  0  0  0  0  0  0  0  0  0  0  0
    7.7963   -7.7906   17.9837 C   0  0  0  0  0  0  0  0  0  0  0  0
   10.5884   -3.0725   16.7902 O   0  0  0  0  0  0  0  0  0  0  0  0
   10.4323   -5.3494   20.3516 C   0  0  0  0  0  0  0  0  0  0  0  0
    7.1156   -7.5454   16.8218 C   0  0  0  0  0  0  0  0  0  0  0  0
   10.3885   -4.4388   19.2773 C   0  0  0  0  0  0  0  0  0  0  0  0
    4.5160   -9.3822   15.0841 C   0  0  0  0  0  0  0  0  0  0  0  0
  1  3  4  0
  1 24  4  0
  2  6  4  0
  2 15  4  0
  3  5  4  0
  3  6  4  0
  4 21  4  0
  4 29  4  0
  5 15  4  0
  5 28  1  0
  6 16  4  0
  7 18  4  0
  7 26  4  0
  8 18  1  0
  8 19  4  0
  8 22  4  0
  9 12  4  0
  9 19  4  0
 10 12  4  0
 10 22  4  0
 11 20  4  0
 11 21  4  0
 12 23  1  0
 13 20  4  0
 13 29  4  0
 14 17  4  0
 14 28  4  0
 15 25  2  0
 16 27  4  0
 17 18  4  0
 20 27  1  0
 24 27  4  0
 26 28  4  0
M  END
$$$$

 Created by Python create_sdf_string function

 29 33  0  0  0  0  0  0  0  0999 V2000
    8.8270   -7.0288   18.4251 C   0  0  0  0  0  0  0  0  0  0  0  0
    9.1576   -4.6236   15.8860 O   0  0  0  0  0  0  0  0  0  0  0  0
    9.1509   -5.9108   17.7177 C   0  0  0  0  0  0  0  0  0  0  0  0
    3.6373   -9.5349   16.0582 N   0  0  0  0  0  0  0  0  0  0  0  0
    9.9275   -4.8001   18.0438 N   0  0  0  0  0  0  0  0  0  0  0  0
    8.5908   -5.7425   16.4412 C   0  0  0  0  0  0  0  0  0  0  0  0
   10.5993   -4.8981   21.6068 C   0  0  0  0  0  0  0  0  0  0  0  0
   10.4258   -3.0106   23.0998 C   0  0  0  0  0  0  0  0  0  0  0  0
   10.2148   -3.4364   25.4200 C   0  0  0  0  0  0  0  0  0  0  0  0
    9.7853   -1.1840   24.4927 C   0  0  0  0  0  0  0  0  0  0  0  0
    5.0276   -8.5227   17.5352 C   0  0  0  0  0  0  0  0  0  0  0  0
    9.8187   -2.0895   25.5800 C   0  0  0  0  0  0  0  0  0  0  0  0
    5.6473   -8.7216   15.3158 C   0  0  0  0  0  0  0  0  0  0  0  0
   10.7581   -3.1233   19.4720 N   0  0  0  0  0  0  0  0  0  0  0  0
    9.9571   -4.0573   16.8866 C   0  0  0  0  0  0  0  0  0  0  0  0
    7.6213   -6.5618   16.0087 C   0  0  0  0  0  0  0  0  0  0  0  0
   10.8583   -2.6527   20.7222 C   0  0  0  0  0  0  0  0  0  0  0  0
   10.6412   -3.5089   21.7936 C   0  0  0  0  0  0  0  0  0  0  0  0
   10.4972   -3.8968   24.1589 C   0  0  0  0  0  0  0  0  0  0  0  0
    5.9260   -8.2736   16.5517 C   0  0  0  0  0  0  0  0  0  0  0  0
    3.8816   -9.1166   17.2493 C   0  0  0  0  0  0  0  0  0  0  0  0
   10.1297   -1.6575   23.2324 C   0  0  0  0  0  0  0  0  0  0  0  0
    9.4684   -1.6929   26.7263 F   0  0  0  0  0  0  0  0  0  0  0  0
    7.7963   -7.7906   17.9837 C   0  0  0  0  0  0  0  0  0  0  0  0
   10.5884   -3.0725   16.7902 O   0  0  0  0  0  0  0  0  0  0  0  0
   10.4323   -5.3494   20.3516 C   0  0  0  0  0  0  0  0  0  0  0  0
    7.1156   -7.5454   16.8218 C   0  0  0  0  0  0  0  0  0  0  0  0
   10.3885   -4.4388   19.2773 C   0  0  0  0  0  0  0  0  0  0  0  0
    4.5160   -9.3822   15.0841 C   0  0  0  0  0  0  0  0  0  0  0  0
  1  3  4  0
  1 24  4  0
  2  6  4  0
  2 15  4  0
  3  5  4  0
  3  6  4  0
  4 21  4  0
  4 29  4  0
  5 15  4  0
  5 28  1  0
  6 16  4  0
  7 18  4  0
  7 26  4  0
  8 18  1  0
  8 19  4  0
  8 22  4  0
  9 12  4  0
  9 19  4  0
 10 12  4  0
 10 22  4  0
 11 20  4  0
 11 21  4  0
 12 23  1  0
 13 20  4  0
 13 29  4  0
 14 17  4  0
 14 28  4  0
 15 25  2  0
 16 27  4  0
 17 18  4  0
 20 27  1  0
 24 27  4  0
 26 28  4  0
M  END
$$$$

 Created by Python create_sdf_string function

 29 33  0  0  0  0  0  0  0  0999 V2000
    8.8270   -7.0288   18.4251 C   0  0  0  0  0  0  0  0  0  0  0  0
    9.1576   -4.6236   15.8860 O   0  0  0  0  0  0  0  0  0  0  0  0
    9.1509   -5.9108   17.7177 C   0  0  0  0  0  0  0  0  0  0  0  0
    3.6373   -9.5349   16.0582 N   0  0  0  0  0  0  0  0  0  0  0  0
    9.9275   -4.8001   18.0438 N   0  0  0  0  0  0  0  0  0  0  0  0
    8.5908   -5.7425   16.4412 C   0  0  0  0  0  0  0  0  0  0  0  0
   10.5993   -4.8981   21.6068 C   0  0  0  0  0  0  0  0  0  0  0  0
   10.4258   -3.0106   23.0998 C   0  0  0  0  0  0  0  0  0  0  0  0
   10.2148   -3.4364   25.4200 C   0  0  0  0  0  0  0  0  0  0  0  0
    9.7853   -1.1840   24.4927 C   0  0  0  0  0  0  0  0  0  0  0  0
    5.0276   -8.5227   17.5352 C   0  0  0  0  0  0  0  0  0  0  0  0
    9.8187   -2.0895   25.5800 C   0  0  0  0  0  0  0  0  0  0  0  0
    5.6473   -8.7216   15.3158 C   0  0  0  0  0  0  0  0  0  0  0  0
   10.7581   -3.1233   19.4720 N   0  0  0  0  0  0  0  0  0  0  0  0
    9.9571   -4.0573   16.8866 C   0  0  0  0  0  0  0  0  0  0  0  0
    7.6213   -6.5618   16.0087 C   0  0  0  0  0  0  0  0  0  0  0  0
   10.8583   -2.6527   20.7222 C   0  0  0  0  0  0  0  0  0  0  0  0
   10.6412   -3.5089   21.7936 C   0  0  0  0  0  0  0  0  0  0  0  0
   10.4972   -3.8968   24.1589 C   0  0  0  0  0  0  0  0  0  0  0  0
    5.9260   -8.2736   16.5517 C   0  0  0  0  0  0  0  0  0  0  0  0
    3.8816   -9.1166   17.2493 C   0  0  0  0  0  0  0  0  0  0  0  0
   10.1297   -1.6575   23.2324 C   0  0  0  0  0  0  0  0  0  0  0  0
    9.4684   -1.6929   26.7263 F   0  0  0  0  0  0  0  0  0  0  0  0
    7.7963   -7.7906   17.9837 C   0  0  0  0  0  0  0  0  0  0  0  0
   10.5884   -3.0725   16.7902 O   0  0  0  0  0  0  0  0  0  0  0  0
   10.4323   -5.3494   20.3516 C   0  0  0  0  0  0  0  0  0  0  0  0
    7.1156   -7.5454   16.8218 C   0  0  0  0  0  0  0  0  0  0  0  0
   10.3885   -4.4388   19.2773 C   0  0  0  0  0  0  0  0  0  0  0  0
    4.5160   -9.3822   15.0841 C   0  0  0  0  0  0  0  0  0  0  0  0
  1  3  4  0
  1 24  4  0
  2  6  4  0
  2 15  4  0
  3  5  4  0
  3  6  4  0
  4 21  4  0
  4 29  4  0
  5 15  4  0
  5 28  1  0
  6 16  4  0
  7 18  4  0
  7 26  4  0
  8 18  1  0
  8 19  4  0
  8 22  4  0
  9 12  4  0
  9 19  4  0
 10 12  4  0
 10 22  4  0
 11 20  4  0
 11 21  4  0
 12 23  1  0
 13 20  4  0
 13 29  4  0
 14 17  4  0
 14 28  4  0
 15 25  2  0
 16 27  4  0
 17 18  4  0
 20 27  1  0
 24 27  4  0
 26 28  4  0
M  END
$$$$

 Created by Python create_sdf_string function

 29 33  0  0  0  0  0  0  0  0999 V2000
    8.8270   -7.0288   18.4251 C   0  0  0  0  0  0  0  0  0  0  0  0
    9.1576   -4.6236   15.8860 O   0  0  0  0  0  0  0  0  0  0  0  0
    9.1509   -5.9108   17.7177 C   0  0  0  0  0  0  0  0  0  0  0  0
    3.6373   -9.5349   16.0582 N   0  0  0  0  0  0  0  0  0  0  0  0
    9.9275   -4.8001   18.0438 N   0  0  0  0  0  0  0  0  0  0  0  0
    8.5908   -5.7425   16.4412 C   0  0  0  0  0  0  0  0  0  0  0  0
   10.5993   -4.8981   21.6068 C   0  0  0  0  0  0  0  0  0  0  0  0
   10.4258   -3.0106   23.0998 C   0  0  0  0  0  0  0  0  0  0  0  0
   10.2148   -3.4364   25.4200 C   0  0  0  0  0  0  0  0  0  0  0  0
    9.7853   -1.1840   24.4927 C   0  0  0  0  0  0  0  0  0  0  0  0
    5.0276   -8.5227   17.5352 C   0  0  0  0  0  0  0  0  0  0  0  0
    9.8187   -2.0895   25.5800 C   0  0  0  0  0  0  0  0  0  0  0  0
    5.6473   -8.7216   15.3158 C   0  0  0  0  0  0  0  0  0  0  0  0
   10.7581   -3.1233   19.4720 N   0  0  0  0  0  0  0  0  0  0  0  0
    9.9571   -4.0573   16.8866 C   0  0  0  0  0  0  0  0  0  0  0  0
    7.6213   -6.5618   16.0087 C   0  0  0  0  0  0  0  0  0  0  0  0
   10.8583   -2.6527   20.7222 C   0  0  0  0  0  0  0  0  0  0  0  0
   10.6412   -3.5089   21.7936 C   0  0  0  0  0  0  0  0  0  0  0  0
   10.4972   -3.8968   24.1589 C   0  0  0  0  0  0  0  0  0  0  0  0
    5.9260   -8.2736   16.5517 C   0  0  0  0  0  0  0  0  0  0  0  0
    3.8816   -9.1166   17.2493 C   0  0  0  0  0  0  0  0  0  0  0  0
   10.1297   -1.6575   23.2324 C   0  0  0  0  0  0  0  0  0  0  0  0
    9.4684   -1.6929   26.7263 F   0  0  0  0  0  0  0  0  0  0  0  0
    7.7963   -7.7906   17.9837 C   0  0  0  0  0  0  0  0  0  0  0  0
   10.5884   -3.0725   16.7902 O   0  0  0  0  0  0  0  0  0  0  0  0
   10.4323   -5.3494   20.3516 C   0  0  0  0  0  0  0  0  0  0  0  0
    7.1156   -7.5454   16.8218 C   0  0  0  0  0  0  0  0  0  0  0  0
   10.3885   -4.4388   19.2773 C   0  0  0  0  0  0  0  0  0  0  0  0
    4.5160   -9.3822   15.0841 C   0  0  0  0  0  0  0  0  0  0  0  0
  1  3  4  0
  1 24  4  0
  2  6  4  0
  2 15  4  0
  3  5  4  0
  3  6  4  0
  4 21  4  0
  4 29  4  0
  5 15  4  0
  5 28  1  0
  6 16  4  0
  7 18  4  0
  7 26  4  0
  8 18  1  0
  8 19  4  0
  8 22  4  0
  9 12  4  0
  9 19  4  0
 10 12  4  0
 10 22  4  0
 11 20  4  0
 11 21  4  0
 12 23  1  0
 13 20  4  0
 13 29  4  0
 14 17  4  0
 14 28  4  0
 15 25  2  0
 16 27  4  0
 17 18  4  0
 20 27  1  0
 24 27  4  0
 26 28  4  0
M  END
$$$$

 Created by Python create_sdf_string function

 29 33  0  0  0  0  0  0  0  0999 V2000
    8.8270   -7.0288   18.4251 C   0  0  0  0  0  0  0  0  0  0  0  0
    9.1576   -4.6236   15.8860 O   0  0  0  0  0  0  0  0  0  0  0  0
    9.1509   -5.9108   17.7177 C   0  0  0  0  0  0  0  0  0  0  0  0
    3.6373   -9.5349   16.0582 N   0  0  0  0  0  0  0  0  0  0  0  0
    9.9275   -4.8001   18.0438 N   0  0  0  0  0  0  0  0  0  0  0  0
    8.5908   -5.7425   16.4412 C   0  0  0  0  0  0  0  0  0  0  0  0
   10.5993   -4.8981   21.6068 C   0  0  0  0  0  0  0  0  0  0  0  0
   10.4258   -3.0106   23.0998 C   0  0  0  0  0  0  0  0  0  0  0  0
   10.2148   -3.4364   25.4200 C   0  0  0  0  0  0  0  0  0  0  0  0
    9.7853   -1.1840   24.4927 C   0  0  0  0  0  0  0  0  0  0  0  0
    5.0276   -8.5227   17.5352 C   0  0  0  0  0  0  0  0  0  0  0  0
    9.8187   -2.0895   25.5800 C   0  0  0  0  0  0  0  0  0  0  0  0
    5.6473   -8.7216   15.3158 C   0  0  0  0  0  0  0  0  0  0  0  0
   10.7581   -3.1233   19.4720 N   0  0  0  0  0  0  0  0  0  0  0  0
    9.9571   -4.0573   16.8866 C   0  0  0  0  0  0  0  0  0  0  0  0
    7.6213   -6.5618   16.0087 C   0  0  0  0  0  0  0  0  0  0  0  0
   10.8583   -2.6527   20.7222 C   0  0  0  0  0  0  0  0  0  0  0  0
   10.6412   -3.5089   21.7936 C   0  0  0  0  0  0  0  0  0  0  0  0
   10.4972   -3.8968   24.1589 C   0  0  0  0  0  0  0  0  0  0  0  0
    5.9260   -8.2736   16.5517 C   0  0  0  0  0  0  0  0  0  0  0  0
    3.8816   -9.1166   17.2493 C   0  0  0  0  0  0  0  0  0  0  0  0
   10.1297   -1.6575   23.2324 C   0  0  0  0  0  0  0  0  0  0  0  0
    9.4684   -1.6929   26.7263 F   0  0  0  0  0  0  0  0  0  0  0  0
    7.7963   -7.7906   17.9837 C   0  0  0  0  0  0  0  0  0  0  0  0
   10.5884   -3.0725   16.7902 O   0  0  0  0  0  0  0  0  0  0  0  0
   10.4323   -5.3494   20.3516 C   0  0  0  0  0  0  0  0  0  0  0  0
    7.1156   -7.5454   16.8218 C   0  0  0  0  0  0  0  0  0  0  0  0
   10.3885   -4.4388   19.2773 C   0  0  0  0  0  0  0  0  0  0  0  0
    4.5160   -9.3822   15.0841 C   0  0  0  0  0  0  0  0  0  0  0  0
  1  3  4  0
  1 24  4  0
  2  6  4  0
  2 15  4  0
  3  5  4  0
  3  6  4  0
  4 21  4  0
  4 29  4  0
  5 15  4  0
  5 28  1  0
  6 16  4  0
  7 18  4  0
  7 26  4  0
  8 18  1  0
  8 19  4  0
  8 22  4  0
  9 12  4  0
  9 19  4  0
 10 12  4  0
 10 22  4  0
 11 20  4  0
 11 21  4  0
 12 23  1  0
 13 20  4  0
 13 29  4  0
 14 17  4  0
 14 28  4  0
 15 25  2  0
 16 27  4  0
 17 18  4  0
 20 27  1  0
 24 27  4  0
 26 28  4  0
M  END
$$$$

 Created by Python create_sdf_string function

 29 33  0  0  0  0  0  0  0  0999 V2000
    8.8270   -7.0288   18.4251 C   0  0  0  0  0  0  0  0  0  0  0  0
    9.1576   -4.6236   15.8860 O   0  0  0  0  0  0  0  0  0  0  0  0
    9.1509   -5.9108   17.7177 C   0  0  0  0  0  0  0  0  0  0  0  0
    3.6373   -9.5349   16.0582 N   0  0  0  0  0  0  0  0  0  0  0  0
    9.9275   -4.8001   18.0438 N   0  0  0  0  0  0  0  0  0  0  0  0
    8.5908   -5.7425   16.4412 C   0  0  0  0  0  0  0  0  0  0  0  0
   10.5993   -4.8981   21.6068 C   0  0  0  0  0  0  0  0  0  0  0  0
   10.4258   -3.0106   23.0998 C   0  0  0  0  0  0  0  0  0  0  0  0
   10.2148   -3.4364   25.4200 C   0  0  0  0  0  0  0  0  0  0  0  0
    9.7853   -1.1840   24.4927 C   0  0  0  0  0  0  0  0  0  0  0  0
    5.0276   -8.5227   17.5352 C   0  0  0  0  0  0  0  0  0  0  0  0
    9.8187   -2.0895   25.5800 C   0  0  0  0  0  0  0  0  0  0  0  0
    5.6473   -8.7216   15.3158 C   0  0  0  0  0  0  0  0  0  0  0  0
   10.7581   -3.1233   19.4720 N   0  0  0  0  0  0  0  0  0  0  0  0
    9.9571   -4.0573   16.8866 C   0  0  0  0  0  0  0  0  0  0  0  0
    7.6213   -6.5618   16.0087 C   0  0  0  0  0  0  0  0  0  0  0  0
   10.8583   -2.6527   20.7222 C   0  0  0  0  0  0  0  0  0  0  0  0
   10.6412   -3.5089   21.7936 C   0  0  0  0  0  0  0  0  0  0  0  0
   10.4972   -3.8968   24.1589 C   0  0  0  0  0  0  0  0  0  0  0  0
    5.9260   -8.2736   16.5517 C   0  0  0  0  0  0  0  0  0  0  0  0
    3.8816   -9.1166   17.2493 C   0  0  0  0  0  0  0  0  0  0  0  0
   10.1297   -1.6575   23.2324 C   0  0  0  0  0  0  0  0  0  0  0  0
    9.4684   -1.6929   26.7263 F   0  0  0  0  0  0  0  0  0  0  0  0
    7.7963   -7.7906   17.9837 C   0  0  0  0  0  0  0  0  0  0  0  0
   10.5884   -3.0725   16.7902 O   0  0  0  0  0  0  0  0  0  0  0  0
   10.4323   -5.3494   20.3516 C   0  0  0  0  0  0  0  0  0  0  0  0
    7.1156   -7.5454   16.8218 C   0  0  0  0  0  0  0  0  0  0  0  0
   10.3885   -4.4388   19.2773 C   0  0  0  0  0  0  0  0  0  0  0  0
    4.5160   -9.3822   15.0841 C   0  0  0  0  0  0  0  0  0  0  0  0
  1  3  4  0
  1 24  4  0
  2  6  4  0
  2 15  4  0
  3  5  4  0
  3  6  4  0
  4 21  4  0
  4 29  4  0
  5 15  4  0
  5 28  1  0
  6 16  4  0
  7 18  4  0
  7 26  4  0
  8 18  1  0
  8 19  4  0
  8 22  4  0
  9 12  4  0
  9 19  4  0
 10 12  4  0
 10 22  4  0
 11 20  4  0
 11 21  4  0
 12 23  1  0
 13 20  4  0
 13 29  4  0
 14 17  4  0
 14 28  4  0
 15 25  2  0
 16 27  4  0
 17 18  4  0
 20 27  1  0
 24 27  4  0
 26 28  4  0
M  END
$$$$

 Created by Python create_sdf_string function

 29 33  0  0  0  0  0  0  0  0999 V2000
    8.8270   -7.0288   18.4251 C   0  0  0  0  0  0  0  0  0  0  0  0
    9.1576   -4.6236   15.8860 O   0  0  0  0  0  0  0  0  0  0  0  0
    9.1509   -5.9108   17.7177 C   0  0  0  0  0  0  0  0  0  0  0  0
    3.6373   -9.5349   16.0582 N   0  0  0  0  0  0  0  0  0  0  0  0
    9.9275   -4.8001   18.0438 N   0  0  0  0  0  0  0  0  0  0  0  0
    8.5908   -5.7425   16.4412 C   0  0  0  0  0  0  0  0  0  0  0  0
   10.5993   -4.8981   21.6068 C   0  0  0  0  0  0  0  0  0  0  0  0
   10.4258   -3.0106   23.0998 C   0  0  0  0  0  0  0  0  0  0  0  0
   10.2148   -3.4364   25.4200 C   0  0  0  0  0  0  0  0  0  0  0  0
    9.7853   -1.1840   24.4927 C   0  0  0  0  0  0  0  0  0  0  0  0
    5.0276   -8.5227   17.5352 C   0  0  0  0  0  0  0  0  0  0  0  0
    9.8187   -2.0895   25.5800 C   0  0  0  0  0  0  0  0  0  0  0  0
    5.6473   -8.7216   15.3158 C   0  0  0  0  0  0  0  0  0  0  0  0
   10.7581   -3.1233   19.4720 N   0  0  0  0  0  0  0  0  0  0  0  0
    9.9571   -4.0573   16.8866 C   0  0  0  0  0  0  0  0  0  0  0  0
    7.6213   -6.5618   16.0087 C   0  0  0  0  0  0  0  0  0  0  0  0
   10.8583   -2.6527   20.7222 C   0  0  0  0  0  0  0  0  0  0  0  0
   10.6412   -3.5089   21.7936 C   0  0  0  0  0  0  0  0  0  0  0  0
   10.4972   -3.8968   24.1589 C   0  0  0  0  0  0  0  0  0  0  0  0
    5.9260   -8.2736   16.5517 C   0  0  0  0  0  0  0  0  0  0  0  0
    3.8816   -9.1166   17.2493 C   0  0  0  0  0  0  0  0  0  0  0  0
   10.1297   -1.6575   23.2324 C   0  0  0  0  0  0  0  0  0  0  0  0
    9.4684   -1.6929   26.7263 F   0  0  0  0  0  0  0  0  0  0  0  0
    7.7963   -7.7906   17.9837 C   0  0  0  0  0  0  0  0  0  0  0  0
   10.5884   -3.0725   16.7902 O   0  0  0  0  0  0  0  0  0  0  0  0
   10.4323   -5.3494   20.3516 C   0  0  0  0  0  0  0  0  0  0  0  0
    7.1156   -7.5454   16.8218 C   0  0  0  0  0  0  0  0  0  0  0  0
   10.3885   -4.4388   19.2773 C   0  0  0  0  0  0  0  0  0  0  0  0
    4.5160   -9.3822   15.0841 C   0  0  0  0  0  0  0  0  0  0  0  0
  1  3  4  0
  1 24  4  0
  2  6  4  0
  2 15  4  0
  3  5  4  0
  3  6  4  0
  4 21  4  0
  4 29  4  0
  5 15  4  0
  5 28  1  0
  6 16  4  0
  7 18  4  0
  7 26  4  0
  8 18  1  0
  8 19  4  0
  8 22  4  0
  9 12  4  0
  9 19  4  0
 10 12  4  0
 10 22  4  0
 11 20  4  0
 11 21  4  0
 12 23  1  0
 13 20  4  0
 13 29  4  0
 14 17  4  0
 14 28  4  0
 15 25  2  0
 16 27  4  0
 17 18  4  0
 20 27  1  0
 24 27  4  0
 26 28  4  0
M  END
$$$$

 Created by Python create_sdf_string function

 29 33  0  0  0  0  0  0  0  0999 V2000
    8.8270   -7.0288   18.4251 C   0  0  0  0  0  0  0  0  0  0  0  0
    9.1576   -4.6236   15.8860 O   0  0  0  0  0  0  0  0  0  0  0  0
    9.1509   -5.9108   17.7177 C   0  0  0  0  0  0  0  0  0  0  0  0
    3.6373   -9.5349   16.0582 N   0  0  0  0  0  0  0  0  0  0  0  0
    9.9275   -4.8001   18.0438 N   0  0  0  0  0  0  0  0  0  0  0  0
    8.5908   -5.7425   16.4412 C   0  0  0  0  0  0  0  0  0  0  0  0
   10.5993   -4.8981   21.6068 C   0  0  0  0  0  0  0  0  0  0  0  0
   10.4258   -3.0106   23.0998 C   0  0  0  0  0  0  0  0  0  0  0  0
   10.2148   -3.4364   25.4200 C   0  0  0  0  0  0  0  0  0  0  0  0
    9.7853   -1.1840   24.4927 C   0  0  0  0  0  0  0  0  0  0  0  0
    5.0276   -8.5227   17.5352 C   0  0  0  0  0  0  0  0  0  0  0  0
    9.8187   -2.0895   25.5800 C   0  0  0  0  0  0  0  0  0  0  0  0
    5.6473   -8.7216   15.3158 C   0  0  0  0  0  0  0  0  0  0  0  0
   10.7581   -3.1233   19.4720 N   0  0  0  0  0  0  0  0  0  0  0  0
    9.9571   -4.0573   16.8866 C   0  0  0  0  0  0  0  0  0  0  0  0
    7.6213   -6.5618   16.0087 C   0  0  0  0  0  0  0  0  0  0  0  0
   10.8583   -2.6527   20.7222 C   0  0  0  0  0  0  0  0  0  0  0  0
   10.6412   -3.5089   21.7936 C   0  0  0  0  0  0  0  0  0  0  0  0
   10.4972   -3.8968   24.1589 C   0  0  0  0  0  0  0  0  0  0  0  0
    5.9260   -8.2736   16.5517 C   0  0  0  0  0  0  0  0  0  0  0  0
    3.8816   -9.1166   17.2493 C   0  0  0  0  0  0  0  0  0  0  0  0
   10.1297   -1.6575   23.2324 C   0  0  0  0  0  0  0  0  0  0  0  0
    9.4684   -1.6929   26.7263 F   0  0  0  0  0  0  0  0  0  0  0  0
    7.7963   -7.7906   17.9837 C   0  0  0  0  0  0  0  0  0  0  0  0
   10.5884   -3.0725   16.7902 O   0  0  0  0  0  0  0  0  0  0  0  0
   10.4323   -5.3494   20.3516 C   0  0  0  0  0  0  0  0  0  0  0  0
    7.1156   -7.5454   16.8218 C   0  0  0  0  0  0  0  0  0  0  0  0
   10.3885   -4.4388   19.2773 C   0  0  0  0  0  0  0  0  0  0  0  0
    4.5160   -9.3822   15.0841 C   0  0  0  0  0  0  0  0  0  0  0  0
  1  3  4  0
  1 24  4  0
  2  6  4  0
  2 15  4  0
  3  5  4  0
  3  6  4  0
  4 21  4  0
  4 29  4  0
  5 15  4  0
  5 28  1  0
  6 16  4  0
  7 18  4  0
  7 26  4  0
  8 18  1  0
  8 19  4  0
  8 22  4  0
  9 12  4  0
  9 19  4  0
 10 12  4  0
 10 22  4  0
 11 20  4  0
 11 21  4  0
 12 23  1  0
 13 20  4  0
 13 29  4  0
 14 17  4  0
 14 28  4  0
 15 25  2  0
 16 27  4  0
 17 18  4  0
 20 27  1  0
 24 27  4  0
 26 28  4  0
M  END
$$$$

 Created by Python create_sdf_string function

 29 33  0  0  0  0  0  0  0  0999 V2000
    8.8270   -7.0288   18.4251 C   0  0  0  0  0  0  0  0  0  0  0  0
    9.1576   -4.6236   15.8860 O   0  0  0  0  0  0  0  0  0  0  0  0
    9.1509   -5.9108   17.7177 C   0  0  0  0  0  0  0  0  0  0  0  0
    3.6373   -9.5349   16.0582 N   0  0  0  0  0  0  0  0  0  0  0  0
    9.9275   -4.8001   18.0438 N   0  0  0  0  0  0  0  0  0  0  0  0
    8.5908   -5.7425   16.4412 C   0  0  0  0  0  0  0  0  0  0  0  0
   10.5993   -4.8981   21.6068 C   0  0  0  0  0  0  0  0  0  0  0  0
   10.4258   -3.0106   23.0998 C   0  0  0  0  0  0  0  0  0  0  0  0
   10.2148   -3.4364   25.4200 C   0  0  0  0  0  0  0  0  0  0  0  0
    9.7853   -1.1840   24.4927 C   0  0  0  0  0  0  0  0  0  0  0  0
    5.0276   -8.5227   17.5352 C   0  0  0  0  0  0  0  0  0  0  0  0
    9.8187   -2.0895   25.5800 C   0  0  0  0  0  0  0  0  0  0  0  0
    5.6473   -8.7216   15.3158 C   0  0  0  0  0  0  0  0  0  0  0  0
   10.7581   -3.1233   19.4720 N   0  0  0  0  0  0  0  0  0  0  0  0
    9.9571   -4.0573   16.8866 C   0  0  0  0  0  0  0  0  0  0  0  0
    7.6213   -6.5618   16.0087 C   0  0  0  0  0  0  0  0  0  0  0  0
   10.8583   -2.6527   20.7222 C   0  0  0  0  0  0  0  0  0  0  0  0
   10.6412   -3.5089   21.7936 C   0  0  0  0  0  0  0  0  0  0  0  0
   10.4972   -3.8968   24.1589 C   0  0  0  0  0  0  0  0  0  0  0  0
    5.9260   -8.2736   16.5517 C   0  0  0  0  0  0  0  0  0  0  0  0
    3.8816   -9.1166   17.2493 C   0  0  0  0  0  0  0  0  0  0  0  0
   10.1297   -1.6575   23.2324 C   0  0  0  0  0  0  0  0  0  0  0  0
    9.4684   -1.6929   26.7263 F   0  0  0  0  0  0  0  0  0  0  0  0
    7.7963   -7.7906   17.9837 C   0  0  0  0  0  0  0  0  0  0  0  0
   10.5884   -3.0725   16.7902 O   0  0  0  0  0  0  0  0  0  0  0  0
   10.4323   -5.3494   20.3516 C   0  0  0  0  0  0  0  0  0  0  0  0
    7.1156   -7.5454   16.8218 C   0  0  0  0  0  0  0  0  0  0  0  0
   10.3885   -4.4388   19.2773 C   0  0  0  0  0  0  0  0  0  0  0  0
    4.5160   -9.3822   15.0841 C   0  0  0  0  0  0  0  0  0  0  0  0
  1  3  4  0
  1 24  4  0
  2  6  4  0
  2 15  4  0
  3  5  4  0
  3  6  4  0
  4 21  4  0
  4 29  4  0
  5 15  4  0
  5 28  1  0
  6 16  4  0
  7 18  4  0
  7 26  4  0
  8 18  1  0
  8 19  4  0
  8 22  4  0
  9 12  4  0
  9 19  4  0
 10 12  4  0
 10 22  4  0
 11 20  4  0
 11 21  4  0
 12 23  1  0
 13 20  4  0
 13 29  4  0
 14 17  4  0
 14 28  4  0
 15 25  2  0
 16 27  4  0
 17 18  4  0
 20 27  1  0
 24 27  4  0
 26 28  4  0
M  END
$$$$

 Created by Python create_sdf_string function

 29 33  0  0  0  0  0  0  0  0999 V2000
    8.8270   -7.0288   18.4251 C   0  0  0  0  0  0  0  0  0  0  0  0
    9.1576   -4.6236   15.8860 O   0  0  0  0  0  0  0  0  0  0  0  0
    9.1509   -5.9108   17.7177 C   0  0  0  0  0  0  0  0  0  0  0  0
    3.6373   -9.5349   16.0582 N   0  0  0  0  0  0  0  0  0  0  0  0
    9.9275   -4.8001   18.0438 N   0  0  0  0  0  0  0  0  0  0  0  0
    8.5908   -5.7425   16.4412 C   0  0  0  0  0  0  0  0  0  0  0  0
   10.5993   -4.8981   21.6068 C   0  0  0  0  0  0  0  0  0  0  0  0
   10.4258   -3.0106   23.0998 C   0  0  0  0  0  0  0  0  0  0  0  0
   10.2148   -3.4364   25.4200 C   0  0  0  0  0  0  0  0  0  0  0  0
    9.7853   -1.1840   24.4927 C   0  0  0  0  0  0  0  0  0  0  0  0
    5.0276   -8.5227   17.5352 C   0  0  0  0  0  0  0  0  0  0  0  0
    9.8187   -2.0895   25.5800 C   0  0  0  0  0  0  0  0  0  0  0  0
    5.6473   -8.7216   15.3158 C   0  0  0  0  0  0  0  0  0  0  0  0
   10.7581   -3.1233   19.4720 N   0  0  0  0  0  0  0  0  0  0  0  0
    9.9571   -4.0573   16.8866 C   0  0  0  0  0  0  0  0  0  0  0  0
    7.6213   -6.5618   16.0087 C   0  0  0  0  0  0  0  0  0  0  0  0
   10.8583   -2.6527   20.7222 C   0  0  0  0  0  0  0  0  0  0  0  0
   10.6412   -3.5089   21.7936 C   0  0  0  0  0  0  0  0  0  0  0  0
   10.4972   -3.8968   24.1589 C   0  0  0  0  0  0  0  0  0  0  0  0
    5.9260   -8.2736   16.5517 C   0  0  0  0  0  0  0  0  0  0  0  0
    3.8816   -9.1166   17.2493 C   0  0  0  0  0  0  0  0  0  0  0  0
   10.1297   -1.6575   23.2324 C   0  0  0  0  0  0  0  0  0  0  0  0
    9.4684   -1.6929   26.7263 F   0  0  0  0  0  0  0  0  0  0  0  0
    7.7963   -7.7906   17.9837 C   0  0  0  0  0  0  0  0  0  0  0  0
   10.5884   -3.0725   16.7902 O   0  0  0  0  0  0  0  0  0  0  0  0
   10.4323   -5.3494   20.3516 C   0  0  0  0  0  0  0  0  0  0  0  0
    7.1156   -7.5454   16.8218 C   0  0  0  0  0  0  0  0  0  0  0  0
   10.3885   -4.4388   19.2773 C   0  0  0  0  0  0  0  0  0  0  0  0
    4.5160   -9.3822   15.0841 C   0  0  0  0  0  0  0  0  0  0  0  0
  1  3  4  0
  1 24  4  0
  2  6  4  0
  2 15  4  0
  3  5  4  0
  3  6  4  0
  4 21  4  0
  4 29  4  0
  5 15  4  0
  5 28  1  0
  6 16  4  0
  7 18  4  0
  7 26  4  0
  8 18  1  0
  8 19  4  0
  8 22  4  0
  9 12  4  0
  9 19  4  0
 10 12  4  0
 10 22  4  0
 11 20  4  0
 11 21  4  0
 12 23  1  0
 13 20  4  0
 13 29  4  0
 14 17  4  0
 14 28  4  0
 15 25  2  0
 16 27  4  0
 17 18  4  0
 20 27  1  0
 24 27  4  0
 26 28  4  0
M  END
$$$$

 Created by Python create_sdf_string function

 29 33  0  0  0  0  0  0  0  0999 V2000
    8.8270   -7.0288   18.4251 C   0  0  0  0  0  0  0  0  0  0  0  0
    9.1576   -4.6236   15.8860 O   0  0  0  0  0  0  0  0  0  0  0  0
    9.1509   -5.9108   17.7177 C   0  0  0  0  0  0  0  0  0  0  0  0
    3.6373   -9.5349   16.0582 N   0  0  0  0  0  0  0  0  0  0  0  0
    9.9275   -4.8001   18.0438 N   0  0  0  0  0  0  0  0  0  0  0  0
    8.5908   -5.7425   16.4412 C   0  0  0  0  0  0  0  0  0  0  0  0
   10.5993   -4.8981   21.6068 C   0  0  0  0  0  0  0  0  0  0  0  0
   10.4258   -3.0106   23.0998 C   0  0  0  0  0  0  0  0  0  0  0  0
   10.2148   -3.4364   25.4200 C   0  0  0  0  0  0  0  0  0  0  0  0
    9.7853   -1.1840   24.4927 C   0  0  0  0  0  0  0  0  0  0  0  0
    5.0276   -8.5227   17.5352 C   0  0  0  0  0  0  0  0  0  0  0  0
    9.8187   -2.0895   25.5800 C   0  0  0  0  0  0  0  0  0  0  0  0
    5.6473   -8.7216   15.3158 C   0  0  0  0  0  0  0  0  0  0  0  0
   10.7581   -3.1233   19.4720 N   0  0  0  0  0  0  0  0  0  0  0  0
    9.9571   -4.0573   16.8866 C   0  0  0  0  0  0  0  0  0  0  0  0
    7.6213   -6.5618   16.0087 C   0  0  0  0  0  0  0  0  0  0  0  0
   10.8583   -2.6527   20.7222 C   0  0  0  0  0  0  0  0  0  0  0  0
   10.6412   -3.5089   21.7936 C   0  0  0  0  0  0  0  0  0  0  0  0
   10.4972   -3.8968   24.1589 C   0  0  0  0  0  0  0  0  0  0  0  0
    5.9260   -8.2736   16.5517 C   0  0  0  0  0  0  0  0  0  0  0  0
    3.8816   -9.1166   17.2493 C   0  0  0  0  0  0  0  0  0  0  0  0
   10.1297   -1.6575   23.2324 C   0  0  0  0  0  0  0  0  0  0  0  0
    9.4684   -1.6929   26.7263 F   0  0  0  0  0  0  0  0  0  0  0  0
    7.7963   -7.7906   17.9837 C   0  0  0  0  0  0  0  0  0  0  0  0
   10.5884   -3.0725   16.7902 O   0  0  0  0  0  0  0  0  0  0  0  0
   10.4323   -5.3494   20.3516 C   0  0  0  0  0  0  0  0  0  0  0  0
    7.1156   -7.5454   16.8218 C   0  0  0  0  0  0  0  0  0  0  0  0
   10.3885   -4.4388   19.2773 C   0  0  0  0  0  0  0  0  0  0  0  0
    4.5160   -9.3822   15.0841 C   0  0  0  0  0  0  0  0  0  0  0  0
  1  3  4  0
  1 24  4  0
  2  6  4  0
  2 15  4  0
  3  5  4  0
  3  6  4  0
  4 21  4  0
  4 29  4  0
  5 15  4  0
  5 28  1  0
  6 16  4  0
  7 18  4  0
  7 26  4  0
  8 18  1  0
  8 19  4  0
  8 22  4  0
  9 12  4  0
  9 19  4  0
 10 12  4  0
 10 22  4  0
 11 20  4  0
 11 21  4  0
 12 23  1  0
 13 20  4  0
 13 29  4  0
 14 17  4  0
 14 28  4  0
 15 25  2  0
 16 27  4  0
 17 18  4  0
 20 27  1  0
 24 27  4  0
 26 28  4  0
M  END
$$$$

 Created by Python create_sdf_string function

 29 33  0  0  0  0  0  0  0  0999 V2000
    8.8270   -7.0288   18.4251 C   0  0  0  0  0  0  0  0  0  0  0  0
    9.1576   -4.6236   15.8860 O   0  0  0  0  0  0  0  0  0  0  0  0
    9.1509   -5.9108   17.7177 C   0  0  0  0  0  0  0  0  0  0  0  0
    3.6373   -9.5349   16.0582 N   0  0  0  0  0  0  0  0  0  0  0  0
    9.9275   -4.8001   18.0438 N   0  0  0  0  0  0  0  0  0  0  0  0
    8.5908   -5.7425   16.4412 C   0  0  0  0  0  0  0  0  0  0  0  0
   10.5993   -4.8981   21.6068 C   0  0  0  0  0  0  0  0  0  0  0  0
   10.4258   -3.0106   23.0998 C   0  0  0  0  0  0  0  0  0  0  0  0
   10.2148   -3.4364   25.4200 C   0  0  0  0  0  0  0  0  0  0  0  0
    9.7853   -1.1840   24.4927 C   0  0  0  0  0  0  0  0  0  0  0  0
    5.0276   -8.5227   17.5352 C   0  0  0  0  0  0  0  0  0  0  0  0
    9.8187   -2.0895   25.5800 C   0  0  0  0  0  0  0  0  0  0  0  0
    5.6473   -8.7216   15.3158 C   0  0  0  0  0  0  0  0  0  0  0  0
   10.7581   -3.1233   19.4720 N   0  0  0  0  0  0  0  0  0  0  0  0
    9.9571   -4.0573   16.8866 C   0  0  0  0  0  0  0  0  0  0  0  0
    7.6213   -6.5618   16.0087 C   0  0  0  0  0  0  0  0  0  0  0  0
   10.8583   -2.6527   20.7222 C   0  0  0  0  0  0  0  0  0  0  0  0
   10.6412   -3.5089   21.7936 C   0  0  0  0  0  0  0  0  0  0  0  0
   10.4972   -3.8968   24.1589 C   0  0  0  0  0  0  0  0  0  0  0  0
    5.9260   -8.2736   16.5517 C   0  0  0  0  0  0  0  0  0  0  0  0
    3.8816   -9.1166   17.2493 C   0  0  0  0  0  0  0  0  0  0  0  0
   10.1297   -1.6575   23.2324 C   0  0  0  0  0  0  0  0  0  0  0  0
    9.4684   -1.6929   26.7263 F   0  0  0  0  0  0  0  0  0  0  0  0
    7.7963   -7.7906   17.9837 C   0  0  0  0  0  0  0  0  0  0  0  0
   10.5884   -3.0725   16.7902 O   0  0  0  0  0  0  0  0  0  0  0  0
   10.4323   -5.3494   20.3516 C   0  0  0  0  0  0  0  0  0  0  0  0
    7.1156   -7.5454   16.8218 C   0  0  0  0  0  0  0  0  0  0  0  0
   10.3885   -4.4388   19.2773 C   0  0  0  0  0  0  0  0  0  0  0  0
    4.5160   -9.3822   15.0841 C   0  0  0  0  0  0  0  0  0  0  0  0
  1  3  4  0
  1 24  4  0
  2  6  4  0
  2 15  4  0
  3  5  4  0
  3  6  4  0
  4 21  4  0
  4 29  4  0
  5 15  4  0
  5 28  1  0
  6 16  4  0
  7 18  4  0
  7 26  4  0
  8 18  1  0
  8 19  4  0
  8 22  4  0
  9 12  4  0
  9 19  4  0
 10 12  4  0
 10 22  4  0
 11 20  4  0
 11 21  4  0
 12 23  1  0
 13 20  4  0
 13 29  4  0
 14 17  4  0
 14 28  4  0
 15 25  2  0
 16 27  4  0
 17 18  4  0
 20 27  1  0
 24 27  4  0
 26 28  4  0
M  END
$$$$

 Created by Python create_sdf_string function

 29 33  0  0  0  0  0  0  0  0999 V2000
    8.8270   -7.0288   18.4251 C   0  0  0  0  0  0  0  0  0  0  0  0
    9.1576   -4.6236   15.8860 O   0  0  0  0  0  0  0  0  0  0  0  0
    9.1509   -5.9108   17.7177 C   0  0  0  0  0  0  0  0  0  0  0  0
    3.6373   -9.5349   16.0582 N   0  0  0  0  0  0  0  0  0  0  0  0
    9.9275   -4.8001   18.0438 N   0  0  0  0  0  0  0  0  0  0  0  0
    8.5908   -5.7425   16.4412 C   0  0  0  0  0  0  0  0  0  0  0  0
   10.5993   -4.8981   21.6068 C   0  0  0  0  0  0  0  0  0  0  0  0
   10.4258   -3.0106   23.0998 C   0  0  0  0  0  0  0  0  0  0  0  0
   10.2148   -3.4364   25.4200 C   0  0  0  0  0  0  0  0  0  0  0  0
    9.7853   -1.1840   24.4927 C   0  0  0  0  0  0  0  0  0  0  0  0
    5.0276   -8.5227   17.5352 C   0  0  0  0  0  0  0  0  0  0  0  0
    9.8187   -2.0895   25.5800 C   0  0  0  0  0  0  0  0  0  0  0  0
    5.6473   -8.7216   15.3158 C   0  0  0  0  0  0  0  0  0  0  0  0
   10.7581   -3.1233   19.4720 N   0  0  0  0  0  0  0  0  0  0  0  0
    9.9571   -4.0573   16.8866 C   0  0  0  0  0  0  0  0  0  0  0  0
    7.6213   -6.5618   16.0087 C   0  0  0  0  0  0  0  0  0  0  0  0
   10.8583   -2.6527   20.7222 C   0  0  0  0  0  0  0  0  0  0  0  0
   10.6412   -3.5089   21.7936 C   0  0  0  0  0  0  0  0  0  0  0  0
   10.4972   -3.8968   24.1589 C   0  0  0  0  0  0  0  0  0  0  0  0
    5.9260   -8.2736   16.5517 C   0  0  0  0  0  0  0  0  0  0  0  0
    3.8816   -9.1166   17.2493 C   0  0  0  0  0  0  0  0  0  0  0  0
   10.1297   -1.6575   23.2324 C   0  0  0  0  0  0  0  0  0  0  0  0
    9.4684   -1.6929   26.7263 F   0  0  0  0  0  0  0  0  0  0  0  0
    7.7963   -7.7906   17.9837 C   0  0  0  0  0  0  0  0  0  0  0  0
   10.5884   -3.0725   16.7902 O   0  0  0  0  0  0  0  0  0  0  0  0
   10.4323   -5.3494   20.3516 C   0  0  0  0  0  0  0  0  0  0  0  0
    7.1156   -7.5454   16.8218 C   0  0  0  0  0  0  0  0  0  0  0  0
   10.3885   -4.4388   19.2773 C   0  0  0  0  0  0  0  0  0  0  0  0
    4.5160   -9.3822   15.0841 C   0  0  0  0  0  0  0  0  0  0  0  0
  1  3  4  0
  1 24  4  0
  2  6  4  0
  2 15  4  0
  3  5  4  0
  3  6  4  0
  4 21  4  0
  4 29  4  0
  5 15  4  0
  5 28  1  0
  6 16  4  0
  7 18  4  0
  7 26  4  0
  8 18  1  0
  8 19  4  0
  8 22  4  0
  9 12  4  0
  9 19  4  0
 10 12  4  0
 10 22  4  0
 11 20  4  0
 11 21  4  0
 12 23  1  0
 13 20  4  0
 13 29  4  0
 14 17  4  0
 14 28  4  0
 15 25  2  0
 16 27  4  0
 17 18  4  0
 20 27  1  0
 24 27  4  0
 26 28  4  0
M  END
$$$$

 Created by Python create_sdf_string function

 29 33  0  0  0  0  0  0  0  0999 V2000
    8.8270   -7.0288   18.4251 C   0  0  0  0  0  0  0  0  0  0  0  0
    9.1576   -4.6236   15.8860 O   0  0  0  0  0  0  0  0  0  0  0  0
    9.1509   -5.9108   17.7177 C   0  0  0  0  0  0  0  0  0  0  0  0
    3.6373   -9.5349   16.0582 N   0  0  0  0  0  0  0  0  0  0  0  0
    9.9275   -4.8001   18.0438 N   0  0  0  0  0  0  0  0  0  0  0  0
    8.5908   -5.7425   16.4412 C   0  0  0  0  0  0  0  0  0  0  0  0
   10.5993   -4.8981   21.6068 C   0  0  0  0  0  0  0  0  0  0  0  0
   10.4258   -3.0106   23.0998 C   0  0  0  0  0  0  0  0  0  0  0  0
   10.2148   -3.4364   25.4200 C   0  0  0  0  0  0  0  0  0  0  0  0
    9.7853   -1.1840   24.4927 C   0  0  0  0  0  0  0  0  0  0  0  0
    5.0276   -8.5227   17.5352 C   0  0  0  0  0  0  0  0  0  0  0  0
    9.8187   -2.0895   25.5800 C   0  0  0  0  0  0  0  0  0  0  0  0
    5.6473   -8.7216   15.3158 C   0  0  0  0  0  0  0  0  0  0  0  0
   10.7581   -3.1233   19.4720 N   0  0  0  0  0  0  0  0  0  0  0  0
    9.9571   -4.0573   16.8866 C   0  0  0  0  0  0  0  0  0  0  0  0
    7.6213   -6.5618   16.0087 C   0  0  0  0  0  0  0  0  0  0  0  0
   10.8583   -2.6527   20.7222 C   0  0  0  0  0  0  0  0  0  0  0  0
   10.6412   -3.5089   21.7936 C   0  0  0  0  0  0  0  0  0  0  0  0
   10.4972   -3.8968   24.1589 C   0  0  0  0  0  0  0  0  0  0  0  0
    5.9260   -8.2736   16.5517 C   0  0  0  0  0  0  0  0  0  0  0  0
    3.8816   -9.1166   17.2493 C   0  0  0  0  0  0  0  0  0  0  0  0
   10.1297   -1.6575   23.2324 C   0  0  0  0  0  0  0  0  0  0  0  0
    9.4684   -1.6929   26.7263 F   0  0  0  0  0  0  0  0  0  0  0  0
    7.7963   -7.7906   17.9837 C   0  0  0  0  0  0  0  0  0  0  0  0
   10.5884   -3.0725   16.7902 O   0  0  0  0  0  0  0  0  0  0  0  0
   10.4323   -5.3494   20.3516 C   0  0  0  0  0  0  0  0  0  0  0  0
    7.1156   -7.5454   16.8218 C   0  0  0  0  0  0  0  0  0  0  0  0
   10.3885   -4.4388   19.2773 C   0  0  0  0  0  0  0  0  0  0  0  0
    4.5160   -9.3822   15.0841 C   0  0  0  0  0  0  0  0  0  0  0  0
  1  3  4  0
  1 24  4  0
  2  6  4  0
  2 15  4  0
  3  5  4  0
  3  6  4  0
  4 21  4  0
  4 29  4  0
  5 15  4  0
  5 28  1  0
  6 16  4  0
  7 18  4  0
  7 26  4  0
  8 18  1  0
  8 19  4  0
  8 22  4  0
  9 12  4  0
  9 19  4  0
 10 12  4  0
 10 22  4  0
 11 20  4  0
 11 21  4  0
 12 23  1  0
 13 20  4  0
 13 29  4  0
 14 17  4  0
 14 28  4  0
 15 25  2  0
 16 27  4  0
 17 18  4  0
 20 27  1  0
 24 27  4  0
 26 28  4  0
M  END
$$$$

 Created by Python create_sdf_string function

 29 33  0  0  0  0  0  0  0  0999 V2000
    8.8270   -7.0288   18.4251 C   0  0  0  0  0  0  0  0  0  0  0  0
    9.1576   -4.6236   15.8860 O   0  0  0  0  0  0  0  0  0  0  0  0
    9.1509   -5.9108   17.7177 C   0  0  0  0  0  0  0  0  0  0  0  0
    3.6373   -9.5349   16.0582 N   0  0  0  0  0  0  0  0  0  0  0  0
    9.9275   -4.8001   18.0438 N   0  0  0  0  0  0  0  0  0  0  0  0
    8.5908   -5.7425   16.4412 C   0  0  0  0  0  0  0  0  0  0  0  0
   10.5993   -4.8981   21.6068 C   0  0  0  0  0  0  0  0  0  0  0  0
   10.4258   -3.0106   23.0998 C   0  0  0  0  0  0  0  0  0  0  0  0
   10.2148   -3.4364   25.4200 C   0  0  0  0  0  0  0  0  0  0  0  0
    9.7853   -1.1840   24.4927 C   0  0  0  0  0  0  0  0  0  0  0  0
    5.0276   -8.5227   17.5352 C   0  0  0  0  0  0  0  0  0  0  0  0
    9.8187   -2.0895   25.5800 C   0  0  0  0  0  0  0  0  0  0  0  0
    5.6473   -8.7216   15.3158 C   0  0  0  0  0  0  0  0  0  0  0  0
   10.7581   -3.1233   19.4720 N   0  0  0  0  0  0  0  0  0  0  0  0
    9.9571   -4.0573   16.8866 C   0  0  0  0  0  0  0  0  0  0  0  0
    7.6213   -6.5618   16.0087 C   0  0  0  0  0  0  0  0  0  0  0  0
   10.8583   -2.6527   20.7222 C   0  0  0  0  0  0  0  0  0  0  0  0
   10.6412   -3.5089   21.7936 C   0  0  0  0  0  0  0  0  0  0  0  0
   10.4972   -3.8968   24.1589 C   0  0  0  0  0  0  0  0  0  0  0  0
    5.9260   -8.2736   16.5517 C   0  0  0  0  0  0  0  0  0  0  0  0
    3.8816   -9.1166   17.2493 C   0  0  0  0  0  0  0  0  0  0  0  0
   10.1297   -1.6575   23.2324 C   0  0  0  0  0  0  0  0  0  0  0  0
    9.4684   -1.6929   26.7263 F   0  0  0  0  0  0  0  0  0  0  0  0
    7.7963   -7.7906   17.9837 C   0  0  0  0  0  0  0  0  0  0  0  0
   10.5884   -3.0725   16.7902 O   0  0  0  0  0  0  0  0  0  0  0  0
   10.4323   -5.3494   20.3516 C   0  0  0  0  0  0  0  0  0  0  0  0
    7.1156   -7.5454   16.8218 C   0  0  0  0  0  0  0  0  0  0  0  0
   10.3885   -4.4388   19.2773 C   0  0  0  0  0  0  0  0  0  0  0  0
    4.5160   -9.3822   15.0841 C   0  0  0  0  0  0  0  0  0  0  0  0
  1  3  4  0
  1 24  4  0
  2  6  4  0
  2 15  4  0
  3  5  4  0
  3  6  4  0
  4 21  4  0
  4 29  4  0
  5 15  4  0
  5 28  1  0
  6 16  4  0
  7 18  4  0
  7 26  4  0
  8 18  1  0
  8 19  4  0
  8 22  4  0
  9 12  4  0
  9 19  4  0
 10 12  4  0
 10 22  4  0
 11 20  4  0
 11 21  4  0
 12 23  1  0
 13 20  4  0
 13 29  4  0
 14 17  4  0
 14 28  4  0
 15 25  2  0
 16 27  4  0
 17 18  4  0
 20 27  1  0
 24 27  4  0
 26 28  4  0
M  END
$$$$

 Created by Python create_sdf_string function

 29 33  0  0  0  0  0  0  0  0999 V2000
    8.8270   -7.0288   18.4251 C   0  0  0  0  0  0  0  0  0  0  0  0
    9.1576   -4.6236   15.8860 O   0  0  0  0  0  0  0  0  0  0  0  0
    9.1509   -5.9108   17.7177 C   0  0  0  0  0  0  0  0  0  0  0  0
    3.6373   -9.5349   16.0582 N   0  0  0  0  0  0  0  0  0  0  0  0
    9.9275   -4.8001   18.0438 N   0  0  0  0  0  0  0  0  0  0  0  0
    8.5908   -5.7425   16.4412 C   0  0  0  0  0  0  0  0  0  0  0  0
   10.5993   -4.8981   21.6068 C   0  0  0  0  0  0  0  0  0  0  0  0
   10.4258   -3.0106   23.0998 C   0  0  0  0  0  0  0  0  0  0  0  0
   10.2148   -3.4364   25.4200 C   0  0  0  0  0  0  0  0  0  0  0  0
    9.7853   -1.1840   24.4927 C   0  0  0  0  0  0  0  0  0  0  0  0
    5.0276   -8.5227   17.5352 C   0  0  0  0  0  0  0  0  0  0  0  0
    9.8187   -2.0895   25.5800 C   0  0  0  0  0  0  0  0  0  0  0  0
    5.6473   -8.7216   15.3158 C   0  0  0  0  0  0  0  0  0  0  0  0
   10.7581   -3.1233   19.4720 N   0  0  0  0  0  0  0  0  0  0  0  0
    9.9571   -4.0573   16.8866 C   0  0  0  0  0  0  0  0  0  0  0  0
    7.6213   -6.5618   16.0087 C   0  0  0  0  0  0  0  0  0  0  0  0
   10.8583   -2.6527   20.7222 C   0  0  0  0  0  0  0  0  0  0  0  0
   10.6412   -3.5089   21.7936 C   0  0  0  0  0  0  0  0  0  0  0  0
   10.4972   -3.8968   24.1589 C   0  0  0  0  0  0  0  0  0  0  0  0
    5.9260   -8.2736   16.5517 C   0  0  0  0  0  0  0  0  0  0  0  0
    3.8816   -9.1166   17.2493 C   0  0  0  0  0  0  0  0  0  0  0  0
   10.1297   -1.6575   23.2324 C   0  0  0  0  0  0  0  0  0  0  0  0
    9.4684   -1.6929   26.7263 F   0  0  0  0  0  0  0  0  0  0  0  0
    7.7963   -7.7906   17.9837 C   0  0  0  0  0  0  0  0  0  0  0  0
   10.5884   -3.0725   16.7902 O   0  0  0  0  0  0  0  0  0  0  0  0
   10.4323   -5.3494   20.3516 C   0  0  0  0  0  0  0  0  0  0  0  0
    7.1156   -7.5454   16.8218 C   0  0  0  0  0  0  0  0  0  0  0  0
   10.3885   -4.4388   19.2773 C   0  0  0  0  0  0  0  0  0  0  0  0
    4.5160   -9.3822   15.0841 C   0  0  0  0  0  0  0  0  0  0  0  0
  1  3  4  0
  1 24  4  0
  2  6  4  0
  2 15  4  0
  3  5  4  0
  3  6  4  0
  4 21  4  0
  4 29  4  0
  5 15  4  0
  5 28  1  0
  6 16  4  0
  7 18  4  0
  7 26  4  0
  8 18  1  0
  8 19  4  0
  8 22  4  0
  9 12  4  0
  9 19  4  0
 10 12  4  0
 10 22  4  0
 11 20  4  0
 11 21  4  0
 12 23  1  0
 13 20  4  0
 13 29  4  0
 14 17  4  0
 14 28  4  0
 15 25  2  0
 16 27  4  0
 17 18  4  0
 20 27  1  0
 24 27  4  0
 26 28  4  0
M  END
$$$$

 Created by Python create_sdf_string function

 29 33  0  0  0  0  0  0  0  0999 V2000
    8.8270   -7.0288   18.4251 C   0  0  0  0  0  0  0  0  0  0  0  0
    9.1576   -4.6236   15.8860 O   0  0  0  0  0  0  0  0  0  0  0  0
    9.1509   -5.9108   17.7177 C   0  0  0  0  0  0  0  0  0  0  0  0
    3.6373   -9.5349   16.0582 N   0  0  0  0  0  0  0  0  0  0  0  0
    9.9275   -4.8001   18.0438 N   0  0  0  0  0  0  0  0  0  0  0  0
    8.5908   -5.7425   16.4412 C   0  0  0  0  0  0  0  0  0  0  0  0
   10.5993   -4.8981   21.6068 C   0  0  0  0  0  0  0  0  0  0  0  0
   10.4258   -3.0106   23.0998 C   0  0  0  0  0  0  0  0  0  0  0  0
   10.2148   -3.4364   25.4200 C   0  0  0  0  0  0  0  0  0  0  0  0
    9.7853   -1.1840   24.4927 C   0  0  0  0  0  0  0  0  0  0  0  0
    5.0276   -8.5227   17.5352 C   0  0  0  0  0  0  0  0  0  0  0  0
    9.8187   -2.0895   25.5800 C   0  0  0  0  0  0  0  0  0  0  0  0
    5.6473   -8.7216   15.3158 C   0  0  0  0  0  0  0  0  0  0  0  0
   10.7581   -3.1233   19.4720 N   0  0  0  0  0  0  0  0  0  0  0  0
    9.9571   -4.0573   16.8866 C   0  0  0  0  0  0  0  0  0  0  0  0
    7.6213   -6.5618   16.0087 C   0  0  0  0  0  0  0  0  0  0  0  0
   10.8583   -2.6527   20.7222 C   0  0  0  0  0  0  0  0  0  0  0  0
   10.6412   -3.5089   21.7936 C   0  0  0  0  0  0  0  0  0  0  0  0
   10.4972   -3.8968   24.1589 C   0  0  0  0  0  0  0  0  0  0  0  0
    5.9260   -8.2736   16.5517 C   0  0  0  0  0  0  0  0  0  0  0  0
    3.8816   -9.1166   17.2493 C   0  0  0  0  0  0  0  0  0  0  0  0
   10.1297   -1.6575   23.2324 C   0  0  0  0  0  0  0  0  0  0  0  0
    9.4684   -1.6929   26.7263 F   0  0  0  0  0  0  0  0  0  0  0  0
    7.7963   -7.7906   17.9837 C   0  0  0  0  0  0  0  0  0  0  0  0
   10.5884   -3.0725   16.7902 O   0  0  0  0  0  0  0  0  0  0  0  0
   10.4323   -5.3494   20.3516 C   0  0  0  0  0  0  0  0  0  0  0  0
    7.1156   -7.5454   16.8218 C   0  0  0  0  0  0  0  0  0  0  0  0
   10.3885   -4.4388   19.2773 C   0  0  0  0  0  0  0  0  0  0  0  0
    4.5160   -9.3822   15.0841 C   0  0  0  0  0  0  0  0  0  0  0  0
  1  3  4  0
  1 24  4  0
  2  6  4  0
  2 15  4  0
  3  5  4  0
  3  6  4  0
  4 21  4  0
  4 29  4  0
  5 15  4  0
  5 28  1  0
  6 16  4  0
  7 18  4  0
  7 26  4  0
  8 18  1  0
  8 19  4  0
  8 22  4  0
  9 12  4  0
  9 19  4  0
 10 12  4  0
 10 22  4  0
 11 20  4  0
 11 21  4  0
 12 23  1  0
 13 20  4  0
 13 29  4  0
 14 17  4  0
 14 28  4  0
 15 25  2  0
 16 27  4  0
 17 18  4  0
 20 27  1  0
 24 27  4  0
 26 28  4  0
M  END
$$$$

 Created by Python create_sdf_string function

 29 33  0  0  0  0  0  0  0  0999 V2000
    8.8270   -7.0288   18.4251 C   0  0  0  0  0  0  0  0  0  0  0  0
    9.1576   -4.6236   15.8860 O   0  0  0  0  0  0  0  0  0  0  0  0
    9.1509   -5.9108   17.7177 C   0  0  0  0  0  0  0  0  0  0  0  0
    3.6373   -9.5349   16.0582 N   0  0  0  0  0  0  0  0  0  0  0  0
    9.9275   -4.8001   18.0438 N   0  0  0  0  0  0  0  0  0  0  0  0
    8.5908   -5.7425   16.4412 C   0  0  0  0  0  0  0  0  0  0  0  0
   10.5993   -4.8981   21.6068 C   0  0  0  0  0  0  0  0  0  0  0  0
   10.4258   -3.0106   23.0998 C   0  0  0  0  0  0  0  0  0  0  0  0
   10.2148   -3.4364   25.4200 C   0  0  0  0  0  0  0  0  0  0  0  0
    9.7853   -1.1840   24.4927 C   0  0  0  0  0  0  0  0  0  0  0  0
    5.0276   -8.5227   17.5352 C   0  0  0  0  0  0  0  0  0  0  0  0
    9.8187   -2.0895   25.5800 C   0  0  0  0  0  0  0  0  0  0  0  0
    5.6473   -8.7216   15.3158 C   0  0  0  0  0  0  0  0  0  0  0  0
   10.7581   -3.1233   19.4720 N   0  0  0  0  0  0  0  0  0  0  0  0
    9.9571   -4.0573   16.8866 C   0  0  0  0  0  0  0  0  0  0  0  0
    7.6213   -6.5618   16.0087 C   0  0  0  0  0  0  0  0  0  0  0  0
   10.8583   -2.6527   20.7222 C   0  0  0  0  0  0  0  0  0  0  0  0
   10.6412   -3.5089   21.7936 C   0  0  0  0  0  0  0  0  0  0  0  0
   10.4972   -3.8968   24.1589 C   0  0  0  0  0  0  0  0  0  0  0  0
    5.9260   -8.2736   16.5517 C   0  0  0  0  0  0  0  0  0  0  0  0
    3.8816   -9.1166   17.2493 C   0  0  0  0  0  0  0  0  0  0  0  0
   10.1297   -1.6575   23.2324 C   0  0  0  0  0  0  0  0  0  0  0  0
    9.4684   -1.6929   26.7263 F   0  0  0  0  0  0  0  0  0  0  0  0
    7.7963   -7.7906   17.9837 C   0  0  0  0  0  0  0  0  0  0  0  0
   10.5884   -3.0725   16.7902 O   0  0  0  0  0  0  0  0  0  0  0  0
   10.4323   -5.3494   20.3516 C   0  0  0  0  0  0  0  0  0  0  0  0
    7.1156   -7.5454   16.8218 C   0  0  0  0  0  0  0  0  0  0  0  0
   10.3885   -4.4388   19.2773 C   0  0  0  0  0  0  0  0  0  0  0  0
    4.5160   -9.3822   15.0841 C   0  0  0  0  0  0  0  0  0  0  0  0
  1  3  4  0
  1 24  4  0
  2  6  4  0
  2 15  4  0
  3  5  4  0
  3  6  4  0
  4 21  4  0
  4 29  4  0
  5 15  4  0
  5 28  1  0
  6 16  4  0
  7 18  4  0
  7 26  4  0
  8 18  1  0
  8 19  4  0
  8 22  4  0
  9 12  4  0
  9 19  4  0
 10 12  4  0
 10 22  4  0
 11 20  4  0
 11 21  4  0
 12 23  1  0
 13 20  4  0
 13 29  4  0
 14 17  4  0
 14 28  4  0
 15 25  2  0
 16 27  4  0
 17 18  4  0
 20 27  1  0
 24 27  4  0
 26 28  4  0
M  END
$$$$

 Created by Python create_sdf_string function

 29 33  0  0  0  0  0  0  0  0999 V2000
    8.8270   -7.0288   18.4251 C   0  0  0  0  0  0  0  0  0  0  0  0
    9.1576   -4.6236   15.8860 O   0  0  0  0  0  0  0  0  0  0  0  0
    9.1509   -5.9108   17.7177 C   0  0  0  0  0  0  0  0  0  0  0  0
    3.6373   -9.5349   16.0582 N   0  0  0  0  0  0  0  0  0  0  0  0
    9.9275   -4.8001   18.0438 N   0  0  0  0  0  0  0  0  0  0  0  0
    8.5908   -5.7425   16.4412 C   0  0  0  0  0  0  0  0  0  0  0  0
   10.5993   -4.8981   21.6068 C   0  0  0  0  0  0  0  0  0  0  0  0
   10.4258   -3.0106   23.0998 C   0  0  0  0  0  0  0  0  0  0  0  0
   10.2148   -3.4364   25.4200 C   0  0  0  0  0  0  0  0  0  0  0  0
    9.7853   -1.1840   24.4927 C   0  0  0  0  0  0  0  0  0  0  0  0
    5.0276   -8.5227   17.5352 C   0  0  0  0  0  0  0  0  0  0  0  0
    9.8187   -2.0895   25.5800 C   0  0  0  0  0  0  0  0  0  0  0  0
    5.6473   -8.7216   15.3158 C   0  0  0  0  0  0  0  0  0  0  0  0
   10.7581   -3.1233   19.4720 N   0  0  0  0  0  0  0  0  0  0  0  0
    9.9571   -4.0573   16.8866 C   0  0  0  0  0  0  0  0  0  0  0  0
    7.6213   -6.5618   16.0087 C   0  0  0  0  0  0  0  0  0  0  0  0
   10.8583   -2.6527   20.7222 C   0  0  0  0  0  0  0  0  0  0  0  0
   10.6412   -3.5089   21.7936 C   0  0  0  0  0  0  0  0  0  0  0  0
   10.4972   -3.8968   24.1589 C   0  0  0  0  0  0  0  0  0  0  0  0
    5.9260   -8.2736   16.5517 C   0  0  0  0  0  0  0  0  0  0  0  0
    3.8816   -9.1166   17.2493 C   0  0  0  0  0  0  0  0  0  0  0  0
   10.1297   -1.6575   23.2324 C   0  0  0  0  0  0  0  0  0  0  0  0
    9.4684   -1.6929   26.7263 F   0  0  0  0  0  0  0  0  0  0  0  0
    7.7963   -7.7906   17.9837 C   0  0  0  0  0  0  0  0  0  0  0  0
   10.5884   -3.0725   16.7902 O   0  0  0  0  0  0  0  0  0  0  0  0
   10.4323   -5.3494   20.3516 C   0  0  0  0  0  0  0  0  0  0  0  0
    7.1156   -7.5454   16.8218 C   0  0  0  0  0  0  0  0  0  0  0  0
   10.3885   -4.4388   19.2773 C   0  0  0  0  0  0  0  0  0  0  0  0
    4.5160   -9.3822   15.0841 C   0  0  0  0  0  0  0  0  0  0  0  0
  1  3  4  0
  1 24  4  0
  2  6  4  0
  2 15  4  0
  3  5  4  0
  3  6  4  0
  4 21  4  0
  4 29  4  0
  5 15  4  0
  5 28  1  0
  6 16  4  0
  7 18  4  0
  7 26  4  0
  8 18  1  0
  8 19  4  0
  8 22  4  0
  9 12  4  0
  9 19  4  0
 10 12  4  0
 10 22  4  0
 11 20  4  0
 11 21  4  0
 12 23  1  0
 13 20  4  0
 13 29  4  0
 14 17  4  0
 14 28  4  0
 15 25  2  0
 16 27  4  0
 17 18  4  0
 20 27  1  0
 24 27  4  0
 26 28  4  0
M  END
$$$$

 Created by Python create_sdf_string function

 29 33  0  0  0  0  0  0  0  0999 V2000
    8.8270   -7.0288   18.4251 C   0  0  0  0  0  0  0  0  0  0  0  0
    9.1576   -4.6236   15.8860 O   0  0  0  0  0  0  0  0  0  0  0  0
    9.1509   -5.9108   17.7177 C   0  0  0  0  0  0  0  0  0  0  0  0
    3.6373   -9.5349   16.0582 N   0  0  0  0  0  0  0  0  0  0  0  0
    9.9275   -4.8001   18.0438 N   0  0  0  0  0  0  0  0  0  0  0  0
    8.5908   -5.7425   16.4412 C   0  0  0  0  0  0  0  0  0  0  0  0
   10.5993   -4.8981   21.6068 C   0  0  0  0  0  0  0  0  0  0  0  0
   10.4258   -3.0106   23.0998 C   0  0  0  0  0  0  0  0  0  0  0  0
   10.2148   -3.4364   25.4200 C   0  0  0  0  0  0  0  0  0  0  0  0
    9.7853   -1.1840   24.4927 C   0  0  0  0  0  0  0  0  0  0  0  0
    5.0276   -8.5227   17.5352 C   0  0  0  0  0  0  0  0  0  0  0  0
    9.8187   -2.0895   25.5800 C   0  0  0  0  0  0  0  0  0  0  0  0
    5.6473   -8.7216   15.3158 C   0  0  0  0  0  0  0  0  0  0  0  0
   10.7581   -3.1233   19.4720 N   0  0  0  0  0  0  0  0  0  0  0  0
    9.9571   -4.0573   16.8866 C   0  0  0  0  0  0  0  0  0  0  0  0
    7.6213   -6.5618   16.0087 C   0  0  0  0  0  0  0  0  0  0  0  0
   10.8583   -2.6527   20.7222 C   0  0  0  0  0  0  0  0  0  0  0  0
   10.6412   -3.5089   21.7936 C   0  0  0  0  0  0  0  0  0  0  0  0
   10.4972   -3.8968   24.1589 C   0  0  0  0  0  0  0  0  0  0  0  0
    5.9260   -8.2736   16.5517 C   0  0  0  0  0  0  0  0  0  0  0  0
    3.8816   -9.1166   17.2493 C   0  0  0  0  0  0  0  0  0  0  0  0
   10.1297   -1.6575   23.2324 C   0  0  0  0  0  0  0  0  0  0  0  0
    9.4684   -1.6929   26.7263 F   0  0  0  0  0  0  0  0  0  0  0  0
    7.7963   -7.7906   17.9837 C   0  0  0  0  0  0  0  0  0  0  0  0
   10.5884   -3.0725   16.7902 O   0  0  0  0  0  0  0  0  0  0  0  0
   10.4323   -5.3494   20.3516 C   0  0  0  0  0  0  0  0  0  0  0  0
    7.1156   -7.5454   16.8218 C   0  0  0  0  0  0  0  0  0  0  0  0
   10.3885   -4.4388   19.2773 C   0  0  0  0  0  0  0  0  0  0  0  0
    4.5160   -9.3822   15.0841 C   0  0  0  0  0  0  0  0  0  0  0  0
  1  3  4  0
  1 24  4  0
  2  6  4  0
  2 15  4  0
  3  5  4  0
  3  6  4  0
  4 21  4  0
  4 29  4  0
  5 15  4  0
  5 28  1  0
  6 16  4  0
  7 18  4  0
  7 26  4  0
  8 18  1  0
  8 19  4  0
  8 22  4  0
  9 12  4  0
  9 19  4  0
 10 12  4  0
 10 22  4  0
 11 20  4  0
 11 21  4  0
 12 23  1  0
 13 20  4  0
 13 29  4  0
 14 17  4  0
 14 28  4  0
 15 25  2  0
 16 27  4  0
 17 18  4  0
 20 27  1  0
 24 27  4  0
 26 28  4  0
M  END
$$$$

 Created by Python create_sdf_string function

 29 33  0  0  0  0  0  0  0  0999 V2000
    8.8270   -7.0288   18.4251 C   0  0  0  0  0  0  0  0  0  0  0  0
    9.1576   -4.6236   15.8860 O   0  0  0  0  0  0  0  0  0  0  0  0
    9.1509   -5.9108   17.7177 C   0  0  0  0  0  0  0  0  0  0  0  0
    3.6373   -9.5349   16.0582 N   0  0  0  0  0  0  0  0  0  0  0  0
    9.9275   -4.8001   18.0438 N   0  0  0  0  0  0  0  0  0  0  0  0
    8.5908   -5.7425   16.4412 C   0  0  0  0  0  0  0  0  0  0  0  0
   10.5993   -4.8981   21.6068 C   0  0  0  0  0  0  0  0  0  0  0  0
   10.4258   -3.0106   23.0998 C   0  0  0  0  0  0  0  0  0  0  0  0
   10.2148   -3.4364   25.4200 C   0  0  0  0  0  0  0  0  0  0  0  0
    9.7853   -1.1840   24.4927 C   0  0  0  0  0  0  0  0  0  0  0  0
    5.0276   -8.5227   17.5352 C   0  0  0  0  0  0  0  0  0  0  0  0
    9.8187   -2.0895   25.5800 C   0  0  0  0  0  0  0  0  0  0  0  0
    5.6473   -8.7216   15.3158 C   0  0  0  0  0  0  0  0  0  0  0  0
   10.7581   -3.1233   19.4720 N   0  0  0  0  0  0  0  0  0  0  0  0
    9.9571   -4.0573   16.8866 C   0  0  0  0  0  0  0  0  0  0  0  0
    7.6213   -6.5618   16.0087 C   0  0  0  0  0  0  0  0  0  0  0  0
   10.8583   -2.6527   20.7222 C   0  0  0  0  0  0  0  0  0  0  0  0
   10.6412   -3.5089   21.7936 C   0  0  0  0  0  0  0  0  0  0  0  0
   10.4972   -3.8968   24.1589 C   0  0  0  0  0  0  0  0  0  0  0  0
    5.9260   -8.2736   16.5517 C   0  0  0  0  0  0  0  0  0  0  0  0
    3.8816   -9.1166   17.2493 C   0  0  0  0  0  0  0  0  0  0  0  0
   10.1297   -1.6575   23.2324 C   0  0  0  0  0  0  0  0  0  0  0  0
    9.4684   -1.6929   26.7263 F   0  0  0  0  0  0  0  0  0  0  0  0
    7.7963   -7.7906   17.9837 C   0  0  0  0  0  0  0  0  0  0  0  0
   10.5884   -3.0725   16.7902 O   0  0  0  0  0  0  0  0  0  0  0  0
   10.4323   -5.3494   20.3516 C   0  0  0  0  0  0  0  0  0  0  0  0
    7.1156   -7.5454   16.8218 C   0  0  0  0  0  0  0  0  0  0  0  0
   10.3885   -4.4388   19.2773 C   0  0  0  0  0  0  0  0  0  0  0  0
    4.5160   -9.3822   15.0841 C   0  0  0  0  0  0  0  0  0  0  0  0
  1  3  4  0
  1 24  4  0
  2  6  4  0
  2 15  4  0
  3  5  4  0
  3  6  4  0
  4 21  4  0
  4 29  4  0
  5 15  4  0
  5 28  1  0
  6 16  4  0
  7 18  4  0
  7 26  4  0
  8 18  1  0
  8 19  4  0
  8 22  4  0
  9 12  4  0
  9 19  4  0
 10 12  4  0
 10 22  4  0
 11 20  4  0
 11 21  4  0
 12 23  1  0
 13 20  4  0
 13 29  4  0
 14 17  4  0
 14 28  4  0
 15 25  2  0
 16 27  4  0
 17 18  4  0
 20 27  1  0
 24 27  4  0
 26 28  4  0
M  END
$$$$

 Created by Python create_sdf_string function

 29 33  0  0  0  0  0  0  0  0999 V2000
    8.8270   -7.0288   18.4251 C   0  0  0  0  0  0  0  0  0  0  0  0
    9.1576   -4.6236   15.8860 O   0  0  0  0  0  0  0  0  0  0  0  0
    9.1509   -5.9108   17.7177 C   0  0  0  0  0  0  0  0  0  0  0  0
    3.6373   -9.5349   16.0582 N   0  0  0  0  0  0  0  0  0  0  0  0
    9.9275   -4.8001   18.0438 N   0  0  0  0  0  0  0  0  0  0  0  0
    8.5908   -5.7425   16.4412 C   0  0  0  0  0  0  0  0  0  0  0  0
   10.5993   -4.8981   21.6068 C   0  0  0  0  0  0  0  0  0  0  0  0
   10.4258   -3.0106   23.0998 C   0  0  0  0  0  0  0  0  0  0  0  0
   10.2148   -3.4364   25.4200 C   0  0  0  0  0  0  0  0  0  0  0  0
    9.7853   -1.1840   24.4927 C   0  0  0  0  0  0  0  0  0  0  0  0
    5.0276   -8.5227   17.5352 C   0  0  0  0  0  0  0  0  0  0  0  0
    9.8187   -2.0895   25.5800 C   0  0  0  0  0  0  0  0  0  0  0  0
    5.6473   -8.7216   15.3158 C   0  0  0  0  0  0  0  0  0  0  0  0
   10.7581   -3.1233   19.4720 N   0  0  0  0  0  0  0  0  0  0  0  0
    9.9571   -4.0573   16.8866 C   0  0  0  0  0  0  0  0  0  0  0  0
    7.6213   -6.5618   16.0087 C   0  0  0  0  0  0  0  0  0  0  0  0
   10.8583   -2.6527   20.7222 C   0  0  0  0  0  0  0  0  0  0  0  0
   10.6412   -3.5089   21.7936 C   0  0  0  0  0  0  0  0  0  0  0  0
   10.4972   -3.8968   24.1589 C   0  0  0  0  0  0  0  0  0  0  0  0
    5.9260   -8.2736   16.5517 C   0  0  0  0  0  0  0  0  0  0  0  0
    3.8816   -9.1166   17.2493 C   0  0  0  0  0  0  0  0  0  0  0  0
   10.1297   -1.6575   23.2324 C   0  0  0  0  0  0  0  0  0  0  0  0
    9.4684   -1.6929   26.7263 F   0  0  0  0  0  0  0  0  0  0  0  0
    7.7963   -7.7906   17.9837 C   0  0  0  0  0  0  0  0  0  0  0  0
   10.5884   -3.0725   16.7902 O   0  0  0  0  0  0  0  0  0  0  0  0
   10.4323   -5.3494   20.3516 C   0  0  0  0  0  0  0  0  0  0  0  0
    7.1156   -7.5454   16.8218 C   0  0  0  0  0  0  0  0  0  0  0  0
   10.3885   -4.4388   19.2773 C   0  0  0  0  0  0  0  0  0  0  0  0
    4.5160   -9.3822   15.0841 C   0  0  0  0  0  0  0  0  0  0  0  0
  1  3  4  0
  1 24  4  0
  2  6  4  0
  2 15  4  0
  3  5  4  0
  3  6  4  0
  4 21  4  0
  4 29  4  0
  5 15  4  0
  5 28  1  0
  6 16  4  0
  7 18  4  0
  7 26  4  0
  8 18  1  0
  8 19  4  0
  8 22  4  0
  9 12  4  0
  9 19  4  0
 10 12  4  0
 10 22  4  0
 11 20  4  0
 11 21  4  0
 12 23  1  0
 13 20  4  0
 13 29  4  0
 14 17  4  0
 14 28  4  0
 15 25  2  0
 16 27  4  0
 17 18  4  0
 20 27  1  0
 24 27  4  0
 26 28  4  0
M  END
$$$$

 Created by Python create_sdf_string function

 29 33  0  0  0  0  0  0  0  0999 V2000
    8.8270   -7.0288   18.4251 C   0  0  0  0  0  0  0  0  0  0  0  0
    9.1576   -4.6236   15.8860 O   0  0  0  0  0  0  0  0  0  0  0  0
    9.1509   -5.9108   17.7177 C   0  0  0  0  0  0  0  0  0  0  0  0
    3.6373   -9.5349   16.0582 N   0  0  0  0  0  0  0  0  0  0  0  0
    9.9275   -4.8001   18.0438 N   0  0  0  0  0  0  0  0  0  0  0  0
    8.5908   -5.7425   16.4412 C   0  0  0  0  0  0  0  0  0  0  0  0
   10.5993   -4.8981   21.6068 C   0  0  0  0  0  0  0  0  0  0  0  0
   10.4258   -3.0106   23.0998 C   0  0  0  0  0  0  0  0  0  0  0  0
   10.2148   -3.4364   25.4200 C   0  0  0  0  0  0  0  0  0  0  0  0
    9.7853   -1.1840   24.4927 C   0  0  0  0  0  0  0  0  0  0  0  0
    5.0276   -8.5227   17.5352 C   0  0  0  0  0  0  0  0  0  0  0  0
    9.8187   -2.0895   25.5800 C   0  0  0  0  0  0  0  0  0  0  0  0
    5.6473   -8.7216   15.3158 C   0  0  0  0  0  0  0  0  0  0  0  0
   10.7581   -3.1233   19.4720 N   0  0  0  0  0  0  0  0  0  0  0  0
    9.9571   -4.0573   16.8866 C   0  0  0  0  0  0  0  0  0  0  0  0
    7.6213   -6.5618   16.0087 C   0  0  0  0  0  0  0  0  0  0  0  0
   10.8583   -2.6527   20.7222 C   0  0  0  0  0  0  0  0  0  0  0  0
   10.6412   -3.5089   21.7936 C   0  0  0  0  0  0  0  0  0  0  0  0
   10.4972   -3.8968   24.1589 C   0  0  0  0  0  0  0  0  0  0  0  0
    5.9260   -8.2736   16.5517 C   0  0  0  0  0  0  0  0  0  0  0  0
    3.8816   -9.1166   17.2493 C   0  0  0  0  0  0  0  0  0  0  0  0
   10.1297   -1.6575   23.2324 C   0  0  0  0  0  0  0  0  0  0  0  0
    9.4684   -1.6929   26.7263 F   0  0  0  0  0  0  0  0  0  0  0  0
    7.7963   -7.7906   17.9837 C   0  0  0  0  0  0  0  0  0  0  0  0
   10.5884   -3.0725   16.7902 O   0  0  0  0  0  0  0  0  0  0  0  0
   10.4323   -5.3494   20.3516 C   0  0  0  0  0  0  0  0  0  0  0  0
    7.1156   -7.5454   16.8218 C   0  0  0  0  0  0  0  0  0  0  0  0
   10.3885   -4.4388   19.2773 C   0  0  0  0  0  0  0  0  0  0  0  0
    4.5160   -9.3822   15.0841 C   0  0  0  0  0  0  0  0  0  0  0  0
  1  3  4  0
  1 24  4  0
  2  6  4  0
  2 15  4  0
  3  5  4  0
  3  6  4  0
  4 21  4  0
  4 29  4  0
  5 15  4  0
  5 28  1  0
  6 16  4  0
  7 18  4  0
  7 26  4  0
  8 18  1  0
  8 19  4  0
  8 22  4  0
  9 12  4  0
  9 19  4  0
 10 12  4  0
 10 22  4  0
 11 20  4  0
 11 21  4  0
 12 23  1  0
 13 20  4  0
 13 29  4  0
 14 17  4  0
 14 28  4  0
 15 25  2  0
 16 27  4  0
 17 18  4  0
 20 27  1  0
 24 27  4  0
 26 28  4  0
M  END
$$$$

 Created by Python create_sdf_string function

 29 33  0  0  0  0  0  0  0  0999 V2000
    8.8270   -7.0288   18.4251 C   0  0  0  0  0  0  0  0  0  0  0  0
    9.1576   -4.6236   15.8860 O   0  0  0  0  0  0  0  0  0  0  0  0
    9.1509   -5.9108   17.7177 C   0  0  0  0  0  0  0  0  0  0  0  0
    3.6373   -9.5349   16.0582 N   0  0  0  0  0  0  0  0  0  0  0  0
    9.9275   -4.8001   18.0438 N   0  0  0  0  0  0  0  0  0  0  0  0
    8.5908   -5.7425   16.4412 C   0  0  0  0  0  0  0  0  0  0  0  0
   10.5993   -4.8981   21.6068 C   0  0  0  0  0  0  0  0  0  0  0  0
   10.4258   -3.0106   23.0998 C   0  0  0  0  0  0  0  0  0  0  0  0
   10.2148   -3.4364   25.4200 C   0  0  0  0  0  0  0  0  0  0  0  0
    9.7853   -1.1840   24.4927 C   0  0  0  0  0  0  0  0  0  0  0  0
    5.0276   -8.5227   17.5352 C   0  0  0  0  0  0  0  0  0  0  0  0
    9.8187   -2.0895   25.5800 C   0  0  0  0  0  0  0  0  0  0  0  0
    5.6473   -8.7216   15.3158 C   0  0  0  0  0  0  0  0  0  0  0  0
   10.7581   -3.1233   19.4720 N   0  0  0  0  0  0  0  0  0  0  0  0
    9.9571   -4.0573   16.8866 C   0  0  0  0  0  0  0  0  0  0  0  0
    7.6213   -6.5618   16.0087 C   0  0  0  0  0  0  0  0  0  0  0  0
   10.8583   -2.6527   20.7222 C   0  0  0  0  0  0  0  0  0  0  0  0
   10.6412   -3.5089   21.7936 C   0  0  0  0  0  0  0  0  0  0  0  0
   10.4972   -3.8968   24.1589 C   0  0  0  0  0  0  0  0  0  0  0  0
    5.9260   -8.2736   16.5517 C   0  0  0  0  0  0  0  0  0  0  0  0
    3.8816   -9.1166   17.2493 C   0  0  0  0  0  0  0  0  0  0  0  0
   10.1297   -1.6575   23.2324 C   0  0  0  0  0  0  0  0  0  0  0  0
    9.4684   -1.6929   26.7263 F   0  0  0  0  0  0  0  0  0  0  0  0
    7.7963   -7.7906   17.9837 C   0  0  0  0  0  0  0  0  0  0  0  0
   10.5884   -3.0725   16.7902 O   0  0  0  0  0  0  0  0  0  0  0  0
   10.4323   -5.3494   20.3516 C   0  0  0  0  0  0  0  0  0  0  0  0
    7.1156   -7.5454   16.8218 C   0  0  0  0  0  0  0  0  0  0  0  0
   10.3885   -4.4388   19.2773 C   0  0  0  0  0  0  0  0  0  0  0  0
    4.5160   -9.3822   15.0841 C   0  0  0  0  0  0  0  0  0  0  0  0
  1  3  4  0
  1 24  4  0
  2  6  4  0
  2 15  4  0
  3  5  4  0
  3  6  4  0
  4 21  4  0
  4 29  4  0
  5 15  4  0
  5 28  1  0
  6 16  4  0
  7 18  4  0
  7 26  4  0
  8 18  1  0
  8 19  4  0
  8 22  4  0
  9 12  4  0
  9 19  4  0
 10 12  4  0
 10 22  4  0
 11 20  4  0
 11 21  4  0
 12 23  1  0
 13 20  4  0
 13 29  4  0
 14 17  4  0
 14 28  4  0
 15 25  2  0
 16 27  4  0
 17 18  4  0
 20 27  1  0
 24 27  4  0
 26 28  4  0
M  END
$$$$

 Created by Python create_sdf_string function

 29 33  0  0  0  0  0  0  0  0999 V2000
    8.8270   -7.0288   18.4251 C   0  0  0  0  0  0  0  0  0  0  0  0
    9.1576   -4.6236   15.8860 O   0  0  0  0  0  0  0  0  0  0  0  0
    9.1509   -5.9108   17.7177 C   0  0  0  0  0  0  0  0  0  0  0  0
    3.6373   -9.5349   16.0582 N   0  0  0  0  0  0  0  0  0  0  0  0
    9.9275   -4.8001   18.0438 N   0  0  0  0  0  0  0  0  0  0  0  0
    8.5908   -5.7425   16.4412 C   0  0  0  0  0  0  0  0  0  0  0  0
   10.5993   -4.8981   21.6068 C   0  0  0  0  0  0  0  0  0  0  0  0
   10.4258   -3.0106   23.0998 C   0  0  0  0  0  0  0  0  0  0  0  0
   10.2148   -3.4364   25.4200 C   0  0  0  0  0  0  0  0  0  0  0  0
    9.7853   -1.1840   24.4927 C   0  0  0  0  0  0  0  0  0  0  0  0
    5.0276   -8.5227   17.5352 C   0  0  0  0  0  0  0  0  0  0  0  0
    9.8187   -2.0895   25.5800 C   0  0  0  0  0  0  0  0  0  0  0  0
    5.6473   -8.7216   15.3158 C   0  0  0  0  0  0  0  0  0  0  0  0
   10.7581   -3.1233   19.4720 N   0  0  0  0  0  0  0  0  0  0  0  0
    9.9571   -4.0573   16.8866 C   0  0  0  0  0  0  0  0  0  0  0  0
    7.6213   -6.5618   16.0087 C   0  0  0  0  0  0  0  0  0  0  0  0
   10.8583   -2.6527   20.7222 C   0  0  0  0  0  0  0  0  0  0  0  0
   10.6412   -3.5089   21.7936 C   0  0  0  0  0  0  0  0  0  0  0  0
   10.4972   -3.8968   24.1589 C   0  0  0  0  0  0  0  0  0  0  0  0
    5.9260   -8.2736   16.5517 C   0  0  0  0  0  0  0  0  0  0  0  0
    3.8816   -9.1166   17.2493 C   0  0  0  0  0  0  0  0  0  0  0  0
   10.1297   -1.6575   23.2324 C   0  0  0  0  0  0  0  0  0  0  0  0
    9.4684   -1.6929   26.7263 F   0  0  0  0  0  0  0  0  0  0  0  0
    7.7963   -7.7906   17.9837 C   0  0  0  0  0  0  0  0  0  0  0  0
   10.5884   -3.0725   16.7902 O   0  0  0  0  0  0  0  0  0  0  0  0
   10.4323   -5.3494   20.3516 C   0  0  0  0  0  0  0  0  0  0  0  0
    7.1156   -7.5454   16.8218 C   0  0  0  0  0  0  0  0  0  0  0  0
   10.3885   -4.4388   19.2773 C   0  0  0  0  0  0  0  0  0  0  0  0
    4.5160   -9.3822   15.0841 C   0  0  0  0  0  0  0  0  0  0  0  0
  1  3  4  0
  1 24  4  0
  2  6  4  0
  2 15  4  0
  3  5  4  0
  3  6  4  0
  4 21  4  0
  4 29  4  0
  5 15  4  0
  5 28  1  0
  6 16  4  0
  7 18  4  0
  7 26  4  0
  8 18  1  0
  8 19  4  0
  8 22  4  0
  9 12  4  0
  9 19  4  0
 10 12  4  0
 10 22  4  0
 11 20  4  0
 11 21  4  0
 12 23  1  0
 13 20  4  0
 13 29  4  0
 14 17  4  0
 14 28  4  0
 15 25  2  0
 16 27  4  0
 17 18  4  0
 20 27  1  0
 24 27  4  0
 26 28  4  0
M  END
$$$$

 Created by Python create_sdf_string function

 29 33  0  0  0  0  0  0  0  0999 V2000
    8.8270   -7.0288   18.4251 C   0  0  0  0  0  0  0  0  0  0  0  0
    9.1576   -4.6236   15.8860 O   0  0  0  0  0  0  0  0  0  0  0  0
    9.1509   -5.9108   17.7177 C   0  0  0  0  0  0  0  0  0  0  0  0
    3.6373   -9.5349   16.0582 N   0  0  0  0  0  0  0  0  0  0  0  0
    9.9275   -4.8001   18.0438 N   0  0  0  0  0  0  0  0  0  0  0  0
    8.5908   -5.7425   16.4412 C   0  0  0  0  0  0  0  0  0  0  0  0
   10.5993   -4.8981   21.6068 C   0  0  0  0  0  0  0  0  0  0  0  0
   10.4258   -3.0106   23.0998 C   0  0  0  0  0  0  0  0  0  0  0  0
   10.2148   -3.4364   25.4200 C   0  0  0  0  0  0  0  0  0  0  0  0
    9.7853   -1.1840   24.4927 C   0  0  0  0  0  0  0  0  0  0  0  0
    5.0276   -8.5227   17.5352 C   0  0  0  0  0  0  0  0  0  0  0  0
    9.8187   -2.0895   25.5800 C   0  0  0  0  0  0  0  0  0  0  0  0
    5.6473   -8.7216   15.3158 C   0  0  0  0  0  0  0  0  0  0  0  0
   10.7581   -3.1233   19.4720 N   0  0  0  0  0  0  0  0  0  0  0  0
    9.9571   -4.0573   16.8866 C   0  0  0  0  0  0  0  0  0  0  0  0
    7.6213   -6.5618   16.0087 C   0  0  0  0  0  0  0  0  0  0  0  0
   10.8583   -2.6527   20.7222 C   0  0  0  0  0  0  0  0  0  0  0  0
   10.6412   -3.5089   21.7936 C   0  0  0  0  0  0  0  0  0  0  0  0
   10.4972   -3.8968   24.1589 C   0  0  0  0  0  0  0  0  0  0  0  0
    5.9260   -8.2736   16.5517 C   0  0  0  0  0  0  0  0  0  0  0  0
    3.8816   -9.1166   17.2493 C   0  0  0  0  0  0  0  0  0  0  0  0
   10.1297   -1.6575   23.2324 C   0  0  0  0  0  0  0  0  0  0  0  0
    9.4684   -1.6929   26.7263 F   0  0  0  0  0  0  0  0  0  0  0  0
    7.7963   -7.7906   17.9837 C   0  0  0  0  0  0  0  0  0  0  0  0
   10.5884   -3.0725   16.7902 O   0  0  0  0  0  0  0  0  0  0  0  0
   10.4323   -5.3494   20.3516 C   0  0  0  0  0  0  0  0  0  0  0  0
    7.1156   -7.5454   16.8218 C   0  0  0  0  0  0  0  0  0  0  0  0
   10.3885   -4.4388   19.2773 C   0  0  0  0  0  0  0  0  0  0  0  0
    4.5160   -9.3822   15.0841 C   0  0  0  0  0  0  0  0  0  0  0  0
  1  3  4  0
  1 24  4  0
  2  6  4  0
  2 15  4  0
  3  5  4  0
  3  6  4  0
  4 21  4  0
  4 29  4  0
  5 15  4  0
  5 28  1  0
  6 16  4  0
  7 18  4  0
  7 26  4  0
  8 18  1  0
  8 19  4  0
  8 22  4  0
  9 12  4  0
  9 19  4  0
 10 12  4  0
 10 22  4  0
 11 20  4  0
 11 21  4  0
 12 23  1  0
 13 20  4  0
 13 29  4  0
 14 17  4  0
 14 28  4  0
 15 25  2  0
 16 27  4  0
 17 18  4  0
 20 27  1  0
 24 27  4  0
 26 28  4  0
M  END
$$$$

 Created by Python create_sdf_string function

 29 33  0  0  0  0  0  0  0  0999 V2000
    8.8270   -7.0288   18.4251 C   0  0  0  0  0  0  0  0  0  0  0  0
    9.1576   -4.6236   15.8860 O   0  0  0  0  0  0  0  0  0  0  0  0
    9.1509   -5.9108   17.7177 C   0  0  0  0  0  0  0  0  0  0  0  0
    3.6373   -9.5349   16.0582 N   0  0  0  0  0  0  0  0  0  0  0  0
    9.9275   -4.8001   18.0438 N   0  0  0  0  0  0  0  0  0  0  0  0
    8.5908   -5.7425   16.4412 C   0  0  0  0  0  0  0  0  0  0  0  0
   10.5993   -4.8981   21.6068 C   0  0  0  0  0  0  0  0  0  0  0  0
   10.4258   -3.0106   23.0998 C   0  0  0  0  0  0  0  0  0  0  0  0
   10.2148   -3.4364   25.4200 C   0  0  0  0  0  0  0  0  0  0  0  0
    9.7853   -1.1840   24.4927 C   0  0  0  0  0  0  0  0  0  0  0  0
    5.0276   -8.5227   17.5352 C   0  0  0  0  0  0  0  0  0  0  0  0
    9.8187   -2.0895   25.5800 C   0  0  0  0  0  0  0  0  0  0  0  0
    5.6473   -8.7216   15.3158 C   0  0  0  0  0  0  0  0  0  0  0  0
   10.7581   -3.1233   19.4720 N   0  0  0  0  0  0  0  0  0  0  0  0
    9.9571   -4.0573   16.8866 C   0  0  0  0  0  0  0  0  0  0  0  0
    7.6213   -6.5618   16.0087 C   0  0  0  0  0  0  0  0  0  0  0  0
   10.8583   -2.6527   20.7222 C   0  0  0  0  0  0  0  0  0  0  0  0
   10.6412   -3.5089   21.7936 C   0  0  0  0  0  0  0  0  0  0  0  0
   10.4972   -3.8968   24.1589 C   0  0  0  0  0  0  0  0  0  0  0  0
    5.9260   -8.2736   16.5517 C   0  0  0  0  0  0  0  0  0  0  0  0
    3.8816   -9.1166   17.2493 C   0  0  0  0  0  0  0  0  0  0  0  0
   10.1297   -1.6575   23.2324 C   0  0  0  0  0  0  0  0  0  0  0  0
    9.4684   -1.6929   26.7263 F   0  0  0  0  0  0  0  0  0  0  0  0
    7.7963   -7.7906   17.9837 C   0  0  0  0  0  0  0  0  0  0  0  0
   10.5884   -3.0725   16.7902 O   0  0  0  0  0  0  0  0  0  0  0  0
   10.4323   -5.3494   20.3516 C   0  0  0  0  0  0  0  0  0  0  0  0
    7.1156   -7.5454   16.8218 C   0  0  0  0  0  0  0  0  0  0  0  0
   10.3885   -4.4388   19.2773 C   0  0  0  0  0  0  0  0  0  0  0  0
    4.5160   -9.3822   15.0841 C   0  0  0  0  0  0  0  0  0  0  0  0
  1  3  4  0
  1 24  4  0
  2  6  4  0
  2 15  4  0
  3  5  4  0
  3  6  4  0
  4 21  4  0
  4 29  4  0
  5 15  4  0
  5 28  1  0
  6 16  4  0
  7 18  4  0
  7 26  4  0
  8 18  1  0
  8 19  4  0
  8 22  4  0
  9 12  4  0
  9 19  4  0
 10 12  4  0
 10 22  4  0
 11 20  4  0
 11 21  4  0
 12 23  1  0
 13 20  4  0
 13 29  4  0
 14 17  4  0
 14 28  4  0
 15 25  2  0
 16 27  4  0
 17 18  4  0
 20 27  1  0
 24 27  4  0
 26 28  4  0
M  END
$$$$

 Created by Python create_sdf_string function

 29 33  0  0  0  0  0  0  0  0999 V2000
    8.8270   -7.0288   18.4251 C   0  0  0  0  0  0  0  0  0  0  0  0
    9.1576   -4.6236   15.8860 O   0  0  0  0  0  0  0  0  0  0  0  0
    9.1509   -5.9108   17.7177 C   0  0  0  0  0  0  0  0  0  0  0  0
    3.6373   -9.5349   16.0582 N   0  0  0  0  0  0  0  0  0  0  0  0
    9.9275   -4.8001   18.0438 N   0  0  0  0  0  0  0  0  0  0  0  0
    8.5908   -5.7425   16.4412 C   0  0  0  0  0  0  0  0  0  0  0  0
   10.5993   -4.8981   21.6068 C   0  0  0  0  0  0  0  0  0  0  0  0
   10.4258   -3.0106   23.0998 C   0  0  0  0  0  0  0  0  0  0  0  0
   10.2148   -3.4364   25.4200 C   0  0  0  0  0  0  0  0  0  0  0  0
    9.7853   -1.1840   24.4927 C   0  0  0  0  0  0  0  0  0  0  0  0
    5.0276   -8.5227   17.5352 C   0  0  0  0  0  0  0  0  0  0  0  0
    9.8187   -2.0895   25.5800 C   0  0  0  0  0  0  0  0  0  0  0  0
    5.6473   -8.7216   15.3158 C   0  0  0  0  0  0  0  0  0  0  0  0
   10.7581   -3.1233   19.4720 N   0  0  0  0  0  0  0  0  0  0  0  0
    9.9571   -4.0573   16.8866 C   0  0  0  0  0  0  0  0  0  0  0  0
    7.6213   -6.5618   16.0087 C   0  0  0  0  0  0  0  0  0  0  0  0
   10.8583   -2.6527   20.7222 C   0  0  0  0  0  0  0  0  0  0  0  0
   10.6412   -3.5089   21.7936 C   0  0  0  0  0  0  0  0  0  0  0  0
   10.4972   -3.8968   24.1589 C   0  0  0  0  0  0  0  0  0  0  0  0
    5.9260   -8.2736   16.5517 C   0  0  0  0  0  0  0  0  0  0  0  0
    3.8816   -9.1166   17.2493 C   0  0  0  0  0  0  0  0  0  0  0  0
   10.1297   -1.6575   23.2324 C   0  0  0  0  0  0  0  0  0  0  0  0
    9.4684   -1.6929   26.7263 F   0  0  0  0  0  0  0  0  0  0  0  0
    7.7963   -7.7906   17.9837 C   0  0  0  0  0  0  0  0  0  0  0  0
   10.5884   -3.0725   16.7902 O   0  0  0  0  0  0  0  0  0  0  0  0
   10.4323   -5.3494   20.3516 C   0  0  0  0  0  0  0  0  0  0  0  0
    7.1156   -7.5454   16.8218 C   0  0  0  0  0  0  0  0  0  0  0  0
   10.3885   -4.4388   19.2773 C   0  0  0  0  0  0  0  0  0  0  0  0
    4.5160   -9.3822   15.0841 C   0  0  0  0  0  0  0  0  0  0  0  0
  1  3  4  0
  1 24  4  0
  2  6  4  0
  2 15  4  0
  3  5  4  0
  3  6  4  0
  4 21  4  0
  4 29  4  0
  5 15  4  0
  5 28  1  0
  6 16  4  0
  7 18  4  0
  7 26  4  0
  8 18  1  0
  8 19  4  0
  8 22  4  0
  9 12  4  0
  9 19  4  0
 10 12  4  0
 10 22  4  0
 11 20  4  0
 11 21  4  0
 12 23  1  0
 13 20  4  0
 13 29  4  0
 14 17  4  0
 14 28  4  0
 15 25  2  0
 16 27  4  0
 17 18  4  0
 20 27  1  0
 24 27  4  0
 26 28  4  0
M  END
$$$$

 Created by Python create_sdf_string function

 29 33  0  0  0  0  0  0  0  0999 V2000
    8.8270   -7.0288   18.4251 C   0  0  0  0  0  0  0  0  0  0  0  0
    9.1576   -4.6236   15.8860 O   0  0  0  0  0  0  0  0  0  0  0  0
    9.1509   -5.9108   17.7177 C   0  0  0  0  0  0  0  0  0  0  0  0
    3.6373   -9.5349   16.0582 N   0  0  0  0  0  0  0  0  0  0  0  0
    9.9275   -4.8001   18.0438 N   0  0  0  0  0  0  0  0  0  0  0  0
    8.5908   -5.7425   16.4412 C   0  0  0  0  0  0  0  0  0  0  0  0
   10.5993   -4.8981   21.6068 C   0  0  0  0  0  0  0  0  0  0  0  0
   10.4258   -3.0106   23.0998 C   0  0  0  0  0  0  0  0  0  0  0  0
   10.2148   -3.4364   25.4200 C   0  0  0  0  0  0  0  0  0  0  0  0
    9.7853   -1.1840   24.4927 C   0  0  0  0  0  0  0  0  0  0  0  0
    5.0276   -8.5227   17.5352 C   0  0  0  0  0  0  0  0  0  0  0  0
    9.8187   -2.0895   25.5800 C   0  0  0  0  0  0  0  0  0  0  0  0
    5.6473   -8.7216   15.3158 C   0  0  0  0  0  0  0  0  0  0  0  0
   10.7581   -3.1233   19.4720 N   0  0  0  0  0  0  0  0  0  0  0  0
    9.9571   -4.0573   16.8866 C   0  0  0  0  0  0  0  0  0  0  0  0
    7.6213   -6.5618   16.0087 C   0  0  0  0  0  0  0  0  0  0  0  0
   10.8583   -2.6527   20.7222 C   0  0  0  0  0  0  0  0  0  0  0  0
   10.6412   -3.5089   21.7936 C   0  0  0  0  0  0  0  0  0  0  0  0
   10.4972   -3.8968   24.1589 C   0  0  0  0  0  0  0  0  0  0  0  0
    5.9260   -8.2736   16.5517 C   0  0  0  0  0  0  0  0  0  0  0  0
    3.8816   -9.1166   17.2493 C   0  0  0  0  0  0  0  0  0  0  0  0
   10.1297   -1.6575   23.2324 C   0  0  0  0  0  0  0  0  0  0  0  0
    9.4684   -1.6929   26.7263 F   0  0  0  0  0  0  0  0  0  0  0  0
    7.7963   -7.7906   17.9837 C   0  0  0  0  0  0  0  0  0  0  0  0
   10.5884   -3.0725   16.7902 O   0  0  0  0  0  0  0  0  0  0  0  0
   10.4323   -5.3494   20.3516 C   0  0  0  0  0  0  0  0  0  0  0  0
    7.1156   -7.5454   16.8218 C   0  0  0  0  0  0  0  0  0  0  0  0
   10.3885   -4.4388   19.2773 C   0  0  0  0  0  0  0  0  0  0  0  0
    4.5160   -9.3822   15.0841 C   0  0  0  0  0  0  0  0  0  0  0  0
  1  3  4  0
  1 24  4  0
  2  6  4  0
  2 15  4  0
  3  5  4  0
  3  6  4  0
  4 21  4  0
  4 29  4  0
  5 15  4  0
  5 28  1  0
  6 16  4  0
  7 18  4  0
  7 26  4  0
  8 18  1  0
  8 19  4  0
  8 22  4  0
  9 12  4  0
  9 19  4  0
 10 12  4  0
 10 22  4  0
 11 20  4  0
 11 21  4  0
 12 23  1  0
 13 20  4  0
 13 29  4  0
 14 17  4  0
 14 28  4  0
 15 25  2  0
 16 27  4  0
 17 18  4  0
 20 27  1  0
 24 27  4  0
 26 28  4  0
M  END
$$$$

 Created by Python create_sdf_string function

 29 33  0  0  0  0  0  0  0  0999 V2000
    8.8270   -7.0288   18.4251 C   0  0  0  0  0  0  0  0  0  0  0  0
    9.1576   -4.6236   15.8860 O   0  0  0  0  0  0  0  0  0  0  0  0
    9.1509   -5.9108   17.7177 C   0  0  0  0  0  0  0  0  0  0  0  0
    3.6373   -9.5349   16.0582 N   0  0  0  0  0  0  0  0  0  0  0  0
    9.9275   -4.8001   18.0438 N   0  0  0  0  0  0  0  0  0  0  0  0
    8.5908   -5.7425   16.4412 C   0  0  0  0  0  0  0  0  0  0  0  0
   10.5993   -4.8981   21.6068 C   0  0  0  0  0  0  0  0  0  0  0  0
   10.4258   -3.0106   23.0998 C   0  0  0  0  0  0  0  0  0  0  0  0
   10.2148   -3.4364   25.4200 C   0  0  0  0  0  0  0  0  0  0  0  0
    9.7853   -1.1840   24.4927 C   0  0  0  0  0  0  0  0  0  0  0  0
    5.0276   -8.5227   17.5352 C   0  0  0  0  0  0  0  0  0  0  0  0
    9.8187   -2.0895   25.5800 C   0  0  0  0  0  0  0  0  0  0  0  0
    5.6473   -8.7216   15.3158 C   0  0  0  0  0  0  0  0  0  0  0  0
   10.7581   -3.1233   19.4720 N   0  0  0  0  0  0  0  0  0  0  0  0
    9.9571   -4.0573   16.8866 C   0  0  0  0  0  0  0  0  0  0  0  0
    7.6213   -6.5618   16.0087 C   0  0  0  0  0  0  0  0  0  0  0  0
   10.8583   -2.6527   20.7222 C   0  0  0  0  0  0  0  0  0  0  0  0
   10.6412   -3.5089   21.7936 C   0  0  0  0  0  0  0  0  0  0  0  0
   10.4972   -3.8968   24.1589 C   0  0  0  0  0  0  0  0  0  0  0  0
    5.9260   -8.2736   16.5517 C   0  0  0  0  0  0  0  0  0  0  0  0
    3.8816   -9.1166   17.2493 C   0  0  0  0  0  0  0  0  0  0  0  0
   10.1297   -1.6575   23.2324 C   0  0  0  0  0  0  0  0  0  0  0  0
    9.4684   -1.6929   26.7263 F   0  0  0  0  0  0  0  0  0  0  0  0
    7.7963   -7.7906   17.9837 C   0  0  0  0  0  0  0  0  0  0  0  0
   10.5884   -3.0725   16.7902 O   0  0  0  0  0  0  0  0  0  0  0  0
   10.4323   -5.3494   20.3516 C   0  0  0  0  0  0  0  0  0  0  0  0
    7.1156   -7.5454   16.8218 C   0  0  0  0  0  0  0  0  0  0  0  0
   10.3885   -4.4388   19.2773 C   0  0  0  0  0  0  0  0  0  0  0  0
    4.5160   -9.3822   15.0841 C   0  0  0  0  0  0  0  0  0  0  0  0
  1  3  4  0
  1 24  4  0
  2  6  4  0
  2 15  4  0
  3  5  4  0
  3  6  4  0
  4 21  4  0
  4 29  4  0
  5 15  4  0
  5 28  1  0
  6 16  4  0
  7 18  4  0
  7 26  4  0
  8 18  1  0
  8 19  4  0
  8 22  4  0
  9 12  4  0
  9 19  4  0
 10 12  4  0
 10 22  4  0
 11 20  4  0
 11 21  4  0
 12 23  1  0
 13 20  4  0
 13 29  4  0
 14 17  4  0
 14 28  4  0
 15 25  2  0
 16 27  4  0
 17 18  4  0
 20 27  1  0
 24 27  4  0
 26 28  4  0
M  END
$$$$

 Created by Python create_sdf_string function

 29 33  0  0  0  0  0  0  0  0999 V2000
    8.8270   -7.0288   18.4251 C   0  0  0  0  0  0  0  0  0  0  0  0
    9.1576   -4.6236   15.8860 O   0  0  0  0  0  0  0  0  0  0  0  0
    9.1509   -5.9108   17.7177 C   0  0  0  0  0  0  0  0  0  0  0  0
    3.6373   -9.5349   16.0582 N   0  0  0  0  0  0  0  0  0  0  0  0
    9.9275   -4.8001   18.0438 N   0  0  0  0  0  0  0  0  0  0  0  0
    8.5908   -5.7425   16.4412 C   0  0  0  0  0  0  0  0  0  0  0  0
   10.5993   -4.8981   21.6068 C   0  0  0  0  0  0  0  0  0  0  0  0
   10.4258   -3.0106   23.0998 C   0  0  0  0  0  0  0  0  0  0  0  0
   10.2148   -3.4364   25.4200 C   0  0  0  0  0  0  0  0  0  0  0  0
    9.7853   -1.1840   24.4927 C   0  0  0  0  0  0  0  0  0  0  0  0
    5.0276   -8.5227   17.5352 C   0  0  0  0  0  0  0  0  0  0  0  0
    9.8187   -2.0895   25.5800 C   0  0  0  0  0  0  0  0  0  0  0  0
    5.6473   -8.7216   15.3158 C   0  0  0  0  0  0  0  0  0  0  0  0
   10.7581   -3.1233   19.4720 N   0  0  0  0  0  0  0  0  0  0  0  0
    9.9571   -4.0573   16.8866 C   0  0  0  0  0  0  0  0  0  0  0  0
    7.6213   -6.5618   16.0087 C   0  0  0  0  0  0  0  0  0  0  0  0
   10.8583   -2.6527   20.7222 C   0  0  0  0  0  0  0  0  0  0  0  0
   10.6412   -3.5089   21.7936 C   0  0  0  0  0  0  0  0  0  0  0  0
   10.4972   -3.8968   24.1589 C   0  0  0  0  0  0  0  0  0  0  0  0
    5.9260   -8.2736   16.5517 C   0  0  0  0  0  0  0  0  0  0  0  0
    3.8816   -9.1166   17.2493 C   0  0  0  0  0  0  0  0  0  0  0  0
   10.1297   -1.6575   23.2324 C   0  0  0  0  0  0  0  0  0  0  0  0
    9.4684   -1.6929   26.7263 F   0  0  0  0  0  0  0  0  0  0  0  0
    7.7963   -7.7906   17.9837 C   0  0  0  0  0  0  0  0  0  0  0  0
   10.5884   -3.0725   16.7902 O   0  0  0  0  0  0  0  0  0  0  0  0
   10.4323   -5.3494   20.3516 C   0  0  0  0  0  0  0  0  0  0  0  0
    7.1156   -7.5454   16.8218 C   0  0  0  0  0  0  0  0  0  0  0  0
   10.3885   -4.4388   19.2773 C   0  0  0  0  0  0  0  0  0  0  0  0
    4.5160   -9.3822   15.0841 C   0  0  0  0  0  0  0  0  0  0  0  0
  1  3  4  0
  1 24  4  0
  2  6  4  0
  2 15  4  0
  3  5  4  0
  3  6  4  0
  4 21  4  0
  4 29  4  0
  5 15  4  0
  5 28  1  0
  6 16  4  0
  7 18  4  0
  7 26  4  0
  8 18  1  0
  8 19  4  0
  8 22  4  0
  9 12  4  0
  9 19  4  0
 10 12  4  0
 10 22  4  0
 11 20  4  0
 11 21  4  0
 12 23  1  0
 13 20  4  0
 13 29  4  0
 14 17  4  0
 14 28  4  0
 15 25  2  0
 16 27  4  0
 17 18  4  0
 20 27  1  0
 24 27  4  0
 26 28  4  0
M  END
$$$$

 Created by Python create_sdf_string function

 29 33  0  0  0  0  0  0  0  0999 V2000
    8.8270   -7.0288   18.4251 C   0  0  0  0  0  0  0  0  0  0  0  0
    9.1576   -4.6236   15.8860 O   0  0  0  0  0  0  0  0  0  0  0  0
    9.1509   -5.9108   17.7177 C   0  0  0  0  0  0  0  0  0  0  0  0
    3.6373   -9.5349   16.0582 N   0  0  0  0  0  0  0  0  0  0  0  0
    9.9275   -4.8001   18.0438 N   0  0  0  0  0  0  0  0  0  0  0  0
    8.5908   -5.7425   16.4412 C   0  0  0  0  0  0  0  0  0  0  0  0
   10.5993   -4.8981   21.6068 C   0  0  0  0  0  0  0  0  0  0  0  0
   10.4258   -3.0106   23.0998 C   0  0  0  0  0  0  0  0  0  0  0  0
   10.2148   -3.4364   25.4200 C   0  0  0  0  0  0  0  0  0  0  0  0
    9.7853   -1.1840   24.4927 C   0  0  0  0  0  0  0  0  0  0  0  0
    5.0276   -8.5227   17.5352 C   0  0  0  0  0  0  0  0  0  0  0  0
    9.8187   -2.0895   25.5800 C   0  0  0  0  0  0  0  0  0  0  0  0
    5.6473   -8.7216   15.3158 C   0  0  0  0  0  0  0  0  0  0  0  0
   10.7581   -3.1233   19.4720 N   0  0  0  0  0  0  0  0  0  0  0  0
    9.9571   -4.0573   16.8866 C   0  0  0  0  0  0  0  0  0  0  0  0
    7.6213   -6.5618   16.0087 C   0  0  0  0  0  0  0  0  0  0  0  0
   10.8583   -2.6527   20.7222 C   0  0  0  0  0  0  0  0  0  0  0  0
   10.6412   -3.5089   21.7936 C   0  0  0  0  0  0  0  0  0  0  0  0
   10.4972   -3.8968   24.1589 C   0  0  0  0  0  0  0  0  0  0  0  0
    5.9260   -8.2736   16.5517 C   0  0  0  0  0  0  0  0  0  0  0  0
    3.8816   -9.1166   17.2493 C   0  0  0  0  0  0  0  0  0  0  0  0
   10.1297   -1.6575   23.2324 C   0  0  0  0  0  0  0  0  0  0  0  0
    9.4684   -1.6929   26.7263 F   0  0  0  0  0  0  0  0  0  0  0  0
    7.7963   -7.7906   17.9837 C   0  0  0  0  0  0  0  0  0  0  0  0
   10.5884   -3.0725   16.7902 O   0  0  0  0  0  0  0  0  0  0  0  0
   10.4323   -5.3494   20.3516 C   0  0  0  0  0  0  0  0  0  0  0  0
    7.1156   -7.5454   16.8218 C   0  0  0  0  0  0  0  0  0  0  0  0
   10.3885   -4.4388   19.2773 C   0  0  0  0  0  0  0  0  0  0  0  0
    4.5160   -9.3822   15.0841 C   0  0  0  0  0  0  0  0  0  0  0  0
  1  3  4  0
  1 24  4  0
  2  6  4  0
  2 15  4  0
  3  5  4  0
  3  6  4  0
  4 21  4  0
  4 29  4  0
  5 15  4  0
  5 28  1  0
  6 16  4  0
  7 18  4  0
  7 26  4  0
  8 18  1  0
  8 19  4  0
  8 22  4  0
  9 12  4  0
  9 19  4  0
 10 12  4  0
 10 22  4  0
 11 20  4  0
 11 21  4  0
 12 23  1  0
 13 20  4  0
 13 29  4  0
 14 17  4  0
 14 28  4  0
 15 25  2  0
 16 27  4  0
 17 18  4  0
 20 27  1  0
 24 27  4  0
 26 28  4  0
M  END
$$$$

 Created by Python create_sdf_string function

 29 33  0  0  0  0  0  0  0  0999 V2000
    8.8270   -7.0288   18.4251 C   0  0  0  0  0  0  0  0  0  0  0  0
    9.1576   -4.6236   15.8860 O   0  0  0  0  0  0  0  0  0  0  0  0
    9.1509   -5.9108   17.7177 C   0  0  0  0  0  0  0  0  0  0  0  0
    3.6373   -9.5349   16.0582 N   0  0  0  0  0  0  0  0  0  0  0  0
    9.9275   -4.8001   18.0438 N   0  0  0  0  0  0  0  0  0  0  0  0
    8.5908   -5.7425   16.4412 C   0  0  0  0  0  0  0  0  0  0  0  0
   10.5993   -4.8981   21.6068 C   0  0  0  0  0  0  0  0  0  0  0  0
   10.4258   -3.0106   23.0998 C   0  0  0  0  0  0  0  0  0  0  0  0
   10.2148   -3.4364   25.4200 C   0  0  0  0  0  0  0  0  0  0  0  0
    9.7853   -1.1840   24.4927 C   0  0  0  0  0  0  0  0  0  0  0  0
    5.0276   -8.5227   17.5352 C   0  0  0  0  0  0  0  0  0  0  0  0
    9.8187   -2.0895   25.5800 C   0  0  0  0  0  0  0  0  0  0  0  0
    5.6473   -8.7216   15.3158 C   0  0  0  0  0  0  0  0  0  0  0  0
   10.7581   -3.1233   19.4720 N   0  0  0  0  0  0  0  0  0  0  0  0
    9.9571   -4.0573   16.8866 C   0  0  0  0  0  0  0  0  0  0  0  0
    7.6213   -6.5618   16.0087 C   0  0  0  0  0  0  0  0  0  0  0  0
   10.8583   -2.6527   20.7222 C   0  0  0  0  0  0  0  0  0  0  0  0
   10.6412   -3.5089   21.7936 C   0  0  0  0  0  0  0  0  0  0  0  0
   10.4972   -3.8968   24.1589 C   0  0  0  0  0  0  0  0  0  0  0  0
    5.9260   -8.2736   16.5517 C   0  0  0  0  0  0  0  0  0  0  0  0
    3.8816   -9.1166   17.2493 C   0  0  0  0  0  0  0  0  0  0  0  0
   10.1297   -1.6575   23.2324 C   0  0  0  0  0  0  0  0  0  0  0  0
    9.4684   -1.6929   26.7263 F   0  0  0  0  0  0  0  0  0  0  0  0
    7.7963   -7.7906   17.9837 C   0  0  0  0  0  0  0  0  0  0  0  0
   10.5884   -3.0725   16.7902 O   0  0  0  0  0  0  0  0  0  0  0  0
   10.4323   -5.3494   20.3516 C   0  0  0  0  0  0  0  0  0  0  0  0
    7.1156   -7.5454   16.8218 C   0  0  0  0  0  0  0  0  0  0  0  0
   10.3885   -4.4388   19.2773 C   0  0  0  0  0  0  0  0  0  0  0  0
    4.5160   -9.3822   15.0841 C   0  0  0  0  0  0  0  0  0  0  0  0
  1  3  4  0
  1 24  4  0
  2  6  4  0
  2 15  4  0
  3  5  4  0
  3  6  4  0
  4 21  4  0
  4 29  4  0
  5 15  4  0
  5 28  1  0
  6 16  4  0
  7 18  4  0
  7 26  4  0
  8 18  1  0
  8 19  4  0
  8 22  4  0
  9 12  4  0
  9 19  4  0
 10 12  4  0
 10 22  4  0
 11 20  4  0
 11 21  4  0
 12 23  1  0
 13 20  4  0
 13 29  4  0
 14 17  4  0
 14 28  4  0
 15 25  2  0
 16 27  4  0
 17 18  4  0
 20 27  1  0
 24 27  4  0
 26 28  4  0
M  END
$$$$

 Created by Python create_sdf_string function

 29 33  0  0  0  0  0  0  0  0999 V2000
    8.8270   -7.0288   18.4251 C   0  0  0  0  0  0  0  0  0  0  0  0
    9.1576   -4.6236   15.8860 O   0  0  0  0  0  0  0  0  0  0  0  0
    9.1509   -5.9108   17.7177 C   0  0  0  0  0  0  0  0  0  0  0  0
    3.6373   -9.5349   16.0582 N   0  0  0  0  0  0  0  0  0  0  0  0
    9.9275   -4.8001   18.0438 N   0  0  0  0  0  0  0  0  0  0  0  0
    8.5908   -5.7425   16.4412 C   0  0  0  0  0  0  0  0  0  0  0  0
   10.5993   -4.8981   21.6068 C   0  0  0  0  0  0  0  0  0  0  0  0
   10.4258   -3.0106   23.0998 C   0  0  0  0  0  0  0  0  0  0  0  0
   10.2148   -3.4364   25.4200 C   0  0  0  0  0  0  0  0  0  0  0  0
    9.7853   -1.1840   24.4927 C   0  0  0  0  0  0  0  0  0  0  0  0
    5.0276   -8.5227   17.5352 C   0  0  0  0  0  0  0  0  0  0  0  0
    9.8187   -2.0895   25.5800 C   0  0  0  0  0  0  0  0  0  0  0  0
    5.6473   -8.7216   15.3158 C   0  0  0  0  0  0  0  0  0  0  0  0
   10.7581   -3.1233   19.4720 N   0  0  0  0  0  0  0  0  0  0  0  0
    9.9571   -4.0573   16.8866 C   0  0  0  0  0  0  0  0  0  0  0  0
    7.6213   -6.5618   16.0087 C   0  0  0  0  0  0  0  0  0  0  0  0
   10.8583   -2.6527   20.7222 C   0  0  0  0  0  0  0  0  0  0  0  0
   10.6412   -3.5089   21.7936 C   0  0  0  0  0  0  0  0  0  0  0  0
   10.4972   -3.8968   24.1589 C   0  0  0  0  0  0  0  0  0  0  0  0
    5.9260   -8.2736   16.5517 C   0  0  0  0  0  0  0  0  0  0  0  0
    3.8816   -9.1166   17.2493 C   0  0  0  0  0  0  0  0  0  0  0  0
   10.1297   -1.6575   23.2324 C   0  0  0  0  0  0  0  0  0  0  0  0
    9.4684   -1.6929   26.7263 F   0  0  0  0  0  0  0  0  0  0  0  0
    7.7963   -7.7906   17.9837 C   0  0  0  0  0  0  0  0  0  0  0  0
   10.5884   -3.0725   16.7902 O   0  0  0  0  0  0  0  0  0  0  0  0
   10.4323   -5.3494   20.3516 C   0  0  0  0  0  0  0  0  0  0  0  0
    7.1156   -7.5454   16.8218 C   0  0  0  0  0  0  0  0  0  0  0  0
   10.3885   -4.4388   19.2773 C   0  0  0  0  0  0  0  0  0  0  0  0
    4.5160   -9.3822   15.0841 C   0  0  0  0  0  0  0  0  0  0  0  0
  1  3  4  0
  1 24  4  0
  2  6  4  0
  2 15  4  0
  3  5  4  0
  3  6  4  0
  4 21  4  0
  4 29  4  0
  5 15  4  0
  5 28  1  0
  6 16  4  0
  7 18  4  0
  7 26  4  0
  8 18  1  0
  8 19  4  0
  8 22  4  0
  9 12  4  0
  9 19  4  0
 10 12  4  0
 10 22  4  0
 11 20  4  0
 11 21  4  0
 12 23  1  0
 13 20  4  0
 13 29  4  0
 14 17  4  0
 14 28  4  0
 15 25  2  0
 16 27  4  0
 17 18  4  0
 20 27  1  0
 24 27  4  0
 26 28  4  0
M  END
$$$$

 Created by Python create_sdf_string function

 29 33  0  0  0  0  0  0  0  0999 V2000
    8.8270   -7.0288   18.4251 C   0  0  0  0  0  0  0  0  0  0  0  0
    9.1576   -4.6236   15.8860 O   0  0  0  0  0  0  0  0  0  0  0  0
    9.1509   -5.9108   17.7177 C   0  0  0  0  0  0  0  0  0  0  0  0
    3.6373   -9.5349   16.0582 N   0  0  0  0  0  0  0  0  0  0  0  0
    9.9275   -4.8001   18.0438 N   0  0  0  0  0  0  0  0  0  0  0  0
    8.5908   -5.7425   16.4412 C   0  0  0  0  0  0  0  0  0  0  0  0
   10.5993   -4.8981   21.6068 C   0  0  0  0  0  0  0  0  0  0  0  0
   10.4258   -3.0106   23.0998 C   0  0  0  0  0  0  0  0  0  0  0  0
   10.2148   -3.4364   25.4200 C   0  0  0  0  0  0  0  0  0  0  0  0
    9.7853   -1.1840   24.4927 C   0  0  0  0  0  0  0  0  0  0  0  0
    5.0276   -8.5227   17.5352 C   0  0  0  0  0  0  0  0  0  0  0  0
    9.8187   -2.0895   25.5800 C   0  0  0  0  0  0  0  0  0  0  0  0
    5.6473   -8.7216   15.3158 C   0  0  0  0  0  0  0  0  0  0  0  0
   10.7581   -3.1233   19.4720 N   0  0  0  0  0  0  0  0  0  0  0  0
    9.9571   -4.0573   16.8866 C   0  0  0  0  0  0  0  0  0  0  0  0
    7.6213   -6.5618   16.0087 C   0  0  0  0  0  0  0  0  0  0  0  0
   10.8583   -2.6527   20.7222 C   0  0  0  0  0  0  0  0  0  0  0  0
   10.6412   -3.5089   21.7936 C   0  0  0  0  0  0  0  0  0  0  0  0
   10.4972   -3.8968   24.1589 C   0  0  0  0  0  0  0  0  0  0  0  0
    5.9260   -8.2736   16.5517 C   0  0  0  0  0  0  0  0  0  0  0  0
    3.8816   -9.1166   17.2493 C   0  0  0  0  0  0  0  0  0  0  0  0
   10.1297   -1.6575   23.2324 C   0  0  0  0  0  0  0  0  0  0  0  0
    9.4684   -1.6929   26.7263 F   0  0  0  0  0  0  0  0  0  0  0  0
    7.7963   -7.7906   17.9837 C   0  0  0  0  0  0  0  0  0  0  0  0
   10.5884   -3.0725   16.7902 O   0  0  0  0  0  0  0  0  0  0  0  0
   10.4323   -5.3494   20.3516 C   0  0  0  0  0  0  0  0  0  0  0  0
    7.1156   -7.5454   16.8218 C   0  0  0  0  0  0  0  0  0  0  0  0
   10.3885   -4.4388   19.2773 C   0  0  0  0  0  0  0  0  0  0  0  0
    4.5160   -9.3822   15.0841 C   0  0  0  0  0  0  0  0  0  0  0  0
  1  3  4  0
  1 24  4  0
  2  6  4  0
  2 15  4  0
  3  5  4  0
  3  6  4  0
  4 21  4  0
  4 29  4  0
  5 15  4  0
  5 28  1  0
  6 16  4  0
  7 18  4  0
  7 26  4  0
  8 18  1  0
  8 19  4  0
  8 22  4  0
  9 12  4  0
  9 19  4  0
 10 12  4  0
 10 22  4  0
 11 20  4  0
 11 21  4  0
 12 23  1  0
 13 20  4  0
 13 29  4  0
 14 17  4  0
 14 28  4  0
 15 25  2  0
 16 27  4  0
 17 18  4  0
 20 27  1  0
 24 27  4  0
 26 28  4  0
M  END
$$$$

 Created by Python create_sdf_string function

 29 33  0  0  0  0  0  0  0  0999 V2000
    8.8270   -7.0288   18.4251 C   0  0  0  0  0  0  0  0  0  0  0  0
    9.1576   -4.6236   15.8860 O   0  0  0  0  0  0  0  0  0  0  0  0
    9.1509   -5.9108   17.7177 C   0  0  0  0  0  0  0  0  0  0  0  0
    3.6373   -9.5349   16.0582 N   0  0  0  0  0  0  0  0  0  0  0  0
    9.9275   -4.8001   18.0438 N   0  0  0  0  0  0  0  0  0  0  0  0
    8.5908   -5.7425   16.4412 C   0  0  0  0  0  0  0  0  0  0  0  0
   10.5993   -4.8981   21.6068 C   0  0  0  0  0  0  0  0  0  0  0  0
   10.4258   -3.0106   23.0998 C   0  0  0  0  0  0  0  0  0  0  0  0
   10.2148   -3.4364   25.4200 C   0  0  0  0  0  0  0  0  0  0  0  0
    9.7853   -1.1840   24.4927 C   0  0  0  0  0  0  0  0  0  0  0  0
    5.0276   -8.5227   17.5352 C   0  0  0  0  0  0  0  0  0  0  0  0
    9.8187   -2.0895   25.5800 C   0  0  0  0  0  0  0  0  0  0  0  0
    5.6473   -8.7216   15.3158 C   0  0  0  0  0  0  0  0  0  0  0  0
   10.7581   -3.1233   19.4720 N   0  0  0  0  0  0  0  0  0  0  0  0
    9.9571   -4.0573   16.8866 C   0  0  0  0  0  0  0  0  0  0  0  0
    7.6213   -6.5618   16.0087 C   0  0  0  0  0  0  0  0  0  0  0  0
   10.8583   -2.6527   20.7222 C   0  0  0  0  0  0  0  0  0  0  0  0
   10.6412   -3.5089   21.7936 C   0  0  0  0  0  0  0  0  0  0  0  0
   10.4972   -3.8968   24.1589 C   0  0  0  0  0  0  0  0  0  0  0  0
    5.9260   -8.2736   16.5517 C   0  0  0  0  0  0  0  0  0  0  0  0
    3.8816   -9.1166   17.2493 C   0  0  0  0  0  0  0  0  0  0  0  0
   10.1297   -1.6575   23.2324 C   0  0  0  0  0  0  0  0  0  0  0  0
    9.4684   -1.6929   26.7263 F   0  0  0  0  0  0  0  0  0  0  0  0
    7.7963   -7.7906   17.9837 C   0  0  0  0  0  0  0  0  0  0  0  0
   10.5884   -3.0725   16.7902 O   0  0  0  0  0  0  0  0  0  0  0  0
   10.4323   -5.3494   20.3516 C   0  0  0  0  0  0  0  0  0  0  0  0
    7.1156   -7.5454   16.8218 C   0  0  0  0  0  0  0  0  0  0  0  0
   10.3885   -4.4388   19.2773 C   0  0  0  0  0  0  0  0  0  0  0  0
    4.5160   -9.3822   15.0841 C   0  0  0  0  0  0  0  0  0  0  0  0
  1  3  4  0
  1 24  4  0
  2  6  4  0
  2 15  4  0
  3  5  4  0
  3  6  4  0
  4 21  4  0
  4 29  4  0
  5 15  4  0
  5 28  1  0
  6 16  4  0
  7 18  4  0
  7 26  4  0
  8 18  1  0
  8 19  4  0
  8 22  4  0
  9 12  4  0
  9 19  4  0
 10 12  4  0
 10 22  4  0
 11 20  4  0
 11 21  4  0
 12 23  1  0
 13 20  4  0
 13 29  4  0
 14 17  4  0
 14 28  4  0
 15 25  2  0
 16 27  4  0
 17 18  4  0
 20 27  1  0
 24 27  4  0
 26 28  4  0
M  END
$$$$

 Created by Python create_sdf_string function

 29 33  0  0  0  0  0  0  0  0999 V2000
    8.8270   -7.0288   18.4251 C   0  0  0  0  0  0  0  0  0  0  0  0
    9.1576   -4.6236   15.8860 O   0  0  0  0  0  0  0  0  0  0  0  0
    9.1509   -5.9108   17.7177 C   0  0  0  0  0  0  0  0  0  0  0  0
    3.6373   -9.5349   16.0582 N   0  0  0  0  0  0  0  0  0  0  0  0
    9.9275   -4.8001   18.0438 N   0  0  0  0  0  0  0  0  0  0  0  0
    8.5908   -5.7425   16.4412 C   0  0  0  0  0  0  0  0  0  0  0  0
   10.5993   -4.8981   21.6068 C   0  0  0  0  0  0  0  0  0  0  0  0
   10.4258   -3.0106   23.0998 C   0  0  0  0  0  0  0  0  0  0  0  0
   10.2148   -3.4364   25.4200 C   0  0  0  0  0  0  0  0  0  0  0  0
    9.7853   -1.1840   24.4927 C   0  0  0  0  0  0  0  0  0  0  0  0
    5.0276   -8.5227   17.5352 C   0  0  0  0  0  0  0  0  0  0  0  0
    9.8187   -2.0895   25.5800 C   0  0  0  0  0  0  0  0  0  0  0  0
    5.6473   -8.7216   15.3158 C   0  0  0  0  0  0  0  0  0  0  0  0
   10.7581   -3.1233   19.4720 N   0  0  0  0  0  0  0  0  0  0  0  0
    9.9571   -4.0573   16.8866 C   0  0  0  0  0  0  0  0  0  0  0  0
    7.6213   -6.5618   16.0087 C   0  0  0  0  0  0  0  0  0  0  0  0
   10.8583   -2.6527   20.7222 C   0  0  0  0  0  0  0  0  0  0  0  0
   10.6412   -3.5089   21.7936 C   0  0  0  0  0  0  0  0  0  0  0  0
   10.4972   -3.8968   24.1589 C   0  0  0  0  0  0  0  0  0  0  0  0
    5.9260   -8.2736   16.5517 C   0  0  0  0  0  0  0  0  0  0  0  0
    3.8816   -9.1166   17.2493 C   0  0  0  0  0  0  0  0  0  0  0  0
   10.1297   -1.6575   23.2324 C   0  0  0  0  0  0  0  0  0  0  0  0
    9.4684   -1.6929   26.7263 F   0  0  0  0  0  0  0  0  0  0  0  0
    7.7963   -7.7906   17.9837 C   0  0  0  0  0  0  0  0  0  0  0  0
   10.5884   -3.0725   16.7902 O   0  0  0  0  0  0  0  0  0  0  0  0
   10.4323   -5.3494   20.3516 C   0  0  0  0  0  0  0  0  0  0  0  0
    7.1156   -7.5454   16.8218 C   0  0  0  0  0  0  0  0  0  0  0  0
   10.3885   -4.4388   19.2773 C   0  0  0  0  0  0  0  0  0  0  0  0
    4.5160   -9.3822   15.0841 C   0  0  0  0  0  0  0  0  0  0  0  0
  1  3  4  0
  1 24  4  0
  2  6  4  0
  2 15  4  0
  3  5  4  0
  3  6  4  0
  4 21  4  0
  4 29  4  0
  5 15  4  0
  5 28  1  0
  6 16  4  0
  7 18  4  0
  7 26  4  0
  8 18  1  0
  8 19  4  0
  8 22  4  0
  9 12  4  0
  9 19  4  0
 10 12  4  0
 10 22  4  0
 11 20  4  0
 11 21  4  0
 12 23  1  0
 13 20  4  0
 13 29  4  0
 14 17  4  0
 14 28  4  0
 15 25  2  0
 16 27  4  0
 17 18  4  0
 20 27  1  0
 24 27  4  0
 26 28  4  0
M  END
$$$$

 Created by Python create_sdf_string function

 29 33  0  0  0  0  0  0  0  0999 V2000
    8.8270   -7.0288   18.4251 C   0  0  0  0  0  0  0  0  0  0  0  0
    9.1576   -4.6236   15.8860 O   0  0  0  0  0  0  0  0  0  0  0  0
    9.1509   -5.9108   17.7177 C   0  0  0  0  0  0  0  0  0  0  0  0
    3.6373   -9.5349   16.0582 N   0  0  0  0  0  0  0  0  0  0  0  0
    9.9275   -4.8001   18.0438 N   0  0  0  0  0  0  0  0  0  0  0  0
    8.5908   -5.7425   16.4412 C   0  0  0  0  0  0  0  0  0  0  0  0
   10.5993   -4.8981   21.6068 C   0  0  0  0  0  0  0  0  0  0  0  0
   10.4258   -3.0106   23.0998 C   0  0  0  0  0  0  0  0  0  0  0  0
   10.2148   -3.4364   25.4200 C   0  0  0  0  0  0  0  0  0  0  0  0
    9.7853   -1.1840   24.4927 C   0  0  0  0  0  0  0  0  0  0  0  0
    5.0276   -8.5227   17.5352 C   0  0  0  0  0  0  0  0  0  0  0  0
    9.8187   -2.0895   25.5800 C   0  0  0  0  0  0  0  0  0  0  0  0
    5.6473   -8.7216   15.3158 C   0  0  0  0  0  0  0  0  0  0  0  0
   10.7581   -3.1233   19.4720 N   0  0  0  0  0  0  0  0  0  0  0  0
    9.9571   -4.0573   16.8866 C   0  0  0  0  0  0  0  0  0  0  0  0
    7.6213   -6.5618   16.0087 C   0  0  0  0  0  0  0  0  0  0  0  0
   10.8583   -2.6527   20.7222 C   0  0  0  0  0  0  0  0  0  0  0  0
   10.6412   -3.5089   21.7936 C   0  0  0  0  0  0  0  0  0  0  0  0
   10.4972   -3.8968   24.1589 C   0  0  0  0  0  0  0  0  0  0  0  0
    5.9260   -8.2736   16.5517 C   0  0  0  0  0  0  0  0  0  0  0  0
    3.8816   -9.1166   17.2493 C   0  0  0  0  0  0  0  0  0  0  0  0
   10.1297   -1.6575   23.2324 C   0  0  0  0  0  0  0  0  0  0  0  0
    9.4684   -1.6929   26.7263 F   0  0  0  0  0  0  0  0  0  0  0  0
    7.7963   -7.7906   17.9837 C   0  0  0  0  0  0  0  0  0  0  0  0
   10.5884   -3.0725   16.7902 O   0  0  0  0  0  0  0  0  0  0  0  0
   10.4323   -5.3494   20.3516 C   0  0  0  0  0  0  0  0  0  0  0  0
    7.1156   -7.5454   16.8218 C   0  0  0  0  0  0  0  0  0  0  0  0
   10.3885   -4.4388   19.2773 C   0  0  0  0  0  0  0  0  0  0  0  0
    4.5160   -9.3822   15.0841 C   0  0  0  0  0  0  0  0  0  0  0  0
  1  3  4  0
  1 24  4  0
  2  6  4  0
  2 15  4  0
  3  5  4  0
  3  6  4  0
  4 21  4  0
  4 29  4  0
  5 15  4  0
  5 28  1  0
  6 16  4  0
  7 18  4  0
  7 26  4  0
  8 18  1  0
  8 19  4  0
  8 22  4  0
  9 12  4  0
  9 19  4  0
 10 12  4  0
 10 22  4  0
 11 20  4  0
 11 21  4  0
 12 23  1  0
 13 20  4  0
 13 29  4  0
 14 17  4  0
 14 28  4  0
 15 25  2  0
 16 27  4  0
 17 18  4  0
 20 27  1  0
 24 27  4  0
 26 28  4  0
M  END
$$$$

 Created by Python create_sdf_string function

 29 33  0  0  0  0  0  0  0  0999 V2000
    8.8270   -7.0288   18.4251 C   0  0  0  0  0  0  0  0  0  0  0  0
    9.1576   -4.6236   15.8860 O   0  0  0  0  0  0  0  0  0  0  0  0
    9.1509   -5.9108   17.7177 C   0  0  0  0  0  0  0  0  0  0  0  0
    3.6373   -9.5349   16.0582 N   0  0  0  0  0  0  0  0  0  0  0  0
    9.9275   -4.8001   18.0438 N   0  0  0  0  0  0  0  0  0  0  0  0
    8.5908   -5.7425   16.4412 C   0  0  0  0  0  0  0  0  0  0  0  0
   10.5993   -4.8981   21.6068 C   0  0  0  0  0  0  0  0  0  0  0  0
   10.4258   -3.0106   23.0998 C   0  0  0  0  0  0  0  0  0  0  0  0
   10.2148   -3.4364   25.4200 C   0  0  0  0  0  0  0  0  0  0  0  0
    9.7853   -1.1840   24.4927 C   0  0  0  0  0  0  0  0  0  0  0  0
    5.0276   -8.5227   17.5352 C   0  0  0  0  0  0  0  0  0  0  0  0
    9.8187   -2.0895   25.5800 C   0  0  0  0  0  0  0  0  0  0  0  0
    5.6473   -8.7216   15.3158 C   0  0  0  0  0  0  0  0  0  0  0  0
   10.7581   -3.1233   19.4720 N   0  0  0  0  0  0  0  0  0  0  0  0
    9.9571   -4.0573   16.8866 C   0  0  0  0  0  0  0  0  0  0  0  0
    7.6213   -6.5618   16.0087 C   0  0  0  0  0  0  0  0  0  0  0  0
   10.8583   -2.6527   20.7222 C   0  0  0  0  0  0  0  0  0  0  0  0
   10.6412   -3.5089   21.7936 C   0  0  0  0  0  0  0  0  0  0  0  0
   10.4972   -3.8968   24.1589 C   0  0  0  0  0  0  0  0  0  0  0  0
    5.9260   -8.2736   16.5517 C   0  0  0  0  0  0  0  0  0  0  0  0
    3.8816   -9.1166   17.2493 C   0  0  0  0  0  0  0  0  0  0  0  0
   10.1297   -1.6575   23.2324 C   0  0  0  0  0  0  0  0  0  0  0  0
    9.4684   -1.6929   26.7263 F   0  0  0  0  0  0  0  0  0  0  0  0
    7.7963   -7.7906   17.9837 C   0  0  0  0  0  0  0  0  0  0  0  0
   10.5884   -3.0725   16.7902 O   0  0  0  0  0  0  0  0  0  0  0  0
   10.4323   -5.3494   20.3516 C   0  0  0  0  0  0  0  0  0  0  0  0
    7.1156   -7.5454   16.8218 C   0  0  0  0  0  0  0  0  0  0  0  0
   10.3885   -4.4388   19.2773 C   0  0  0  0  0  0  0  0  0  0  0  0
    4.5160   -9.3822   15.0841 C   0  0  0  0  0  0  0  0  0  0  0  0
  1  3  4  0
  1 24  4  0
  2  6  4  0
  2 15  4  0
  3  5  4  0
  3  6  4  0
  4 21  4  0
  4 29  4  0
  5 15  4  0
  5 28  1  0
  6 16  4  0
  7 18  4  0
  7 26  4  0
  8 18  1  0
  8 19  4  0
  8 22  4  0
  9 12  4  0
  9 19  4  0
 10 12  4  0
 10 22  4  0
 11 20  4  0
 11 21  4  0
 12 23  1  0
 13 20  4  0
 13 29  4  0
 14 17  4  0
 14 28  4  0
 15 25  2  0
 16 27  4  0
 17 18  4  0
 20 27  1  0
 24 27  4  0
 26 28  4  0
M  END
$$$$

 Created by Python create_sdf_string function

 29 33  0  0  0  0  0  0  0  0999 V2000
    8.8270   -7.0288   18.4251 C   0  0  0  0  0  0  0  0  0  0  0  0
    9.1576   -4.6236   15.8860 O   0  0  0  0  0  0  0  0  0  0  0  0
    9.1509   -5.9108   17.7177 C   0  0  0  0  0  0  0  0  0  0  0  0
    3.6373   -9.5349   16.0582 N   0  0  0  0  0  0  0  0  0  0  0  0
    9.9275   -4.8001   18.0438 N   0  0  0  0  0  0  0  0  0  0  0  0
    8.5908   -5.7425   16.4412 C   0  0  0  0  0  0  0  0  0  0  0  0
   10.5993   -4.8981   21.6068 C   0  0  0  0  0  0  0  0  0  0  0  0
   10.4258   -3.0106   23.0998 C   0  0  0  0  0  0  0  0  0  0  0  0
   10.2148   -3.4364   25.4200 C   0  0  0  0  0  0  0  0  0  0  0  0
    9.7853   -1.1840   24.4927 C   0  0  0  0  0  0  0  0  0  0  0  0
    5.0276   -8.5227   17.5352 C   0  0  0  0  0  0  0  0  0  0  0  0
    9.8187   -2.0895   25.5800 C   0  0  0  0  0  0  0  0  0  0  0  0
    5.6473   -8.7216   15.3158 C   0  0  0  0  0  0  0  0  0  0  0  0
   10.7581   -3.1233   19.4720 N   0  0  0  0  0  0  0  0  0  0  0  0
    9.9571   -4.0573   16.8866 C   0  0  0  0  0  0  0  0  0  0  0  0
    7.6213   -6.5618   16.0087 C   0  0  0  0  0  0  0  0  0  0  0  0
   10.8583   -2.6527   20.7222 C   0  0  0  0  0  0  0  0  0  0  0  0
   10.6412   -3.5089   21.7936 C   0  0  0  0  0  0  0  0  0  0  0  0
   10.4972   -3.8968   24.1589 C   0  0  0  0  0  0  0  0  0  0  0  0
    5.9260   -8.2736   16.5517 C   0  0  0  0  0  0  0  0  0  0  0  0
    3.8816   -9.1166   17.2493 C   0  0  0  0  0  0  0  0  0  0  0  0
   10.1297   -1.6575   23.2324 C   0  0  0  0  0  0  0  0  0  0  0  0
    9.4684   -1.6929   26.7263 F   0  0  0  0  0  0  0  0  0  0  0  0
    7.7963   -7.7906   17.9837 C   0  0  0  0  0  0  0  0  0  0  0  0
   10.5884   -3.0725   16.7902 O   0  0  0  0  0  0  0  0  0  0  0  0
   10.4323   -5.3494   20.3516 C   0  0  0  0  0  0  0  0  0  0  0  0
    7.1156   -7.5454   16.8218 C   0  0  0  0  0  0  0  0  0  0  0  0
   10.3885   -4.4388   19.2773 C   0  0  0  0  0  0  0  0  0  0  0  0
    4.5160   -9.3822   15.0841 C   0  0  0  0  0  0  0  0  0  0  0  0
  1  3  4  0
  1 24  4  0
  2  6  4  0
  2 15  4  0
  3  5  4  0
  3  6  4  0
  4 21  4  0
  4 29  4  0
  5 15  4  0
  5 28  1  0
  6 16  4  0
  7 18  4  0
  7 26  4  0
  8 18  1  0
  8 19  4  0
  8 22  4  0
  9 12  4  0
  9 19  4  0
 10 12  4  0
 10 22  4  0
 11 20  4  0
 11 21  4  0
 12 23  1  0
 13 20  4  0
 13 29  4  0
 14 17  4  0
 14 28  4  0
 15 25  2  0
 16 27  4  0
 17 18  4  0
 20 27  1  0
 24 27  4  0
 26 28  4  0
M  END
$$$$

 Created by Python create_sdf_string function

 29 33  0  0  0  0  0  0  0  0999 V2000
    8.8270   -7.0288   18.4251 C   0  0  0  0  0  0  0  0  0  0  0  0
    9.1576   -4.6236   15.8860 O   0  0  0  0  0  0  0  0  0  0  0  0
    9.1509   -5.9108   17.7177 C   0  0  0  0  0  0  0  0  0  0  0  0
    3.6373   -9.5349   16.0582 N   0  0  0  0  0  0  0  0  0  0  0  0
    9.9275   -4.8001   18.0438 N   0  0  0  0  0  0  0  0  0  0  0  0
    8.5908   -5.7425   16.4412 C   0  0  0  0  0  0  0  0  0  0  0  0
   10.5993   -4.8981   21.6068 C   0  0  0  0  0  0  0  0  0  0  0  0
   10.4258   -3.0106   23.0998 C   0  0  0  0  0  0  0  0  0  0  0  0
   10.2148   -3.4364   25.4200 C   0  0  0  0  0  0  0  0  0  0  0  0
    9.7853   -1.1840   24.4927 C   0  0  0  0  0  0  0  0  0  0  0  0
    5.0276   -8.5227   17.5352 C   0  0  0  0  0  0  0  0  0  0  0  0
    9.8187   -2.0895   25.5800 C   0  0  0  0  0  0  0  0  0  0  0  0
    5.6473   -8.7216   15.3158 C   0  0  0  0  0  0  0  0  0  0  0  0
   10.7581   -3.1233   19.4720 N   0  0  0  0  0  0  0  0  0  0  0  0
    9.9571   -4.0573   16.8866 C   0  0  0  0  0  0  0  0  0  0  0  0
    7.6213   -6.5618   16.0087 C   0  0  0  0  0  0  0  0  0  0  0  0
   10.8583   -2.6527   20.7222 C   0  0  0  0  0  0  0  0  0  0  0  0
   10.6412   -3.5089   21.7936 C   0  0  0  0  0  0  0  0  0  0  0  0
   10.4972   -3.8968   24.1589 C   0  0  0  0  0  0  0  0  0  0  0  0
    5.9260   -8.2736   16.5517 C   0  0  0  0  0  0  0  0  0  0  0  0
    3.8816   -9.1166   17.2493 C   0  0  0  0  0  0  0  0  0  0  0  0
   10.1297   -1.6575   23.2324 C   0  0  0  0  0  0  0  0  0  0  0  0
    9.4684   -1.6929   26.7263 F   0  0  0  0  0  0  0  0  0  0  0  0
    7.7963   -7.7906   17.9837 C   0  0  0  0  0  0  0  0  0  0  0  0
   10.5884   -3.0725   16.7902 O   0  0  0  0  0  0  0  0  0  0  0  0
   10.4323   -5.3494   20.3516 C   0  0  0  0  0  0  0  0  0  0  0  0
    7.1156   -7.5454   16.8218 C   0  0  0  0  0  0  0  0  0  0  0  0
   10.3885   -4.4388   19.2773 C   0  0  0  0  0  0  0  0  0  0  0  0
    4.5160   -9.3822   15.0841 C   0  0  0  0  0  0  0  0  0  0  0  0
  1  3  4  0
  1 24  4  0
  2  6  4  0
  2 15  4  0
  3  5  4  0
  3  6  4  0
  4 21  4  0
  4 29  4  0
  5 15  4  0
  5 28  1  0
  6 16  4  0
  7 18  4  0
  7 26  4  0
  8 18  1  0
  8 19  4  0
  8 22  4  0
  9 12  4  0
  9 19  4  0
 10 12  4  0
 10 22  4  0
 11 20  4  0
 11 21  4  0
 12 23  1  0
 13 20  4  0
 13 29  4  0
 14 17  4  0
 14 28  4  0
 15 25  2  0
 16 27  4  0
 17 18  4  0
 20 27  1  0
 24 27  4  0
 26 28  4  0
M  END
$$$$

 Created by Python create_sdf_string function

 29 33  0  0  0  0  0  0  0  0999 V2000
    8.8270   -7.0288   18.4251 C   0  0  0  0  0  0  0  0  0  0  0  0
    9.1576   -4.6236   15.8860 O   0  0  0  0  0  0  0  0  0  0  0  0
    9.1509   -5.9108   17.7177 C   0  0  0  0  0  0  0  0  0  0  0  0
    3.6373   -9.5349   16.0582 N   0  0  0  0  0  0  0  0  0  0  0  0
    9.9275   -4.8001   18.0438 N   0  0  0  0  0  0  0  0  0  0  0  0
    8.5908   -5.7425   16.4412 C   0  0  0  0  0  0  0  0  0  0  0  0
   10.5993   -4.8981   21.6068 C   0  0  0  0  0  0  0  0  0  0  0  0
   10.4258   -3.0106   23.0998 C   0  0  0  0  0  0  0  0  0  0  0  0
   10.2148   -3.4364   25.4200 C   0  0  0  0  0  0  0  0  0  0  0  0
    9.7853   -1.1840   24.4927 C   0  0  0  0  0  0  0  0  0  0  0  0
    5.0276   -8.5227   17.5352 C   0  0  0  0  0  0  0  0  0  0  0  0
    9.8187   -2.0895   25.5800 C   0  0  0  0  0  0  0  0  0  0  0  0
    5.6473   -8.7216   15.3158 C   0  0  0  0  0  0  0  0  0  0  0  0
   10.7581   -3.1233   19.4720 N   0  0  0  0  0  0  0  0  0  0  0  0
    9.9571   -4.0573   16.8866 C   0  0  0  0  0  0  0  0  0  0  0  0
    7.6213   -6.5618   16.0087 C   0  0  0  0  0  0  0  0  0  0  0  0
   10.8583   -2.6527   20.7222 C   0  0  0  0  0  0  0  0  0  0  0  0
   10.6412   -3.5089   21.7936 C   0  0  0  0  0  0  0  0  0  0  0  0
   10.4972   -3.8968   24.1589 C   0  0  0  0  0  0  0  0  0  0  0  0
    5.9260   -8.2736   16.5517 C   0  0  0  0  0  0  0  0  0  0  0  0
    3.8816   -9.1166   17.2493 C   0  0  0  0  0  0  0  0  0  0  0  0
   10.1297   -1.6575   23.2324 C   0  0  0  0  0  0  0  0  0  0  0  0
    9.4684   -1.6929   26.7263 F   0  0  0  0  0  0  0  0  0  0  0  0
    7.7963   -7.7906   17.9837 C   0  0  0  0  0  0  0  0  0  0  0  0
   10.5884   -3.0725   16.7902 O   0  0  0  0  0  0  0  0  0  0  0  0
   10.4323   -5.3494   20.3516 C   0  0  0  0  0  0  0  0  0  0  0  0
    7.1156   -7.5454   16.8218 C   0  0  0  0  0  0  0  0  0  0  0  0
   10.3885   -4.4388   19.2773 C   0  0  0  0  0  0  0  0  0  0  0  0
    4.5160   -9.3822   15.0841 C   0  0  0  0  0  0  0  0  0  0  0  0
  1  3  4  0
  1 24  4  0
  2  6  4  0
  2 15  4  0
  3  5  4  0
  3  6  4  0
  4 21  4  0
  4 29  4  0
  5 15  4  0
  5 28  1  0
  6 16  4  0
  7 18  4  0
  7 26  4  0
  8 18  1  0
  8 19  4  0
  8 22  4  0
  9 12  4  0
  9 19  4  0
 10 12  4  0
 10 22  4  0
 11 20  4  0
 11 21  4  0
 12 23  1  0
 13 20  4  0
 13 29  4  0
 14 17  4  0
 14 28  4  0
 15 25  2  0
 16 27  4  0
 17 18  4  0
 20 27  1  0
 24 27  4  0
 26 28  4  0
M  END
$$$$

 Created by Python create_sdf_string function

 29 33  0  0  0  0  0  0  0  0999 V2000
    8.8270   -7.0288   18.4251 C   0  0  0  0  0  0  0  0  0  0  0  0
    9.1576   -4.6236   15.8860 O   0  0  0  0  0  0  0  0  0  0  0  0
    9.1509   -5.9108   17.7177 C   0  0  0  0  0  0  0  0  0  0  0  0
    3.6373   -9.5349   16.0582 N   0  0  0  0  0  0  0  0  0  0  0  0
    9.9275   -4.8001   18.0438 N   0  0  0  0  0  0  0  0  0  0  0  0
    8.5908   -5.7425   16.4412 C   0  0  0  0  0  0  0  0  0  0  0  0
   10.5993   -4.8981   21.6068 C   0  0  0  0  0  0  0  0  0  0  0  0
   10.4258   -3.0106   23.0998 C   0  0  0  0  0  0  0  0  0  0  0  0
   10.2148   -3.4364   25.4200 C   0  0  0  0  0  0  0  0  0  0  0  0
    9.7853   -1.1840   24.4927 C   0  0  0  0  0  0  0  0  0  0  0  0
    5.0276   -8.5227   17.5352 C   0  0  0  0  0  0  0  0  0  0  0  0
    9.8187   -2.0895   25.5800 C   0  0  0  0  0  0  0  0  0  0  0  0
    5.6473   -8.7216   15.3158 C   0  0  0  0  0  0  0  0  0  0  0  0
   10.7581   -3.1233   19.4720 N   0  0  0  0  0  0  0  0  0  0  0  0
    9.9571   -4.0573   16.8866 C   0  0  0  0  0  0  0  0  0  0  0  0
    7.6213   -6.5618   16.0087 C   0  0  0  0  0  0  0  0  0  0  0  0
   10.8583   -2.6527   20.7222 C   0  0  0  0  0  0  0  0  0  0  0  0
   10.6412   -3.5089   21.7936 C   0  0  0  0  0  0  0  0  0  0  0  0
   10.4972   -3.8968   24.1589 C   0  0  0  0  0  0  0  0  0  0  0  0
    5.9260   -8.2736   16.5517 C   0  0  0  0  0  0  0  0  0  0  0  0
    3.8816   -9.1166   17.2493 C   0  0  0  0  0  0  0  0  0  0  0  0
   10.1297   -1.6575   23.2324 C   0  0  0  0  0  0  0  0  0  0  0  0
    9.4684   -1.6929   26.7263 F   0  0  0  0  0  0  0  0  0  0  0  0
    7.7963   -7.7906   17.9837 C   0  0  0  0  0  0  0  0  0  0  0  0
   10.5884   -3.0725   16.7902 O   0  0  0  0  0  0  0  0  0  0  0  0
   10.4323   -5.3494   20.3516 C   0  0  0  0  0  0  0  0  0  0  0  0
    7.1156   -7.5454   16.8218 C   0  0  0  0  0  0  0  0  0  0  0  0
   10.3885   -4.4388   19.2773 C   0  0  0  0  0  0  0  0  0  0  0  0
    4.5160   -9.3822   15.0841 C   0  0  0  0  0  0  0  0  0  0  0  0
  1  3  4  0
  1 24  4  0
  2  6  4  0
  2 15  4  0
  3  5  4  0
  3  6  4  0
  4 21  4  0
  4 29  4  0
  5 15  4  0
  5 28  1  0
  6 16  4  0
  7 18  4  0
  7 26  4  0
  8 18  1  0
  8 19  4  0
  8 22  4  0
  9 12  4  0
  9 19  4  0
 10 12  4  0
 10 22  4  0
 11 20  4  0
 11 21  4  0
 12 23  1  0
 13 20  4  0
 13 29  4  0
 14 17  4  0
 14 28  4  0
 15 25  2  0
 16 27  4  0
 17 18  4  0
 20 27  1  0
 24 27  4  0
 26 28  4  0
M  END
$$$$

 Created by Python create_sdf_string function

 29 33  0  0  0  0  0  0  0  0999 V2000
    8.8270   -7.0288   18.4251 C   0  0  0  0  0  0  0  0  0  0  0  0
    9.1576   -4.6236   15.8860 O   0  0  0  0  0  0  0  0  0  0  0  0
    9.1509   -5.9108   17.7177 C   0  0  0  0  0  0  0  0  0  0  0  0
    3.6373   -9.5349   16.0582 N   0  0  0  0  0  0  0  0  0  0  0  0
    9.9275   -4.8001   18.0438 N   0  0  0  0  0  0  0  0  0  0  0  0
    8.5908   -5.7425   16.4412 C   0  0  0  0  0  0  0  0  0  0  0  0
   10.5993   -4.8981   21.6068 C   0  0  0  0  0  0  0  0  0  0  0  0
   10.4258   -3.0106   23.0998 C   0  0  0  0  0  0  0  0  0  0  0  0
   10.2148   -3.4364   25.4200 C   0  0  0  0  0  0  0  0  0  0  0  0
    9.7853   -1.1840   24.4927 C   0  0  0  0  0  0  0  0  0  0  0  0
    5.0276   -8.5227   17.5352 C   0  0  0  0  0  0  0  0  0  0  0  0
    9.8187   -2.0895   25.5800 C   0  0  0  0  0  0  0  0  0  0  0  0
    5.6473   -8.7216   15.3158 C   0  0  0  0  0  0  0  0  0  0  0  0
   10.7581   -3.1233   19.4720 N   0  0  0  0  0  0  0  0  0  0  0  0
    9.9571   -4.0573   16.8866 C   0  0  0  0  0  0  0  0  0  0  0  0
    7.6213   -6.5618   16.0087 C   0  0  0  0  0  0  0  0  0  0  0  0
   10.8583   -2.6527   20.7222 C   0  0  0  0  0  0  0  0  0  0  0  0
   10.6412   -3.5089   21.7936 C   0  0  0  0  0  0  0  0  0  0  0  0
   10.4972   -3.8968   24.1589 C   0  0  0  0  0  0  0  0  0  0  0  0
    5.9260   -8.2736   16.5517 C   0  0  0  0  0  0  0  0  0  0  0  0
    3.8816   -9.1166   17.2493 C   0  0  0  0  0  0  0  0  0  0  0  0
   10.1297   -1.6575   23.2324 C   0  0  0  0  0  0  0  0  0  0  0  0
    9.4684   -1.6929   26.7263 F   0  0  0  0  0  0  0  0  0  0  0  0
    7.7963   -7.7906   17.9837 C   0  0  0  0  0  0  0  0  0  0  0  0
   10.5884   -3.0725   16.7902 O   0  0  0  0  0  0  0  0  0  0  0  0
   10.4323   -5.3494   20.3516 C   0  0  0  0  0  0  0  0  0  0  0  0
    7.1156   -7.5454   16.8218 C   0  0  0  0  0  0  0  0  0  0  0  0
   10.3885   -4.4388   19.2773 C   0  0  0  0  0  0  0  0  0  0  0  0
    4.5160   -9.3822   15.0841 C   0  0  0  0  0  0  0  0  0  0  0  0
  1  3  4  0
  1 24  4  0
  2  6  4  0
  2 15  4  0
  3  5  4  0
  3  6  4  0
  4 21  4  0
  4 29  4  0
  5 15  4  0
  5 28  1  0
  6 16  4  0
  7 18  4  0
  7 26  4  0
  8 18  1  0
  8 19  4  0
  8 22  4  0
  9 12  4  0
  9 19  4  0
 10 12  4  0
 10 22  4  0
 11 20  4  0
 11 21  4  0
 12 23  1  0
 13 20  4  0
 13 29  4  0
 14 17  4  0
 14 28  4  0
 15 25  2  0
 16 27  4  0
 17 18  4  0
 20 27  1  0
 24 27  4  0
 26 28  4  0
M  END
$$$$

 Created by Python create_sdf_string function

 29 33  0  0  0  0  0  0  0  0999 V2000
    8.8270   -7.0288   18.4251 C   0  0  0  0  0  0  0  0  0  0  0  0
    9.1576   -4.6236   15.8860 O   0  0  0  0  0  0  0  0  0  0  0  0
    9.1509   -5.9108   17.7177 C   0  0  0  0  0  0  0  0  0  0  0  0
    3.6373   -9.5349   16.0582 N   0  0  0  0  0  0  0  0  0  0  0  0
    9.9275   -4.8001   18.0438 N   0  0  0  0  0  0  0  0  0  0  0  0
    8.5908   -5.7425   16.4412 C   0  0  0  0  0  0  0  0  0  0  0  0
   10.5993   -4.8981   21.6068 C   0  0  0  0  0  0  0  0  0  0  0  0
   10.4258   -3.0106   23.0998 C   0  0  0  0  0  0  0  0  0  0  0  0
   10.2148   -3.4364   25.4200 C   0  0  0  0  0  0  0  0  0  0  0  0
    9.7853   -1.1840   24.4927 C   0  0  0  0  0  0  0  0  0  0  0  0
    5.0276   -8.5227   17.5352 C   0  0  0  0  0  0  0  0  0  0  0  0
    9.8187   -2.0895   25.5800 C   0  0  0  0  0  0  0  0  0  0  0  0
    5.6473   -8.7216   15.3158 C   0  0  0  0  0  0  0  0  0  0  0  0
   10.7581   -3.1233   19.4720 N   0  0  0  0  0  0  0  0  0  0  0  0
    9.9571   -4.0573   16.8866 C   0  0  0  0  0  0  0  0  0  0  0  0
    7.6213   -6.5618   16.0087 C   0  0  0  0  0  0  0  0  0  0  0  0
   10.8583   -2.6527   20.7222 C   0  0  0  0  0  0  0  0  0  0  0  0
   10.6412   -3.5089   21.7936 C   0  0  0  0  0  0  0  0  0  0  0  0
   10.4972   -3.8968   24.1589 C   0  0  0  0  0  0  0  0  0  0  0  0
    5.9260   -8.2736   16.5517 C   0  0  0  0  0  0  0  0  0  0  0  0
    3.8816   -9.1166   17.2493 C   0  0  0  0  0  0  0  0  0  0  0  0
   10.1297   -1.6575   23.2324 C   0  0  0  0  0  0  0  0  0  0  0  0
    9.4684   -1.6929   26.7263 F   0  0  0  0  0  0  0  0  0  0  0  0
    7.7963   -7.7906   17.9837 C   0  0  0  0  0  0  0  0  0  0  0  0
   10.5884   -3.0725   16.7902 O   0  0  0  0  0  0  0  0  0  0  0  0
   10.4323   -5.3494   20.3516 C   0  0  0  0  0  0  0  0  0  0  0  0
    7.1156   -7.5454   16.8218 C   0  0  0  0  0  0  0  0  0  0  0  0
   10.3885   -4.4388   19.2773 C   0  0  0  0  0  0  0  0  0  0  0  0
    4.5160   -9.3822   15.0841 C   0  0  0  0  0  0  0  0  0  0  0  0
  1  3  4  0
  1 24  4  0
  2  6  4  0
  2 15  4  0
  3  5  4  0
  3  6  4  0
  4 21  4  0
  4 29  4  0
  5 15  4  0
  5 28  1  0
  6 16  4  0
  7 18  4  0
  7 26  4  0
  8 18  1  0
  8 19  4  0
  8 22  4  0
  9 12  4  0
  9 19  4  0
 10 12  4  0
 10 22  4  0
 11 20  4  0
 11 21  4  0
 12 23  1  0
 13 20  4  0
 13 29  4  0
 14 17  4  0
 14 28  4  0
 15 25  2  0
 16 27  4  0
 17 18  4  0
 20 27  1  0
 24 27  4  0
 26 28  4  0
M  END
$$$$

 Created by Python create_sdf_string function

 29 33  0  0  0  0  0  0  0  0999 V2000
    8.8270   -7.0288   18.4251 C   0  0  0  0  0  0  0  0  0  0  0  0
    9.1576   -4.6236   15.8860 O   0  0  0  0  0  0  0  0  0  0  0  0
    9.1509   -5.9108   17.7177 C   0  0  0  0  0  0  0  0  0  0  0  0
    3.6373   -9.5349   16.0582 N   0  0  0  0  0  0  0  0  0  0  0  0
    9.9275   -4.8001   18.0438 N   0  0  0  0  0  0  0  0  0  0  0  0
    8.5908   -5.7425   16.4412 C   0  0  0  0  0  0  0  0  0  0  0  0
   10.5993   -4.8981   21.6068 C   0  0  0  0  0  0  0  0  0  0  0  0
   10.4258   -3.0106   23.0998 C   0  0  0  0  0  0  0  0  0  0  0  0
   10.2148   -3.4364   25.4200 C   0  0  0  0  0  0  0  0  0  0  0  0
    9.7853   -1.1840   24.4927 C   0  0  0  0  0  0  0  0  0  0  0  0
    5.0276   -8.5227   17.5352 C   0  0  0  0  0  0  0  0  0  0  0  0
    9.8187   -2.0895   25.5800 C   0  0  0  0  0  0  0  0  0  0  0  0
    5.6473   -8.7216   15.3158 C   0  0  0  0  0  0  0  0  0  0  0  0
   10.7581   -3.1233   19.4720 N   0  0  0  0  0  0  0  0  0  0  0  0
    9.9571   -4.0573   16.8866 C   0  0  0  0  0  0  0  0  0  0  0  0
    7.6213   -6.5618   16.0087 C   0  0  0  0  0  0  0  0  0  0  0  0
   10.8583   -2.6527   20.7222 C   0  0  0  0  0  0  0  0  0  0  0  0
   10.6412   -3.5089   21.7936 C   0  0  0  0  0  0  0  0  0  0  0  0
   10.4972   -3.8968   24.1589 C   0  0  0  0  0  0  0  0  0  0  0  0
    5.9260   -8.2736   16.5517 C   0  0  0  0  0  0  0  0  0  0  0  0
    3.8816   -9.1166   17.2493 C   0  0  0  0  0  0  0  0  0  0  0  0
   10.1297   -1.6575   23.2324 C   0  0  0  0  0  0  0  0  0  0  0  0
    9.4684   -1.6929   26.7263 F   0  0  0  0  0  0  0  0  0  0  0  0
    7.7963   -7.7906   17.9837 C   0  0  0  0  0  0  0  0  0  0  0  0
   10.5884   -3.0725   16.7902 O   0  0  0  0  0  0  0  0  0  0  0  0
   10.4323   -5.3494   20.3516 C   0  0  0  0  0  0  0  0  0  0  0  0
    7.1156   -7.5454   16.8218 C   0  0  0  0  0  0  0  0  0  0  0  0
   10.3885   -4.4388   19.2773 C   0  0  0  0  0  0  0  0  0  0  0  0
    4.5160   -9.3822   15.0841 C   0  0  0  0  0  0  0  0  0  0  0  0
  1  3  4  0
  1 24  4  0
  2  6  4  0
  2 15  4  0
  3  5  4  0
  3  6  4  0
  4 21  4  0
  4 29  4  0
  5 15  4  0
  5 28  1  0
  6 16  4  0
  7 18  4  0
  7 26  4  0
  8 18  1  0
  8 19  4  0
  8 22  4  0
  9 12  4  0
  9 19  4  0
 10 12  4  0
 10 22  4  0
 11 20  4  0
 11 21  4  0
 12 23  1  0
 13 20  4  0
 13 29  4  0
 14 17  4  0
 14 28  4  0
 15 25  2  0
 16 27  4  0
 17 18  4  0
 20 27  1  0
 24 27  4  0
 26 28  4  0
M  END
$$$$

 Created by Python create_sdf_string function

 29 33  0  0  0  0  0  0  0  0999 V2000
    8.8270   -7.0288   18.4251 C   0  0  0  0  0  0  0  0  0  0  0  0
    9.1576   -4.6236   15.8860 O   0  0  0  0  0  0  0  0  0  0  0  0
    9.1509   -5.9108   17.7177 C   0  0  0  0  0  0  0  0  0  0  0  0
    3.6373   -9.5349   16.0582 N   0  0  0  0  0  0  0  0  0  0  0  0
    9.9275   -4.8001   18.0438 N   0  0  0  0  0  0  0  0  0  0  0  0
    8.5908   -5.7425   16.4412 C   0  0  0  0  0  0  0  0  0  0  0  0
   10.5993   -4.8981   21.6068 C   0  0  0  0  0  0  0  0  0  0  0  0
   10.4258   -3.0106   23.0998 C   0  0  0  0  0  0  0  0  0  0  0  0
   10.2148   -3.4364   25.4200 C   0  0  0  0  0  0  0  0  0  0  0  0
    9.7853   -1.1840   24.4927 C   0  0  0  0  0  0  0  0  0  0  0  0
    5.0276   -8.5227   17.5352 C   0  0  0  0  0  0  0  0  0  0  0  0
    9.8187   -2.0895   25.5800 C   0  0  0  0  0  0  0  0  0  0  0  0
    5.6473   -8.7216   15.3158 C   0  0  0  0  0  0  0  0  0  0  0  0
   10.7581   -3.1233   19.4720 N   0  0  0  0  0  0  0  0  0  0  0  0
    9.9571   -4.0573   16.8866 C   0  0  0  0  0  0  0  0  0  0  0  0
    7.6213   -6.5618   16.0087 C   0  0  0  0  0  0  0  0  0  0  0  0
   10.8583   -2.6527   20.7222 C   0  0  0  0  0  0  0  0  0  0  0  0
   10.6412   -3.5089   21.7936 C   0  0  0  0  0  0  0  0  0  0  0  0
   10.4972   -3.8968   24.1589 C   0  0  0  0  0  0  0  0  0  0  0  0
    5.9260   -8.2736   16.5517 C   0  0  0  0  0  0  0  0  0  0  0  0
    3.8816   -9.1166   17.2493 C   0  0  0  0  0  0  0  0  0  0  0  0
   10.1297   -1.6575   23.2324 C   0  0  0  0  0  0  0  0  0  0  0  0
    9.4684   -1.6929   26.7263 F   0  0  0  0  0  0  0  0  0  0  0  0
    7.7963   -7.7906   17.9837 C   0  0  0  0  0  0  0  0  0  0  0  0
   10.5884   -3.0725   16.7902 O   0  0  0  0  0  0  0  0  0  0  0  0
   10.4323   -5.3494   20.3516 C   0  0  0  0  0  0  0  0  0  0  0  0
    7.1156   -7.5454   16.8218 C   0  0  0  0  0  0  0  0  0  0  0  0
   10.3885   -4.4388   19.2773 C   0  0  0  0  0  0  0  0  0  0  0  0
    4.5160   -9.3822   15.0841 C   0  0  0  0  0  0  0  0  0  0  0  0
  1  3  4  0
  1 24  4  0
  2  6  4  0
  2 15  4  0
  3  5  4  0
  3  6  4  0
  4 21  4  0
  4 29  4  0
  5 15  4  0
  5 28  1  0
  6 16  4  0
  7 18  4  0
  7 26  4  0
  8 18  1  0
  8 19  4  0
  8 22  4  0
  9 12  4  0
  9 19  4  0
 10 12  4  0
 10 22  4  0
 11 20  4  0
 11 21  4  0
 12 23  1  0
 13 20  4  0
 13 29  4  0
 14 17  4  0
 14 28  4  0
 15 25  2  0
 16 27  4  0
 17 18  4  0
 20 27  1  0
 24 27  4  0
 26 28  4  0
M  END
$$$$

 Created by Python create_sdf_string function

 29 33  0  0  0  0  0  0  0  0999 V2000
    8.8270   -7.0288   18.4251 C   0  0  0  0  0  0  0  0  0  0  0  0
    9.1576   -4.6236   15.8860 O   0  0  0  0  0  0  0  0  0  0  0  0
    9.1509   -5.9108   17.7177 C   0  0  0  0  0  0  0  0  0  0  0  0
    3.6373   -9.5349   16.0582 N   0  0  0  0  0  0  0  0  0  0  0  0
    9.9275   -4.8001   18.0438 N   0  0  0  0  0  0  0  0  0  0  0  0
    8.5908   -5.7425   16.4412 C   0  0  0  0  0  0  0  0  0  0  0  0
   10.5993   -4.8981   21.6068 C   0  0  0  0  0  0  0  0  0  0  0  0
   10.4258   -3.0106   23.0998 C   0  0  0  0  0  0  0  0  0  0  0  0
   10.2148   -3.4364   25.4200 C   0  0  0  0  0  0  0  0  0  0  0  0
    9.7853   -1.1840   24.4927 C   0  0  0  0  0  0  0  0  0  0  0  0
    5.0276   -8.5227   17.5352 C   0  0  0  0  0  0  0  0  0  0  0  0
    9.8187   -2.0895   25.5800 C   0  0  0  0  0  0  0  0  0  0  0  0
    5.6473   -8.7216   15.3158 C   0  0  0  0  0  0  0  0  0  0  0  0
   10.7581   -3.1233   19.4720 N   0  0  0  0  0  0  0  0  0  0  0  0
    9.9571   -4.0573   16.8866 C   0  0  0  0  0  0  0  0  0  0  0  0
    7.6213   -6.5618   16.0087 C   0  0  0  0  0  0  0  0  0  0  0  0
   10.8583   -2.6527   20.7222 C   0  0  0  0  0  0  0  0  0  0  0  0
   10.6412   -3.5089   21.7936 C   0  0  0  0  0  0  0  0  0  0  0  0
   10.4972   -3.8968   24.1589 C   0  0  0  0  0  0  0  0  0  0  0  0
    5.9260   -8.2736   16.5517 C   0  0  0  0  0  0  0  0  0  0  0  0
    3.8816   -9.1166   17.2493 C   0  0  0  0  0  0  0  0  0  0  0  0
   10.1297   -1.6575   23.2324 C   0  0  0  0  0  0  0  0  0  0  0  0
    9.4684   -1.6929   26.7263 F   0  0  0  0  0  0  0  0  0  0  0  0
    7.7963   -7.7906   17.9837 C   0  0  0  0  0  0  0  0  0  0  0  0
   10.5884   -3.0725   16.7902 O   0  0  0  0  0  0  0  0  0  0  0  0
   10.4323   -5.3494   20.3516 C   0  0  0  0  0  0  0  0  0  0  0  0
    7.1156   -7.5454   16.8218 C   0  0  0  0  0  0  0  0  0  0  0  0
   10.3885   -4.4388   19.2773 C   0  0  0  0  0  0  0  0  0  0  0  0
    4.5160   -9.3822   15.0841 C   0  0  0  0  0  0  0  0  0  0  0  0
  1  3  4  0
  1 24  4  0
  2  6  4  0
  2 15  4  0
  3  5  4  0
  3  6  4  0
  4 21  4  0
  4 29  4  0
  5 15  4  0
  5 28  1  0
  6 16  4  0
  7 18  4  0
  7 26  4  0
  8 18  1  0
  8 19  4  0
  8 22  4  0
  9 12  4  0
  9 19  4  0
 10 12  4  0
 10 22  4  0
 11 20  4  0
 11 21  4  0
 12 23  1  0
 13 20  4  0
 13 29  4  0
 14 17  4  0
 14 28  4  0
 15 25  2  0
 16 27  4  0
 17 18  4  0
 20 27  1  0
 24 27  4  0
 26 28  4  0
M  END
$$$$

 Created by Python create_sdf_string function

 29 33  0  0  0  0  0  0  0  0999 V2000
    8.8270   -7.0288   18.4251 C   0  0  0  0  0  0  0  0  0  0  0  0
    9.1576   -4.6236   15.8860 O   0  0  0  0  0  0  0  0  0  0  0  0
    9.1509   -5.9108   17.7177 C   0  0  0  0  0  0  0  0  0  0  0  0
    3.6373   -9.5349   16.0582 N   0  0  0  0  0  0  0  0  0  0  0  0
    9.9275   -4.8001   18.0438 N   0  0  0  0  0  0  0  0  0  0  0  0
    8.5908   -5.7425   16.4412 C   0  0  0  0  0  0  0  0  0  0  0  0
   10.5993   -4.8981   21.6068 C   0  0  0  0  0  0  0  0  0  0  0  0
   10.4258   -3.0106   23.0998 C   0  0  0  0  0  0  0  0  0  0  0  0
   10.2148   -3.4364   25.4200 C   0  0  0  0  0  0  0  0  0  0  0  0
    9.7853   -1.1840   24.4927 C   0  0  0  0  0  0  0  0  0  0  0  0
    5.0276   -8.5227   17.5352 C   0  0  0  0  0  0  0  0  0  0  0  0
    9.8187   -2.0895   25.5800 C   0  0  0  0  0  0  0  0  0  0  0  0
    5.6473   -8.7216   15.3158 C   0  0  0  0  0  0  0  0  0  0  0  0
   10.7581   -3.1233   19.4720 N   0  0  0  0  0  0  0  0  0  0  0  0
    9.9571   -4.0573   16.8866 C   0  0  0  0  0  0  0  0  0  0  0  0
    7.6213   -6.5618   16.0087 C   0  0  0  0  0  0  0  0  0  0  0  0
   10.8583   -2.6527   20.7222 C   0  0  0  0  0  0  0  0  0  0  0  0
   10.6412   -3.5089   21.7936 C   0  0  0  0  0  0  0  0  0  0  0  0
   10.4972   -3.8968   24.1589 C   0  0  0  0  0  0  0  0  0  0  0  0
    5.9260   -8.2736   16.5517 C   0  0  0  0  0  0  0  0  0  0  0  0
    3.8816   -9.1166   17.2493 C   0  0  0  0  0  0  0  0  0  0  0  0
   10.1297   -1.6575   23.2324 C   0  0  0  0  0  0  0  0  0  0  0  0
    9.4684   -1.6929   26.7263 F   0  0  0  0  0  0  0  0  0  0  0  0
    7.7963   -7.7906   17.9837 C   0  0  0  0  0  0  0  0  0  0  0  0
   10.5884   -3.0725   16.7902 O   0  0  0  0  0  0  0  0  0  0  0  0
   10.4323   -5.3494   20.3516 C   0  0  0  0  0  0  0  0  0  0  0  0
    7.1156   -7.5454   16.8218 C   0  0  0  0  0  0  0  0  0  0  0  0
   10.3885   -4.4388   19.2773 C   0  0  0  0  0  0  0  0  0  0  0  0
    4.5160   -9.3822   15.0841 C   0  0  0  0  0  0  0  0  0  0  0  0
  1  3  4  0
  1 24  4  0
  2  6  4  0
  2 15  4  0
  3  5  4  0
  3  6  4  0
  4 21  4  0
  4 29  4  0
  5 15  4  0
  5 28  1  0
  6 16  4  0
  7 18  4  0
  7 26  4  0
  8 18  1  0
  8 19  4  0
  8 22  4  0
  9 12  4  0
  9 19  4  0
 10 12  4  0
 10 22  4  0
 11 20  4  0
 11 21  4  0
 12 23  1  0
 13 20  4  0
 13 29  4  0
 14 17  4  0
 14 28  4  0
 15 25  2  0
 16 27  4  0
 17 18  4  0
 20 27  1  0
 24 27  4  0
 26 28  4  0
M  END
$$$$

 Created by Python create_sdf_string function

 29 33  0  0  0  0  0  0  0  0999 V2000
    8.8270   -7.0288   18.4251 C   0  0  0  0  0  0  0  0  0  0  0  0
    9.1576   -4.6236   15.8860 O   0  0  0  0  0  0  0  0  0  0  0  0
    9.1509   -5.9108   17.7177 C   0  0  0  0  0  0  0  0  0  0  0  0
    3.6373   -9.5349   16.0582 N   0  0  0  0  0  0  0  0  0  0  0  0
    9.9275   -4.8001   18.0438 N   0  0  0  0  0  0  0  0  0  0  0  0
    8.5908   -5.7425   16.4412 C   0  0  0  0  0  0  0  0  0  0  0  0
   10.5993   -4.8981   21.6068 C   0  0  0  0  0  0  0  0  0  0  0  0
   10.4258   -3.0106   23.0998 C   0  0  0  0  0  0  0  0  0  0  0  0
   10.2148   -3.4364   25.4200 C   0  0  0  0  0  0  0  0  0  0  0  0
    9.7853   -1.1840   24.4927 C   0  0  0  0  0  0  0  0  0  0  0  0
    5.0276   -8.5227   17.5352 C   0  0  0  0  0  0  0  0  0  0  0  0
    9.8187   -2.0895   25.5800 C   0  0  0  0  0  0  0  0  0  0  0  0
    5.6473   -8.7216   15.3158 C   0  0  0  0  0  0  0  0  0  0  0  0
   10.7581   -3.1233   19.4720 N   0  0  0  0  0  0  0  0  0  0  0  0
    9.9571   -4.0573   16.8866 C   0  0  0  0  0  0  0  0  0  0  0  0
    7.6213   -6.5618   16.0087 C   0  0  0  0  0  0  0  0  0  0  0  0
   10.8583   -2.6527   20.7222 C   0  0  0  0  0  0  0  0  0  0  0  0
   10.6412   -3.5089   21.7936 C   0  0  0  0  0  0  0  0  0  0  0  0
   10.4972   -3.8968   24.1589 C   0  0  0  0  0  0  0  0  0  0  0  0
    5.9260   -8.2736   16.5517 C   0  0  0  0  0  0  0  0  0  0  0  0
    3.8816   -9.1166   17.2493 C   0  0  0  0  0  0  0  0  0  0  0  0
   10.1297   -1.6575   23.2324 C   0  0  0  0  0  0  0  0  0  0  0  0
    9.4684   -1.6929   26.7263 F   0  0  0  0  0  0  0  0  0  0  0  0
    7.7963   -7.7906   17.9837 C   0  0  0  0  0  0  0  0  0  0  0  0
   10.5884   -3.0725   16.7902 O   0  0  0  0  0  0  0  0  0  0  0  0
   10.4323   -5.3494   20.3516 C   0  0  0  0  0  0  0  0  0  0  0  0
    7.1156   -7.5454   16.8218 C   0  0  0  0  0  0  0  0  0  0  0  0
   10.3885   -4.4388   19.2773 C   0  0  0  0  0  0  0  0  0  0  0  0
    4.5160   -9.3822   15.0841 C   0  0  0  0  0  0  0  0  0  0  0  0
  1  3  4  0
  1 24  4  0
  2  6  4  0
  2 15  4  0
  3  5  4  0
  3  6  4  0
  4 21  4  0
  4 29  4  0
  5 15  4  0
  5 28  1  0
  6 16  4  0
  7 18  4  0
  7 26  4  0
  8 18  1  0
  8 19  4  0
  8 22  4  0
  9 12  4  0
  9 19  4  0
 10 12  4  0
 10 22  4  0
 11 20  4  0
 11 21  4  0
 12 23  1  0
 13 20  4  0
 13 29  4  0
 14 17  4  0
 14 28  4  0
 15 25  2  0
 16 27  4  0
 17 18  4  0
 20 27  1  0
 24 27  4  0
 26 28  4  0
M  END
$$$$

 Created by Python create_sdf_string function

 29 33  0  0  0  0  0  0  0  0999 V2000
    8.8270   -7.0288   18.4251 C   0  0  0  0  0  0  0  0  0  0  0  0
    9.1576   -4.6236   15.8860 O   0  0  0  0  0  0  0  0  0  0  0  0
    9.1509   -5.9108   17.7177 C   0  0  0  0  0  0  0  0  0  0  0  0
    3.6373   -9.5349   16.0582 N   0  0  0  0  0  0  0  0  0  0  0  0
    9.9275   -4.8001   18.0438 N   0  0  0  0  0  0  0  0  0  0  0  0
    8.5908   -5.7425   16.4412 C   0  0  0  0  0  0  0  0  0  0  0  0
   10.5993   -4.8981   21.6068 C   0  0  0  0  0  0  0  0  0  0  0  0
   10.4258   -3.0106   23.0998 C   0  0  0  0  0  0  0  0  0  0  0  0
   10.2148   -3.4364   25.4200 C   0  0  0  0  0  0  0  0  0  0  0  0
    9.7853   -1.1840   24.4927 C   0  0  0  0  0  0  0  0  0  0  0  0
    5.0276   -8.5227   17.5352 C   0  0  0  0  0  0  0  0  0  0  0  0
    9.8187   -2.0895   25.5800 C   0  0  0  0  0  0  0  0  0  0  0  0
    5.6473   -8.7216   15.3158 C   0  0  0  0  0  0  0  0  0  0  0  0
   10.7581   -3.1233   19.4720 N   0  0  0  0  0  0  0  0  0  0  0  0
    9.9571   -4.0573   16.8866 C   0  0  0  0  0  0  0  0  0  0  0  0
    7.6213   -6.5618   16.0087 C   0  0  0  0  0  0  0  0  0  0  0  0
   10.8583   -2.6527   20.7222 C   0  0  0  0  0  0  0  0  0  0  0  0
   10.6412   -3.5089   21.7936 C   0  0  0  0  0  0  0  0  0  0  0  0
   10.4972   -3.8968   24.1589 C   0  0  0  0  0  0  0  0  0  0  0  0
    5.9260   -8.2736   16.5517 C   0  0  0  0  0  0  0  0  0  0  0  0
    3.8816   -9.1166   17.2493 C   0  0  0  0  0  0  0  0  0  0  0  0
   10.1297   -1.6575   23.2324 C   0  0  0  0  0  0  0  0  0  0  0  0
    9.4684   -1.6929   26.7263 F   0  0  0  0  0  0  0  0  0  0  0  0
    7.7963   -7.7906   17.9837 C   0  0  0  0  0  0  0  0  0  0  0  0
   10.5884   -3.0725   16.7902 O   0  0  0  0  0  0  0  0  0  0  0  0
   10.4323   -5.3494   20.3516 C   0  0  0  0  0  0  0  0  0  0  0  0
    7.1156   -7.5454   16.8218 C   0  0  0  0  0  0  0  0  0  0  0  0
   10.3885   -4.4388   19.2773 C   0  0  0  0  0  0  0  0  0  0  0  0
    4.5160   -9.3822   15.0841 C   0  0  0  0  0  0  0  0  0  0  0  0
  1  3  4  0
  1 24  4  0
  2  6  4  0
  2 15  4  0
  3  5  4  0
  3  6  4  0
  4 21  4  0
  4 29  4  0
  5 15  4  0
  5 28  1  0
  6 16  4  0
  7 18  4  0
  7 26  4  0
  8 18  1  0
  8 19  4  0
  8 22  4  0
  9 12  4  0
  9 19  4  0
 10 12  4  0
 10 22  4  0
 11 20  4  0
 11 21  4  0
 12 23  1  0
 13 20  4  0
 13 29  4  0
 14 17  4  0
 14 28  4  0
 15 25  2  0
 16 27  4  0
 17 18  4  0
 20 27  1  0
 24 27  4  0
 26 28  4  0
M  END
$$$$

 Created by Python create_sdf_string function

 29 33  0  0  0  0  0  0  0  0999 V2000
    8.8270   -7.0288   18.4251 C   0  0  0  0  0  0  0  0  0  0  0  0
    9.1576   -4.6236   15.8860 O   0  0  0  0  0  0  0  0  0  0  0  0
    9.1509   -5.9108   17.7177 C   0  0  0  0  0  0  0  0  0  0  0  0
    3.6373   -9.5349   16.0582 N   0  0  0  0  0  0  0  0  0  0  0  0
    9.9275   -4.8001   18.0438 N   0  0  0  0  0  0  0  0  0  0  0  0
    8.5908   -5.7425   16.4412 C   0  0  0  0  0  0  0  0  0  0  0  0
   10.5993   -4.8981   21.6068 C   0  0  0  0  0  0  0  0  0  0  0  0
   10.4258   -3.0106   23.0998 C   0  0  0  0  0  0  0  0  0  0  0  0
   10.2148   -3.4364   25.4200 C   0  0  0  0  0  0  0  0  0  0  0  0
    9.7853   -1.1840   24.4927 C   0  0  0  0  0  0  0  0  0  0  0  0
    5.0276   -8.5227   17.5352 C   0  0  0  0  0  0  0  0  0  0  0  0
    9.8187   -2.0895   25.5800 C   0  0  0  0  0  0  0  0  0  0  0  0
    5.6473   -8.7216   15.3158 C   0  0  0  0  0  0  0  0  0  0  0  0
   10.7581   -3.1233   19.4720 N   0  0  0  0  0  0  0  0  0  0  0  0
    9.9571   -4.0573   16.8866 C   0  0  0  0  0  0  0  0  0  0  0  0
    7.6213   -6.5618   16.0087 C   0  0  0  0  0  0  0  0  0  0  0  0
   10.8583   -2.6527   20.7222 C   0  0  0  0  0  0  0  0  0  0  0  0
   10.6412   -3.5089   21.7936 C   0  0  0  0  0  0  0  0  0  0  0  0
   10.4972   -3.8968   24.1589 C   0  0  0  0  0  0  0  0  0  0  0  0
    5.9260   -8.2736   16.5517 C   0  0  0  0  0  0  0  0  0  0  0  0
    3.8816   -9.1166   17.2493 C   0  0  0  0  0  0  0  0  0  0  0  0
   10.1297   -1.6575   23.2324 C   0  0  0  0  0  0  0  0  0  0  0  0
    9.4684   -1.6929   26.7263 F   0  0  0  0  0  0  0  0  0  0  0  0
    7.7963   -7.7906   17.9837 C   0  0  0  0  0  0  0  0  0  0  0  0
   10.5884   -3.0725   16.7902 O   0  0  0  0  0  0  0  0  0  0  0  0
   10.4323   -5.3494   20.3516 C   0  0  0  0  0  0  0  0  0  0  0  0
    7.1156   -7.5454   16.8218 C   0  0  0  0  0  0  0  0  0  0  0  0
   10.3885   -4.4388   19.2773 C   0  0  0  0  0  0  0  0  0  0  0  0
    4.5160   -9.3822   15.0841 C   0  0  0  0  0  0  0  0  0  0  0  0
  1  3  4  0
  1 24  4  0
  2  6  4  0
  2 15  4  0
  3  5  4  0
  3  6  4  0
  4 21  4  0
  4 29  4  0
  5 15  4  0
  5 28  1  0
  6 16  4  0
  7 18  4  0
  7 26  4  0
  8 18  1  0
  8 19  4  0
  8 22  4  0
  9 12  4  0
  9 19  4  0
 10 12  4  0
 10 22  4  0
 11 20  4  0
 11 21  4  0
 12 23  1  0
 13 20  4  0
 13 29  4  0
 14 17  4  0
 14 28  4  0
 15 25  2  0
 16 27  4  0
 17 18  4  0
 20 27  1  0
 24 27  4  0
 26 28  4  0
M  END
$$$$

 Created by Python create_sdf_string function

 29 33  0  0  0  0  0  0  0  0999 V2000
    8.8270   -7.0288   18.4251 C   0  0  0  0  0  0  0  0  0  0  0  0
    9.1576   -4.6236   15.8860 O   0  0  0  0  0  0  0  0  0  0  0  0
    9.1509   -5.9108   17.7177 C   0  0  0  0  0  0  0  0  0  0  0  0
    3.6373   -9.5349   16.0582 N   0  0  0  0  0  0  0  0  0  0  0  0
    9.9275   -4.8001   18.0438 N   0  0  0  0  0  0  0  0  0  0  0  0
    8.5908   -5.7425   16.4412 C   0  0  0  0  0  0  0  0  0  0  0  0
   10.5993   -4.8981   21.6068 C   0  0  0  0  0  0  0  0  0  0  0  0
   10.4258   -3.0106   23.0998 C   0  0  0  0  0  0  0  0  0  0  0  0
   10.2148   -3.4364   25.4200 C   0  0  0  0  0  0  0  0  0  0  0  0
    9.7853   -1.1840   24.4927 C   0  0  0  0  0  0  0  0  0  0  0  0
    5.0276   -8.5227   17.5352 C   0  0  0  0  0  0  0  0  0  0  0  0
    9.8187   -2.0895   25.5800 C   0  0  0  0  0  0  0  0  0  0  0  0
    5.6473   -8.7216   15.3158 C   0  0  0  0  0  0  0  0  0  0  0  0
   10.7581   -3.1233   19.4720 N   0  0  0  0  0  0  0  0  0  0  0  0
    9.9571   -4.0573   16.8866 C   0  0  0  0  0  0  0  0  0  0  0  0
    7.6213   -6.5618   16.0087 C   0  0  0  0  0  0  0  0  0  0  0  0
   10.8583   -2.6527   20.7222 C   0  0  0  0  0  0  0  0  0  0  0  0
   10.6412   -3.5089   21.7936 C   0  0  0  0  0  0  0  0  0  0  0  0
   10.4972   -3.8968   24.1589 C   0  0  0  0  0  0  0  0  0  0  0  0
    5.9260   -8.2736   16.5517 C   0  0  0  0  0  0  0  0  0  0  0  0
    3.8816   -9.1166   17.2493 C   0  0  0  0  0  0  0  0  0  0  0  0
   10.1297   -1.6575   23.2324 C   0  0  0  0  0  0  0  0  0  0  0  0
    9.4684   -1.6929   26.7263 F   0  0  0  0  0  0  0  0  0  0  0  0
    7.7963   -7.7906   17.9837 C   0  0  0  0  0  0  0  0  0  0  0  0
   10.5884   -3.0725   16.7902 O   0  0  0  0  0  0  0  0  0  0  0  0
   10.4323   -5.3494   20.3516 C   0  0  0  0  0  0  0  0  0  0  0  0
    7.1156   -7.5454   16.8218 C   0  0  0  0  0  0  0  0  0  0  0  0
   10.3885   -4.4388   19.2773 C   0  0  0  0  0  0  0  0  0  0  0  0
    4.5160   -9.3822   15.0841 C   0  0  0  0  0  0  0  0  0  0  0  0
  1  3  4  0
  1 24  4  0
  2  6  4  0
  2 15  4  0
  3  5  4  0
  3  6  4  0
  4 21  4  0
  4 29  4  0
  5 15  4  0
  5 28  1  0
  6 16  4  0
  7 18  4  0
  7 26  4  0
  8 18  1  0
  8 19  4  0
  8 22  4  0
  9 12  4  0
  9 19  4  0
 10 12  4  0
 10 22  4  0
 11 20  4  0
 11 21  4  0
 12 23  1  0
 13 20  4  0
 13 29  4  0
 14 17  4  0
 14 28  4  0
 15 25  2  0
 16 27  4  0
 17 18  4  0
 20 27  1  0
 24 27  4  0
 26 28  4  0
M  END
$$$$

 Created by Python create_sdf_string function

 29 33  0  0  0  0  0  0  0  0999 V2000
    8.8270   -7.0288   18.4251 C   0  0  0  0  0  0  0  0  0  0  0  0
    9.1576   -4.6236   15.8860 O   0  0  0  0  0  0  0  0  0  0  0  0
    9.1509   -5.9108   17.7177 C   0  0  0  0  0  0  0  0  0  0  0  0
    3.6373   -9.5349   16.0582 N   0  0  0  0  0  0  0  0  0  0  0  0
    9.9275   -4.8001   18.0438 N   0  0  0  0  0  0  0  0  0  0  0  0
    8.5908   -5.7425   16.4412 C   0  0  0  0  0  0  0  0  0  0  0  0
   10.5993   -4.8981   21.6068 C   0  0  0  0  0  0  0  0  0  0  0  0
   10.4258   -3.0106   23.0998 C   0  0  0  0  0  0  0  0  0  0  0  0
   10.2148   -3.4364   25.4200 C   0  0  0  0  0  0  0  0  0  0  0  0
    9.7853   -1.1840   24.4927 C   0  0  0  0  0  0  0  0  0  0  0  0
    5.0276   -8.5227   17.5352 C   0  0  0  0  0  0  0  0  0  0  0  0
    9.8187   -2.0895   25.5800 C   0  0  0  0  0  0  0  0  0  0  0  0
    5.6473   -8.7216   15.3158 C   0  0  0  0  0  0  0  0  0  0  0  0
   10.7581   -3.1233   19.4720 N   0  0  0  0  0  0  0  0  0  0  0  0
    9.9571   -4.0573   16.8866 C   0  0  0  0  0  0  0  0  0  0  0  0
    7.6213   -6.5618   16.0087 C   0  0  0  0  0  0  0  0  0  0  0  0
   10.8583   -2.6527   20.7222 C   0  0  0  0  0  0  0  0  0  0  0  0
   10.6412   -3.5089   21.7936 C   0  0  0  0  0  0  0  0  0  0  0  0
   10.4972   -3.8968   24.1589 C   0  0  0  0  0  0  0  0  0  0  0  0
    5.9260   -8.2736   16.5517 C   0  0  0  0  0  0  0  0  0  0  0  0
    3.8816   -9.1166   17.2493 C   0  0  0  0  0  0  0  0  0  0  0  0
   10.1297   -1.6575   23.2324 C   0  0  0  0  0  0  0  0  0  0  0  0
    9.4684   -1.6929   26.7263 F   0  0  0  0  0  0  0  0  0  0  0  0
    7.7963   -7.7906   17.9837 C   0  0  0  0  0  0  0  0  0  0  0  0
   10.5884   -3.0725   16.7902 O   0  0  0  0  0  0  0  0  0  0  0  0
   10.4323   -5.3494   20.3516 C   0  0  0  0  0  0  0  0  0  0  0  0
    7.1156   -7.5454   16.8218 C   0  0  0  0  0  0  0  0  0  0  0  0
   10.3885   -4.4388   19.2773 C   0  0  0  0  0  0  0  0  0  0  0  0
    4.5160   -9.3822   15.0841 C   0  0  0  0  0  0  0  0  0  0  0  0
  1  3  4  0
  1 24  4  0
  2  6  4  0
  2 15  4  0
  3  5  4  0
  3  6  4  0
  4 21  4  0
  4 29  4  0
  5 15  4  0
  5 28  1  0
  6 16  4  0
  7 18  4  0
  7 26  4  0
  8 18  1  0
  8 19  4  0
  8 22  4  0
  9 12  4  0
  9 19  4  0
 10 12  4  0
 10 22  4  0
 11 20  4  0
 11 21  4  0
 12 23  1  0
 13 20  4  0
 13 29  4  0
 14 17  4  0
 14 28  4  0
 15 25  2  0
 16 27  4  0
 17 18  4  0
 20 27  1  0
 24 27  4  0
 26 28  4  0
M  END
$$$$

 Created by Python create_sdf_string function

 29 33  0  0  0  0  0  0  0  0999 V2000
    8.8270   -7.0288   18.4251 C   0  0  0  0  0  0  0  0  0  0  0  0
    9.1576   -4.6236   15.8860 O   0  0  0  0  0  0  0  0  0  0  0  0
    9.1509   -5.9108   17.7177 C   0  0  0  0  0  0  0  0  0  0  0  0
    3.6373   -9.5349   16.0582 N   0  0  0  0  0  0  0  0  0  0  0  0
    9.9275   -4.8001   18.0438 N   0  0  0  0  0  0  0  0  0  0  0  0
    8.5908   -5.7425   16.4412 C   0  0  0  0  0  0  0  0  0  0  0  0
   10.5993   -4.8981   21.6068 C   0  0  0  0  0  0  0  0  0  0  0  0
   10.4258   -3.0106   23.0998 C   0  0  0  0  0  0  0  0  0  0  0  0
   10.2148   -3.4364   25.4200 C   0  0  0  0  0  0  0  0  0  0  0  0
    9.7853   -1.1840   24.4927 C   0  0  0  0  0  0  0  0  0  0  0  0
    5.0276   -8.5227   17.5352 C   0  0  0  0  0  0  0  0  0  0  0  0
    9.8187   -2.0895   25.5800 C   0  0  0  0  0  0  0  0  0  0  0  0
    5.6473   -8.7216   15.3158 C   0  0  0  0  0  0  0  0  0  0  0  0
   10.7581   -3.1233   19.4720 N   0  0  0  0  0  0  0  0  0  0  0  0
    9.9571   -4.0573   16.8866 C   0  0  0  0  0  0  0  0  0  0  0  0
    7.6213   -6.5618   16.0087 C   0  0  0  0  0  0  0  0  0  0  0  0
   10.8583   -2.6527   20.7222 C   0  0  0  0  0  0  0  0  0  0  0  0
   10.6412   -3.5089   21.7936 C   0  0  0  0  0  0  0  0  0  0  0  0
   10.4972   -3.8968   24.1589 C   0  0  0  0  0  0  0  0  0  0  0  0
    5.9260   -8.2736   16.5517 C   0  0  0  0  0  0  0  0  0  0  0  0
    3.8816   -9.1166   17.2493 C   0  0  0  0  0  0  0  0  0  0  0  0
   10.1297   -1.6575   23.2324 C   0  0  0  0  0  0  0  0  0  0  0  0
    9.4684   -1.6929   26.7263 F   0  0  0  0  0  0  0  0  0  0  0  0
    7.7963   -7.7906   17.9837 C   0  0  0  0  0  0  0  0  0  0  0  0
   10.5884   -3.0725   16.7902 O   0  0  0  0  0  0  0  0  0  0  0  0
   10.4323   -5.3494   20.3516 C   0  0  0  0  0  0  0  0  0  0  0  0
    7.1156   -7.5454   16.8218 C   0  0  0  0  0  0  0  0  0  0  0  0
   10.3885   -4.4388   19.2773 C   0  0  0  0  0  0  0  0  0  0  0  0
    4.5160   -9.3822   15.0841 C   0  0  0  0  0  0  0  0  0  0  0  0
  1  3  4  0
  1 24  4  0
  2  6  4  0
  2 15  4  0
  3  5  4  0
  3  6  4  0
  4 21  4  0
  4 29  4  0
  5 15  4  0
  5 28  1  0
  6 16  4  0
  7 18  4  0
  7 26  4  0
  8 18  1  0
  8 19  4  0
  8 22  4  0
  9 12  4  0
  9 19  4  0
 10 12  4  0
 10 22  4  0
 11 20  4  0
 11 21  4  0
 12 23  1  0
 13 20  4  0
 13 29  4  0
 14 17  4  0
 14 28  4  0
 15 25  2  0
 16 27  4  0
 17 18  4  0
 20 27  1  0
 24 27  4  0
 26 28  4  0
M  END
$$$$

 Created by Python create_sdf_string function

 29 33  0  0  0  0  0  0  0  0999 V2000
    8.8270   -7.0288   18.4251 C   0  0  0  0  0  0  0  0  0  0  0  0
    9.1576   -4.6236   15.8860 O   0  0  0  0  0  0  0  0  0  0  0  0
    9.1509   -5.9108   17.7177 C   0  0  0  0  0  0  0  0  0  0  0  0
    3.6373   -9.5349   16.0582 N   0  0  0  0  0  0  0  0  0  0  0  0
    9.9275   -4.8001   18.0438 N   0  0  0  0  0  0  0  0  0  0  0  0
    8.5908   -5.7425   16.4412 C   0  0  0  0  0  0  0  0  0  0  0  0
   10.5993   -4.8981   21.6068 C   0  0  0  0  0  0  0  0  0  0  0  0
   10.4258   -3.0106   23.0998 C   0  0  0  0  0  0  0  0  0  0  0  0
   10.2148   -3.4364   25.4200 C   0  0  0  0  0  0  0  0  0  0  0  0
    9.7853   -1.1840   24.4927 C   0  0  0  0  0  0  0  0  0  0  0  0
    5.0276   -8.5227   17.5352 C   0  0  0  0  0  0  0  0  0  0  0  0
    9.8187   -2.0895   25.5800 C   0  0  0  0  0  0  0  0  0  0  0  0
    5.6473   -8.7216   15.3158 C   0  0  0  0  0  0  0  0  0  0  0  0
   10.7581   -3.1233   19.4720 N   0  0  0  0  0  0  0  0  0  0  0  0
    9.9571   -4.0573   16.8866 C   0  0  0  0  0  0  0  0  0  0  0  0
    7.6213   -6.5618   16.0087 C   0  0  0  0  0  0  0  0  0  0  0  0
   10.8583   -2.6527   20.7222 C   0  0  0  0  0  0  0  0  0  0  0  0
   10.6412   -3.5089   21.7936 C   0  0  0  0  0  0  0  0  0  0  0  0
   10.4972   -3.8968   24.1589 C   0  0  0  0  0  0  0  0  0  0  0  0
    5.9260   -8.2736   16.5517 C   0  0  0  0  0  0  0  0  0  0  0  0
    3.8816   -9.1166   17.2493 C   0  0  0  0  0  0  0  0  0  0  0  0
   10.1297   -1.6575   23.2324 C   0  0  0  0  0  0  0  0  0  0  0  0
    9.4684   -1.6929   26.7263 F   0  0  0  0  0  0  0  0  0  0  0  0
    7.7963   -7.7906   17.9837 C   0  0  0  0  0  0  0  0  0  0  0  0
   10.5884   -3.0725   16.7902 O   0  0  0  0  0  0  0  0  0  0  0  0
   10.4323   -5.3494   20.3516 C   0  0  0  0  0  0  0  0  0  0  0  0
    7.1156   -7.5454   16.8218 C   0  0  0  0  0  0  0  0  0  0  0  0
   10.3885   -4.4388   19.2773 C   0  0  0  0  0  0  0  0  0  0  0  0
    4.5160   -9.3822   15.0841 C   0  0  0  0  0  0  0  0  0  0  0  0
  1  3  4  0
  1 24  4  0
  2  6  4  0
  2 15  4  0
  3  5  4  0
  3  6  4  0
  4 21  4  0
  4 29  4  0
  5 15  4  0
  5 28  1  0
  6 16  4  0
  7 18  4  0
  7 26  4  0
  8 18  1  0
  8 19  4  0
  8 22  4  0
  9 12  4  0
  9 19  4  0
 10 12  4  0
 10 22  4  0
 11 20  4  0
 11 21  4  0
 12 23  1  0
 13 20  4  0
 13 29  4  0
 14 17  4  0
 14 28  4  0
 15 25  2  0
 16 27  4  0
 17 18  4  0
 20 27  1  0
 24 27  4  0
 26 28  4  0
M  END
$$$$

 Created by Python create_sdf_string function

 29 33  0  0  0  0  0  0  0  0999 V2000
    8.8270   -7.0288   18.4251 C   0  0  0  0  0  0  0  0  0  0  0  0
    9.1576   -4.6236   15.8860 O   0  0  0  0  0  0  0  0  0  0  0  0
    9.1509   -5.9108   17.7177 C   0  0  0  0  0  0  0  0  0  0  0  0
    3.6373   -9.5349   16.0582 N   0  0  0  0  0  0  0  0  0  0  0  0
    9.9275   -4.8001   18.0438 N   0  0  0  0  0  0  0  0  0  0  0  0
    8.5908   -5.7425   16.4412 C   0  0  0  0  0  0  0  0  0  0  0  0
   10.5993   -4.8981   21.6068 C   0  0  0  0  0  0  0  0  0  0  0  0
   10.4258   -3.0106   23.0998 C   0  0  0  0  0  0  0  0  0  0  0  0
   10.2148   -3.4364   25.4200 C   0  0  0  0  0  0  0  0  0  0  0  0
    9.7853   -1.1840   24.4927 C   0  0  0  0  0  0  0  0  0  0  0  0
    5.0276   -8.5227   17.5352 C   0  0  0  0  0  0  0  0  0  0  0  0
    9.8187   -2.0895   25.5800 C   0  0  0  0  0  0  0  0  0  0  0  0
    5.6473   -8.7216   15.3158 C   0  0  0  0  0  0  0  0  0  0  0  0
   10.7581   -3.1233   19.4720 N   0  0  0  0  0  0  0  0  0  0  0  0
    9.9571   -4.0573   16.8866 C   0  0  0  0  0  0  0  0  0  0  0  0
    7.6213   -6.5618   16.0087 C   0  0  0  0  0  0  0  0  0  0  0  0
   10.8583   -2.6527   20.7222 C   0  0  0  0  0  0  0  0  0  0  0  0
   10.6412   -3.5089   21.7936 C   0  0  0  0  0  0  0  0  0  0  0  0
   10.4972   -3.8968   24.1589 C   0  0  0  0  0  0  0  0  0  0  0  0
    5.9260   -8.2736   16.5517 C   0  0  0  0  0  0  0  0  0  0  0  0
    3.8816   -9.1166   17.2493 C   0  0  0  0  0  0  0  0  0  0  0  0
   10.1297   -1.6575   23.2324 C   0  0  0  0  0  0  0  0  0  0  0  0
    9.4684   -1.6929   26.7263 F   0  0  0  0  0  0  0  0  0  0  0  0
    7.7963   -7.7906   17.9837 C   0  0  0  0  0  0  0  0  0  0  0  0
   10.5884   -3.0725   16.7902 O   0  0  0  0  0  0  0  0  0  0  0  0
   10.4323   -5.3494   20.3516 C   0  0  0  0  0  0  0  0  0  0  0  0
    7.1156   -7.5454   16.8218 C   0  0  0  0  0  0  0  0  0  0  0  0
   10.3885   -4.4388   19.2773 C   0  0  0  0  0  0  0  0  0  0  0  0
    4.5160   -9.3822   15.0841 C   0  0  0  0  0  0  0  0  0  0  0  0
  1  3  4  0
  1 24  4  0
  2  6  4  0
  2 15  4  0
  3  5  4  0
  3  6  4  0
  4 21  4  0
  4 29  4  0
  5 15  4  0
  5 28  1  0
  6 16  4  0
  7 18  4  0
  7 26  4  0
  8 18  1  0
  8 19  4  0
  8 22  4  0
  9 12  4  0
  9 19  4  0
 10 12  4  0
 10 22  4  0
 11 20  4  0
 11 21  4  0
 12 23  1  0
 13 20  4  0
 13 29  4  0
 14 17  4  0
 14 28  4  0
 15 25  2  0
 16 27  4  0
 17 18  4  0
 20 27  1  0
 24 27  4  0
 26 28  4  0
M  END
$$$$

 Created by Python create_sdf_string function

 29 33  0  0  0  0  0  0  0  0999 V2000
    8.8270   -7.0288   18.4251 C   0  0  0  0  0  0  0  0  0  0  0  0
    9.1576   -4.6236   15.8860 O   0  0  0  0  0  0  0  0  0  0  0  0
    9.1509   -5.9108   17.7177 C   0  0  0  0  0  0  0  0  0  0  0  0
    3.6373   -9.5349   16.0582 N   0  0  0  0  0  0  0  0  0  0  0  0
    9.9275   -4.8001   18.0438 N   0  0  0  0  0  0  0  0  0  0  0  0
    8.5908   -5.7425   16.4412 C   0  0  0  0  0  0  0  0  0  0  0  0
   10.5993   -4.8981   21.6068 C   0  0  0  0  0  0  0  0  0  0  0  0
   10.4258   -3.0106   23.0998 C   0  0  0  0  0  0  0  0  0  0  0  0
   10.2148   -3.4364   25.4200 C   0  0  0  0  0  0  0  0  0  0  0  0
    9.7853   -1.1840   24.4927 C   0  0  0  0  0  0  0  0  0  0  0  0
    5.0276   -8.5227   17.5352 C   0  0  0  0  0  0  0  0  0  0  0  0
    9.8187   -2.0895   25.5800 C   0  0  0  0  0  0  0  0  0  0  0  0
    5.6473   -8.7216   15.3158 C   0  0  0  0  0  0  0  0  0  0  0  0
   10.7581   -3.1233   19.4720 N   0  0  0  0  0  0  0  0  0  0  0  0
    9.9571   -4.0573   16.8866 C   0  0  0  0  0  0  0  0  0  0  0  0
    7.6213   -6.5618   16.0087 C   0  0  0  0  0  0  0  0  0  0  0  0
   10.8583   -2.6527   20.7222 C   0  0  0  0  0  0  0  0  0  0  0  0
   10.6412   -3.5089   21.7936 C   0  0  0  0  0  0  0  0  0  0  0  0
   10.4972   -3.8968   24.1589 C   0  0  0  0  0  0  0  0  0  0  0  0
    5.9260   -8.2736   16.5517 C   0  0  0  0  0  0  0  0  0  0  0  0
    3.8816   -9.1166   17.2493 C   0  0  0  0  0  0  0  0  0  0  0  0
   10.1297   -1.6575   23.2324 C   0  0  0  0  0  0  0  0  0  0  0  0
    9.4684   -1.6929   26.7263 F   0  0  0  0  0  0  0  0  0  0  0  0
    7.7963   -7.7906   17.9837 C   0  0  0  0  0  0  0  0  0  0  0  0
   10.5884   -3.0725   16.7902 O   0  0  0  0  0  0  0  0  0  0  0  0
   10.4323   -5.3494   20.3516 C   0  0  0  0  0  0  0  0  0  0  0  0
    7.1156   -7.5454   16.8218 C   0  0  0  0  0  0  0  0  0  0  0  0
   10.3885   -4.4388   19.2773 C   0  0  0  0  0  0  0  0  0  0  0  0
    4.5160   -9.3822   15.0841 C   0  0  0  0  0  0  0  0  0  0  0  0
  1  3  4  0
  1 24  4  0
  2  6  4  0
  2 15  4  0
  3  5  4  0
  3  6  4  0
  4 21  4  0
  4 29  4  0
  5 15  4  0
  5 28  1  0
  6 16  4  0
  7 18  4  0
  7 26  4  0
  8 18  1  0
  8 19  4  0
  8 22  4  0
  9 12  4  0
  9 19  4  0
 10 12  4  0
 10 22  4  0
 11 20  4  0
 11 21  4  0
 12 23  1  0
 13 20  4  0
 13 29  4  0
 14 17  4  0
 14 28  4  0
 15 25  2  0
 16 27  4  0
 17 18  4  0
 20 27  1  0
 24 27  4  0
 26 28  4  0
M  END
$$$$

 Created by Python create_sdf_string function

 29 33  0  0  0  0  0  0  0  0999 V2000
    8.8270   -7.0288   18.4251 C   0  0  0  0  0  0  0  0  0  0  0  0
    9.1576   -4.6236   15.8860 O   0  0  0  0  0  0  0  0  0  0  0  0
    9.1509   -5.9108   17.7177 C   0  0  0  0  0  0  0  0  0  0  0  0
    3.6373   -9.5349   16.0582 N   0  0  0  0  0  0  0  0  0  0  0  0
    9.9275   -4.8001   18.0438 N   0  0  0  0  0  0  0  0  0  0  0  0
    8.5908   -5.7425   16.4412 C   0  0  0  0  0  0  0  0  0  0  0  0
   10.5993   -4.8981   21.6068 C   0  0  0  0  0  0  0  0  0  0  0  0
   10.4258   -3.0106   23.0998 C   0  0  0  0  0  0  0  0  0  0  0  0
   10.2148   -3.4364   25.4200 C   0  0  0  0  0  0  0  0  0  0  0  0
    9.7853   -1.1840   24.4927 C   0  0  0  0  0  0  0  0  0  0  0  0
    5.0276   -8.5227   17.5352 C   0  0  0  0  0  0  0  0  0  0  0  0
    9.8187   -2.0895   25.5800 C   0  0  0  0  0  0  0  0  0  0  0  0
    5.6473   -8.7216   15.3158 C   0  0  0  0  0  0  0  0  0  0  0  0
   10.7581   -3.1233   19.4720 N   0  0  0  0  0  0  0  0  0  0  0  0
    9.9571   -4.0573   16.8866 C   0  0  0  0  0  0  0  0  0  0  0  0
    7.6213   -6.5618   16.0087 C   0  0  0  0  0  0  0  0  0  0  0  0
   10.8583   -2.6527   20.7222 C   0  0  0  0  0  0  0  0  0  0  0  0
   10.6412   -3.5089   21.7936 C   0  0  0  0  0  0  0  0  0  0  0  0
   10.4972   -3.8968   24.1589 C   0  0  0  0  0  0  0  0  0  0  0  0
    5.9260   -8.2736   16.5517 C   0  0  0  0  0  0  0  0  0  0  0  0
    3.8816   -9.1166   17.2493 C   0  0  0  0  0  0  0  0  0  0  0  0
   10.1297   -1.6575   23.2324 C   0  0  0  0  0  0  0  0  0  0  0  0
    9.4684   -1.6929   26.7263 F   0  0  0  0  0  0  0  0  0  0  0  0
    7.7963   -7.7906   17.9837 C   0  0  0  0  0  0  0  0  0  0  0  0
   10.5884   -3.0725   16.7902 O   0  0  0  0  0  0  0  0  0  0  0  0
   10.4323   -5.3494   20.3516 C   0  0  0  0  0  0  0  0  0  0  0  0
    7.1156   -7.5454   16.8218 C   0  0  0  0  0  0  0  0  0  0  0  0
   10.3885   -4.4388   19.2773 C   0  0  0  0  0  0  0  0  0  0  0  0
    4.5160   -9.3822   15.0841 C   0  0  0  0  0  0  0  0  0  0  0  0
  1  3  4  0
  1 24  4  0
  2  6  4  0
  2 15  4  0
  3  5  4  0
  3  6  4  0
  4 21  4  0
  4 29  4  0
  5 15  4  0
  5 28  1  0
  6 16  4  0
  7 18  4  0
  7 26  4  0
  8 18  1  0
  8 19  4  0
  8 22  4  0
  9 12  4  0
  9 19  4  0
 10 12  4  0
 10 22  4  0
 11 20  4  0
 11 21  4  0
 12 23  1  0
 13 20  4  0
 13 29  4  0
 14 17  4  0
 14 28  4  0
 15 25  2  0
 16 27  4  0
 17 18  4  0
 20 27  1  0
 24 27  4  0
 26 28  4  0
M  END
$$$$

 Created by Python create_sdf_string function

 29 33  0  0  0  0  0  0  0  0999 V2000
    8.8270   -7.0288   18.4251 C   0  0  0  0  0  0  0  0  0  0  0  0
    9.1576   -4.6236   15.8860 O   0  0  0  0  0  0  0  0  0  0  0  0
    9.1509   -5.9108   17.7177 C   0  0  0  0  0  0  0  0  0  0  0  0
    3.6373   -9.5349   16.0582 N   0  0  0  0  0  0  0  0  0  0  0  0
    9.9275   -4.8001   18.0438 N   0  0  0  0  0  0  0  0  0  0  0  0
    8.5908   -5.7425   16.4412 C   0  0  0  0  0  0  0  0  0  0  0  0
   10.5993   -4.8981   21.6068 C   0  0  0  0  0  0  0  0  0  0  0  0
   10.4258   -3.0106   23.0998 C   0  0  0  0  0  0  0  0  0  0  0  0
   10.2148   -3.4364   25.4200 C   0  0  0  0  0  0  0  0  0  0  0  0
    9.7853   -1.1840   24.4927 C   0  0  0  0  0  0  0  0  0  0  0  0
    5.0276   -8.5227   17.5352 C   0  0  0  0  0  0  0  0  0  0  0  0
    9.8187   -2.0895   25.5800 C   0  0  0  0  0  0  0  0  0  0  0  0
    5.6473   -8.7216   15.3158 C   0  0  0  0  0  0  0  0  0  0  0  0
   10.7581   -3.1233   19.4720 N   0  0  0  0  0  0  0  0  0  0  0  0
    9.9571   -4.0573   16.8866 C   0  0  0  0  0  0  0  0  0  0  0  0
    7.6213   -6.5618   16.0087 C   0  0  0  0  0  0  0  0  0  0  0  0
   10.8583   -2.6527   20.7222 C   0  0  0  0  0  0  0  0  0  0  0  0
   10.6412   -3.5089   21.7936 C   0  0  0  0  0  0  0  0  0  0  0  0
   10.4972   -3.8968   24.1589 C   0  0  0  0  0  0  0  0  0  0  0  0
    5.9260   -8.2736   16.5517 C   0  0  0  0  0  0  0  0  0  0  0  0
    3.8816   -9.1166   17.2493 C   0  0  0  0  0  0  0  0  0  0  0  0
   10.1297   -1.6575   23.2324 C   0  0  0  0  0  0  0  0  0  0  0  0
    9.4684   -1.6929   26.7263 F   0  0  0  0  0  0  0  0  0  0  0  0
    7.7963   -7.7906   17.9837 C   0  0  0  0  0  0  0  0  0  0  0  0
   10.5884   -3.0725   16.7902 O   0  0  0  0  0  0  0  0  0  0  0  0
   10.4323   -5.3494   20.3516 C   0  0  0  0  0  0  0  0  0  0  0  0
    7.1156   -7.5454   16.8218 C   0  0  0  0  0  0  0  0  0  0  0  0
   10.3885   -4.4388   19.2773 C   0  0  0  0  0  0  0  0  0  0  0  0
    4.5160   -9.3822   15.0841 C   0  0  0  0  0  0  0  0  0  0  0  0
  1  3  4  0
  1 24  4  0
  2  6  4  0
  2 15  4  0
  3  5  4  0
  3  6  4  0
  4 21  4  0
  4 29  4  0
  5 15  4  0
  5 28  1  0
  6 16  4  0
  7 18  4  0
  7 26  4  0
  8 18  1  0
  8 19  4  0
  8 22  4  0
  9 12  4  0
  9 19  4  0
 10 12  4  0
 10 22  4  0
 11 20  4  0
 11 21  4  0
 12 23  1  0
 13 20  4  0
 13 29  4  0
 14 17  4  0
 14 28  4  0
 15 25  2  0
 16 27  4  0
 17 18  4  0
 20 27  1  0
 24 27  4  0
 26 28  4  0
M  END
$$$$

 Created by Python create_sdf_string function

 29 33  0  0  0  0  0  0  0  0999 V2000
    8.8270   -7.0288   18.4251 C   0  0  0  0  0  0  0  0  0  0  0  0
    9.1576   -4.6236   15.8860 O   0  0  0  0  0  0  0  0  0  0  0  0
    9.1509   -5.9108   17.7177 C   0  0  0  0  0  0  0  0  0  0  0  0
    3.6373   -9.5349   16.0582 N   0  0  0  0  0  0  0  0  0  0  0  0
    9.9275   -4.8001   18.0438 N   0  0  0  0  0  0  0  0  0  0  0  0
    8.5908   -5.7425   16.4412 C   0  0  0  0  0  0  0  0  0  0  0  0
   10.5993   -4.8981   21.6068 C   0  0  0  0  0  0  0  0  0  0  0  0
   10.4258   -3.0106   23.0998 C   0  0  0  0  0  0  0  0  0  0  0  0
   10.2148   -3.4364   25.4200 C   0  0  0  0  0  0  0  0  0  0  0  0
    9.7853   -1.1840   24.4927 C   0  0  0  0  0  0  0  0  0  0  0  0
    5.0276   -8.5227   17.5352 C   0  0  0  0  0  0  0  0  0  0  0  0
    9.8187   -2.0895   25.5800 C   0  0  0  0  0  0  0  0  0  0  0  0
    5.6473   -8.7216   15.3158 C   0  0  0  0  0  0  0  0  0  0  0  0
   10.7581   -3.1233   19.4720 N   0  0  0  0  0  0  0  0  0  0  0  0
    9.9571   -4.0573   16.8866 C   0  0  0  0  0  0  0  0  0  0  0  0
    7.6213   -6.5618   16.0087 C   0  0  0  0  0  0  0  0  0  0  0  0
   10.8583   -2.6527   20.7222 C   0  0  0  0  0  0  0  0  0  0  0  0
   10.6412   -3.5089   21.7936 C   0  0  0  0  0  0  0  0  0  0  0  0
   10.4972   -3.8968   24.1589 C   0  0  0  0  0  0  0  0  0  0  0  0
    5.9260   -8.2736   16.5517 C   0  0  0  0  0  0  0  0  0  0  0  0
    3.8816   -9.1166   17.2493 C   0  0  0  0  0  0  0  0  0  0  0  0
   10.1297   -1.6575   23.2324 C   0  0  0  0  0  0  0  0  0  0  0  0
    9.4684   -1.6929   26.7263 F   0  0  0  0  0  0  0  0  0  0  0  0
    7.7963   -7.7906   17.9837 C   0  0  0  0  0  0  0  0  0  0  0  0
   10.5884   -3.0725   16.7902 O   0  0  0  0  0  0  0  0  0  0  0  0
   10.4323   -5.3494   20.3516 C   0  0  0  0  0  0  0  0  0  0  0  0
    7.1156   -7.5454   16.8218 C   0  0  0  0  0  0  0  0  0  0  0  0
   10.3885   -4.4388   19.2773 C   0  0  0  0  0  0  0  0  0  0  0  0
    4.5160   -9.3822   15.0841 C   0  0  0  0  0  0  0  0  0  0  0  0
  1  3  4  0
  1 24  4  0
  2  6  4  0
  2 15  4  0
  3  5  4  0
  3  6  4  0
  4 21  4  0
  4 29  4  0
  5 15  4  0
  5 28  1  0
  6 16  4  0
  7 18  4  0
  7 26  4  0
  8 18  1  0
  8 19  4  0
  8 22  4  0
  9 12  4  0
  9 19  4  0
 10 12  4  0
 10 22  4  0
 11 20  4  0
 11 21  4  0
 12 23  1  0
 13 20  4  0
 13 29  4  0
 14 17  4  0
 14 28  4  0
 15 25  2  0
 16 27  4  0
 17 18  4  0
 20 27  1  0
 24 27  4  0
 26 28  4  0
M  END
$$$$

 Created by Python create_sdf_string function

 29 33  0  0  0  0  0  0  0  0999 V2000
    8.8270   -7.0288   18.4251 C   0  0  0  0  0  0  0  0  0  0  0  0
    9.1576   -4.6236   15.8860 O   0  0  0  0  0  0  0  0  0  0  0  0
    9.1509   -5.9108   17.7177 C   0  0  0  0  0  0  0  0  0  0  0  0
    3.6373   -9.5349   16.0582 N   0  0  0  0  0  0  0  0  0  0  0  0
    9.9275   -4.8001   18.0438 N   0  0  0  0  0  0  0  0  0  0  0  0
    8.5908   -5.7425   16.4412 C   0  0  0  0  0  0  0  0  0  0  0  0
   10.5993   -4.8981   21.6068 C   0  0  0  0  0  0  0  0  0  0  0  0
   10.4258   -3.0106   23.0998 C   0  0  0  0  0  0  0  0  0  0  0  0
   10.2148   -3.4364   25.4200 C   0  0  0  0  0  0  0  0  0  0  0  0
    9.7853   -1.1840   24.4927 C   0  0  0  0  0  0  0  0  0  0  0  0
    5.0276   -8.5227   17.5352 C   0  0  0  0  0  0  0  0  0  0  0  0
    9.8187   -2.0895   25.5800 C   0  0  0  0  0  0  0  0  0  0  0  0
    5.6473   -8.7216   15.3158 C   0  0  0  0  0  0  0  0  0  0  0  0
   10.7581   -3.1233   19.4720 N   0  0  0  0  0  0  0  0  0  0  0  0
    9.9571   -4.0573   16.8866 C   0  0  0  0  0  0  0  0  0  0  0  0
    7.6213   -6.5618   16.0087 C   0  0  0  0  0  0  0  0  0  0  0  0
   10.8583   -2.6527   20.7222 C   0  0  0  0  0  0  0  0  0  0  0  0
   10.6412   -3.5089   21.7936 C   0  0  0  0  0  0  0  0  0  0  0  0
   10.4972   -3.8968   24.1589 C   0  0  0  0  0  0  0  0  0  0  0  0
    5.9260   -8.2736   16.5517 C   0  0  0  0  0  0  0  0  0  0  0  0
    3.8816   -9.1166   17.2493 C   0  0  0  0  0  0  0  0  0  0  0  0
   10.1297   -1.6575   23.2324 C   0  0  0  0  0  0  0  0  0  0  0  0
    9.4684   -1.6929   26.7263 F   0  0  0  0  0  0  0  0  0  0  0  0
    7.7963   -7.7906   17.9837 C   0  0  0  0  0  0  0  0  0  0  0  0
   10.5884   -3.0725   16.7902 O   0  0  0  0  0  0  0  0  0  0  0  0
   10.4323   -5.3494   20.3516 C   0  0  0  0  0  0  0  0  0  0  0  0
    7.1156   -7.5454   16.8218 C   0  0  0  0  0  0  0  0  0  0  0  0
   10.3885   -4.4388   19.2773 C   0  0  0  0  0  0  0  0  0  0  0  0
    4.5160   -9.3822   15.0841 C   0  0  0  0  0  0  0  0  0  0  0  0
  1  3  4  0
  1 24  4  0
  2  6  4  0
  2 15  4  0
  3  5  4  0
  3  6  4  0
  4 21  4  0
  4 29  4  0
  5 15  4  0
  5 28  1  0
  6 16  4  0
  7 18  4  0
  7 26  4  0
  8 18  1  0
  8 19  4  0
  8 22  4  0
  9 12  4  0
  9 19  4  0
 10 12  4  0
 10 22  4  0
 11 20  4  0
 11 21  4  0
 12 23  1  0
 13 20  4  0
 13 29  4  0
 14 17  4  0
 14 28  4  0
 15 25  2  0
 16 27  4  0
 17 18  4  0
 20 27  1  0
 24 27  4  0
 26 28  4  0
M  END
$$$$

 Created by Python create_sdf_string function

 29 33  0  0  0  0  0  0  0  0999 V2000
    8.8270   -7.0288   18.4251 C   0  0  0  0  0  0  0  0  0  0  0  0
    9.1576   -4.6236   15.8860 O   0  0  0  0  0  0  0  0  0  0  0  0
    9.1509   -5.9108   17.7177 C   0  0  0  0  0  0  0  0  0  0  0  0
    3.6373   -9.5349   16.0582 N   0  0  0  0  0  0  0  0  0  0  0  0
    9.9275   -4.8001   18.0438 N   0  0  0  0  0  0  0  0  0  0  0  0
    8.5908   -5.7425   16.4412 C   0  0  0  0  0  0  0  0  0  0  0  0
   10.5993   -4.8981   21.6068 C   0  0  0  0  0  0  0  0  0  0  0  0
   10.4258   -3.0106   23.0998 C   0  0  0  0  0  0  0  0  0  0  0  0
   10.2148   -3.4364   25.4200 C   0  0  0  0  0  0  0  0  0  0  0  0
    9.7853   -1.1840   24.4927 C   0  0  0  0  0  0  0  0  0  0  0  0
    5.0276   -8.5227   17.5352 C   0  0  0  0  0  0  0  0  0  0  0  0
    9.8187   -2.0895   25.5800 C   0  0  0  0  0  0  0  0  0  0  0  0
    5.6473   -8.7216   15.3158 C   0  0  0  0  0  0  0  0  0  0  0  0
   10.7581   -3.1233   19.4720 N   0  0  0  0  0  0  0  0  0  0  0  0
    9.9571   -4.0573   16.8866 C   0  0  0  0  0  0  0  0  0  0  0  0
    7.6213   -6.5618   16.0087 C   0  0  0  0  0  0  0  0  0  0  0  0
   10.8583   -2.6527   20.7222 C   0  0  0  0  0  0  0  0  0  0  0  0
   10.6412   -3.5089   21.7936 C   0  0  0  0  0  0  0  0  0  0  0  0
   10.4972   -3.8968   24.1589 C   0  0  0  0  0  0  0  0  0  0  0  0
    5.9260   -8.2736   16.5517 C   0  0  0  0  0  0  0  0  0  0  0  0
    3.8816   -9.1166   17.2493 C   0  0  0  0  0  0  0  0  0  0  0  0
   10.1297   -1.6575   23.2324 C   0  0  0  0  0  0  0  0  0  0  0  0
    9.4684   -1.6929   26.7263 F   0  0  0  0  0  0  0  0  0  0  0  0
    7.7963   -7.7906   17.9837 C   0  0  0  0  0  0  0  0  0  0  0  0
   10.5884   -3.0725   16.7902 O   0  0  0  0  0  0  0  0  0  0  0  0
   10.4323   -5.3494   20.3516 C   0  0  0  0  0  0  0  0  0  0  0  0
    7.1156   -7.5454   16.8218 C   0  0  0  0  0  0  0  0  0  0  0  0
   10.3885   -4.4388   19.2773 C   0  0  0  0  0  0  0  0  0  0  0  0
    4.5160   -9.3822   15.0841 C   0  0  0  0  0  0  0  0  0  0  0  0
  1  3  4  0
  1 24  4  0
  2  6  4  0
  2 15  4  0
  3  5  4  0
  3  6  4  0
  4 21  4  0
  4 29  4  0
  5 15  4  0
  5 28  1  0
  6 16  4  0
  7 18  4  0
  7 26  4  0
  8 18  1  0
  8 19  4  0
  8 22  4  0
  9 12  4  0
  9 19  4  0
 10 12  4  0
 10 22  4  0
 11 20  4  0
 11 21  4  0
 12 23  1  0
 13 20  4  0
 13 29  4  0
 14 17  4  0
 14 28  4  0
 15 25  2  0
 16 27  4  0
 17 18  4  0
 20 27  1  0
 24 27  4  0
 26 28  4  0
M  END
$$$$

 Created by Python create_sdf_string function

 29 33  0  0  0  0  0  0  0  0999 V2000
    8.8270   -7.0288   18.4251 C   0  0  0  0  0  0  0  0  0  0  0  0
    9.1576   -4.6236   15.8860 O   0  0  0  0  0  0  0  0  0  0  0  0
    9.1509   -5.9108   17.7177 C   0  0  0  0  0  0  0  0  0  0  0  0
    3.6373   -9.5349   16.0582 N   0  0  0  0  0  0  0  0  0  0  0  0
    9.9275   -4.8001   18.0438 N   0  0  0  0  0  0  0  0  0  0  0  0
    8.5908   -5.7425   16.4412 C   0  0  0  0  0  0  0  0  0  0  0  0
   10.5993   -4.8981   21.6068 C   0  0  0  0  0  0  0  0  0  0  0  0
   10.4258   -3.0106   23.0998 C   0  0  0  0  0  0  0  0  0  0  0  0
   10.2148   -3.4364   25.4200 C   0  0  0  0  0  0  0  0  0  0  0  0
    9.7853   -1.1840   24.4927 C   0  0  0  0  0  0  0  0  0  0  0  0
    5.0276   -8.5227   17.5352 C   0  0  0  0  0  0  0  0  0  0  0  0
    9.8187   -2.0895   25.5800 C   0  0  0  0  0  0  0  0  0  0  0  0
    5.6473   -8.7216   15.3158 C   0  0  0  0  0  0  0  0  0  0  0  0
   10.7581   -3.1233   19.4720 N   0  0  0  0  0  0  0  0  0  0  0  0
    9.9571   -4.0573   16.8866 C   0  0  0  0  0  0  0  0  0  0  0  0
    7.6213   -6.5618   16.0087 C   0  0  0  0  0  0  0  0  0  0  0  0
   10.8583   -2.6527   20.7222 C   0  0  0  0  0  0  0  0  0  0  0  0
   10.6412   -3.5089   21.7936 C   0  0  0  0  0  0  0  0  0  0  0  0
   10.4972   -3.8968   24.1589 C   0  0  0  0  0  0  0  0  0  0  0  0
    5.9260   -8.2736   16.5517 C   0  0  0  0  0  0  0  0  0  0  0  0
    3.8816   -9.1166   17.2493 C   0  0  0  0  0  0  0  0  0  0  0  0
   10.1297   -1.6575   23.2324 C   0  0  0  0  0  0  0  0  0  0  0  0
    9.4684   -1.6929   26.7263 F   0  0  0  0  0  0  0  0  0  0  0  0
    7.7963   -7.7906   17.9837 C   0  0  0  0  0  0  0  0  0  0  0  0
   10.5884   -3.0725   16.7902 O   0  0  0  0  0  0  0  0  0  0  0  0
   10.4323   -5.3494   20.3516 C   0  0  0  0  0  0  0  0  0  0  0  0
    7.1156   -7.5454   16.8218 C   0  0  0  0  0  0  0  0  0  0  0  0
   10.3885   -4.4388   19.2773 C   0  0  0  0  0  0  0  0  0  0  0  0
    4.5160   -9.3822   15.0841 C   0  0  0  0  0  0  0  0  0  0  0  0
  1  3  4  0
  1 24  4  0
  2  6  4  0
  2 15  4  0
  3  5  4  0
  3  6  4  0
  4 21  4  0
  4 29  4  0
  5 15  4  0
  5 28  1  0
  6 16  4  0
  7 18  4  0
  7 26  4  0
  8 18  1  0
  8 19  4  0
  8 22  4  0
  9 12  4  0
  9 19  4  0
 10 12  4  0
 10 22  4  0
 11 20  4  0
 11 21  4  0
 12 23  1  0
 13 20  4  0
 13 29  4  0
 14 17  4  0
 14 28  4  0
 15 25  2  0
 16 27  4  0
 17 18  4  0
 20 27  1  0
 24 27  4  0
 26 28  4  0
M  END
$$$$

 Created by Python create_sdf_string function

 29 33  0  0  0  0  0  0  0  0999 V2000
    8.8270   -7.0288   18.4251 C   0  0  0  0  0  0  0  0  0  0  0  0
    9.1576   -4.6236   15.8860 O   0  0  0  0  0  0  0  0  0  0  0  0
    9.1509   -5.9108   17.7177 C   0  0  0  0  0  0  0  0  0  0  0  0
    3.6373   -9.5349   16.0582 N   0  0  0  0  0  0  0  0  0  0  0  0
    9.9275   -4.8001   18.0438 N   0  0  0  0  0  0  0  0  0  0  0  0
    8.5908   -5.7425   16.4412 C   0  0  0  0  0  0  0  0  0  0  0  0
   10.5993   -4.8981   21.6068 C   0  0  0  0  0  0  0  0  0  0  0  0
   10.4258   -3.0106   23.0998 C   0  0  0  0  0  0  0  0  0  0  0  0
   10.2148   -3.4364   25.4200 C   0  0  0  0  0  0  0  0  0  0  0  0
    9.7853   -1.1840   24.4927 C   0  0  0  0  0  0  0  0  0  0  0  0
    5.0276   -8.5227   17.5352 C   0  0  0  0  0  0  0  0  0  0  0  0
    9.8187   -2.0895   25.5800 C   0  0  0  0  0  0  0  0  0  0  0  0
    5.6473   -8.7216   15.3158 C   0  0  0  0  0  0  0  0  0  0  0  0
   10.7581   -3.1233   19.4720 N   0  0  0  0  0  0  0  0  0  0  0  0
    9.9571   -4.0573   16.8866 C   0  0  0  0  0  0  0  0  0  0  0  0
    7.6213   -6.5618   16.0087 C   0  0  0  0  0  0  0  0  0  0  0  0
   10.8583   -2.6527   20.7222 C   0  0  0  0  0  0  0  0  0  0  0  0
   10.6412   -3.5089   21.7936 C   0  0  0  0  0  0  0  0  0  0  0  0
   10.4972   -3.8968   24.1589 C   0  0  0  0  0  0  0  0  0  0  0  0
    5.9260   -8.2736   16.5517 C   0  0  0  0  0  0  0  0  0  0  0  0
    3.8816   -9.1166   17.2493 C   0  0  0  0  0  0  0  0  0  0  0  0
   10.1297   -1.6575   23.2324 C   0  0  0  0  0  0  0  0  0  0  0  0
    9.4684   -1.6929   26.7263 F   0  0  0  0  0  0  0  0  0  0  0  0
    7.7963   -7.7906   17.9837 C   0  0  0  0  0  0  0  0  0  0  0  0
   10.5884   -3.0725   16.7902 O   0  0  0  0  0  0  0  0  0  0  0  0
   10.4323   -5.3494   20.3516 C   0  0  0  0  0  0  0  0  0  0  0  0
    7.1156   -7.5454   16.8218 C   0  0  0  0  0  0  0  0  0  0  0  0
   10.3885   -4.4388   19.2773 C   0  0  0  0  0  0  0  0  0  0  0  0
    4.5160   -9.3822   15.0841 C   0  0  0  0  0  0  0  0  0  0  0  0
  1  3  4  0
  1 24  4  0
  2  6  4  0
  2 15  4  0
  3  5  4  0
  3  6  4  0
  4 21  4  0
  4 29  4  0
  5 15  4  0
  5 28  1  0
  6 16  4  0
  7 18  4  0
  7 26  4  0
  8 18  1  0
  8 19  4  0
  8 22  4  0
  9 12  4  0
  9 19  4  0
 10 12  4  0
 10 22  4  0
 11 20  4  0
 11 21  4  0
 12 23  1  0
 13 20  4  0
 13 29  4  0
 14 17  4  0
 14 28  4  0
 15 25  2  0
 16 27  4  0
 17 18  4  0
 20 27  1  0
 24 27  4  0
 26 28  4  0
M  END
$$$$

 Created by Python create_sdf_string function

 29 33  0  0  0  0  0  0  0  0999 V2000
    8.8270   -7.0288   18.4251 C   0  0  0  0  0  0  0  0  0  0  0  0
    9.1576   -4.6236   15.8860 O   0  0  0  0  0  0  0  0  0  0  0  0
    9.1509   -5.9108   17.7177 C   0  0  0  0  0  0  0  0  0  0  0  0
    3.6373   -9.5349   16.0582 N   0  0  0  0  0  0  0  0  0  0  0  0
    9.9275   -4.8001   18.0438 N   0  0  0  0  0  0  0  0  0  0  0  0
    8.5908   -5.7425   16.4412 C   0  0  0  0  0  0  0  0  0  0  0  0
   10.5993   -4.8981   21.6068 C   0  0  0  0  0  0  0  0  0  0  0  0
   10.4258   -3.0106   23.0998 C   0  0  0  0  0  0  0  0  0  0  0  0
   10.2148   -3.4364   25.4200 C   0  0  0  0  0  0  0  0  0  0  0  0
    9.7853   -1.1840   24.4927 C   0  0  0  0  0  0  0  0  0  0  0  0
    5.0276   -8.5227   17.5352 C   0  0  0  0  0  0  0  0  0  0  0  0
    9.8187   -2.0895   25.5800 C   0  0  0  0  0  0  0  0  0  0  0  0
    5.6473   -8.7216   15.3158 C   0  0  0  0  0  0  0  0  0  0  0  0
   10.7581   -3.1233   19.4720 N   0  0  0  0  0  0  0  0  0  0  0  0
    9.9571   -4.0573   16.8866 C   0  0  0  0  0  0  0  0  0  0  0  0
    7.6213   -6.5618   16.0087 C   0  0  0  0  0  0  0  0  0  0  0  0
   10.8583   -2.6527   20.7222 C   0  0  0  0  0  0  0  0  0  0  0  0
   10.6412   -3.5089   21.7936 C   0  0  0  0  0  0  0  0  0  0  0  0
   10.4972   -3.8968   24.1589 C   0  0  0  0  0  0  0  0  0  0  0  0
    5.9260   -8.2736   16.5517 C   0  0  0  0  0  0  0  0  0  0  0  0
    3.8816   -9.1166   17.2493 C   0  0  0  0  0  0  0  0  0  0  0  0
   10.1297   -1.6575   23.2324 C   0  0  0  0  0  0  0  0  0  0  0  0
    9.4684   -1.6929   26.7263 F   0  0  0  0  0  0  0  0  0  0  0  0
    7.7963   -7.7906   17.9837 C   0  0  0  0  0  0  0  0  0  0  0  0
   10.5884   -3.0725   16.7902 O   0  0  0  0  0  0  0  0  0  0  0  0
   10.4323   -5.3494   20.3516 C   0  0  0  0  0  0  0  0  0  0  0  0
    7.1156   -7.5454   16.8218 C   0  0  0  0  0  0  0  0  0  0  0  0
   10.3885   -4.4388   19.2773 C   0  0  0  0  0  0  0  0  0  0  0  0
    4.5160   -9.3822   15.0841 C   0  0  0  0  0  0  0  0  0  0  0  0
  1  3  4  0
  1 24  4  0
  2  6  4  0
  2 15  4  0
  3  5  4  0
  3  6  4  0
  4 21  4  0
  4 29  4  0
  5 15  4  0
  5 28  1  0
  6 16  4  0
  7 18  4  0
  7 26  4  0
  8 18  1  0
  8 19  4  0
  8 22  4  0
  9 12  4  0
  9 19  4  0
 10 12  4  0
 10 22  4  0
 11 20  4  0
 11 21  4  0
 12 23  1  0
 13 20  4  0
 13 29  4  0
 14 17  4  0
 14 28  4  0
 15 25  2  0
 16 27  4  0
 17 18  4  0
 20 27  1  0
 24 27  4  0
 26 28  4  0
M  END
$$$$

 Created by Python create_sdf_string function

 29 33  0  0  0  0  0  0  0  0999 V2000
    8.8270   -7.0288   18.4251 C   0  0  0  0  0  0  0  0  0  0  0  0
    9.1576   -4.6236   15.8860 O   0  0  0  0  0  0  0  0  0  0  0  0
    9.1509   -5.9108   17.7177 C   0  0  0  0  0  0  0  0  0  0  0  0
    3.6373   -9.5349   16.0582 N   0  0  0  0  0  0  0  0  0  0  0  0
    9.9275   -4.8001   18.0438 N   0  0  0  0  0  0  0  0  0  0  0  0
    8.5908   -5.7425   16.4412 C   0  0  0  0  0  0  0  0  0  0  0  0
   10.5993   -4.8981   21.6068 C   0  0  0  0  0  0  0  0  0  0  0  0
   10.4258   -3.0106   23.0998 C   0  0  0  0  0  0  0  0  0  0  0  0
   10.2148   -3.4364   25.4200 C   0  0  0  0  0  0  0  0  0  0  0  0
    9.7853   -1.1840   24.4927 C   0  0  0  0  0  0  0  0  0  0  0  0
    5.0276   -8.5227   17.5352 C   0  0  0  0  0  0  0  0  0  0  0  0
    9.8187   -2.0895   25.5800 C   0  0  0  0  0  0  0  0  0  0  0  0
    5.6473   -8.7216   15.3158 C   0  0  0  0  0  0  0  0  0  0  0  0
   10.7581   -3.1233   19.4720 N   0  0  0  0  0  0  0  0  0  0  0  0
    9.9571   -4.0573   16.8866 C   0  0  0  0  0  0  0  0  0  0  0  0
    7.6213   -6.5618   16.0087 C   0  0  0  0  0  0  0  0  0  0  0  0
   10.8583   -2.6527   20.7222 C   0  0  0  0  0  0  0  0  0  0  0  0
   10.6412   -3.5089   21.7936 C   0  0  0  0  0  0  0  0  0  0  0  0
   10.4972   -3.8968   24.1589 C   0  0  0  0  0  0  0  0  0  0  0  0
    5.9260   -8.2736   16.5517 C   0  0  0  0  0  0  0  0  0  0  0  0
    3.8816   -9.1166   17.2493 C   0  0  0  0  0  0  0  0  0  0  0  0
   10.1297   -1.6575   23.2324 C   0  0  0  0  0  0  0  0  0  0  0  0
    9.4684   -1.6929   26.7263 F   0  0  0  0  0  0  0  0  0  0  0  0
    7.7963   -7.7906   17.9837 C   0  0  0  0  0  0  0  0  0  0  0  0
   10.5884   -3.0725   16.7902 O   0  0  0  0  0  0  0  0  0  0  0  0
   10.4323   -5.3494   20.3516 C   0  0  0  0  0  0  0  0  0  0  0  0
    7.1156   -7.5454   16.8218 C   0  0  0  0  0  0  0  0  0  0  0  0
   10.3885   -4.4388   19.2773 C   0  0  0  0  0  0  0  0  0  0  0  0
    4.5160   -9.3822   15.0841 C   0  0  0  0  0  0  0  0  0  0  0  0
  1  3  4  0
  1 24  4  0
  2  6  4  0
  2 15  4  0
  3  5  4  0
  3  6  4  0
  4 21  4  0
  4 29  4  0
  5 15  4  0
  5 28  1  0
  6 16  4  0
  7 18  4  0
  7 26  4  0
  8 18  1  0
  8 19  4  0
  8 22  4  0
  9 12  4  0
  9 19  4  0
 10 12  4  0
 10 22  4  0
 11 20  4  0
 11 21  4  0
 12 23  1  0
 13 20  4  0
 13 29  4  0
 14 17  4  0
 14 28  4  0
 15 25  2  0
 16 27  4  0
 17 18  4  0
 20 27  1  0
 24 27  4  0
 26 28  4  0
M  END
$$$$

 Created by Python create_sdf_string function

 29 33  0  0  0  0  0  0  0  0999 V2000
    8.8270   -7.0288   18.4251 C   0  0  0  0  0  0  0  0  0  0  0  0
    9.1576   -4.6236   15.8860 O   0  0  0  0  0  0  0  0  0  0  0  0
    9.1509   -5.9108   17.7177 C   0  0  0  0  0  0  0  0  0  0  0  0
    3.6373   -9.5349   16.0582 N   0  0  0  0  0  0  0  0  0  0  0  0
    9.9275   -4.8001   18.0438 N   0  0  0  0  0  0  0  0  0  0  0  0
    8.5908   -5.7425   16.4412 C   0  0  0  0  0  0  0  0  0  0  0  0
   10.5993   -4.8981   21.6068 C   0  0  0  0  0  0  0  0  0  0  0  0
   10.4258   -3.0106   23.0998 C   0  0  0  0  0  0  0  0  0  0  0  0
   10.2148   -3.4364   25.4200 C   0  0  0  0  0  0  0  0  0  0  0  0
    9.7853   -1.1840   24.4927 C   0  0  0  0  0  0  0  0  0  0  0  0
    5.0276   -8.5227   17.5352 C   0  0  0  0  0  0  0  0  0  0  0  0
    9.8187   -2.0895   25.5800 C   0  0  0  0  0  0  0  0  0  0  0  0
    5.6473   -8.7216   15.3158 C   0  0  0  0  0  0  0  0  0  0  0  0
   10.7581   -3.1233   19.4720 N   0  0  0  0  0  0  0  0  0  0  0  0
    9.9571   -4.0573   16.8866 C   0  0  0  0  0  0  0  0  0  0  0  0
    7.6213   -6.5618   16.0087 C   0  0  0  0  0  0  0  0  0  0  0  0
   10.8583   -2.6527   20.7222 C   0  0  0  0  0  0  0  0  0  0  0  0
   10.6412   -3.5089   21.7936 C   0  0  0  0  0  0  0  0  0  0  0  0
   10.4972   -3.8968   24.1589 C   0  0  0  0  0  0  0  0  0  0  0  0
    5.9260   -8.2736   16.5517 C   0  0  0  0  0  0  0  0  0  0  0  0
    3.8816   -9.1166   17.2493 C   0  0  0  0  0  0  0  0  0  0  0  0
   10.1297   -1.6575   23.2324 C   0  0  0  0  0  0  0  0  0  0  0  0
    9.4684   -1.6929   26.7263 F   0  0  0  0  0  0  0  0  0  0  0  0
    7.7963   -7.7906   17.9837 C   0  0  0  0  0  0  0  0  0  0  0  0
   10.5884   -3.0725   16.7902 O   0  0  0  0  0  0  0  0  0  0  0  0
   10.4323   -5.3494   20.3516 C   0  0  0  0  0  0  0  0  0  0  0  0
    7.1156   -7.5454   16.8218 C   0  0  0  0  0  0  0  0  0  0  0  0
   10.3885   -4.4388   19.2773 C   0  0  0  0  0  0  0  0  0  0  0  0
    4.5160   -9.3822   15.0841 C   0  0  0  0  0  0  0  0  0  0  0  0
  1  3  4  0
  1 24  4  0
  2  6  4  0
  2 15  4  0
  3  5  4  0
  3  6  4  0
  4 21  4  0
  4 29  4  0
  5 15  4  0
  5 28  1  0
  6 16  4  0
  7 18  4  0
  7 26  4  0
  8 18  1  0
  8 19  4  0
  8 22  4  0
  9 12  4  0
  9 19  4  0
 10 12  4  0
 10 22  4  0
 11 20  4  0
 11 21  4  0
 12 23  1  0
 13 20  4  0
 13 29  4  0
 14 17  4  0
 14 28  4  0
 15 25  2  0
 16 27  4  0
 17 18  4  0
 20 27  1  0
 24 27  4  0
 26 28  4  0
M  END
$$$$

 Created by Python create_sdf_string function

 29 33  0  0  0  0  0  0  0  0999 V2000
    8.8270   -7.0288   18.4251 C   0  0  0  0  0  0  0  0  0  0  0  0
    9.1576   -4.6236   15.8860 O   0  0  0  0  0  0  0  0  0  0  0  0
    9.1509   -5.9108   17.7177 C   0  0  0  0  0  0  0  0  0  0  0  0
    3.6373   -9.5349   16.0582 N   0  0  0  0  0  0  0  0  0  0  0  0
    9.9275   -4.8001   18.0438 N   0  0  0  0  0  0  0  0  0  0  0  0
    8.5908   -5.7425   16.4412 C   0  0  0  0  0  0  0  0  0  0  0  0
   10.5993   -4.8981   21.6068 C   0  0  0  0  0  0  0  0  0  0  0  0
   10.4258   -3.0106   23.0998 C   0  0  0  0  0  0  0  0  0  0  0  0
   10.2148   -3.4364   25.4200 C   0  0  0  0  0  0  0  0  0  0  0  0
    9.7853   -1.1840   24.4927 C   0  0  0  0  0  0  0  0  0  0  0  0
    5.0276   -8.5227   17.5352 C   0  0  0  0  0  0  0  0  0  0  0  0
    9.8187   -2.0895   25.5800 C   0  0  0  0  0  0  0  0  0  0  0  0
    5.6473   -8.7216   15.3158 C   0  0  0  0  0  0  0  0  0  0  0  0
   10.7581   -3.1233   19.4720 N   0  0  0  0  0  0  0  0  0  0  0  0
    9.9571   -4.0573   16.8866 C   0  0  0  0  0  0  0  0  0  0  0  0
    7.6213   -6.5618   16.0087 C   0  0  0  0  0  0  0  0  0  0  0  0
   10.8583   -2.6527   20.7222 C   0  0  0  0  0  0  0  0  0  0  0  0
   10.6412   -3.5089   21.7936 C   0  0  0  0  0  0  0  0  0  0  0  0
   10.4972   -3.8968   24.1589 C   0  0  0  0  0  0  0  0  0  0  0  0
    5.9260   -8.2736   16.5517 C   0  0  0  0  0  0  0  0  0  0  0  0
    3.8816   -9.1166   17.2493 C   0  0  0  0  0  0  0  0  0  0  0  0
   10.1297   -1.6575   23.2324 C   0  0  0  0  0  0  0  0  0  0  0  0
    9.4684   -1.6929   26.7263 F   0  0  0  0  0  0  0  0  0  0  0  0
    7.7963   -7.7906   17.9837 C   0  0  0  0  0  0  0  0  0  0  0  0
   10.5884   -3.0725   16.7902 O   0  0  0  0  0  0  0  0  0  0  0  0
   10.4323   -5.3494   20.3516 C   0  0  0  0  0  0  0  0  0  0  0  0
    7.1156   -7.5454   16.8218 C   0  0  0  0  0  0  0  0  0  0  0  0
   10.3885   -4.4388   19.2773 C   0  0  0  0  0  0  0  0  0  0  0  0
    4.5160   -9.3822   15.0841 C   0  0  0  0  0  0  0  0  0  0  0  0
  1  3  4  0
  1 24  4  0
  2  6  4  0
  2 15  4  0
  3  5  4  0
  3  6  4  0
  4 21  4  0
  4 29  4  0
  5 15  4  0
  5 28  1  0
  6 16  4  0
  7 18  4  0
  7 26  4  0
  8 18  1  0
  8 19  4  0
  8 22  4  0
  9 12  4  0
  9 19  4  0
 10 12  4  0
 10 22  4  0
 11 20  4  0
 11 21  4  0
 12 23  1  0
 13 20  4  0
 13 29  4  0
 14 17  4  0
 14 28  4  0
 15 25  2  0
 16 27  4  0
 17 18  4  0
 20 27  1  0
 24 27  4  0
 26 28  4  0
M  END
$$$$

 Created by Python create_sdf_string function

 29 33  0  0  0  0  0  0  0  0999 V2000
    8.8270   -7.0288   18.4251 C   0  0  0  0  0  0  0  0  0  0  0  0
    9.1576   -4.6236   15.8860 O   0  0  0  0  0  0  0  0  0  0  0  0
    9.1509   -5.9108   17.7177 C   0  0  0  0  0  0  0  0  0  0  0  0
    3.6373   -9.5349   16.0582 N   0  0  0  0  0  0  0  0  0  0  0  0
    9.9275   -4.8001   18.0438 N   0  0  0  0  0  0  0  0  0  0  0  0
    8.5908   -5.7425   16.4412 C   0  0  0  0  0  0  0  0  0  0  0  0
   10.5993   -4.8981   21.6068 C   0  0  0  0  0  0  0  0  0  0  0  0
   10.4258   -3.0106   23.0998 C   0  0  0  0  0  0  0  0  0  0  0  0
   10.2148   -3.4364   25.4200 C   0  0  0  0  0  0  0  0  0  0  0  0
    9.7853   -1.1840   24.4927 C   0  0  0  0  0  0  0  0  0  0  0  0
    5.0276   -8.5227   17.5352 C   0  0  0  0  0  0  0  0  0  0  0  0
    9.8187   -2.0895   25.5800 C   0  0  0  0  0  0  0  0  0  0  0  0
    5.6473   -8.7216   15.3158 C   0  0  0  0  0  0  0  0  0  0  0  0
   10.7581   -3.1233   19.4720 N   0  0  0  0  0  0  0  0  0  0  0  0
    9.9571   -4.0573   16.8866 C   0  0  0  0  0  0  0  0  0  0  0  0
    7.6213   -6.5618   16.0087 C   0  0  0  0  0  0  0  0  0  0  0  0
   10.8583   -2.6527   20.7222 C   0  0  0  0  0  0  0  0  0  0  0  0
   10.6412   -3.5089   21.7936 C   0  0  0  0  0  0  0  0  0  0  0  0
   10.4972   -3.8968   24.1589 C   0  0  0  0  0  0  0  0  0  0  0  0
    5.9260   -8.2736   16.5517 C   0  0  0  0  0  0  0  0  0  0  0  0
    3.8816   -9.1166   17.2493 C   0  0  0  0  0  0  0  0  0  0  0  0
   10.1297   -1.6575   23.2324 C   0  0  0  0  0  0  0  0  0  0  0  0
    9.4684   -1.6929   26.7263 F   0  0  0  0  0  0  0  0  0  0  0  0
    7.7963   -7.7906   17.9837 C   0  0  0  0  0  0  0  0  0  0  0  0
   10.5884   -3.0725   16.7902 O   0  0  0  0  0  0  0  0  0  0  0  0
   10.4323   -5.3494   20.3516 C   0  0  0  0  0  0  0  0  0  0  0  0
    7.1156   -7.5454   16.8218 C   0  0  0  0  0  0  0  0  0  0  0  0
   10.3885   -4.4388   19.2773 C   0  0  0  0  0  0  0  0  0  0  0  0
    4.5160   -9.3822   15.0841 C   0  0  0  0  0  0  0  0  0  0  0  0
  1  3  4  0
  1 24  4  0
  2  6  4  0
  2 15  4  0
  3  5  4  0
  3  6  4  0
  4 21  4  0
  4 29  4  0
  5 15  4  0
  5 28  1  0
  6 16  4  0
  7 18  4  0
  7 26  4  0
  8 18  1  0
  8 19  4  0
  8 22  4  0
  9 12  4  0
  9 19  4  0
 10 12  4  0
 10 22  4  0
 11 20  4  0
 11 21  4  0
 12 23  1  0
 13 20  4  0
 13 29  4  0
 14 17  4  0
 14 28  4  0
 15 25  2  0
 16 27  4  0
 17 18  4  0
 20 27  1  0
 24 27  4  0
 26 28  4  0
M  END
$$$$

 Created by Python create_sdf_string function

 29 33  0  0  0  0  0  0  0  0999 V2000
    8.8270   -7.0288   18.4251 C   0  0  0  0  0  0  0  0  0  0  0  0
    9.1576   -4.6236   15.8860 O   0  0  0  0  0  0  0  0  0  0  0  0
    9.1509   -5.9108   17.7177 C   0  0  0  0  0  0  0  0  0  0  0  0
    3.6373   -9.5349   16.0582 N   0  0  0  0  0  0  0  0  0  0  0  0
    9.9275   -4.8001   18.0438 N   0  0  0  0  0  0  0  0  0  0  0  0
    8.5908   -5.7425   16.4412 C   0  0  0  0  0  0  0  0  0  0  0  0
   10.5993   -4.8981   21.6068 C   0  0  0  0  0  0  0  0  0  0  0  0
   10.4258   -3.0106   23.0998 C   0  0  0  0  0  0  0  0  0  0  0  0
   10.2148   -3.4364   25.4200 C   0  0  0  0  0  0  0  0  0  0  0  0
    9.7853   -1.1840   24.4927 C   0  0  0  0  0  0  0  0  0  0  0  0
    5.0276   -8.5227   17.5352 C   0  0  0  0  0  0  0  0  0  0  0  0
    9.8187   -2.0895   25.5800 C   0  0  0  0  0  0  0  0  0  0  0  0
    5.6473   -8.7216   15.3158 C   0  0  0  0  0  0  0  0  0  0  0  0
   10.7581   -3.1233   19.4720 N   0  0  0  0  0  0  0  0  0  0  0  0
    9.9571   -4.0573   16.8866 C   0  0  0  0  0  0  0  0  0  0  0  0
    7.6213   -6.5618   16.0087 C   0  0  0  0  0  0  0  0  0  0  0  0
   10.8583   -2.6527   20.7222 C   0  0  0  0  0  0  0  0  0  0  0  0
   10.6412   -3.5089   21.7936 C   0  0  0  0  0  0  0  0  0  0  0  0
   10.4972   -3.8968   24.1589 C   0  0  0  0  0  0  0  0  0  0  0  0
    5.9260   -8.2736   16.5517 C   0  0  0  0  0  0  0  0  0  0  0  0
    3.8816   -9.1166   17.2493 C   0  0  0  0  0  0  0  0  0  0  0  0
   10.1297   -1.6575   23.2324 C   0  0  0  0  0  0  0  0  0  0  0  0
    9.4684   -1.6929   26.7263 F   0  0  0  0  0  0  0  0  0  0  0  0
    7.7963   -7.7906   17.9837 C   0  0  0  0  0  0  0  0  0  0  0  0
   10.5884   -3.0725   16.7902 O   0  0  0  0  0  0  0  0  0  0  0  0
   10.4323   -5.3494   20.3516 C   0  0  0  0  0  0  0  0  0  0  0  0
    7.1156   -7.5454   16.8218 C   0  0  0  0  0  0  0  0  0  0  0  0
   10.3885   -4.4388   19.2773 C   0  0  0  0  0  0  0  0  0  0  0  0
    4.5160   -9.3822   15.0841 C   0  0  0  0  0  0  0  0  0  0  0  0
  1  3  4  0
  1 24  4  0
  2  6  4  0
  2 15  4  0
  3  5  4  0
  3  6  4  0
  4 21  4  0
  4 29  4  0
  5 15  4  0
  5 28  1  0
  6 16  4  0
  7 18  4  0
  7 26  4  0
  8 18  1  0
  8 19  4  0
  8 22  4  0
  9 12  4  0
  9 19  4  0
 10 12  4  0
 10 22  4  0
 11 20  4  0
 11 21  4  0
 12 23  1  0
 13 20  4  0
 13 29  4  0
 14 17  4  0
 14 28  4  0
 15 25  2  0
 16 27  4  0
 17 18  4  0
 20 27  1  0
 24 27  4  0
 26 28  4  0
M  END
$$$$

 Created by Python create_sdf_string function

 29 33  0  0  0  0  0  0  0  0999 V2000
    8.8270   -7.0288   18.4251 C   0  0  0  0  0  0  0  0  0  0  0  0
    9.1576   -4.6236   15.8860 O   0  0  0  0  0  0  0  0  0  0  0  0
    9.1509   -5.9108   17.7177 C   0  0  0  0  0  0  0  0  0  0  0  0
    3.6373   -9.5349   16.0582 N   0  0  0  0  0  0  0  0  0  0  0  0
    9.9275   -4.8001   18.0438 N   0  0  0  0  0  0  0  0  0  0  0  0
    8.5908   -5.7425   16.4412 C   0  0  0  0  0  0  0  0  0  0  0  0
   10.5993   -4.8981   21.6068 C   0  0  0  0  0  0  0  0  0  0  0  0
   10.4258   -3.0106   23.0998 C   0  0  0  0  0  0  0  0  0  0  0  0
   10.2148   -3.4364   25.4200 C   0  0  0  0  0  0  0  0  0  0  0  0
    9.7853   -1.1840   24.4927 C   0  0  0  0  0  0  0  0  0  0  0  0
    5.0276   -8.5227   17.5352 C   0  0  0  0  0  0  0  0  0  0  0  0
    9.8187   -2.0895   25.5800 C   0  0  0  0  0  0  0  0  0  0  0  0
    5.6473   -8.7216   15.3158 C   0  0  0  0  0  0  0  0  0  0  0  0
   10.7581   -3.1233   19.4720 N   0  0  0  0  0  0  0  0  0  0  0  0
    9.9571   -4.0573   16.8866 C   0  0  0  0  0  0  0  0  0  0  0  0
    7.6213   -6.5618   16.0087 C   0  0  0  0  0  0  0  0  0  0  0  0
   10.8583   -2.6527   20.7222 C   0  0  0  0  0  0  0  0  0  0  0  0
   10.6412   -3.5089   21.7936 C   0  0  0  0  0  0  0  0  0  0  0  0
   10.4972   -3.8968   24.1589 C   0  0  0  0  0  0  0  0  0  0  0  0
    5.9260   -8.2736   16.5517 C   0  0  0  0  0  0  0  0  0  0  0  0
    3.8816   -9.1166   17.2493 C   0  0  0  0  0  0  0  0  0  0  0  0
   10.1297   -1.6575   23.2324 C   0  0  0  0  0  0  0  0  0  0  0  0
    9.4684   -1.6929   26.7263 F   0  0  0  0  0  0  0  0  0  0  0  0
    7.7963   -7.7906   17.9837 C   0  0  0  0  0  0  0  0  0  0  0  0
   10.5884   -3.0725   16.7902 O   0  0  0  0  0  0  0  0  0  0  0  0
   10.4323   -5.3494   20.3516 C   0  0  0  0  0  0  0  0  0  0  0  0
    7.1156   -7.5454   16.8218 C   0  0  0  0  0  0  0  0  0  0  0  0
   10.3885   -4.4388   19.2773 C   0  0  0  0  0  0  0  0  0  0  0  0
    4.5160   -9.3822   15.0841 C   0  0  0  0  0  0  0  0  0  0  0  0
  1  3  4  0
  1 24  4  0
  2  6  4  0
  2 15  4  0
  3  5  4  0
  3  6  4  0
  4 21  4  0
  4 29  4  0
  5 15  4  0
  5 28  1  0
  6 16  4  0
  7 18  4  0
  7 26  4  0
  8 18  1  0
  8 19  4  0
  8 22  4  0
  9 12  4  0
  9 19  4  0
 10 12  4  0
 10 22  4  0
 11 20  4  0
 11 21  4  0
 12 23  1  0
 13 20  4  0
 13 29  4  0
 14 17  4  0
 14 28  4  0
 15 25  2  0
 16 27  4  0
 17 18  4  0
 20 27  1  0
 24 27  4  0
 26 28  4  0
M  END
$$$$

 Created by Python create_sdf_string function

 29 33  0  0  0  0  0  0  0  0999 V2000
    8.8270   -7.0288   18.4251 C   0  0  0  0  0  0  0  0  0  0  0  0
    9.1576   -4.6236   15.8860 O   0  0  0  0  0  0  0  0  0  0  0  0
    9.1509   -5.9108   17.7177 C   0  0  0  0  0  0  0  0  0  0  0  0
    3.6373   -9.5349   16.0582 N   0  0  0  0  0  0  0  0  0  0  0  0
    9.9275   -4.8001   18.0438 N   0  0  0  0  0  0  0  0  0  0  0  0
    8.5908   -5.7425   16.4412 C   0  0  0  0  0  0  0  0  0  0  0  0
   10.5993   -4.8981   21.6068 C   0  0  0  0  0  0  0  0  0  0  0  0
   10.4258   -3.0106   23.0998 C   0  0  0  0  0  0  0  0  0  0  0  0
   10.2148   -3.4364   25.4200 C   0  0  0  0  0  0  0  0  0  0  0  0
    9.7853   -1.1840   24.4927 C   0  0  0  0  0  0  0  0  0  0  0  0
    5.0276   -8.5227   17.5352 C   0  0  0  0  0  0  0  0  0  0  0  0
    9.8187   -2.0895   25.5800 C   0  0  0  0  0  0  0  0  0  0  0  0
    5.6473   -8.7216   15.3158 C   0  0  0  0  0  0  0  0  0  0  0  0
   10.7581   -3.1233   19.4720 N   0  0  0  0  0  0  0  0  0  0  0  0
    9.9571   -4.0573   16.8866 C   0  0  0  0  0  0  0  0  0  0  0  0
    7.6213   -6.5618   16.0087 C   0  0  0  0  0  0  0  0  0  0  0  0
   10.8583   -2.6527   20.7222 C   0  0  0  0  0  0  0  0  0  0  0  0
   10.6412   -3.5089   21.7936 C   0  0  0  0  0  0  0  0  0  0  0  0
   10.4972   -3.8968   24.1589 C   0  0  0  0  0  0  0  0  0  0  0  0
    5.9260   -8.2736   16.5517 C   0  0  0  0  0  0  0  0  0  0  0  0
    3.8816   -9.1166   17.2493 C   0  0  0  0  0  0  0  0  0  0  0  0
   10.1297   -1.6575   23.2324 C   0  0  0  0  0  0  0  0  0  0  0  0
    9.4684   -1.6929   26.7263 F   0  0  0  0  0  0  0  0  0  0  0  0
    7.7963   -7.7906   17.9837 C   0  0  0  0  0  0  0  0  0  0  0  0
   10.5884   -3.0725   16.7902 O   0  0  0  0  0  0  0  0  0  0  0  0
   10.4323   -5.3494   20.3516 C   0  0  0  0  0  0  0  0  0  0  0  0
    7.1156   -7.5454   16.8218 C   0  0  0  0  0  0  0  0  0  0  0  0
   10.3885   -4.4388   19.2773 C   0  0  0  0  0  0  0  0  0  0  0  0
    4.5160   -9.3822   15.0841 C   0  0  0  0  0  0  0  0  0  0  0  0
  1  3  4  0
  1 24  4  0
  2  6  4  0
  2 15  4  0
  3  5  4  0
  3  6  4  0
  4 21  4  0
  4 29  4  0
  5 15  4  0
  5 28  1  0
  6 16  4  0
  7 18  4  0
  7 26  4  0
  8 18  1  0
  8 19  4  0
  8 22  4  0
  9 12  4  0
  9 19  4  0
 10 12  4  0
 10 22  4  0
 11 20  4  0
 11 21  4  0
 12 23  1  0
 13 20  4  0
 13 29  4  0
 14 17  4  0
 14 28  4  0
 15 25  2  0
 16 27  4  0
 17 18  4  0
 20 27  1  0
 24 27  4  0
 26 28  4  0
M  END
$$$$

 Created by Python create_sdf_string function

 29 33  0  0  0  0  0  0  0  0999 V2000
    8.8270   -7.0288   18.4251 C   0  0  0  0  0  0  0  0  0  0  0  0
    9.1576   -4.6236   15.8860 O   0  0  0  0  0  0  0  0  0  0  0  0
    9.1509   -5.9108   17.7177 C   0  0  0  0  0  0  0  0  0  0  0  0
    3.6373   -9.5349   16.0582 N   0  0  0  0  0  0  0  0  0  0  0  0
    9.9275   -4.8001   18.0438 N   0  0  0  0  0  0  0  0  0  0  0  0
    8.5908   -5.7425   16.4412 C   0  0  0  0  0  0  0  0  0  0  0  0
   10.5993   -4.8981   21.6068 C   0  0  0  0  0  0  0  0  0  0  0  0
   10.4258   -3.0106   23.0998 C   0  0  0  0  0  0  0  0  0  0  0  0
   10.2148   -3.4364   25.4200 C   0  0  0  0  0  0  0  0  0  0  0  0
    9.7853   -1.1840   24.4927 C   0  0  0  0  0  0  0  0  0  0  0  0
    5.0276   -8.5227   17.5352 C   0  0  0  0  0  0  0  0  0  0  0  0
    9.8187   -2.0895   25.5800 C   0  0  0  0  0  0  0  0  0  0  0  0
    5.6473   -8.7216   15.3158 C   0  0  0  0  0  0  0  0  0  0  0  0
   10.7581   -3.1233   19.4720 N   0  0  0  0  0  0  0  0  0  0  0  0
    9.9571   -4.0573   16.8866 C   0  0  0  0  0  0  0  0  0  0  0  0
    7.6213   -6.5618   16.0087 C   0  0  0  0  0  0  0  0  0  0  0  0
   10.8583   -2.6527   20.7222 C   0  0  0  0  0  0  0  0  0  0  0  0
   10.6412   -3.5089   21.7936 C   0  0  0  0  0  0  0  0  0  0  0  0
   10.4972   -3.8968   24.1589 C   0  0  0  0  0  0  0  0  0  0  0  0
    5.9260   -8.2736   16.5517 C   0  0  0  0  0  0  0  0  0  0  0  0
    3.8816   -9.1166   17.2493 C   0  0  0  0  0  0  0  0  0  0  0  0
   10.1297   -1.6575   23.2324 C   0  0  0  0  0  0  0  0  0  0  0  0
    9.4684   -1.6929   26.7263 F   0  0  0  0  0  0  0  0  0  0  0  0
    7.7963   -7.7906   17.9837 C   0  0  0  0  0  0  0  0  0  0  0  0
   10.5884   -3.0725   16.7902 O   0  0  0  0  0  0  0  0  0  0  0  0
   10.4323   -5.3494   20.3516 C   0  0  0  0  0  0  0  0  0  0  0  0
    7.1156   -7.5454   16.8218 C   0  0  0  0  0  0  0  0  0  0  0  0
   10.3885   -4.4388   19.2773 C   0  0  0  0  0  0  0  0  0  0  0  0
    4.5160   -9.3822   15.0841 C   0  0  0  0  0  0  0  0  0  0  0  0
  1  3  4  0
  1 24  4  0
  2  6  4  0
  2 15  4  0
  3  5  4  0
  3  6  4  0
  4 21  4  0
  4 29  4  0
  5 15  4  0
  5 28  1  0
  6 16  4  0
  7 18  4  0
  7 26  4  0
  8 18  1  0
  8 19  4  0
  8 22  4  0
  9 12  4  0
  9 19  4  0
 10 12  4  0
 10 22  4  0
 11 20  4  0
 11 21  4  0
 12 23  1  0
 13 20  4  0
 13 29  4  0
 14 17  4  0
 14 28  4  0
 15 25  2  0
 16 27  4  0
 17 18  4  0
 20 27  1  0
 24 27  4  0
 26 28  4  0
M  END
$$$$

 Created by Python create_sdf_string function

 29 33  0  0  0  0  0  0  0  0999 V2000
    8.8270   -7.0288   18.4251 C   0  0  0  0  0  0  0  0  0  0  0  0
    9.1576   -4.6236   15.8860 O   0  0  0  0  0  0  0  0  0  0  0  0
    9.1509   -5.9108   17.7177 C   0  0  0  0  0  0  0  0  0  0  0  0
    3.6373   -9.5349   16.0582 N   0  0  0  0  0  0  0  0  0  0  0  0
    9.9275   -4.8001   18.0438 N   0  0  0  0  0  0  0  0  0  0  0  0
    8.5908   -5.7425   16.4412 C   0  0  0  0  0  0  0  0  0  0  0  0
   10.5993   -4.8981   21.6068 C   0  0  0  0  0  0  0  0  0  0  0  0
   10.4258   -3.0106   23.0998 C   0  0  0  0  0  0  0  0  0  0  0  0
   10.2148   -3.4364   25.4200 C   0  0  0  0  0  0  0  0  0  0  0  0
    9.7853   -1.1840   24.4927 C   0  0  0  0  0  0  0  0  0  0  0  0
    5.0276   -8.5227   17.5352 C   0  0  0  0  0  0  0  0  0  0  0  0
    9.8187   -2.0895   25.5800 C   0  0  0  0  0  0  0  0  0  0  0  0
    5.6473   -8.7216   15.3158 C   0  0  0  0  0  0  0  0  0  0  0  0
   10.7581   -3.1233   19.4720 N   0  0  0  0  0  0  0  0  0  0  0  0
    9.9571   -4.0573   16.8866 C   0  0  0  0  0  0  0  0  0  0  0  0
    7.6213   -6.5618   16.0087 C   0  0  0  0  0  0  0  0  0  0  0  0
   10.8583   -2.6527   20.7222 C   0  0  0  0  0  0  0  0  0  0  0  0
   10.6412   -3.5089   21.7936 C   0  0  0  0  0  0  0  0  0  0  0  0
   10.4972   -3.8968   24.1589 C   0  0  0  0  0  0  0  0  0  0  0  0
    5.9260   -8.2736   16.5517 C   0  0  0  0  0  0  0  0  0  0  0  0
    3.8816   -9.1166   17.2493 C   0  0  0  0  0  0  0  0  0  0  0  0
   10.1297   -1.6575   23.2324 C   0  0  0  0  0  0  0  0  0  0  0  0
    9.4684   -1.6929   26.7263 F   0  0  0  0  0  0  0  0  0  0  0  0
    7.7963   -7.7906   17.9837 C   0  0  0  0  0  0  0  0  0  0  0  0
   10.5884   -3.0725   16.7902 O   0  0  0  0  0  0  0  0  0  0  0  0
   10.4323   -5.3494   20.3516 C   0  0  0  0  0  0  0  0  0  0  0  0
    7.1156   -7.5454   16.8218 C   0  0  0  0  0  0  0  0  0  0  0  0
   10.3885   -4.4388   19.2773 C   0  0  0  0  0  0  0  0  0  0  0  0
    4.5160   -9.3822   15.0841 C   0  0  0  0  0  0  0  0  0  0  0  0
  1  3  4  0
  1 24  4  0
  2  6  4  0
  2 15  4  0
  3  5  4  0
  3  6  4  0
  4 21  4  0
  4 29  4  0
  5 15  4  0
  5 28  1  0
  6 16  4  0
  7 18  4  0
  7 26  4  0
  8 18  1  0
  8 19  4  0
  8 22  4  0
  9 12  4  0
  9 19  4  0
 10 12  4  0
 10 22  4  0
 11 20  4  0
 11 21  4  0
 12 23  1  0
 13 20  4  0
 13 29  4  0
 14 17  4  0
 14 28  4  0
 15 25  2  0
 16 27  4  0
 17 18  4  0
 20 27  1  0
 24 27  4  0
 26 28  4  0
M  END
$$$$

 Created by Python create_sdf_string function

 29 33  0  0  0  0  0  0  0  0999 V2000
    8.8270   -7.0288   18.4251 C   0  0  0  0  0  0  0  0  0  0  0  0
    9.1576   -4.6236   15.8860 O   0  0  0  0  0  0  0  0  0  0  0  0
    9.1509   -5.9108   17.7177 C   0  0  0  0  0  0  0  0  0  0  0  0
    3.6373   -9.5349   16.0582 N   0  0  0  0  0  0  0  0  0  0  0  0
    9.9275   -4.8001   18.0438 N   0  0  0  0  0  0  0  0  0  0  0  0
    8.5908   -5.7425   16.4412 C   0  0  0  0  0  0  0  0  0  0  0  0
   10.5993   -4.8981   21.6068 C   0  0  0  0  0  0  0  0  0  0  0  0
   10.4258   -3.0106   23.0998 C   0  0  0  0  0  0  0  0  0  0  0  0
   10.2148   -3.4364   25.4200 C   0  0  0  0  0  0  0  0  0  0  0  0
    9.7853   -1.1840   24.4927 C   0  0  0  0  0  0  0  0  0  0  0  0
    5.0276   -8.5227   17.5352 C   0  0  0  0  0  0  0  0  0  0  0  0
    9.8187   -2.0895   25.5800 C   0  0  0  0  0  0  0  0  0  0  0  0
    5.6473   -8.7216   15.3158 C   0  0  0  0  0  0  0  0  0  0  0  0
   10.7581   -3.1233   19.4720 N   0  0  0  0  0  0  0  0  0  0  0  0
    9.9571   -4.0573   16.8866 C   0  0  0  0  0  0  0  0  0  0  0  0
    7.6213   -6.5618   16.0087 C   0  0  0  0  0  0  0  0  0  0  0  0
   10.8583   -2.6527   20.7222 C   0  0  0  0  0  0  0  0  0  0  0  0
   10.6412   -3.5089   21.7936 C   0  0  0  0  0  0  0  0  0  0  0  0
   10.4972   -3.8968   24.1589 C   0  0  0  0  0  0  0  0  0  0  0  0
    5.9260   -8.2736   16.5517 C   0  0  0  0  0  0  0  0  0  0  0  0
    3.8816   -9.1166   17.2493 C   0  0  0  0  0  0  0  0  0  0  0  0
   10.1297   -1.6575   23.2324 C   0  0  0  0  0  0  0  0  0  0  0  0
    9.4684   -1.6929   26.7263 F   0  0  0  0  0  0  0  0  0  0  0  0
    7.7963   -7.7906   17.9837 C   0  0  0  0  0  0  0  0  0  0  0  0
   10.5884   -3.0725   16.7902 O   0  0  0  0  0  0  0  0  0  0  0  0
   10.4323   -5.3494   20.3516 C   0  0  0  0  0  0  0  0  0  0  0  0
    7.1156   -7.5454   16.8218 C   0  0  0  0  0  0  0  0  0  0  0  0
   10.3885   -4.4388   19.2773 C   0  0  0  0  0  0  0  0  0  0  0  0
    4.5160   -9.3822   15.0841 C   0  0  0  0  0  0  0  0  0  0  0  0
  1  3  4  0
  1 24  4  0
  2  6  4  0
  2 15  4  0
  3  5  4  0
  3  6  4  0
  4 21  4  0
  4 29  4  0
  5 15  4  0
  5 28  1  0
  6 16  4  0
  7 18  4  0
  7 26  4  0
  8 18  1  0
  8 19  4  0
  8 22  4  0
  9 12  4  0
  9 19  4  0
 10 12  4  0
 10 22  4  0
 11 20  4  0
 11 21  4  0
 12 23  1  0
 13 20  4  0
 13 29  4  0
 14 17  4  0
 14 28  4  0
 15 25  2  0
 16 27  4  0
 17 18  4  0
 20 27  1  0
 24 27  4  0
 26 28  4  0
M  END
$$$$

 Created by Python create_sdf_string function

 29 33  0  0  0  0  0  0  0  0999 V2000
    8.8270   -7.0288   18.4251 C   0  0  0  0  0  0  0  0  0  0  0  0
    9.1576   -4.6236   15.8860 O   0  0  0  0  0  0  0  0  0  0  0  0
    9.1509   -5.9108   17.7177 C   0  0  0  0  0  0  0  0  0  0  0  0
    3.6373   -9.5349   16.0582 N   0  0  0  0  0  0  0  0  0  0  0  0
    9.9275   -4.8001   18.0438 N   0  0  0  0  0  0  0  0  0  0  0  0
    8.5908   -5.7425   16.4412 C   0  0  0  0  0  0  0  0  0  0  0  0
   10.5993   -4.8981   21.6068 C   0  0  0  0  0  0  0  0  0  0  0  0
   10.4258   -3.0106   23.0998 C   0  0  0  0  0  0  0  0  0  0  0  0
   10.2148   -3.4364   25.4200 C   0  0  0  0  0  0  0  0  0  0  0  0
    9.7853   -1.1840   24.4927 C   0  0  0  0  0  0  0  0  0  0  0  0
    5.0276   -8.5227   17.5352 C   0  0  0  0  0  0  0  0  0  0  0  0
    9.8187   -2.0895   25.5800 C   0  0  0  0  0  0  0  0  0  0  0  0
    5.6473   -8.7216   15.3158 C   0  0  0  0  0  0  0  0  0  0  0  0
   10.7581   -3.1233   19.4720 N   0  0  0  0  0  0  0  0  0  0  0  0
    9.9571   -4.0573   16.8866 C   0  0  0  0  0  0  0  0  0  0  0  0
    7.6213   -6.5618   16.0087 C   0  0  0  0  0  0  0  0  0  0  0  0
   10.8583   -2.6527   20.7222 C   0  0  0  0  0  0  0  0  0  0  0  0
   10.6412   -3.5089   21.7936 C   0  0  0  0  0  0  0  0  0  0  0  0
   10.4972   -3.8968   24.1589 C   0  0  0  0  0  0  0  0  0  0  0  0
    5.9260   -8.2736   16.5517 C   0  0  0  0  0  0  0  0  0  0  0  0
    3.8816   -9.1166   17.2493 C   0  0  0  0  0  0  0  0  0  0  0  0
   10.1297   -1.6575   23.2324 C   0  0  0  0  0  0  0  0  0  0  0  0
    9.4684   -1.6929   26.7263 F   0  0  0  0  0  0  0  0  0  0  0  0
    7.7963   -7.7906   17.9837 C   0  0  0  0  0  0  0  0  0  0  0  0
   10.5884   -3.0725   16.7902 O   0  0  0  0  0  0  0  0  0  0  0  0
   10.4323   -5.3494   20.3516 C   0  0  0  0  0  0  0  0  0  0  0  0
    7.1156   -7.5454   16.8218 C   0  0  0  0  0  0  0  0  0  0  0  0
   10.3885   -4.4388   19.2773 C   0  0  0  0  0  0  0  0  0  0  0  0
    4.5160   -9.3822   15.0841 C   0  0  0  0  0  0  0  0  0  0  0  0
  1  3  4  0
  1 24  4  0
  2  6  4  0
  2 15  4  0
  3  5  4  0
  3  6  4  0
  4 21  4  0
  4 29  4  0
  5 15  4  0
  5 28  1  0
  6 16  4  0
  7 18  4  0
  7 26  4  0
  8 18  1  0
  8 19  4  0
  8 22  4  0
  9 12  4  0
  9 19  4  0
 10 12  4  0
 10 22  4  0
 11 20  4  0
 11 21  4  0
 12 23  1  0
 13 20  4  0
 13 29  4  0
 14 17  4  0
 14 28  4  0
 15 25  2  0
 16 27  4  0
 17 18  4  0
 20 27  1  0
 24 27  4  0
 26 28  4  0
M  END
$$$$

 Created by Python create_sdf_string function

 29 33  0  0  0  0  0  0  0  0999 V2000
    8.8270   -7.0288   18.4251 C   0  0  0  0  0  0  0  0  0  0  0  0
    9.1576   -4.6236   15.8860 O   0  0  0  0  0  0  0  0  0  0  0  0
    9.1509   -5.9108   17.7177 C   0  0  0  0  0  0  0  0  0  0  0  0
    3.6373   -9.5349   16.0582 N   0  0  0  0  0  0  0  0  0  0  0  0
    9.9275   -4.8001   18.0438 N   0  0  0  0  0  0  0  0  0  0  0  0
    8.5908   -5.7425   16.4412 C   0  0  0  0  0  0  0  0  0  0  0  0
   10.5993   -4.8981   21.6068 C   0  0  0  0  0  0  0  0  0  0  0  0
   10.4258   -3.0106   23.0998 C   0  0  0  0  0  0  0  0  0  0  0  0
   10.2148   -3.4364   25.4200 C   0  0  0  0  0  0  0  0  0  0  0  0
    9.7853   -1.1840   24.4927 C   0  0  0  0  0  0  0  0  0  0  0  0
    5.0276   -8.5227   17.5352 C   0  0  0  0  0  0  0  0  0  0  0  0
    9.8187   -2.0895   25.5800 C   0  0  0  0  0  0  0  0  0  0  0  0
    5.6473   -8.7216   15.3158 C   0  0  0  0  0  0  0  0  0  0  0  0
   10.7581   -3.1233   19.4720 N   0  0  0  0  0  0  0  0  0  0  0  0
    9.9571   -4.0573   16.8866 C   0  0  0  0  0  0  0  0  0  0  0  0
    7.6213   -6.5618   16.0087 C   0  0  0  0  0  0  0  0  0  0  0  0
   10.8583   -2.6527   20.7222 C   0  0  0  0  0  0  0  0  0  0  0  0
   10.6412   -3.5089   21.7936 C   0  0  0  0  0  0  0  0  0  0  0  0
   10.4972   -3.8968   24.1589 C   0  0  0  0  0  0  0  0  0  0  0  0
    5.9260   -8.2736   16.5517 C   0  0  0  0  0  0  0  0  0  0  0  0
    3.8816   -9.1166   17.2493 C   0  0  0  0  0  0  0  0  0  0  0  0
   10.1297   -1.6575   23.2324 C   0  0  0  0  0  0  0  0  0  0  0  0
    9.4684   -1.6929   26.7263 F   0  0  0  0  0  0  0  0  0  0  0  0
    7.7963   -7.7906   17.9837 C   0  0  0  0  0  0  0  0  0  0  0  0
   10.5884   -3.0725   16.7902 O   0  0  0  0  0  0  0  0  0  0  0  0
   10.4323   -5.3494   20.3516 C   0  0  0  0  0  0  0  0  0  0  0  0
    7.1156   -7.5454   16.8218 C   0  0  0  0  0  0  0  0  0  0  0  0
   10.3885   -4.4388   19.2773 C   0  0  0  0  0  0  0  0  0  0  0  0
    4.5160   -9.3822   15.0841 C   0  0  0  0  0  0  0  0  0  0  0  0
  1  3  4  0
  1 24  4  0
  2  6  4  0
  2 15  4  0
  3  5  4  0
  3  6  4  0
  4 21  4  0
  4 29  4  0
  5 15  4  0
  5 28  1  0
  6 16  4  0
  7 18  4  0
  7 26  4  0
  8 18  1  0
  8 19  4  0
  8 22  4  0
  9 12  4  0
  9 19  4  0
 10 12  4  0
 10 22  4  0
 11 20  4  0
 11 21  4  0
 12 23  1  0
 13 20  4  0
 13 29  4  0
 14 17  4  0
 14 28  4  0
 15 25  2  0
 16 27  4  0
 17 18  4  0
 20 27  1  0
 24 27  4  0
 26 28  4  0
M  END
$$$$

 Created by Python create_sdf_string function

 29 33  0  0  0  0  0  0  0  0999 V2000
    8.8270   -7.0288   18.4251 C   0  0  0  0  0  0  0  0  0  0  0  0
    9.1576   -4.6236   15.8860 O   0  0  0  0  0  0  0  0  0  0  0  0
    9.1509   -5.9108   17.7177 C   0  0  0  0  0  0  0  0  0  0  0  0
    3.6373   -9.5349   16.0582 N   0  0  0  0  0  0  0  0  0  0  0  0
    9.9275   -4.8001   18.0438 N   0  0  0  0  0  0  0  0  0  0  0  0
    8.5908   -5.7425   16.4412 C   0  0  0  0  0  0  0  0  0  0  0  0
   10.5993   -4.8981   21.6068 C   0  0  0  0  0  0  0  0  0  0  0  0
   10.4258   -3.0106   23.0998 C   0  0  0  0  0  0  0  0  0  0  0  0
   10.2148   -3.4364   25.4200 C   0  0  0  0  0  0  0  0  0  0  0  0
    9.7853   -1.1840   24.4927 C   0  0  0  0  0  0  0  0  0  0  0  0
    5.0276   -8.5227   17.5352 C   0  0  0  0  0  0  0  0  0  0  0  0
    9.8187   -2.0895   25.5800 C   0  0  0  0  0  0  0  0  0  0  0  0
    5.6473   -8.7216   15.3158 C   0  0  0  0  0  0  0  0  0  0  0  0
   10.7581   -3.1233   19.4720 N   0  0  0  0  0  0  0  0  0  0  0  0
    9.9571   -4.0573   16.8866 C   0  0  0  0  0  0  0  0  0  0  0  0
    7.6213   -6.5618   16.0087 C   0  0  0  0  0  0  0  0  0  0  0  0
   10.8583   -2.6527   20.7222 C   0  0  0  0  0  0  0  0  0  0  0  0
   10.6412   -3.5089   21.7936 C   0  0  0  0  0  0  0  0  0  0  0  0
   10.4972   -3.8968   24.1589 C   0  0  0  0  0  0  0  0  0  0  0  0
    5.9260   -8.2736   16.5517 C   0  0  0  0  0  0  0  0  0  0  0  0
    3.8816   -9.1166   17.2493 C   0  0  0  0  0  0  0  0  0  0  0  0
   10.1297   -1.6575   23.2324 C   0  0  0  0  0  0  0  0  0  0  0  0
    9.4684   -1.6929   26.7263 F   0  0  0  0  0  0  0  0  0  0  0  0
    7.7963   -7.7906   17.9837 C   0  0  0  0  0  0  0  0  0  0  0  0
   10.5884   -3.0725   16.7902 O   0  0  0  0  0  0  0  0  0  0  0  0
   10.4323   -5.3494   20.3516 C   0  0  0  0  0  0  0  0  0  0  0  0
    7.1156   -7.5454   16.8218 C   0  0  0  0  0  0  0  0  0  0  0  0
   10.3885   -4.4388   19.2773 C   0  0  0  0  0  0  0  0  0  0  0  0
    4.5160   -9.3822   15.0841 C   0  0  0  0  0  0  0  0  0  0  0  0
  1  3  4  0
  1 24  4  0
  2  6  4  0
  2 15  4  0
  3  5  4  0
  3  6  4  0
  4 21  4  0
  4 29  4  0
  5 15  4  0
  5 28  1  0
  6 16  4  0
  7 18  4  0
  7 26  4  0
  8 18  1  0
  8 19  4  0
  8 22  4  0
  9 12  4  0
  9 19  4  0
 10 12  4  0
 10 22  4  0
 11 20  4  0
 11 21  4  0
 12 23  1  0
 13 20  4  0
 13 29  4  0
 14 17  4  0
 14 28  4  0
 15 25  2  0
 16 27  4  0
 17 18  4  0
 20 27  1  0
 24 27  4  0
 26 28  4  0
M  END
$$$$

 Created by Python create_sdf_string function

 29 33  0  0  0  0  0  0  0  0999 V2000
    8.8270   -7.0288   18.4251 C   0  0  0  0  0  0  0  0  0  0  0  0
    9.1576   -4.6236   15.8860 O   0  0  0  0  0  0  0  0  0  0  0  0
    9.1509   -5.9108   17.7177 C   0  0  0  0  0  0  0  0  0  0  0  0
    3.6373   -9.5349   16.0582 N   0  0  0  0  0  0  0  0  0  0  0  0
    9.9275   -4.8001   18.0438 N   0  0  0  0  0  0  0  0  0  0  0  0
    8.5908   -5.7425   16.4412 C   0  0  0  0  0  0  0  0  0  0  0  0
   10.5993   -4.8981   21.6068 C   0  0  0  0  0  0  0  0  0  0  0  0
   10.4258   -3.0106   23.0998 C   0  0  0  0  0  0  0  0  0  0  0  0
   10.2148   -3.4364   25.4200 C   0  0  0  0  0  0  0  0  0  0  0  0
    9.7853   -1.1840   24.4927 C   0  0  0  0  0  0  0  0  0  0  0  0
    5.0276   -8.5227   17.5352 C   0  0  0  0  0  0  0  0  0  0  0  0
    9.8187   -2.0895   25.5800 C   0  0  0  0  0  0  0  0  0  0  0  0
    5.6473   -8.7216   15.3158 C   0  0  0  0  0  0  0  0  0  0  0  0
   10.7581   -3.1233   19.4720 N   0  0  0  0  0  0  0  0  0  0  0  0
    9.9571   -4.0573   16.8866 C   0  0  0  0  0  0  0  0  0  0  0  0
    7.6213   -6.5618   16.0087 C   0  0  0  0  0  0  0  0  0  0  0  0
   10.8583   -2.6527   20.7222 C   0  0  0  0  0  0  0  0  0  0  0  0
   10.6412   -3.5089   21.7936 C   0  0  0  0  0  0  0  0  0  0  0  0
   10.4972   -3.8968   24.1589 C   0  0  0  0  0  0  0  0  0  0  0  0
    5.9260   -8.2736   16.5517 C   0  0  0  0  0  0  0  0  0  0  0  0
    3.8816   -9.1166   17.2493 C   0  0  0  0  0  0  0  0  0  0  0  0
   10.1297   -1.6575   23.2324 C   0  0  0  0  0  0  0  0  0  0  0  0
    9.4684   -1.6929   26.7263 F   0  0  0  0  0  0  0  0  0  0  0  0
    7.7963   -7.7906   17.9837 C   0  0  0  0  0  0  0  0  0  0  0  0
   10.5884   -3.0725   16.7902 O   0  0  0  0  0  0  0  0  0  0  0  0
   10.4323   -5.3494   20.3516 C   0  0  0  0  0  0  0  0  0  0  0  0
    7.1156   -7.5454   16.8218 C   0  0  0  0  0  0  0  0  0  0  0  0
   10.3885   -4.4388   19.2773 C   0  0  0  0  0  0  0  0  0  0  0  0
    4.5160   -9.3822   15.0841 C   0  0  0  0  0  0  0  0  0  0  0  0
  1  3  4  0
  1 24  4  0
  2  6  4  0
  2 15  4  0
  3  5  4  0
  3  6  4  0
  4 21  4  0
  4 29  4  0
  5 15  4  0
  5 28  1  0
  6 16  4  0
  7 18  4  0
  7 26  4  0
  8 18  1  0
  8 19  4  0
  8 22  4  0
  9 12  4  0
  9 19  4  0
 10 12  4  0
 10 22  4  0
 11 20  4  0
 11 21  4  0
 12 23  1  0
 13 20  4  0
 13 29  4  0
 14 17  4  0
 14 28  4  0
 15 25  2  0
 16 27  4  0
 17 18  4  0
 20 27  1  0
 24 27  4  0
 26 28  4  0
M  END
$$$$

 Created by Python create_sdf_string function

 29 33  0  0  0  0  0  0  0  0999 V2000
    8.8270   -7.0288   18.4251 C   0  0  0  0  0  0  0  0  0  0  0  0
    9.1576   -4.6236   15.8860 O   0  0  0  0  0  0  0  0  0  0  0  0
    9.1509   -5.9108   17.7177 C   0  0  0  0  0  0  0  0  0  0  0  0
    3.6373   -9.5349   16.0582 N   0  0  0  0  0  0  0  0  0  0  0  0
    9.9275   -4.8001   18.0438 N   0  0  0  0  0  0  0  0  0  0  0  0
    8.5908   -5.7425   16.4412 C   0  0  0  0  0  0  0  0  0  0  0  0
   10.5993   -4.8981   21.6068 C   0  0  0  0  0  0  0  0  0  0  0  0
   10.4258   -3.0106   23.0998 C   0  0  0  0  0  0  0  0  0  0  0  0
   10.2148   -3.4364   25.4200 C   0  0  0  0  0  0  0  0  0  0  0  0
    9.7853   -1.1840   24.4927 C   0  0  0  0  0  0  0  0  0  0  0  0
    5.0276   -8.5227   17.5352 C   0  0  0  0  0  0  0  0  0  0  0  0
    9.8187   -2.0895   25.5800 C   0  0  0  0  0  0  0  0  0  0  0  0
    5.6473   -8.7216   15.3158 C   0  0  0  0  0  0  0  0  0  0  0  0
   10.7581   -3.1233   19.4720 N   0  0  0  0  0  0  0  0  0  0  0  0
    9.9571   -4.0573   16.8866 C   0  0  0  0  0  0  0  0  0  0  0  0
    7.6213   -6.5618   16.0087 C   0  0  0  0  0  0  0  0  0  0  0  0
   10.8583   -2.6527   20.7222 C   0  0  0  0  0  0  0  0  0  0  0  0
   10.6412   -3.5089   21.7936 C   0  0  0  0  0  0  0  0  0  0  0  0
   10.4972   -3.8968   24.1589 C   0  0  0  0  0  0  0  0  0  0  0  0
    5.9260   -8.2736   16.5517 C   0  0  0  0  0  0  0  0  0  0  0  0
    3.8816   -9.1166   17.2493 C   0  0  0  0  0  0  0  0  0  0  0  0
   10.1297   -1.6575   23.2324 C   0  0  0  0  0  0  0  0  0  0  0  0
    9.4684   -1.6929   26.7263 F   0  0  0  0  0  0  0  0  0  0  0  0
    7.7963   -7.7906   17.9837 C   0  0  0  0  0  0  0  0  0  0  0  0
   10.5884   -3.0725   16.7902 O   0  0  0  0  0  0  0  0  0  0  0  0
   10.4323   -5.3494   20.3516 C   0  0  0  0  0  0  0  0  0  0  0  0
    7.1156   -7.5454   16.8218 C   0  0  0  0  0  0  0  0  0  0  0  0
   10.3885   -4.4388   19.2773 C   0  0  0  0  0  0  0  0  0  0  0  0
    4.5160   -9.3822   15.0841 C   0  0  0  0  0  0  0  0  0  0  0  0
  1  3  4  0
  1 24  4  0
  2  6  4  0
  2 15  4  0
  3  5  4  0
  3  6  4  0
  4 21  4  0
  4 29  4  0
  5 15  4  0
  5 28  1  0
  6 16  4  0
  7 18  4  0
  7 26  4  0
  8 18  1  0
  8 19  4  0
  8 22  4  0
  9 12  4  0
  9 19  4  0
 10 12  4  0
 10 22  4  0
 11 20  4  0
 11 21  4  0
 12 23  1  0
 13 20  4  0
 13 29  4  0
 14 17  4  0
 14 28  4  0
 15 25  2  0
 16 27  4  0
 17 18  4  0
 20 27  1  0
 24 27  4  0
 26 28  4  0
M  END
$$$$

 Created by Python create_sdf_string function

 29 33  0  0  0  0  0  0  0  0999 V2000
    8.8270   -7.0288   18.4251 C   0  0  0  0  0  0  0  0  0  0  0  0
    9.1576   -4.6236   15.8860 O   0  0  0  0  0  0  0  0  0  0  0  0
    9.1509   -5.9108   17.7177 C   0  0  0  0  0  0  0  0  0  0  0  0
    3.6373   -9.5349   16.0582 N   0  0  0  0  0  0  0  0  0  0  0  0
    9.9275   -4.8001   18.0438 N   0  0  0  0  0  0  0  0  0  0  0  0
    8.5908   -5.7425   16.4412 C   0  0  0  0  0  0  0  0  0  0  0  0
   10.5993   -4.8981   21.6068 C   0  0  0  0  0  0  0  0  0  0  0  0
   10.4258   -3.0106   23.0998 C   0  0  0  0  0  0  0  0  0  0  0  0
   10.2148   -3.4364   25.4200 C   0  0  0  0  0  0  0  0  0  0  0  0
    9.7853   -1.1840   24.4927 C   0  0  0  0  0  0  0  0  0  0  0  0
    5.0276   -8.5227   17.5352 C   0  0  0  0  0  0  0  0  0  0  0  0
    9.8187   -2.0895   25.5800 C   0  0  0  0  0  0  0  0  0  0  0  0
    5.6473   -8.7216   15.3158 C   0  0  0  0  0  0  0  0  0  0  0  0
   10.7581   -3.1233   19.4720 N   0  0  0  0  0  0  0  0  0  0  0  0
    9.9571   -4.0573   16.8866 C   0  0  0  0  0  0  0  0  0  0  0  0
    7.6213   -6.5618   16.0087 C   0  0  0  0  0  0  0  0  0  0  0  0
   10.8583   -2.6527   20.7222 C   0  0  0  0  0  0  0  0  0  0  0  0
   10.6412   -3.5089   21.7936 C   0  0  0  0  0  0  0  0  0  0  0  0
   10.4972   -3.8968   24.1589 C   0  0  0  0  0  0  0  0  0  0  0  0
    5.9260   -8.2736   16.5517 C   0  0  0  0  0  0  0  0  0  0  0  0
    3.8816   -9.1166   17.2493 C   0  0  0  0  0  0  0  0  0  0  0  0
   10.1297   -1.6575   23.2324 C   0  0  0  0  0  0  0  0  0  0  0  0
    9.4684   -1.6929   26.7263 F   0  0  0  0  0  0  0  0  0  0  0  0
    7.7963   -7.7906   17.9837 C   0  0  0  0  0  0  0  0  0  0  0  0
   10.5884   -3.0725   16.7902 O   0  0  0  0  0  0  0  0  0  0  0  0
   10.4323   -5.3494   20.3516 C   0  0  0  0  0  0  0  0  0  0  0  0
    7.1156   -7.5454   16.8218 C   0  0  0  0  0  0  0  0  0  0  0  0
   10.3885   -4.4388   19.2773 C   0  0  0  0  0  0  0  0  0  0  0  0
    4.5160   -9.3822   15.0841 C   0  0  0  0  0  0  0  0  0  0  0  0
  1  3  4  0
  1 24  4  0
  2  6  4  0
  2 15  4  0
  3  5  4  0
  3  6  4  0
  4 21  4  0
  4 29  4  0
  5 15  4  0
  5 28  1  0
  6 16  4  0
  7 18  4  0
  7 26  4  0
  8 18  1  0
  8 19  4  0
  8 22  4  0
  9 12  4  0
  9 19  4  0
 10 12  4  0
 10 22  4  0
 11 20  4  0
 11 21  4  0
 12 23  1  0
 13 20  4  0
 13 29  4  0
 14 17  4  0
 14 28  4  0
 15 25  2  0
 16 27  4  0
 17 18  4  0
 20 27  1  0
 24 27  4  0
 26 28  4  0
M  END
$$$$

 Created by Python create_sdf_string function

 29 33  0  0  0  0  0  0  0  0999 V2000
    8.8270   -7.0288   18.4251 C   0  0  0  0  0  0  0  0  0  0  0  0
    9.1576   -4.6236   15.8860 O   0  0  0  0  0  0  0  0  0  0  0  0
    9.1509   -5.9108   17.7177 C   0  0  0  0  0  0  0  0  0  0  0  0
    3.6373   -9.5349   16.0582 N   0  0  0  0  0  0  0  0  0  0  0  0
    9.9275   -4.8001   18.0438 N   0  0  0  0  0  0  0  0  0  0  0  0
    8.5908   -5.7425   16.4412 C   0  0  0  0  0  0  0  0  0  0  0  0
   10.5993   -4.8981   21.6068 C   0  0  0  0  0  0  0  0  0  0  0  0
   10.4258   -3.0106   23.0998 C   0  0  0  0  0  0  0  0  0  0  0  0
   10.2148   -3.4364   25.4200 C   0  0  0  0  0  0  0  0  0  0  0  0
    9.7853   -1.1840   24.4927 C   0  0  0  0  0  0  0  0  0  0  0  0
    5.0276   -8.5227   17.5352 C   0  0  0  0  0  0  0  0  0  0  0  0
    9.8187   -2.0895   25.5800 C   0  0  0  0  0  0  0  0  0  0  0  0
    5.6473   -8.7216   15.3158 C   0  0  0  0  0  0  0  0  0  0  0  0
   10.7581   -3.1233   19.4720 N   0  0  0  0  0  0  0  0  0  0  0  0
    9.9571   -4.0573   16.8866 C   0  0  0  0  0  0  0  0  0  0  0  0
    7.6213   -6.5618   16.0087 C   0  0  0  0  0  0  0  0  0  0  0  0
   10.8583   -2.6527   20.7222 C   0  0  0  0  0  0  0  0  0  0  0  0
   10.6412   -3.5089   21.7936 C   0  0  0  0  0  0  0  0  0  0  0  0
   10.4972   -3.8968   24.1589 C   0  0  0  0  0  0  0  0  0  0  0  0
    5.9260   -8.2736   16.5517 C   0  0  0  0  0  0  0  0  0  0  0  0
    3.8816   -9.1166   17.2493 C   0  0  0  0  0  0  0  0  0  0  0  0
   10.1297   -1.6575   23.2324 C   0  0  0  0  0  0  0  0  0  0  0  0
    9.4684   -1.6929   26.7263 F   0  0  0  0  0  0  0  0  0  0  0  0
    7.7963   -7.7906   17.9837 C   0  0  0  0  0  0  0  0  0  0  0  0
   10.5884   -3.0725   16.7902 O   0  0  0  0  0  0  0  0  0  0  0  0
   10.4323   -5.3494   20.3516 C   0  0  0  0  0  0  0  0  0  0  0  0
    7.1156   -7.5454   16.8218 C   0  0  0  0  0  0  0  0  0  0  0  0
   10.3885   -4.4388   19.2773 C   0  0  0  0  0  0  0  0  0  0  0  0
    4.5160   -9.3822   15.0841 C   0  0  0  0  0  0  0  0  0  0  0  0
  1  3  4  0
  1 24  4  0
  2  6  4  0
  2 15  4  0
  3  5  4  0
  3  6  4  0
  4 21  4  0
  4 29  4  0
  5 15  4  0
  5 28  1  0
  6 16  4  0
  7 18  4  0
  7 26  4  0
  8 18  1  0
  8 19  4  0
  8 22  4  0
  9 12  4  0
  9 19  4  0
 10 12  4  0
 10 22  4  0
 11 20  4  0
 11 21  4  0
 12 23  1  0
 13 20  4  0
 13 29  4  0
 14 17  4  0
 14 28  4  0
 15 25  2  0
 16 27  4  0
 17 18  4  0
 20 27  1  0
 24 27  4  0
 26 28  4  0
M  END
$$$$

 Created by Python create_sdf_string function

 29 33  0  0  0  0  0  0  0  0999 V2000
    8.8270   -7.0288   18.4251 C   0  0  0  0  0  0  0  0  0  0  0  0
    9.1576   -4.6236   15.8860 O   0  0  0  0  0  0  0  0  0  0  0  0
    9.1509   -5.9108   17.7177 C   0  0  0  0  0  0  0  0  0  0  0  0
    3.6373   -9.5349   16.0582 N   0  0  0  0  0  0  0  0  0  0  0  0
    9.9275   -4.8001   18.0438 N   0  0  0  0  0  0  0  0  0  0  0  0
    8.5908   -5.7425   16.4412 C   0  0  0  0  0  0  0  0  0  0  0  0
   10.5993   -4.8981   21.6068 C   0  0  0  0  0  0  0  0  0  0  0  0
   10.4258   -3.0106   23.0998 C   0  0  0  0  0  0  0  0  0  0  0  0
   10.2148   -3.4364   25.4200 C   0  0  0  0  0  0  0  0  0  0  0  0
    9.7853   -1.1840   24.4927 C   0  0  0  0  0  0  0  0  0  0  0  0
    5.0276   -8.5227   17.5352 C   0  0  0  0  0  0  0  0  0  0  0  0
    9.8187   -2.0895   25.5800 C   0  0  0  0  0  0  0  0  0  0  0  0
    5.6473   -8.7216   15.3158 C   0  0  0  0  0  0  0  0  0  0  0  0
   10.7581   -3.1233   19.4720 N   0  0  0  0  0  0  0  0  0  0  0  0
    9.9571   -4.0573   16.8866 C   0  0  0  0  0  0  0  0  0  0  0  0
    7.6213   -6.5618   16.0087 C   0  0  0  0  0  0  0  0  0  0  0  0
   10.8583   -2.6527   20.7222 C   0  0  0  0  0  0  0  0  0  0  0  0
   10.6412   -3.5089   21.7936 C   0  0  0  0  0  0  0  0  0  0  0  0
   10.4972   -3.8968   24.1589 C   0  0  0  0  0  0  0  0  0  0  0  0
    5.9260   -8.2736   16.5517 C   0  0  0  0  0  0  0  0  0  0  0  0
    3.8816   -9.1166   17.2493 C   0  0  0  0  0  0  0  0  0  0  0  0
   10.1297   -1.6575   23.2324 C   0  0  0  0  0  0  0  0  0  0  0  0
    9.4684   -1.6929   26.7263 F   0  0  0  0  0  0  0  0  0  0  0  0
    7.7963   -7.7906   17.9837 C   0  0  0  0  0  0  0  0  0  0  0  0
   10.5884   -3.0725   16.7902 O   0  0  0  0  0  0  0  0  0  0  0  0
   10.4323   -5.3494   20.3516 C   0  0  0  0  0  0  0  0  0  0  0  0
    7.1156   -7.5454   16.8218 C   0  0  0  0  0  0  0  0  0  0  0  0
   10.3885   -4.4388   19.2773 C   0  0  0  0  0  0  0  0  0  0  0  0
    4.5160   -9.3822   15.0841 C   0  0  0  0  0  0  0  0  0  0  0  0
  1  3  4  0
  1 24  4  0
  2  6  4  0
  2 15  4  0
  3  5  4  0
  3  6  4  0
  4 21  4  0
  4 29  4  0
  5 15  4  0
  5 28  1  0
  6 16  4  0
  7 18  4  0
  7 26  4  0
  8 18  1  0
  8 19  4  0
  8 22  4  0
  9 12  4  0
  9 19  4  0
 10 12  4  0
 10 22  4  0
 11 20  4  0
 11 21  4  0
 12 23  1  0
 13 20  4  0
 13 29  4  0
 14 17  4  0
 14 28  4  0
 15 25  2  0
 16 27  4  0
 17 18  4  0
 20 27  1  0
 24 27  4  0
 26 28  4  0
M  END
$$$$

 Created by Python create_sdf_string function

 29 33  0  0  0  0  0  0  0  0999 V2000
    8.8270   -7.0288   18.4251 C   0  0  0  0  0  0  0  0  0  0  0  0
    9.1576   -4.6236   15.8860 O   0  0  0  0  0  0  0  0  0  0  0  0
    9.1509   -5.9108   17.7177 C   0  0  0  0  0  0  0  0  0  0  0  0
    3.6373   -9.5349   16.0582 N   0  0  0  0  0  0  0  0  0  0  0  0
    9.9275   -4.8001   18.0438 N   0  0  0  0  0  0  0  0  0  0  0  0
    8.5908   -5.7425   16.4412 C   0  0  0  0  0  0  0  0  0  0  0  0
   10.5993   -4.8981   21.6068 C   0  0  0  0  0  0  0  0  0  0  0  0
   10.4258   -3.0106   23.0998 C   0  0  0  0  0  0  0  0  0  0  0  0
   10.2148   -3.4364   25.4200 C   0  0  0  0  0  0  0  0  0  0  0  0
    9.7853   -1.1840   24.4927 C   0  0  0  0  0  0  0  0  0  0  0  0
    5.0276   -8.5227   17.5352 C   0  0  0  0  0  0  0  0  0  0  0  0
    9.8187   -2.0895   25.5800 C   0  0  0  0  0  0  0  0  0  0  0  0
    5.6473   -8.7216   15.3158 C   0  0  0  0  0  0  0  0  0  0  0  0
   10.7581   -3.1233   19.4720 N   0  0  0  0  0  0  0  0  0  0  0  0
    9.9571   -4.0573   16.8866 C   0  0  0  0  0  0  0  0  0  0  0  0
    7.6213   -6.5618   16.0087 C   0  0  0  0  0  0  0  0  0  0  0  0
   10.8583   -2.6527   20.7222 C   0  0  0  0  0  0  0  0  0  0  0  0
   10.6412   -3.5089   21.7936 C   0  0  0  0  0  0  0  0  0  0  0  0
   10.4972   -3.8968   24.1589 C   0  0  0  0  0  0  0  0  0  0  0  0
    5.9260   -8.2736   16.5517 C   0  0  0  0  0  0  0  0  0  0  0  0
    3.8816   -9.1166   17.2493 C   0  0  0  0  0  0  0  0  0  0  0  0
   10.1297   -1.6575   23.2324 C   0  0  0  0  0  0  0  0  0  0  0  0
    9.4684   -1.6929   26.7263 F   0  0  0  0  0  0  0  0  0  0  0  0
    7.7963   -7.7906   17.9837 C   0  0  0  0  0  0  0  0  0  0  0  0
   10.5884   -3.0725   16.7902 O   0  0  0  0  0  0  0  0  0  0  0  0
   10.4323   -5.3494   20.3516 C   0  0  0  0  0  0  0  0  0  0  0  0
    7.1156   -7.5454   16.8218 C   0  0  0  0  0  0  0  0  0  0  0  0
   10.3885   -4.4388   19.2773 C   0  0  0  0  0  0  0  0  0  0  0  0
    4.5160   -9.3822   15.0841 C   0  0  0  0  0  0  0  0  0  0  0  0
  1  3  4  0
  1 24  4  0
  2  6  4  0
  2 15  4  0
  3  5  4  0
  3  6  4  0
  4 21  4  0
  4 29  4  0
  5 15  4  0
  5 28  1  0
  6 16  4  0
  7 18  4  0
  7 26  4  0
  8 18  1  0
  8 19  4  0
  8 22  4  0
  9 12  4  0
  9 19  4  0
 10 12  4  0
 10 22  4  0
 11 20  4  0
 11 21  4  0
 12 23  1  0
 13 20  4  0
 13 29  4  0
 14 17  4  0
 14 28  4  0
 15 25  2  0
 16 27  4  0
 17 18  4  0
 20 27  1  0
 24 27  4  0
 26 28  4  0
M  END
$$$$

 Created by Python create_sdf_string function

 29 33  0  0  0  0  0  0  0  0999 V2000
    8.8270   -7.0288   18.4251 C   0  0  0  0  0  0  0  0  0  0  0  0
    9.1576   -4.6236   15.8860 O   0  0  0  0  0  0  0  0  0  0  0  0
    9.1509   -5.9108   17.7177 C   0  0  0  0  0  0  0  0  0  0  0  0
    3.6373   -9.5349   16.0582 N   0  0  0  0  0  0  0  0  0  0  0  0
    9.9275   -4.8001   18.0438 N   0  0  0  0  0  0  0  0  0  0  0  0
    8.5908   -5.7425   16.4412 C   0  0  0  0  0  0  0  0  0  0  0  0
   10.5993   -4.8981   21.6068 C   0  0  0  0  0  0  0  0  0  0  0  0
   10.4258   -3.0106   23.0998 C   0  0  0  0  0  0  0  0  0  0  0  0
   10.2148   -3.4364   25.4200 C   0  0  0  0  0  0  0  0  0  0  0  0
    9.7853   -1.1840   24.4927 C   0  0  0  0  0  0  0  0  0  0  0  0
    5.0276   -8.5227   17.5352 C   0  0  0  0  0  0  0  0  0  0  0  0
    9.8187   -2.0895   25.5800 C   0  0  0  0  0  0  0  0  0  0  0  0
    5.6473   -8.7216   15.3158 C   0  0  0  0  0  0  0  0  0  0  0  0
   10.7581   -3.1233   19.4720 N   0  0  0  0  0  0  0  0  0  0  0  0
    9.9571   -4.0573   16.8866 C   0  0  0  0  0  0  0  0  0  0  0  0
    7.6213   -6.5618   16.0087 C   0  0  0  0  0  0  0  0  0  0  0  0
   10.8583   -2.6527   20.7222 C   0  0  0  0  0  0  0  0  0  0  0  0
   10.6412   -3.5089   21.7936 C   0  0  0  0  0  0  0  0  0  0  0  0
   10.4972   -3.8968   24.1589 C   0  0  0  0  0  0  0  0  0  0  0  0
    5.9260   -8.2736   16.5517 C   0  0  0  0  0  0  0  0  0  0  0  0
    3.8816   -9.1166   17.2493 C   0  0  0  0  0  0  0  0  0  0  0  0
   10.1297   -1.6575   23.2324 C   0  0  0  0  0  0  0  0  0  0  0  0
    9.4684   -1.6929   26.7263 F   0  0  0  0  0  0  0  0  0  0  0  0
    7.7963   -7.7906   17.9837 C   0  0  0  0  0  0  0  0  0  0  0  0
   10.5884   -3.0725   16.7902 O   0  0  0  0  0  0  0  0  0  0  0  0
   10.4323   -5.3494   20.3516 C   0  0  0  0  0  0  0  0  0  0  0  0
    7.1156   -7.5454   16.8218 C   0  0  0  0  0  0  0  0  0  0  0  0
   10.3885   -4.4388   19.2773 C   0  0  0  0  0  0  0  0  0  0  0  0
    4.5160   -9.3822   15.0841 C   0  0  0  0  0  0  0  0  0  0  0  0
  1  3  4  0
  1 24  4  0
  2  6  4  0
  2 15  4  0
  3  5  4  0
  3  6  4  0
  4 21  4  0
  4 29  4  0
  5 15  4  0
  5 28  1  0
  6 16  4  0
  7 18  4  0
  7 26  4  0
  8 18  1  0
  8 19  4  0
  8 22  4  0
  9 12  4  0
  9 19  4  0
 10 12  4  0
 10 22  4  0
 11 20  4  0
 11 21  4  0
 12 23  1  0
 13 20  4  0
 13 29  4  0
 14 17  4  0
 14 28  4  0
 15 25  2  0
 16 27  4  0
 17 18  4  0
 20 27  1  0
 24 27  4  0
 26 28  4  0
M  END
$$$$

 Created by Python create_sdf_string function

 29 33  0  0  0  0  0  0  0  0999 V2000
    8.8270   -7.0288   18.4251 C   0  0  0  0  0  0  0  0  0  0  0  0
    9.1576   -4.6236   15.8860 O   0  0  0  0  0  0  0  0  0  0  0  0
    9.1509   -5.9108   17.7177 C   0  0  0  0  0  0  0  0  0  0  0  0
    3.6373   -9.5349   16.0582 N   0  0  0  0  0  0  0  0  0  0  0  0
    9.9275   -4.8001   18.0438 N   0  0  0  0  0  0  0  0  0  0  0  0
    8.5908   -5.7425   16.4412 C   0  0  0  0  0  0  0  0  0  0  0  0
   10.5993   -4.8981   21.6068 C   0  0  0  0  0  0  0  0  0  0  0  0
   10.4258   -3.0106   23.0998 C   0  0  0  0  0  0  0  0  0  0  0  0
   10.2148   -3.4364   25.4200 C   0  0  0  0  0  0  0  0  0  0  0  0
    9.7853   -1.1840   24.4927 C   0  0  0  0  0  0  0  0  0  0  0  0
    5.0276   -8.5227   17.5352 C   0  0  0  0  0  0  0  0  0  0  0  0
    9.8187   -2.0895   25.5800 C   0  0  0  0  0  0  0  0  0  0  0  0
    5.6473   -8.7216   15.3158 C   0  0  0  0  0  0  0  0  0  0  0  0
   10.7581   -3.1233   19.4720 N   0  0  0  0  0  0  0  0  0  0  0  0
    9.9571   -4.0573   16.8866 C   0  0  0  0  0  0  0  0  0  0  0  0
    7.6213   -6.5618   16.0087 C   0  0  0  0  0  0  0  0  0  0  0  0
   10.8583   -2.6527   20.7222 C   0  0  0  0  0  0  0  0  0  0  0  0
   10.6412   -3.5089   21.7936 C   0  0  0  0  0  0  0  0  0  0  0  0
   10.4972   -3.8968   24.1589 C   0  0  0  0  0  0  0  0  0  0  0  0
    5.9260   -8.2736   16.5517 C   0  0  0  0  0  0  0  0  0  0  0  0
    3.8816   -9.1166   17.2493 C   0  0  0  0  0  0  0  0  0  0  0  0
   10.1297   -1.6575   23.2324 C   0  0  0  0  0  0  0  0  0  0  0  0
    9.4684   -1.6929   26.7263 F   0  0  0  0  0  0  0  0  0  0  0  0
    7.7963   -7.7906   17.9837 C   0  0  0  0  0  0  0  0  0  0  0  0
   10.5884   -3.0725   16.7902 O   0  0  0  0  0  0  0  0  0  0  0  0
   10.4323   -5.3494   20.3516 C   0  0  0  0  0  0  0  0  0  0  0  0
    7.1156   -7.5454   16.8218 C   0  0  0  0  0  0  0  0  0  0  0  0
   10.3885   -4.4388   19.2773 C   0  0  0  0  0  0  0  0  0  0  0  0
    4.5160   -9.3822   15.0841 C   0  0  0  0  0  0  0  0  0  0  0  0
  1  3  4  0
  1 24  4  0
  2  6  4  0
  2 15  4  0
  3  5  4  0
  3  6  4  0
  4 21  4  0
  4 29  4  0
  5 15  4  0
  5 28  1  0
  6 16  4  0
  7 18  4  0
  7 26  4  0
  8 18  1  0
  8 19  4  0
  8 22  4  0
  9 12  4  0
  9 19  4  0
 10 12  4  0
 10 22  4  0
 11 20  4  0
 11 21  4  0
 12 23  1  0
 13 20  4  0
 13 29  4  0
 14 17  4  0
 14 28  4  0
 15 25  2  0
 16 27  4  0
 17 18  4  0
 20 27  1  0
 24 27  4  0
 26 28  4  0
M  END
$$$$

 Created by Python create_sdf_string function

 29 33  0  0  0  0  0  0  0  0999 V2000
    8.8270   -7.0288   18.4251 C   0  0  0  0  0  0  0  0  0  0  0  0
    9.1576   -4.6236   15.8860 O   0  0  0  0  0  0  0  0  0  0  0  0
    9.1509   -5.9108   17.7177 C   0  0  0  0  0  0  0  0  0  0  0  0
    3.6373   -9.5349   16.0582 N   0  0  0  0  0  0  0  0  0  0  0  0
    9.9275   -4.8001   18.0438 N   0  0  0  0  0  0  0  0  0  0  0  0
    8.5908   -5.7425   16.4412 C   0  0  0  0  0  0  0  0  0  0  0  0
   10.5993   -4.8981   21.6068 C   0  0  0  0  0  0  0  0  0  0  0  0
   10.4258   -3.0106   23.0998 C   0  0  0  0  0  0  0  0  0  0  0  0
   10.2148   -3.4364   25.4200 C   0  0  0  0  0  0  0  0  0  0  0  0
    9.7853   -1.1840   24.4927 C   0  0  0  0  0  0  0  0  0  0  0  0
    5.0276   -8.5227   17.5352 C   0  0  0  0  0  0  0  0  0  0  0  0
    9.8187   -2.0895   25.5800 C   0  0  0  0  0  0  0  0  0  0  0  0
    5.6473   -8.7216   15.3158 C   0  0  0  0  0  0  0  0  0  0  0  0
   10.7581   -3.1233   19.4720 N   0  0  0  0  0  0  0  0  0  0  0  0
    9.9571   -4.0573   16.8866 C   0  0  0  0  0  0  0  0  0  0  0  0
    7.6213   -6.5618   16.0087 C   0  0  0  0  0  0  0  0  0  0  0  0
   10.8583   -2.6527   20.7222 C   0  0  0  0  0  0  0  0  0  0  0  0
   10.6412   -3.5089   21.7936 C   0  0  0  0  0  0  0  0  0  0  0  0
   10.4972   -3.8968   24.1589 C   0  0  0  0  0  0  0  0  0  0  0  0
    5.9260   -8.2736   16.5517 C   0  0  0  0  0  0  0  0  0  0  0  0
    3.8816   -9.1166   17.2493 C   0  0  0  0  0  0  0  0  0  0  0  0
   10.1297   -1.6575   23.2324 C   0  0  0  0  0  0  0  0  0  0  0  0
    9.4684   -1.6929   26.7263 F   0  0  0  0  0  0  0  0  0  0  0  0
    7.7963   -7.7906   17.9837 C   0  0  0  0  0  0  0  0  0  0  0  0
   10.5884   -3.0725   16.7902 O   0  0  0  0  0  0  0  0  0  0  0  0
   10.4323   -5.3494   20.3516 C   0  0  0  0  0  0  0  0  0  0  0  0
    7.1156   -7.5454   16.8218 C   0  0  0  0  0  0  0  0  0  0  0  0
   10.3885   -4.4388   19.2773 C   0  0  0  0  0  0  0  0  0  0  0  0
    4.5160   -9.3822   15.0841 C   0  0  0  0  0  0  0  0  0  0  0  0
  1  3  4  0
  1 24  4  0
  2  6  4  0
  2 15  4  0
  3  5  4  0
  3  6  4  0
  4 21  4  0
  4 29  4  0
  5 15  4  0
  5 28  1  0
  6 16  4  0
  7 18  4  0
  7 26  4  0
  8 18  1  0
  8 19  4  0
  8 22  4  0
  9 12  4  0
  9 19  4  0
 10 12  4  0
 10 22  4  0
 11 20  4  0
 11 21  4  0
 12 23  1  0
 13 20  4  0
 13 29  4  0
 14 17  4  0
 14 28  4  0
 15 25  2  0
 16 27  4  0
 17 18  4  0
 20 27  1  0
 24 27  4  0
 26 28  4  0
M  END
$$$$

 Created by Python create_sdf_string function

 29 33  0  0  0  0  0  0  0  0999 V2000
    8.8270   -7.0288   18.4251 C   0  0  0  0  0  0  0  0  0  0  0  0
    9.1576   -4.6236   15.8860 O   0  0  0  0  0  0  0  0  0  0  0  0
    9.1509   -5.9108   17.7177 C   0  0  0  0  0  0  0  0  0  0  0  0
    3.6373   -9.5349   16.0582 N   0  0  0  0  0  0  0  0  0  0  0  0
    9.9275   -4.8001   18.0438 N   0  0  0  0  0  0  0  0  0  0  0  0
    8.5908   -5.7425   16.4412 C   0  0  0  0  0  0  0  0  0  0  0  0
   10.5993   -4.8981   21.6068 C   0  0  0  0  0  0  0  0  0  0  0  0
   10.4258   -3.0106   23.0998 C   0  0  0  0  0  0  0  0  0  0  0  0
   10.2148   -3.4364   25.4200 C   0  0  0  0  0  0  0  0  0  0  0  0
    9.7853   -1.1840   24.4927 C   0  0  0  0  0  0  0  0  0  0  0  0
    5.0276   -8.5227   17.5352 C   0  0  0  0  0  0  0  0  0  0  0  0
    9.8187   -2.0895   25.5800 C   0  0  0  0  0  0  0  0  0  0  0  0
    5.6473   -8.7216   15.3158 C   0  0  0  0  0  0  0  0  0  0  0  0
   10.7581   -3.1233   19.4720 N   0  0  0  0  0  0  0  0  0  0  0  0
    9.9571   -4.0573   16.8866 C   0  0  0  0  0  0  0  0  0  0  0  0
    7.6213   -6.5618   16.0087 C   0  0  0  0  0  0  0  0  0  0  0  0
   10.8583   -2.6527   20.7222 C   0  0  0  0  0  0  0  0  0  0  0  0
   10.6412   -3.5089   21.7936 C   0  0  0  0  0  0  0  0  0  0  0  0
   10.4972   -3.8968   24.1589 C   0  0  0  0  0  0  0  0  0  0  0  0
    5.9260   -8.2736   16.5517 C   0  0  0  0  0  0  0  0  0  0  0  0
    3.8816   -9.1166   17.2493 C   0  0  0  0  0  0  0  0  0  0  0  0
   10.1297   -1.6575   23.2324 C   0  0  0  0  0  0  0  0  0  0  0  0
    9.4684   -1.6929   26.7263 F   0  0  0  0  0  0  0  0  0  0  0  0
    7.7963   -7.7906   17.9837 C   0  0  0  0  0  0  0  0  0  0  0  0
   10.5884   -3.0725   16.7902 O   0  0  0  0  0  0  0  0  0  0  0  0
   10.4323   -5.3494   20.3516 C   0  0  0  0  0  0  0  0  0  0  0  0
    7.1156   -7.5454   16.8218 C   0  0  0  0  0  0  0  0  0  0  0  0
   10.3885   -4.4388   19.2773 C   0  0  0  0  0  0  0  0  0  0  0  0
    4.5160   -9.3822   15.0841 C   0  0  0  0  0  0  0  0  0  0  0  0
  1  3  4  0
  1 24  4  0
  2  6  4  0
  2 15  4  0
  3  5  4  0
  3  6  4  0
  4 21  4  0
  4 29  4  0
  5 15  4  0
  5 28  1  0
  6 16  4  0
  7 18  4  0
  7 26  4  0
  8 18  1  0
  8 19  4  0
  8 22  4  0
  9 12  4  0
  9 19  4  0
 10 12  4  0
 10 22  4  0
 11 20  4  0
 11 21  4  0
 12 23  1  0
 13 20  4  0
 13 29  4  0
 14 17  4  0
 14 28  4  0
 15 25  2  0
 16 27  4  0
 17 18  4  0
 20 27  1  0
 24 27  4  0
 26 28  4  0
M  END
$$$$

 Created by Python create_sdf_string function

 29 33  0  0  0  0  0  0  0  0999 V2000
    8.8270   -7.0288   18.4251 C   0  0  0  0  0  0  0  0  0  0  0  0
    9.1576   -4.6236   15.8860 O   0  0  0  0  0  0  0  0  0  0  0  0
    9.1509   -5.9108   17.7177 C   0  0  0  0  0  0  0  0  0  0  0  0
    3.6373   -9.5349   16.0582 N   0  0  0  0  0  0  0  0  0  0  0  0
    9.9275   -4.8001   18.0438 N   0  0  0  0  0  0  0  0  0  0  0  0
    8.5908   -5.7425   16.4412 C   0  0  0  0  0  0  0  0  0  0  0  0
   10.5993   -4.8981   21.6068 C   0  0  0  0  0  0  0  0  0  0  0  0
   10.4258   -3.0106   23.0998 C   0  0  0  0  0  0  0  0  0  0  0  0
   10.2148   -3.4364   25.4200 C   0  0  0  0  0  0  0  0  0  0  0  0
    9.7853   -1.1840   24.4927 C   0  0  0  0  0  0  0  0  0  0  0  0
    5.0276   -8.5227   17.5352 C   0  0  0  0  0  0  0  0  0  0  0  0
    9.8187   -2.0895   25.5800 C   0  0  0  0  0  0  0  0  0  0  0  0
    5.6473   -8.7216   15.3158 C   0  0  0  0  0  0  0  0  0  0  0  0
   10.7581   -3.1233   19.4720 N   0  0  0  0  0  0  0  0  0  0  0  0
    9.9571   -4.0573   16.8866 C   0  0  0  0  0  0  0  0  0  0  0  0
    7.6213   -6.5618   16.0087 C   0  0  0  0  0  0  0  0  0  0  0  0
   10.8583   -2.6527   20.7222 C   0  0  0  0  0  0  0  0  0  0  0  0
   10.6412   -3.5089   21.7936 C   0  0  0  0  0  0  0  0  0  0  0  0
   10.4972   -3.8968   24.1589 C   0  0  0  0  0  0  0  0  0  0  0  0
    5.9260   -8.2736   16.5517 C   0  0  0  0  0  0  0  0  0  0  0  0
    3.8816   -9.1166   17.2493 C   0  0  0  0  0  0  0  0  0  0  0  0
   10.1297   -1.6575   23.2324 C   0  0  0  0  0  0  0  0  0  0  0  0
    9.4684   -1.6929   26.7263 F   0  0  0  0  0  0  0  0  0  0  0  0
    7.7963   -7.7906   17.9837 C   0  0  0  0  0  0  0  0  0  0  0  0
   10.5884   -3.0725   16.7902 O   0  0  0  0  0  0  0  0  0  0  0  0
   10.4323   -5.3494   20.3516 C   0  0  0  0  0  0  0  0  0  0  0  0
    7.1156   -7.5454   16.8218 C   0  0  0  0  0  0  0  0  0  0  0  0
   10.3885   -4.4388   19.2773 C   0  0  0  0  0  0  0  0  0  0  0  0
    4.5160   -9.3822   15.0841 C   0  0  0  0  0  0  0  0  0  0  0  0
  1  3  4  0
  1 24  4  0
  2  6  4  0
  2 15  4  0
  3  5  4  0
  3  6  4  0
  4 21  4  0
  4 29  4  0
  5 15  4  0
  5 28  1  0
  6 16  4  0
  7 18  4  0
  7 26  4  0
  8 18  1  0
  8 19  4  0
  8 22  4  0
  9 12  4  0
  9 19  4  0
 10 12  4  0
 10 22  4  0
 11 20  4  0
 11 21  4  0
 12 23  1  0
 13 20  4  0
 13 29  4  0
 14 17  4  0
 14 28  4  0
 15 25  2  0
 16 27  4  0
 17 18  4  0
 20 27  1  0
 24 27  4  0
 26 28  4  0
M  END
$$$$

 Created by Python create_sdf_string function

 29 33  0  0  0  0  0  0  0  0999 V2000
    8.8270   -7.0288   18.4251 C   0  0  0  0  0  0  0  0  0  0  0  0
    9.1576   -4.6236   15.8860 O   0  0  0  0  0  0  0  0  0  0  0  0
    9.1509   -5.9108   17.7177 C   0  0  0  0  0  0  0  0  0  0  0  0
    3.6373   -9.5349   16.0582 N   0  0  0  0  0  0  0  0  0  0  0  0
    9.9275   -4.8001   18.0438 N   0  0  0  0  0  0  0  0  0  0  0  0
    8.5908   -5.7425   16.4412 C   0  0  0  0  0  0  0  0  0  0  0  0
   10.5993   -4.8981   21.6068 C   0  0  0  0  0  0  0  0  0  0  0  0
   10.4258   -3.0106   23.0998 C   0  0  0  0  0  0  0  0  0  0  0  0
   10.2148   -3.4364   25.4200 C   0  0  0  0  0  0  0  0  0  0  0  0
    9.7853   -1.1840   24.4927 C   0  0  0  0  0  0  0  0  0  0  0  0
    5.0276   -8.5227   17.5352 C   0  0  0  0  0  0  0  0  0  0  0  0
    9.8187   -2.0895   25.5800 C   0  0  0  0  0  0  0  0  0  0  0  0
    5.6473   -8.7216   15.3158 C   0  0  0  0  0  0  0  0  0  0  0  0
   10.7581   -3.1233   19.4720 N   0  0  0  0  0  0  0  0  0  0  0  0
    9.9571   -4.0573   16.8866 C   0  0  0  0  0  0  0  0  0  0  0  0
    7.6213   -6.5618   16.0087 C   0  0  0  0  0  0  0  0  0  0  0  0
   10.8583   -2.6527   20.7222 C   0  0  0  0  0  0  0  0  0  0  0  0
   10.6412   -3.5089   21.7936 C   0  0  0  0  0  0  0  0  0  0  0  0
   10.4972   -3.8968   24.1589 C   0  0  0  0  0  0  0  0  0  0  0  0
    5.9260   -8.2736   16.5517 C   0  0  0  0  0  0  0  0  0  0  0  0
    3.8816   -9.1166   17.2493 C   0  0  0  0  0  0  0  0  0  0  0  0
   10.1297   -1.6575   23.2324 C   0  0  0  0  0  0  0  0  0  0  0  0
    9.4684   -1.6929   26.7263 F   0  0  0  0  0  0  0  0  0  0  0  0
    7.7963   -7.7906   17.9837 C   0  0  0  0  0  0  0  0  0  0  0  0
   10.5884   -3.0725   16.7902 O   0  0  0  0  0  0  0  0  0  0  0  0
   10.4323   -5.3494   20.3516 C   0  0  0  0  0  0  0  0  0  0  0  0
    7.1156   -7.5454   16.8218 C   0  0  0  0  0  0  0  0  0  0  0  0
   10.3885   -4.4388   19.2773 C   0  0  0  0  0  0  0  0  0  0  0  0
    4.5160   -9.3822   15.0841 C   0  0  0  0  0  0  0  0  0  0  0  0
  1  3  4  0
  1 24  4  0
  2  6  4  0
  2 15  4  0
  3  5  4  0
  3  6  4  0
  4 21  4  0
  4 29  4  0
  5 15  4  0
  5 28  1  0
  6 16  4  0
  7 18  4  0
  7 26  4  0
  8 18  1  0
  8 19  4  0
  8 22  4  0
  9 12  4  0
  9 19  4  0
 10 12  4  0
 10 22  4  0
 11 20  4  0
 11 21  4  0
 12 23  1  0
 13 20  4  0
 13 29  4  0
 14 17  4  0
 14 28  4  0
 15 25  2  0
 16 27  4  0
 17 18  4  0
 20 27  1  0
 24 27  4  0
 26 28  4  0
M  END
$$$$

 Created by Python create_sdf_string function

 29 33  0  0  0  0  0  0  0  0999 V2000
    8.8270   -7.0288   18.4251 C   0  0  0  0  0  0  0  0  0  0  0  0
    9.1576   -4.6236   15.8860 O   0  0  0  0  0  0  0  0  0  0  0  0
    9.1509   -5.9108   17.7177 C   0  0  0  0  0  0  0  0  0  0  0  0
    3.6373   -9.5349   16.0582 N   0  0  0  0  0  0  0  0  0  0  0  0
    9.9275   -4.8001   18.0438 N   0  0  0  0  0  0  0  0  0  0  0  0
    8.5908   -5.7425   16.4412 C   0  0  0  0  0  0  0  0  0  0  0  0
   10.5993   -4.8981   21.6068 C   0  0  0  0  0  0  0  0  0  0  0  0
   10.4258   -3.0106   23.0998 C   0  0  0  0  0  0  0  0  0  0  0  0
   10.2148   -3.4364   25.4200 C   0  0  0  0  0  0  0  0  0  0  0  0
    9.7853   -1.1840   24.4927 C   0  0  0  0  0  0  0  0  0  0  0  0
    5.0276   -8.5227   17.5352 C   0  0  0  0  0  0  0  0  0  0  0  0
    9.8187   -2.0895   25.5800 C   0  0  0  0  0  0  0  0  0  0  0  0
    5.6473   -8.7216   15.3158 C   0  0  0  0  0  0  0  0  0  0  0  0
   10.7581   -3.1233   19.4720 N   0  0  0  0  0  0  0  0  0  0  0  0
    9.9571   -4.0573   16.8866 C   0  0  0  0  0  0  0  0  0  0  0  0
    7.6213   -6.5618   16.0087 C   0  0  0  0  0  0  0  0  0  0  0  0
   10.8583   -2.6527   20.7222 C   0  0  0  0  0  0  0  0  0  0  0  0
   10.6412   -3.5089   21.7936 C   0  0  0  0  0  0  0  0  0  0  0  0
   10.4972   -3.8968   24.1589 C   0  0  0  0  0  0  0  0  0  0  0  0
    5.9260   -8.2736   16.5517 C   0  0  0  0  0  0  0  0  0  0  0  0
    3.8816   -9.1166   17.2493 C   0  0  0  0  0  0  0  0  0  0  0  0
   10.1297   -1.6575   23.2324 C   0  0  0  0  0  0  0  0  0  0  0  0
    9.4684   -1.6929   26.7263 F   0  0  0  0  0  0  0  0  0  0  0  0
    7.7963   -7.7906   17.9837 C   0  0  0  0  0  0  0  0  0  0  0  0
   10.5884   -3.0725   16.7902 O   0  0  0  0  0  0  0  0  0  0  0  0
   10.4323   -5.3494   20.3516 C   0  0  0  0  0  0  0  0  0  0  0  0
    7.1156   -7.5454   16.8218 C   0  0  0  0  0  0  0  0  0  0  0  0
   10.3885   -4.4388   19.2773 C   0  0  0  0  0  0  0  0  0  0  0  0
    4.5160   -9.3822   15.0841 C   0  0  0  0  0  0  0  0  0  0  0  0
  1  3  4  0
  1 24  4  0
  2  6  4  0
  2 15  4  0
  3  5  4  0
  3  6  4  0
  4 21  4  0
  4 29  4  0
  5 15  4  0
  5 28  1  0
  6 16  4  0
  7 18  4  0
  7 26  4  0
  8 18  1  0
  8 19  4  0
  8 22  4  0
  9 12  4  0
  9 19  4  0
 10 12  4  0
 10 22  4  0
 11 20  4  0
 11 21  4  0
 12 23  1  0
 13 20  4  0
 13 29  4  0
 14 17  4  0
 14 28  4  0
 15 25  2  0
 16 27  4  0
 17 18  4  0
 20 27  1  0
 24 27  4  0
 26 28  4  0
M  END
$$$$

 Created by Python create_sdf_string function

 29 33  0  0  0  0  0  0  0  0999 V2000
    8.8270   -7.0288   18.4251 C   0  0  0  0  0  0  0  0  0  0  0  0
    9.1576   -4.6236   15.8860 O   0  0  0  0  0  0  0  0  0  0  0  0
    9.1509   -5.9108   17.7177 C   0  0  0  0  0  0  0  0  0  0  0  0
    3.6373   -9.5349   16.0582 N   0  0  0  0  0  0  0  0  0  0  0  0
    9.9275   -4.8001   18.0438 N   0  0  0  0  0  0  0  0  0  0  0  0
    8.5908   -5.7425   16.4412 C   0  0  0  0  0  0  0  0  0  0  0  0
   10.5993   -4.8981   21.6068 C   0  0  0  0  0  0  0  0  0  0  0  0
   10.4258   -3.0106   23.0998 C   0  0  0  0  0  0  0  0  0  0  0  0
   10.2148   -3.4364   25.4200 C   0  0  0  0  0  0  0  0  0  0  0  0
    9.7853   -1.1840   24.4927 C   0  0  0  0  0  0  0  0  0  0  0  0
    5.0276   -8.5227   17.5352 C   0  0  0  0  0  0  0  0  0  0  0  0
    9.8187   -2.0895   25.5800 C   0  0  0  0  0  0  0  0  0  0  0  0
    5.6473   -8.7216   15.3158 C   0  0  0  0  0  0  0  0  0  0  0  0
   10.7581   -3.1233   19.4720 N   0  0  0  0  0  0  0  0  0  0  0  0
    9.9571   -4.0573   16.8866 C   0  0  0  0  0  0  0  0  0  0  0  0
    7.6213   -6.5618   16.0087 C   0  0  0  0  0  0  0  0  0  0  0  0
   10.8583   -2.6527   20.7222 C   0  0  0  0  0  0  0  0  0  0  0  0
   10.6412   -3.5089   21.7936 C   0  0  0  0  0  0  0  0  0  0  0  0
   10.4972   -3.8968   24.1589 C   0  0  0  0  0  0  0  0  0  0  0  0
    5.9260   -8.2736   16.5517 C   0  0  0  0  0  0  0  0  0  0  0  0
    3.8816   -9.1166   17.2493 C   0  0  0  0  0  0  0  0  0  0  0  0
   10.1297   -1.6575   23.2324 C   0  0  0  0  0  0  0  0  0  0  0  0
    9.4684   -1.6929   26.7263 F   0  0  0  0  0  0  0  0  0  0  0  0
    7.7963   -7.7906   17.9837 C   0  0  0  0  0  0  0  0  0  0  0  0
   10.5884   -3.0725   16.7902 O   0  0  0  0  0  0  0  0  0  0  0  0
   10.4323   -5.3494   20.3516 C   0  0  0  0  0  0  0  0  0  0  0  0
    7.1156   -7.5454   16.8218 C   0  0  0  0  0  0  0  0  0  0  0  0
   10.3885   -4.4388   19.2773 C   0  0  0  0  0  0  0  0  0  0  0  0
    4.5160   -9.3822   15.0841 C   0  0  0  0  0  0  0  0  0  0  0  0
  1  3  4  0
  1 24  4  0
  2  6  4  0
  2 15  4  0
  3  5  4  0
  3  6  4  0
  4 21  4  0
  4 29  4  0
  5 15  4  0
  5 28  1  0
  6 16  4  0
  7 18  4  0
  7 26  4  0
  8 18  1  0
  8 19  4  0
  8 22  4  0
  9 12  4  0
  9 19  4  0
 10 12  4  0
 10 22  4  0
 11 20  4  0
 11 21  4  0
 12 23  1  0
 13 20  4  0
 13 29  4  0
 14 17  4  0
 14 28  4  0
 15 25  2  0
 16 27  4  0
 17 18  4  0
 20 27  1  0
 24 27  4  0
 26 28  4  0
M  END
$$$$

 Created by Python create_sdf_string function

 29 33  0  0  0  0  0  0  0  0999 V2000
    8.8270   -7.0288   18.4251 C   0  0  0  0  0  0  0  0  0  0  0  0
    9.1576   -4.6236   15.8860 O   0  0  0  0  0  0  0  0  0  0  0  0
    9.1509   -5.9108   17.7177 C   0  0  0  0  0  0  0  0  0  0  0  0
    3.6373   -9.5349   16.0582 N   0  0  0  0  0  0  0  0  0  0  0  0
    9.9275   -4.8001   18.0438 N   0  0  0  0  0  0  0  0  0  0  0  0
    8.5908   -5.7425   16.4412 C   0  0  0  0  0  0  0  0  0  0  0  0
   10.5993   -4.8981   21.6068 C   0  0  0  0  0  0  0  0  0  0  0  0
   10.4258   -3.0106   23.0998 C   0  0  0  0  0  0  0  0  0  0  0  0
   10.2148   -3.4364   25.4200 C   0  0  0  0  0  0  0  0  0  0  0  0
    9.7853   -1.1840   24.4927 C   0  0  0  0  0  0  0  0  0  0  0  0
    5.0276   -8.5227   17.5352 C   0  0  0  0  0  0  0  0  0  0  0  0
    9.8187   -2.0895   25.5800 C   0  0  0  0  0  0  0  0  0  0  0  0
    5.6473   -8.7216   15.3158 C   0  0  0  0  0  0  0  0  0  0  0  0
   10.7581   -3.1233   19.4720 N   0  0  0  0  0  0  0  0  0  0  0  0
    9.9571   -4.0573   16.8866 C   0  0  0  0  0  0  0  0  0  0  0  0
    7.6213   -6.5618   16.0087 C   0  0  0  0  0  0  0  0  0  0  0  0
   10.8583   -2.6527   20.7222 C   0  0  0  0  0  0  0  0  0  0  0  0
   10.6412   -3.5089   21.7936 C   0  0  0  0  0  0  0  0  0  0  0  0
   10.4972   -3.8968   24.1589 C   0  0  0  0  0  0  0  0  0  0  0  0
    5.9260   -8.2736   16.5517 C   0  0  0  0  0  0  0  0  0  0  0  0
    3.8816   -9.1166   17.2493 C   0  0  0  0  0  0  0  0  0  0  0  0
   10.1297   -1.6575   23.2324 C   0  0  0  0  0  0  0  0  0  0  0  0
    9.4684   -1.6929   26.7263 F   0  0  0  0  0  0  0  0  0  0  0  0
    7.7963   -7.7906   17.9837 C   0  0  0  0  0  0  0  0  0  0  0  0
   10.5884   -3.0725   16.7902 O   0  0  0  0  0  0  0  0  0  0  0  0
   10.4323   -5.3494   20.3516 C   0  0  0  0  0  0  0  0  0  0  0  0
    7.1156   -7.5454   16.8218 C   0  0  0  0  0  0  0  0  0  0  0  0
   10.3885   -4.4388   19.2773 C   0  0  0  0  0  0  0  0  0  0  0  0
    4.5160   -9.3822   15.0841 C   0  0  0  0  0  0  0  0  0  0  0  0
  1  3  4  0
  1 24  4  0
  2  6  4  0
  2 15  4  0
  3  5  4  0
  3  6  4  0
  4 21  4  0
  4 29  4  0
  5 15  4  0
  5 28  1  0
  6 16  4  0
  7 18  4  0
  7 26  4  0
  8 18  1  0
  8 19  4  0
  8 22  4  0
  9 12  4  0
  9 19  4  0
 10 12  4  0
 10 22  4  0
 11 20  4  0
 11 21  4  0
 12 23  1  0
 13 20  4  0
 13 29  4  0
 14 17  4  0
 14 28  4  0
 15 25  2  0
 16 27  4  0
 17 18  4  0
 20 27  1  0
 24 27  4  0
 26 28  4  0
M  END
$$$$

 Created by Python create_sdf_string function

 29 33  0  0  0  0  0  0  0  0999 V2000
    8.8270   -7.0288   18.4251 C   0  0  0  0  0  0  0  0  0  0  0  0
    9.1576   -4.6236   15.8860 O   0  0  0  0  0  0  0  0  0  0  0  0
    9.1509   -5.9108   17.7177 C   0  0  0  0  0  0  0  0  0  0  0  0
    3.6373   -9.5349   16.0582 N   0  0  0  0  0  0  0  0  0  0  0  0
    9.9275   -4.8001   18.0438 N   0  0  0  0  0  0  0  0  0  0  0  0
    8.5908   -5.7425   16.4412 C   0  0  0  0  0  0  0  0  0  0  0  0
   10.5993   -4.8981   21.6068 C   0  0  0  0  0  0  0  0  0  0  0  0
   10.4258   -3.0106   23.0998 C   0  0  0  0  0  0  0  0  0  0  0  0
   10.2148   -3.4364   25.4200 C   0  0  0  0  0  0  0  0  0  0  0  0
    9.7853   -1.1840   24.4927 C   0  0  0  0  0  0  0  0  0  0  0  0
    5.0276   -8.5227   17.5352 C   0  0  0  0  0  0  0  0  0  0  0  0
    9.8187   -2.0895   25.5800 C   0  0  0  0  0  0  0  0  0  0  0  0
    5.6473   -8.7216   15.3158 C   0  0  0  0  0  0  0  0  0  0  0  0
   10.7581   -3.1233   19.4720 N   0  0  0  0  0  0  0  0  0  0  0  0
    9.9571   -4.0573   16.8866 C   0  0  0  0  0  0  0  0  0  0  0  0
    7.6213   -6.5618   16.0087 C   0  0  0  0  0  0  0  0  0  0  0  0
   10.8583   -2.6527   20.7222 C   0  0  0  0  0  0  0  0  0  0  0  0
   10.6412   -3.5089   21.7936 C   0  0  0  0  0  0  0  0  0  0  0  0
   10.4972   -3.8968   24.1589 C   0  0  0  0  0  0  0  0  0  0  0  0
    5.9260   -8.2736   16.5517 C   0  0  0  0  0  0  0  0  0  0  0  0
    3.8816   -9.1166   17.2493 C   0  0  0  0  0  0  0  0  0  0  0  0
   10.1297   -1.6575   23.2324 C   0  0  0  0  0  0  0  0  0  0  0  0
    9.4684   -1.6929   26.7263 F   0  0  0  0  0  0  0  0  0  0  0  0
    7.7963   -7.7906   17.9837 C   0  0  0  0  0  0  0  0  0  0  0  0
   10.5884   -3.0725   16.7902 O   0  0  0  0  0  0  0  0  0  0  0  0
   10.4323   -5.3494   20.3516 C   0  0  0  0  0  0  0  0  0  0  0  0
    7.1156   -7.5454   16.8218 C   0  0  0  0  0  0  0  0  0  0  0  0
   10.3885   -4.4388   19.2773 C   0  0  0  0  0  0  0  0  0  0  0  0
    4.5160   -9.3822   15.0841 C   0  0  0  0  0  0  0  0  0  0  0  0
  1  3  4  0
  1 24  4  0
  2  6  4  0
  2 15  4  0
  3  5  4  0
  3  6  4  0
  4 21  4  0
  4 29  4  0
  5 15  4  0
  5 28  1  0
  6 16  4  0
  7 18  4  0
  7 26  4  0
  8 18  1  0
  8 19  4  0
  8 22  4  0
  9 12  4  0
  9 19  4  0
 10 12  4  0
 10 22  4  0
 11 20  4  0
 11 21  4  0
 12 23  1  0
 13 20  4  0
 13 29  4  0
 14 17  4  0
 14 28  4  0
 15 25  2  0
 16 27  4  0
 17 18  4  0
 20 27  1  0
 24 27  4  0
 26 28  4  0
M  END
$$$$

 Created by Python create_sdf_string function

 29 33  0  0  0  0  0  0  0  0999 V2000
    8.8270   -7.0288   18.4251 C   0  0  0  0  0  0  0  0  0  0  0  0
    9.1576   -4.6236   15.8860 O   0  0  0  0  0  0  0  0  0  0  0  0
    9.1509   -5.9108   17.7177 C   0  0  0  0  0  0  0  0  0  0  0  0
    3.6373   -9.5349   16.0582 N   0  0  0  0  0  0  0  0  0  0  0  0
    9.9275   -4.8001   18.0438 N   0  0  0  0  0  0  0  0  0  0  0  0
    8.5908   -5.7425   16.4412 C   0  0  0  0  0  0  0  0  0  0  0  0
   10.5993   -4.8981   21.6068 C   0  0  0  0  0  0  0  0  0  0  0  0
   10.4258   -3.0106   23.0998 C   0  0  0  0  0  0  0  0  0  0  0  0
   10.2148   -3.4364   25.4200 C   0  0  0  0  0  0  0  0  0  0  0  0
    9.7853   -1.1840   24.4927 C   0  0  0  0  0  0  0  0  0  0  0  0
    5.0276   -8.5227   17.5352 C   0  0  0  0  0  0  0  0  0  0  0  0
    9.8187   -2.0895   25.5800 C   0  0  0  0  0  0  0  0  0  0  0  0
    5.6473   -8.7216   15.3158 C   0  0  0  0  0  0  0  0  0  0  0  0
   10.7581   -3.1233   19.4720 N   0  0  0  0  0  0  0  0  0  0  0  0
    9.9571   -4.0573   16.8866 C   0  0  0  0  0  0  0  0  0  0  0  0
    7.6213   -6.5618   16.0087 C   0  0  0  0  0  0  0  0  0  0  0  0
   10.8583   -2.6527   20.7222 C   0  0  0  0  0  0  0  0  0  0  0  0
   10.6412   -3.5089   21.7936 C   0  0  0  0  0  0  0  0  0  0  0  0
   10.4972   -3.8968   24.1589 C   0  0  0  0  0  0  0  0  0  0  0  0
    5.9260   -8.2736   16.5517 C   0  0  0  0  0  0  0  0  0  0  0  0
    3.8816   -9.1166   17.2493 C   0  0  0  0  0  0  0  0  0  0  0  0
   10.1297   -1.6575   23.2324 C   0  0  0  0  0  0  0  0  0  0  0  0
    9.4684   -1.6929   26.7263 F   0  0  0  0  0  0  0  0  0  0  0  0
    7.7963   -7.7906   17.9837 C   0  0  0  0  0  0  0  0  0  0  0  0
   10.5884   -3.0725   16.7902 O   0  0  0  0  0  0  0  0  0  0  0  0
   10.4323   -5.3494   20.3516 C   0  0  0  0  0  0  0  0  0  0  0  0
    7.1156   -7.5454   16.8218 C   0  0  0  0  0  0  0  0  0  0  0  0
   10.3885   -4.4388   19.2773 C   0  0  0  0  0  0  0  0  0  0  0  0
    4.5160   -9.3822   15.0841 C   0  0  0  0  0  0  0  0  0  0  0  0
  1  3  4  0
  1 24  4  0
  2  6  4  0
  2 15  4  0
  3  5  4  0
  3  6  4  0
  4 21  4  0
  4 29  4  0
  5 15  4  0
  5 28  1  0
  6 16  4  0
  7 18  4  0
  7 26  4  0
  8 18  1  0
  8 19  4  0
  8 22  4  0
  9 12  4  0
  9 19  4  0
 10 12  4  0
 10 22  4  0
 11 20  4  0
 11 21  4  0
 12 23  1  0
 13 20  4  0
 13 29  4  0
 14 17  4  0
 14 28  4  0
 15 25  2  0
 16 27  4  0
 17 18  4  0
 20 27  1  0
 24 27  4  0
 26 28  4  0
M  END
$$$$

 Created by Python create_sdf_string function

 29 33  0  0  0  0  0  0  0  0999 V2000
    8.8270   -7.0288   18.4251 C   0  0  0  0  0  0  0  0  0  0  0  0
    9.1576   -4.6236   15.8860 O   0  0  0  0  0  0  0  0  0  0  0  0
    9.1509   -5.9108   17.7177 C   0  0  0  0  0  0  0  0  0  0  0  0
    3.6373   -9.5349   16.0582 N   0  0  0  0  0  0  0  0  0  0  0  0
    9.9275   -4.8001   18.0438 N   0  0  0  0  0  0  0  0  0  0  0  0
    8.5908   -5.7425   16.4412 C   0  0  0  0  0  0  0  0  0  0  0  0
   10.5993   -4.8981   21.6068 C   0  0  0  0  0  0  0  0  0  0  0  0
   10.4258   -3.0106   23.0998 C   0  0  0  0  0  0  0  0  0  0  0  0
   10.2148   -3.4364   25.4200 C   0  0  0  0  0  0  0  0  0  0  0  0
    9.7853   -1.1840   24.4927 C   0  0  0  0  0  0  0  0  0  0  0  0
    5.0276   -8.5227   17.5352 C   0  0  0  0  0  0  0  0  0  0  0  0
    9.8187   -2.0895   25.5800 C   0  0  0  0  0  0  0  0  0  0  0  0
    5.6473   -8.7216   15.3158 C   0  0  0  0  0  0  0  0  0  0  0  0
   10.7581   -3.1233   19.4720 N   0  0  0  0  0  0  0  0  0  0  0  0
    9.9571   -4.0573   16.8866 C   0  0  0  0  0  0  0  0  0  0  0  0
    7.6213   -6.5618   16.0087 C   0  0  0  0  0  0  0  0  0  0  0  0
   10.8583   -2.6527   20.7222 C   0  0  0  0  0  0  0  0  0  0  0  0
   10.6412   -3.5089   21.7936 C   0  0  0  0  0  0  0  0  0  0  0  0
   10.4972   -3.8968   24.1589 C   0  0  0  0  0  0  0  0  0  0  0  0
    5.9260   -8.2736   16.5517 C   0  0  0  0  0  0  0  0  0  0  0  0
    3.8816   -9.1166   17.2493 C   0  0  0  0  0  0  0  0  0  0  0  0
   10.1297   -1.6575   23.2324 C   0  0  0  0  0  0  0  0  0  0  0  0
    9.4684   -1.6929   26.7263 F   0  0  0  0  0  0  0  0  0  0  0  0
    7.7963   -7.7906   17.9837 C   0  0  0  0  0  0  0  0  0  0  0  0
   10.5884   -3.0725   16.7902 O   0  0  0  0  0  0  0  0  0  0  0  0
   10.4323   -5.3494   20.3516 C   0  0  0  0  0  0  0  0  0  0  0  0
    7.1156   -7.5454   16.8218 C   0  0  0  0  0  0  0  0  0  0  0  0
   10.3885   -4.4388   19.2773 C   0  0  0  0  0  0  0  0  0  0  0  0
    4.5160   -9.3822   15.0841 C   0  0  0  0  0  0  0  0  0  0  0  0
  1  3  4  0
  1 24  4  0
  2  6  4  0
  2 15  4  0
  3  5  4  0
  3  6  4  0
  4 21  4  0
  4 29  4  0
  5 15  4  0
  5 28  1  0
  6 16  4  0
  7 18  4  0
  7 26  4  0
  8 18  1  0
  8 19  4  0
  8 22  4  0
  9 12  4  0
  9 19  4  0
 10 12  4  0
 10 22  4  0
 11 20  4  0
 11 21  4  0
 12 23  1  0
 13 20  4  0
 13 29  4  0
 14 17  4  0
 14 28  4  0
 15 25  2  0
 16 27  4  0
 17 18  4  0
 20 27  1  0
 24 27  4  0
 26 28  4  0
M  END
$$$$

 Created by Python create_sdf_string function

 29 33  0  0  0  0  0  0  0  0999 V2000
    8.8270   -7.0288   18.4251 C   0  0  0  0  0  0  0  0  0  0  0  0
    9.1576   -4.6236   15.8860 O   0  0  0  0  0  0  0  0  0  0  0  0
    9.1509   -5.9108   17.7177 C   0  0  0  0  0  0  0  0  0  0  0  0
    3.6373   -9.5349   16.0582 N   0  0  0  0  0  0  0  0  0  0  0  0
    9.9275   -4.8001   18.0438 N   0  0  0  0  0  0  0  0  0  0  0  0
    8.5908   -5.7425   16.4412 C   0  0  0  0  0  0  0  0  0  0  0  0
   10.5993   -4.8981   21.6068 C   0  0  0  0  0  0  0  0  0  0  0  0
   10.4258   -3.0106   23.0998 C   0  0  0  0  0  0  0  0  0  0  0  0
   10.2148   -3.4364   25.4200 C   0  0  0  0  0  0  0  0  0  0  0  0
    9.7853   -1.1840   24.4927 C   0  0  0  0  0  0  0  0  0  0  0  0
    5.0276   -8.5227   17.5352 C   0  0  0  0  0  0  0  0  0  0  0  0
    9.8187   -2.0895   25.5800 C   0  0  0  0  0  0  0  0  0  0  0  0
    5.6473   -8.7216   15.3158 C   0  0  0  0  0  0  0  0  0  0  0  0
   10.7581   -3.1233   19.4720 N   0  0  0  0  0  0  0  0  0  0  0  0
    9.9571   -4.0573   16.8866 C   0  0  0  0  0  0  0  0  0  0  0  0
    7.6213   -6.5618   16.0087 C   0  0  0  0  0  0  0  0  0  0  0  0
   10.8583   -2.6527   20.7222 C   0  0  0  0  0  0  0  0  0  0  0  0
   10.6412   -3.5089   21.7936 C   0  0  0  0  0  0  0  0  0  0  0  0
   10.4972   -3.8968   24.1589 C   0  0  0  0  0  0  0  0  0  0  0  0
    5.9260   -8.2736   16.5517 C   0  0  0  0  0  0  0  0  0  0  0  0
    3.8816   -9.1166   17.2493 C   0  0  0  0  0  0  0  0  0  0  0  0
   10.1297   -1.6575   23.2324 C   0  0  0  0  0  0  0  0  0  0  0  0
    9.4684   -1.6929   26.7263 F   0  0  0  0  0  0  0  0  0  0  0  0
    7.7963   -7.7906   17.9837 C   0  0  0  0  0  0  0  0  0  0  0  0
   10.5884   -3.0725   16.7902 O   0  0  0  0  0  0  0  0  0  0  0  0
   10.4323   -5.3494   20.3516 C   0  0  0  0  0  0  0  0  0  0  0  0
    7.1156   -7.5454   16.8218 C   0  0  0  0  0  0  0  0  0  0  0  0
   10.3885   -4.4388   19.2773 C   0  0  0  0  0  0  0  0  0  0  0  0
    4.5160   -9.3822   15.0841 C   0  0  0  0  0  0  0  0  0  0  0  0
  1  3  4  0
  1 24  4  0
  2  6  4  0
  2 15  4  0
  3  5  4  0
  3  6  4  0
  4 21  4  0
  4 29  4  0
  5 15  4  0
  5 28  1  0
  6 16  4  0
  7 18  4  0
  7 26  4  0
  8 18  1  0
  8 19  4  0
  8 22  4  0
  9 12  4  0
  9 19  4  0
 10 12  4  0
 10 22  4  0
 11 20  4  0
 11 21  4  0
 12 23  1  0
 13 20  4  0
 13 29  4  0
 14 17  4  0
 14 28  4  0
 15 25  2  0
 16 27  4  0
 17 18  4  0
 20 27  1  0
 24 27  4  0
 26 28  4  0
M  END
$$$$

 Created by Python create_sdf_string function

 29 33  0  0  0  0  0  0  0  0999 V2000
    8.8270   -7.0288   18.4251 C   0  0  0  0  0  0  0  0  0  0  0  0
    9.1576   -4.6236   15.8860 O   0  0  0  0  0  0  0  0  0  0  0  0
    9.1509   -5.9108   17.7177 C   0  0  0  0  0  0  0  0  0  0  0  0
    3.6373   -9.5349   16.0582 N   0  0  0  0  0  0  0  0  0  0  0  0
    9.9275   -4.8001   18.0438 N   0  0  0  0  0  0  0  0  0  0  0  0
    8.5908   -5.7425   16.4412 C   0  0  0  0  0  0  0  0  0  0  0  0
   10.5993   -4.8981   21.6068 C   0  0  0  0  0  0  0  0  0  0  0  0
   10.4258   -3.0106   23.0998 C   0  0  0  0  0  0  0  0  0  0  0  0
   10.2148   -3.4364   25.4200 C   0  0  0  0  0  0  0  0  0  0  0  0
    9.7853   -1.1840   24.4927 C   0  0  0  0  0  0  0  0  0  0  0  0
    5.0276   -8.5227   17.5352 C   0  0  0  0  0  0  0  0  0  0  0  0
    9.8187   -2.0895   25.5800 C   0  0  0  0  0  0  0  0  0  0  0  0
    5.6473   -8.7216   15.3158 C   0  0  0  0  0  0  0  0  0  0  0  0
   10.7581   -3.1233   19.4720 N   0  0  0  0  0  0  0  0  0  0  0  0
    9.9571   -4.0573   16.8866 C   0  0  0  0  0  0  0  0  0  0  0  0
    7.6213   -6.5618   16.0087 C   0  0  0  0  0  0  0  0  0  0  0  0
   10.8583   -2.6527   20.7222 C   0  0  0  0  0  0  0  0  0  0  0  0
   10.6412   -3.5089   21.7936 C   0  0  0  0  0  0  0  0  0  0  0  0
   10.4972   -3.8968   24.1589 C   0  0  0  0  0  0  0  0  0  0  0  0
    5.9260   -8.2736   16.5517 C   0  0  0  0  0  0  0  0  0  0  0  0
    3.8816   -9.1166   17.2493 C   0  0  0  0  0  0  0  0  0  0  0  0
   10.1297   -1.6575   23.2324 C   0  0  0  0  0  0  0  0  0  0  0  0
    9.4684   -1.6929   26.7263 F   0  0  0  0  0  0  0  0  0  0  0  0
    7.7963   -7.7906   17.9837 C   0  0  0  0  0  0  0  0  0  0  0  0
   10.5884   -3.0725   16.7902 O   0  0  0  0  0  0  0  0  0  0  0  0
   10.4323   -5.3494   20.3516 C   0  0  0  0  0  0  0  0  0  0  0  0
    7.1156   -7.5454   16.8218 C   0  0  0  0  0  0  0  0  0  0  0  0
   10.3885   -4.4388   19.2773 C   0  0  0  0  0  0  0  0  0  0  0  0
    4.5160   -9.3822   15.0841 C   0  0  0  0  0  0  0  0  0  0  0  0
  1  3  4  0
  1 24  4  0
  2  6  4  0
  2 15  4  0
  3  5  4  0
  3  6  4  0
  4 21  4  0
  4 29  4  0
  5 15  4  0
  5 28  1  0
  6 16  4  0
  7 18  4  0
  7 26  4  0
  8 18  1  0
  8 19  4  0
  8 22  4  0
  9 12  4  0
  9 19  4  0
 10 12  4  0
 10 22  4  0
 11 20  4  0
 11 21  4  0
 12 23  1  0
 13 20  4  0
 13 29  4  0
 14 17  4  0
 14 28  4  0
 15 25  2  0
 16 27  4  0
 17 18  4  0
 20 27  1  0
 24 27  4  0
 26 28  4  0
M  END
$$$$

 Created by Python create_sdf_string function

 29 33  0  0  0  0  0  0  0  0999 V2000
    8.8270   -7.0288   18.4251 C   0  0  0  0  0  0  0  0  0  0  0  0
    9.1576   -4.6236   15.8860 O   0  0  0  0  0  0  0  0  0  0  0  0
    9.1509   -5.9108   17.7177 C   0  0  0  0  0  0  0  0  0  0  0  0
    3.6373   -9.5349   16.0582 N   0  0  0  0  0  0  0  0  0  0  0  0
    9.9275   -4.8001   18.0438 N   0  0  0  0  0  0  0  0  0  0  0  0
    8.5908   -5.7425   16.4412 C   0  0  0  0  0  0  0  0  0  0  0  0
   10.5993   -4.8981   21.6068 C   0  0  0  0  0  0  0  0  0  0  0  0
   10.4258   -3.0106   23.0998 C   0  0  0  0  0  0  0  0  0  0  0  0
   10.2148   -3.4364   25.4200 C   0  0  0  0  0  0  0  0  0  0  0  0
    9.7853   -1.1840   24.4927 C   0  0  0  0  0  0  0  0  0  0  0  0
    5.0276   -8.5227   17.5352 C   0  0  0  0  0  0  0  0  0  0  0  0
    9.8187   -2.0895   25.5800 C   0  0  0  0  0  0  0  0  0  0  0  0
    5.6473   -8.7216   15.3158 C   0  0  0  0  0  0  0  0  0  0  0  0
   10.7581   -3.1233   19.4720 N   0  0  0  0  0  0  0  0  0  0  0  0
    9.9571   -4.0573   16.8866 C   0  0  0  0  0  0  0  0  0  0  0  0
    7.6213   -6.5618   16.0087 C   0  0  0  0  0  0  0  0  0  0  0  0
   10.8583   -2.6527   20.7222 C   0  0  0  0  0  0  0  0  0  0  0  0
   10.6412   -3.5089   21.7936 C   0  0  0  0  0  0  0  0  0  0  0  0
   10.4972   -3.8968   24.1589 C   0  0  0  0  0  0  0  0  0  0  0  0
    5.9260   -8.2736   16.5517 C   0  0  0  0  0  0  0  0  0  0  0  0
    3.8816   -9.1166   17.2493 C   0  0  0  0  0  0  0  0  0  0  0  0
   10.1297   -1.6575   23.2324 C   0  0  0  0  0  0  0  0  0  0  0  0
    9.4684   -1.6929   26.7263 F   0  0  0  0  0  0  0  0  0  0  0  0
    7.7963   -7.7906   17.9837 C   0  0  0  0  0  0  0  0  0  0  0  0
   10.5884   -3.0725   16.7902 O   0  0  0  0  0  0  0  0  0  0  0  0
   10.4323   -5.3494   20.3516 C   0  0  0  0  0  0  0  0  0  0  0  0
    7.1156   -7.5454   16.8218 C   0  0  0  0  0  0  0  0  0  0  0  0
   10.3885   -4.4388   19.2773 C   0  0  0  0  0  0  0  0  0  0  0  0
    4.5160   -9.3822   15.0841 C   0  0  0  0  0  0  0  0  0  0  0  0
  1  3  4  0
  1 24  4  0
  2  6  4  0
  2 15  4  0
  3  5  4  0
  3  6  4  0
  4 21  4  0
  4 29  4  0
  5 15  4  0
  5 28  1  0
  6 16  4  0
  7 18  4  0
  7 26  4  0
  8 18  1  0
  8 19  4  0
  8 22  4  0
  9 12  4  0
  9 19  4  0
 10 12  4  0
 10 22  4  0
 11 20  4  0
 11 21  4  0
 12 23  1  0
 13 20  4  0
 13 29  4  0
 14 17  4  0
 14 28  4  0
 15 25  2  0
 16 27  4  0
 17 18  4  0
 20 27  1  0
 24 27  4  0
 26 28  4  0
M  END
$$$$

 Created by Python create_sdf_string function

 29 33  0  0  0  0  0  0  0  0999 V2000
    8.8270   -7.0288   18.4251 C   0  0  0  0  0  0  0  0  0  0  0  0
    9.1576   -4.6236   15.8860 O   0  0  0  0  0  0  0  0  0  0  0  0
    9.1509   -5.9108   17.7177 C   0  0  0  0  0  0  0  0  0  0  0  0
    3.6373   -9.5349   16.0582 N   0  0  0  0  0  0  0  0  0  0  0  0
    9.9275   -4.8001   18.0438 N   0  0  0  0  0  0  0  0  0  0  0  0
    8.5908   -5.7425   16.4412 C   0  0  0  0  0  0  0  0  0  0  0  0
   10.5993   -4.8981   21.6068 C   0  0  0  0  0  0  0  0  0  0  0  0
   10.4258   -3.0106   23.0998 C   0  0  0  0  0  0  0  0  0  0  0  0
   10.2148   -3.4364   25.4200 C   0  0  0  0  0  0  0  0  0  0  0  0
    9.7853   -1.1840   24.4927 C   0  0  0  0  0  0  0  0  0  0  0  0
    5.0276   -8.5227   17.5352 C   0  0  0  0  0  0  0  0  0  0  0  0
    9.8187   -2.0895   25.5800 C   0  0  0  0  0  0  0  0  0  0  0  0
    5.6473   -8.7216   15.3158 C   0  0  0  0  0  0  0  0  0  0  0  0
   10.7581   -3.1233   19.4720 N   0  0  0  0  0  0  0  0  0  0  0  0
    9.9571   -4.0573   16.8866 C   0  0  0  0  0  0  0  0  0  0  0  0
    7.6213   -6.5618   16.0087 C   0  0  0  0  0  0  0  0  0  0  0  0
   10.8583   -2.6527   20.7222 C   0  0  0  0  0  0  0  0  0  0  0  0
   10.6412   -3.5089   21.7936 C   0  0  0  0  0  0  0  0  0  0  0  0
   10.4972   -3.8968   24.1589 C   0  0  0  0  0  0  0  0  0  0  0  0
    5.9260   -8.2736   16.5517 C   0  0  0  0  0  0  0  0  0  0  0  0
    3.8816   -9.1166   17.2493 C   0  0  0  0  0  0  0  0  0  0  0  0
   10.1297   -1.6575   23.2324 C   0  0  0  0  0  0  0  0  0  0  0  0
    9.4684   -1.6929   26.7263 F   0  0  0  0  0  0  0  0  0  0  0  0
    7.7963   -7.7906   17.9837 C   0  0  0  0  0  0  0  0  0  0  0  0
   10.5884   -3.0725   16.7902 O   0  0  0  0  0  0  0  0  0  0  0  0
   10.4323   -5.3494   20.3516 C   0  0  0  0  0  0  0  0  0  0  0  0
    7.1156   -7.5454   16.8218 C   0  0  0  0  0  0  0  0  0  0  0  0
   10.3885   -4.4388   19.2773 C   0  0  0  0  0  0  0  0  0  0  0  0
    4.5160   -9.3822   15.0841 C   0  0  0  0  0  0  0  0  0  0  0  0
  1  3  4  0
  1 24  4  0
  2  6  4  0
  2 15  4  0
  3  5  4  0
  3  6  4  0
  4 21  4  0
  4 29  4  0
  5 15  4  0
  5 28  1  0
  6 16  4  0
  7 18  4  0
  7 26  4  0
  8 18  1  0
  8 19  4  0
  8 22  4  0
  9 12  4  0
  9 19  4  0
 10 12  4  0
 10 22  4  0
 11 20  4  0
 11 21  4  0
 12 23  1  0
 13 20  4  0
 13 29  4  0
 14 17  4  0
 14 28  4  0
 15 25  2  0
 16 27  4  0
 17 18  4  0
 20 27  1  0
 24 27  4  0
 26 28  4  0
M  END
$$$$

 Created by Python create_sdf_string function

 29 33  0  0  0  0  0  0  0  0999 V2000
    8.8270   -7.0288   18.4251 C   0  0  0  0  0  0  0  0  0  0  0  0
    9.1576   -4.6236   15.8860 O   0  0  0  0  0  0  0  0  0  0  0  0
    9.1509   -5.9108   17.7177 C   0  0  0  0  0  0  0  0  0  0  0  0
    3.6373   -9.5349   16.0582 N   0  0  0  0  0  0  0  0  0  0  0  0
    9.9275   -4.8001   18.0438 N   0  0  0  0  0  0  0  0  0  0  0  0
    8.5908   -5.7425   16.4412 C   0  0  0  0  0  0  0  0  0  0  0  0
   10.5993   -4.8981   21.6068 C   0  0  0  0  0  0  0  0  0  0  0  0
   10.4258   -3.0106   23.0998 C   0  0  0  0  0  0  0  0  0  0  0  0
   10.2148   -3.4364   25.4200 C   0  0  0  0  0  0  0  0  0  0  0  0
    9.7853   -1.1840   24.4927 C   0  0  0  0  0  0  0  0  0  0  0  0
    5.0276   -8.5227   17.5352 C   0  0  0  0  0  0  0  0  0  0  0  0
    9.8187   -2.0895   25.5800 C   0  0  0  0  0  0  0  0  0  0  0  0
    5.6473   -8.7216   15.3158 C   0  0  0  0  0  0  0  0  0  0  0  0
   10.7581   -3.1233   19.4720 N   0  0  0  0  0  0  0  0  0  0  0  0
    9.9571   -4.0573   16.8866 C   0  0  0  0  0  0  0  0  0  0  0  0
    7.6213   -6.5618   16.0087 C   0  0  0  0  0  0  0  0  0  0  0  0
   10.8583   -2.6527   20.7222 C   0  0  0  0  0  0  0  0  0  0  0  0
   10.6412   -3.5089   21.7936 C   0  0  0  0  0  0  0  0  0  0  0  0
   10.4972   -3.8968   24.1589 C   0  0  0  0  0  0  0  0  0  0  0  0
    5.9260   -8.2736   16.5517 C   0  0  0  0  0  0  0  0  0  0  0  0
    3.8816   -9.1166   17.2493 C   0  0  0  0  0  0  0  0  0  0  0  0
   10.1297   -1.6575   23.2324 C   0  0  0  0  0  0  0  0  0  0  0  0
    9.4684   -1.6929   26.7263 F   0  0  0  0  0  0  0  0  0  0  0  0
    7.7963   -7.7906   17.9837 C   0  0  0  0  0  0  0  0  0  0  0  0
   10.5884   -3.0725   16.7902 O   0  0  0  0  0  0  0  0  0  0  0  0
   10.4323   -5.3494   20.3516 C   0  0  0  0  0  0  0  0  0  0  0  0
    7.1156   -7.5454   16.8218 C   0  0  0  0  0  0  0  0  0  0  0  0
   10.3885   -4.4388   19.2773 C   0  0  0  0  0  0  0  0  0  0  0  0
    4.5160   -9.3822   15.0841 C   0  0  0  0  0  0  0  0  0  0  0  0
  1  3  4  0
  1 24  4  0
  2  6  4  0
  2 15  4  0
  3  5  4  0
  3  6  4  0
  4 21  4  0
  4 29  4  0
  5 15  4  0
  5 28  1  0
  6 16  4  0
  7 18  4  0
  7 26  4  0
  8 18  1  0
  8 19  4  0
  8 22  4  0
  9 12  4  0
  9 19  4  0
 10 12  4  0
 10 22  4  0
 11 20  4  0
 11 21  4  0
 12 23  1  0
 13 20  4  0
 13 29  4  0
 14 17  4  0
 14 28  4  0
 15 25  2  0
 16 27  4  0
 17 18  4  0
 20 27  1  0
 24 27  4  0
 26 28  4  0
M  END
$$$$

 Created by Python create_sdf_string function

 29 33  0  0  0  0  0  0  0  0999 V2000
    8.8270   -7.0288   18.4251 C   0  0  0  0  0  0  0  0  0  0  0  0
    9.1576   -4.6236   15.8860 O   0  0  0  0  0  0  0  0  0  0  0  0
    9.1509   -5.9108   17.7177 C   0  0  0  0  0  0  0  0  0  0  0  0
    3.6373   -9.5349   16.0582 N   0  0  0  0  0  0  0  0  0  0  0  0
    9.9275   -4.8001   18.0438 N   0  0  0  0  0  0  0  0  0  0  0  0
    8.5908   -5.7425   16.4412 C   0  0  0  0  0  0  0  0  0  0  0  0
   10.5993   -4.8981   21.6068 C   0  0  0  0  0  0  0  0  0  0  0  0
   10.4258   -3.0106   23.0998 C   0  0  0  0  0  0  0  0  0  0  0  0
   10.2148   -3.4364   25.4200 C   0  0  0  0  0  0  0  0  0  0  0  0
    9.7853   -1.1840   24.4927 C   0  0  0  0  0  0  0  0  0  0  0  0
    5.0276   -8.5227   17.5352 C   0  0  0  0  0  0  0  0  0  0  0  0
    9.8187   -2.0895   25.5800 C   0  0  0  0  0  0  0  0  0  0  0  0
    5.6473   -8.7216   15.3158 C   0  0  0  0  0  0  0  0  0  0  0  0
   10.7581   -3.1233   19.4720 N   0  0  0  0  0  0  0  0  0  0  0  0
    9.9571   -4.0573   16.8866 C   0  0  0  0  0  0  0  0  0  0  0  0
    7.6213   -6.5618   16.0087 C   0  0  0  0  0  0  0  0  0  0  0  0
   10.8583   -2.6527   20.7222 C   0  0  0  0  0  0  0  0  0  0  0  0
   10.6412   -3.5089   21.7936 C   0  0  0  0  0  0  0  0  0  0  0  0
   10.4972   -3.8968   24.1589 C   0  0  0  0  0  0  0  0  0  0  0  0
    5.9260   -8.2736   16.5517 C   0  0  0  0  0  0  0  0  0  0  0  0
    3.8816   -9.1166   17.2493 C   0  0  0  0  0  0  0  0  0  0  0  0
   10.1297   -1.6575   23.2324 C   0  0  0  0  0  0  0  0  0  0  0  0
    9.4684   -1.6929   26.7263 F   0  0  0  0  0  0  0  0  0  0  0  0
    7.7963   -7.7906   17.9837 C   0  0  0  0  0  0  0  0  0  0  0  0
   10.5884   -3.0725   16.7902 O   0  0  0  0  0  0  0  0  0  0  0  0
   10.4323   -5.3494   20.3516 C   0  0  0  0  0  0  0  0  0  0  0  0
    7.1156   -7.5454   16.8218 C   0  0  0  0  0  0  0  0  0  0  0  0
   10.3885   -4.4388   19.2773 C   0  0  0  0  0  0  0  0  0  0  0  0
    4.5160   -9.3822   15.0841 C   0  0  0  0  0  0  0  0  0  0  0  0
  1  3  4  0
  1 24  4  0
  2  6  4  0
  2 15  4  0
  3  5  4  0
  3  6  4  0
  4 21  4  0
  4 29  4  0
  5 15  4  0
  5 28  1  0
  6 16  4  0
  7 18  4  0
  7 26  4  0
  8 18  1  0
  8 19  4  0
  8 22  4  0
  9 12  4  0
  9 19  4  0
 10 12  4  0
 10 22  4  0
 11 20  4  0
 11 21  4  0
 12 23  1  0
 13 20  4  0
 13 29  4  0
 14 17  4  0
 14 28  4  0
 15 25  2  0
 16 27  4  0
 17 18  4  0
 20 27  1  0
 24 27  4  0
 26 28  4  0
M  END
$$$$

 Created by Python create_sdf_string function

 29 33  0  0  0  0  0  0  0  0999 V2000
    8.8270   -7.0288   18.4251 C   0  0  0  0  0  0  0  0  0  0  0  0
    9.1576   -4.6236   15.8860 O   0  0  0  0  0  0  0  0  0  0  0  0
    9.1509   -5.9108   17.7177 C   0  0  0  0  0  0  0  0  0  0  0  0
    3.6373   -9.5349   16.0582 N   0  0  0  0  0  0  0  0  0  0  0  0
    9.9275   -4.8001   18.0438 N   0  0  0  0  0  0  0  0  0  0  0  0
    8.5908   -5.7425   16.4412 C   0  0  0  0  0  0  0  0  0  0  0  0
   10.5993   -4.8981   21.6068 C   0  0  0  0  0  0  0  0  0  0  0  0
   10.4258   -3.0106   23.0998 C   0  0  0  0  0  0  0  0  0  0  0  0
   10.2148   -3.4364   25.4200 C   0  0  0  0  0  0  0  0  0  0  0  0
    9.7853   -1.1840   24.4927 C   0  0  0  0  0  0  0  0  0  0  0  0
    5.0276   -8.5227   17.5352 C   0  0  0  0  0  0  0  0  0  0  0  0
    9.8187   -2.0895   25.5800 C   0  0  0  0  0  0  0  0  0  0  0  0
    5.6473   -8.7216   15.3158 C   0  0  0  0  0  0  0  0  0  0  0  0
   10.7581   -3.1233   19.4720 N   0  0  0  0  0  0  0  0  0  0  0  0
    9.9571   -4.0573   16.8866 C   0  0  0  0  0  0  0  0  0  0  0  0
    7.6213   -6.5618   16.0087 C   0  0  0  0  0  0  0  0  0  0  0  0
   10.8583   -2.6527   20.7222 C   0  0  0  0  0  0  0  0  0  0  0  0
   10.6412   -3.5089   21.7936 C   0  0  0  0  0  0  0  0  0  0  0  0
   10.4972   -3.8968   24.1589 C   0  0  0  0  0  0  0  0  0  0  0  0
    5.9260   -8.2736   16.5517 C   0  0  0  0  0  0  0  0  0  0  0  0
    3.8816   -9.1166   17.2493 C   0  0  0  0  0  0  0  0  0  0  0  0
   10.1297   -1.6575   23.2324 C   0  0  0  0  0  0  0  0  0  0  0  0
    9.4684   -1.6929   26.7263 F   0  0  0  0  0  0  0  0  0  0  0  0
    7.7963   -7.7906   17.9837 C   0  0  0  0  0  0  0  0  0  0  0  0
   10.5884   -3.0725   16.7902 O   0  0  0  0  0  0  0  0  0  0  0  0
   10.4323   -5.3494   20.3516 C   0  0  0  0  0  0  0  0  0  0  0  0
    7.1156   -7.5454   16.8218 C   0  0  0  0  0  0  0  0  0  0  0  0
   10.3885   -4.4388   19.2773 C   0  0  0  0  0  0  0  0  0  0  0  0
    4.5160   -9.3822   15.0841 C   0  0  0  0  0  0  0  0  0  0  0  0
  1  3  4  0
  1 24  4  0
  2  6  4  0
  2 15  4  0
  3  5  4  0
  3  6  4  0
  4 21  4  0
  4 29  4  0
  5 15  4  0
  5 28  1  0
  6 16  4  0
  7 18  4  0
  7 26  4  0
  8 18  1  0
  8 19  4  0
  8 22  4  0
  9 12  4  0
  9 19  4  0
 10 12  4  0
 10 22  4  0
 11 20  4  0
 11 21  4  0
 12 23  1  0
 13 20  4  0
 13 29  4  0
 14 17  4  0
 14 28  4  0
 15 25  2  0
 16 27  4  0
 17 18  4  0
 20 27  1  0
 24 27  4  0
 26 28  4  0
M  END
$$$$

 Created by Python create_sdf_string function

 29 33  0  0  0  0  0  0  0  0999 V2000
    8.8270   -7.0288   18.4251 C   0  0  0  0  0  0  0  0  0  0  0  0
    9.1576   -4.6236   15.8860 O   0  0  0  0  0  0  0  0  0  0  0  0
    9.1509   -5.9108   17.7177 C   0  0  0  0  0  0  0  0  0  0  0  0
    3.6373   -9.5349   16.0582 N   0  0  0  0  0  0  0  0  0  0  0  0
    9.9275   -4.8001   18.0438 N   0  0  0  0  0  0  0  0  0  0  0  0
    8.5908   -5.7425   16.4412 C   0  0  0  0  0  0  0  0  0  0  0  0
   10.5993   -4.8981   21.6068 C   0  0  0  0  0  0  0  0  0  0  0  0
   10.4258   -3.0106   23.0998 C   0  0  0  0  0  0  0  0  0  0  0  0
   10.2148   -3.4364   25.4200 C   0  0  0  0  0  0  0  0  0  0  0  0
    9.7853   -1.1840   24.4927 C   0  0  0  0  0  0  0  0  0  0  0  0
    5.0276   -8.5227   17.5352 C   0  0  0  0  0  0  0  0  0  0  0  0
    9.8187   -2.0895   25.5800 C   0  0  0  0  0  0  0  0  0  0  0  0
    5.6473   -8.7216   15.3158 C   0  0  0  0  0  0  0  0  0  0  0  0
   10.7581   -3.1233   19.4720 N   0  0  0  0  0  0  0  0  0  0  0  0
    9.9571   -4.0573   16.8866 C   0  0  0  0  0  0  0  0  0  0  0  0
    7.6213   -6.5618   16.0087 C   0  0  0  0  0  0  0  0  0  0  0  0
   10.8583   -2.6527   20.7222 C   0  0  0  0  0  0  0  0  0  0  0  0
   10.6412   -3.5089   21.7936 C   0  0  0  0  0  0  0  0  0  0  0  0
   10.4972   -3.8968   24.1589 C   0  0  0  0  0  0  0  0  0  0  0  0
    5.9260   -8.2736   16.5517 C   0  0  0  0  0  0  0  0  0  0  0  0
    3.8816   -9.1166   17.2493 C   0  0  0  0  0  0  0  0  0  0  0  0
   10.1297   -1.6575   23.2324 C   0  0  0  0  0  0  0  0  0  0  0  0
    9.4684   -1.6929   26.7263 F   0  0  0  0  0  0  0  0  0  0  0  0
    7.7963   -7.7906   17.9837 C   0  0  0  0  0  0  0  0  0  0  0  0
   10.5884   -3.0725   16.7902 O   0  0  0  0  0  0  0  0  0  0  0  0
   10.4323   -5.3494   20.3516 C   0  0  0  0  0  0  0  0  0  0  0  0
    7.1156   -7.5454   16.8218 C   0  0  0  0  0  0  0  0  0  0  0  0
   10.3885   -4.4388   19.2773 C   0  0  0  0  0  0  0  0  0  0  0  0
    4.5160   -9.3822   15.0841 C   0  0  0  0  0  0  0  0  0  0  0  0
  1  3  4  0
  1 24  4  0
  2  6  4  0
  2 15  4  0
  3  5  4  0
  3  6  4  0
  4 21  4  0
  4 29  4  0
  5 15  4  0
  5 28  1  0
  6 16  4  0
  7 18  4  0
  7 26  4  0
  8 18  1  0
  8 19  4  0
  8 22  4  0
  9 12  4  0
  9 19  4  0
 10 12  4  0
 10 22  4  0
 11 20  4  0
 11 21  4  0
 12 23  1  0
 13 20  4  0
 13 29  4  0
 14 17  4  0
 14 28  4  0
 15 25  2  0
 16 27  4  0
 17 18  4  0
 20 27  1  0
 24 27  4  0
 26 28  4  0
M  END
$$$$

 Created by Python create_sdf_string function

 29 33  0  0  0  0  0  0  0  0999 V2000
    8.8270   -7.0288   18.4251 C   0  0  0  0  0  0  0  0  0  0  0  0
    9.1576   -4.6236   15.8860 O   0  0  0  0  0  0  0  0  0  0  0  0
    9.1509   -5.9108   17.7177 C   0  0  0  0  0  0  0  0  0  0  0  0
    3.6373   -9.5349   16.0582 N   0  0  0  0  0  0  0  0  0  0  0  0
    9.9275   -4.8001   18.0438 N   0  0  0  0  0  0  0  0  0  0  0  0
    8.5908   -5.7425   16.4412 C   0  0  0  0  0  0  0  0  0  0  0  0
   10.5993   -4.8981   21.6068 C   0  0  0  0  0  0  0  0  0  0  0  0
   10.4258   -3.0106   23.0998 C   0  0  0  0  0  0  0  0  0  0  0  0
   10.2148   -3.4364   25.4200 C   0  0  0  0  0  0  0  0  0  0  0  0
    9.7853   -1.1840   24.4927 C   0  0  0  0  0  0  0  0  0  0  0  0
    5.0276   -8.5227   17.5352 C   0  0  0  0  0  0  0  0  0  0  0  0
    9.8187   -2.0895   25.5800 C   0  0  0  0  0  0  0  0  0  0  0  0
    5.6473   -8.7216   15.3158 C   0  0  0  0  0  0  0  0  0  0  0  0
   10.7581   -3.1233   19.4720 N   0  0  0  0  0  0  0  0  0  0  0  0
    9.9571   -4.0573   16.8866 C   0  0  0  0  0  0  0  0  0  0  0  0
    7.6213   -6.5618   16.0087 C   0  0  0  0  0  0  0  0  0  0  0  0
   10.8583   -2.6527   20.7222 C   0  0  0  0  0  0  0  0  0  0  0  0
   10.6412   -3.5089   21.7936 C   0  0  0  0  0  0  0  0  0  0  0  0
   10.4972   -3.8968   24.1589 C   0  0  0  0  0  0  0  0  0  0  0  0
    5.9260   -8.2736   16.5517 C   0  0  0  0  0  0  0  0  0  0  0  0
    3.8816   -9.1166   17.2493 C   0  0  0  0  0  0  0  0  0  0  0  0
   10.1297   -1.6575   23.2324 C   0  0  0  0  0  0  0  0  0  0  0  0
    9.4684   -1.6929   26.7263 F   0  0  0  0  0  0  0  0  0  0  0  0
    7.7963   -7.7906   17.9837 C   0  0  0  0  0  0  0  0  0  0  0  0
   10.5884   -3.0725   16.7902 O   0  0  0  0  0  0  0  0  0  0  0  0
   10.4323   -5.3494   20.3516 C   0  0  0  0  0  0  0  0  0  0  0  0
    7.1156   -7.5454   16.8218 C   0  0  0  0  0  0  0  0  0  0  0  0
   10.3885   -4.4388   19.2773 C   0  0  0  0  0  0  0  0  0  0  0  0
    4.5160   -9.3822   15.0841 C   0  0  0  0  0  0  0  0  0  0  0  0
  1  3  4  0
  1 24  4  0
  2  6  4  0
  2 15  4  0
  3  5  4  0
  3  6  4  0
  4 21  4  0
  4 29  4  0
  5 15  4  0
  5 28  1  0
  6 16  4  0
  7 18  4  0
  7 26  4  0
  8 18  1  0
  8 19  4  0
  8 22  4  0
  9 12  4  0
  9 19  4  0
 10 12  4  0
 10 22  4  0
 11 20  4  0
 11 21  4  0
 12 23  1  0
 13 20  4  0
 13 29  4  0
 14 17  4  0
 14 28  4  0
 15 25  2  0
 16 27  4  0
 17 18  4  0
 20 27  1  0
 24 27  4  0
 26 28  4  0
M  END
$$$$

 Created by Python create_sdf_string function

 29 33  0  0  0  0  0  0  0  0999 V2000
    8.8270   -7.0288   18.4251 C   0  0  0  0  0  0  0  0  0  0  0  0
    9.1576   -4.6236   15.8860 O   0  0  0  0  0  0  0  0  0  0  0  0
    9.1509   -5.9108   17.7177 C   0  0  0  0  0  0  0  0  0  0  0  0
    3.6373   -9.5349   16.0582 N   0  0  0  0  0  0  0  0  0  0  0  0
    9.9275   -4.8001   18.0438 N   0  0  0  0  0  0  0  0  0  0  0  0
    8.5908   -5.7425   16.4412 C   0  0  0  0  0  0  0  0  0  0  0  0
   10.5993   -4.8981   21.6068 C   0  0  0  0  0  0  0  0  0  0  0  0
   10.4258   -3.0106   23.0998 C   0  0  0  0  0  0  0  0  0  0  0  0
   10.2148   -3.4364   25.4200 C   0  0  0  0  0  0  0  0  0  0  0  0
    9.7853   -1.1840   24.4927 C   0  0  0  0  0  0  0  0  0  0  0  0
    5.0276   -8.5227   17.5352 C   0  0  0  0  0  0  0  0  0  0  0  0
    9.8187   -2.0895   25.5800 C   0  0  0  0  0  0  0  0  0  0  0  0
    5.6473   -8.7216   15.3158 C   0  0  0  0  0  0  0  0  0  0  0  0
   10.7581   -3.1233   19.4720 N   0  0  0  0  0  0  0  0  0  0  0  0
    9.9571   -4.0573   16.8866 C   0  0  0  0  0  0  0  0  0  0  0  0
    7.6213   -6.5618   16.0087 C   0  0  0  0  0  0  0  0  0  0  0  0
   10.8583   -2.6527   20.7222 C   0  0  0  0  0  0  0  0  0  0  0  0
   10.6412   -3.5089   21.7936 C   0  0  0  0  0  0  0  0  0  0  0  0
   10.4972   -3.8968   24.1589 C   0  0  0  0  0  0  0  0  0  0  0  0
    5.9260   -8.2736   16.5517 C   0  0  0  0  0  0  0  0  0  0  0  0
    3.8816   -9.1166   17.2493 C   0  0  0  0  0  0  0  0  0  0  0  0
   10.1297   -1.6575   23.2324 C   0  0  0  0  0  0  0  0  0  0  0  0
    9.4684   -1.6929   26.7263 F   0  0  0  0  0  0  0  0  0  0  0  0
    7.7963   -7.7906   17.9837 C   0  0  0  0  0  0  0  0  0  0  0  0
   10.5884   -3.0725   16.7902 O   0  0  0  0  0  0  0  0  0  0  0  0
   10.4323   -5.3494   20.3516 C   0  0  0  0  0  0  0  0  0  0  0  0
    7.1156   -7.5454   16.8218 C   0  0  0  0  0  0  0  0  0  0  0  0
   10.3885   -4.4388   19.2773 C   0  0  0  0  0  0  0  0  0  0  0  0
    4.5160   -9.3822   15.0841 C   0  0  0  0  0  0  0  0  0  0  0  0
  1  3  4  0
  1 24  4  0
  2  6  4  0
  2 15  4  0
  3  5  4  0
  3  6  4  0
  4 21  4  0
  4 29  4  0
  5 15  4  0
  5 28  1  0
  6 16  4  0
  7 18  4  0
  7 26  4  0
  8 18  1  0
  8 19  4  0
  8 22  4  0
  9 12  4  0
  9 19  4  0
 10 12  4  0
 10 22  4  0
 11 20  4  0
 11 21  4  0
 12 23  1  0
 13 20  4  0
 13 29  4  0
 14 17  4  0
 14 28  4  0
 15 25  2  0
 16 27  4  0
 17 18  4  0
 20 27  1  0
 24 27  4  0
 26 28  4  0
M  END
$$$$

 Created by Python create_sdf_string function

 29 33  0  0  0  0  0  0  0  0999 V2000
    8.8270   -7.0288   18.4251 C   0  0  0  0  0  0  0  0  0  0  0  0
    9.1576   -4.6236   15.8860 O   0  0  0  0  0  0  0  0  0  0  0  0
    9.1509   -5.9108   17.7177 C   0  0  0  0  0  0  0  0  0  0  0  0
    3.6373   -9.5349   16.0582 N   0  0  0  0  0  0  0  0  0  0  0  0
    9.9275   -4.8001   18.0438 N   0  0  0  0  0  0  0  0  0  0  0  0
    8.5908   -5.7425   16.4412 C   0  0  0  0  0  0  0  0  0  0  0  0
   10.5993   -4.8981   21.6068 C   0  0  0  0  0  0  0  0  0  0  0  0
   10.4258   -3.0106   23.0998 C   0  0  0  0  0  0  0  0  0  0  0  0
   10.2148   -3.4364   25.4200 C   0  0  0  0  0  0  0  0  0  0  0  0
    9.7853   -1.1840   24.4927 C   0  0  0  0  0  0  0  0  0  0  0  0
    5.0276   -8.5227   17.5352 C   0  0  0  0  0  0  0  0  0  0  0  0
    9.8187   -2.0895   25.5800 C   0  0  0  0  0  0  0  0  0  0  0  0
    5.6473   -8.7216   15.3158 C   0  0  0  0  0  0  0  0  0  0  0  0
   10.7581   -3.1233   19.4720 N   0  0  0  0  0  0  0  0  0  0  0  0
    9.9571   -4.0573   16.8866 C   0  0  0  0  0  0  0  0  0  0  0  0
    7.6213   -6.5618   16.0087 C   0  0  0  0  0  0  0  0  0  0  0  0
   10.8583   -2.6527   20.7222 C   0  0  0  0  0  0  0  0  0  0  0  0
   10.6412   -3.5089   21.7936 C   0  0  0  0  0  0  0  0  0  0  0  0
   10.4972   -3.8968   24.1589 C   0  0  0  0  0  0  0  0  0  0  0  0
    5.9260   -8.2736   16.5517 C   0  0  0  0  0  0  0  0  0  0  0  0
    3.8816   -9.1166   17.2493 C   0  0  0  0  0  0  0  0  0  0  0  0
   10.1297   -1.6575   23.2324 C   0  0  0  0  0  0  0  0  0  0  0  0
    9.4684   -1.6929   26.7263 F   0  0  0  0  0  0  0  0  0  0  0  0
    7.7963   -7.7906   17.9837 C   0  0  0  0  0  0  0  0  0  0  0  0
   10.5884   -3.0725   16.7902 O   0  0  0  0  0  0  0  0  0  0  0  0
   10.4323   -5.3494   20.3516 C   0  0  0  0  0  0  0  0  0  0  0  0
    7.1156   -7.5454   16.8218 C   0  0  0  0  0  0  0  0  0  0  0  0
   10.3885   -4.4388   19.2773 C   0  0  0  0  0  0  0  0  0  0  0  0
    4.5160   -9.3822   15.0841 C   0  0  0  0  0  0  0  0  0  0  0  0
  1  3  4  0
  1 24  4  0
  2  6  4  0
  2 15  4  0
  3  5  4  0
  3  6  4  0
  4 21  4  0
  4 29  4  0
  5 15  4  0
  5 28  1  0
  6 16  4  0
  7 18  4  0
  7 26  4  0
  8 18  1  0
  8 19  4  0
  8 22  4  0
  9 12  4  0
  9 19  4  0
 10 12  4  0
 10 22  4  0
 11 20  4  0
 11 21  4  0
 12 23  1  0
 13 20  4  0
 13 29  4  0
 14 17  4  0
 14 28  4  0
 15 25  2  0
 16 27  4  0
 17 18  4  0
 20 27  1  0
 24 27  4  0
 26 28  4  0
M  END
$$$$

 Created by Python create_sdf_string function

 29 33  0  0  0  0  0  0  0  0999 V2000
    8.8270   -7.0288   18.4251 C   0  0  0  0  0  0  0  0  0  0  0  0
    9.1576   -4.6236   15.8860 O   0  0  0  0  0  0  0  0  0  0  0  0
    9.1509   -5.9108   17.7177 C   0  0  0  0  0  0  0  0  0  0  0  0
    3.6373   -9.5349   16.0582 N   0  0  0  0  0  0  0  0  0  0  0  0
    9.9275   -4.8001   18.0438 N   0  0  0  0  0  0  0  0  0  0  0  0
    8.5908   -5.7425   16.4412 C   0  0  0  0  0  0  0  0  0  0  0  0
   10.5993   -4.8981   21.6068 C   0  0  0  0  0  0  0  0  0  0  0  0
   10.4258   -3.0106   23.0998 C   0  0  0  0  0  0  0  0  0  0  0  0
   10.2148   -3.4364   25.4200 C   0  0  0  0  0  0  0  0  0  0  0  0
    9.7853   -1.1840   24.4927 C   0  0  0  0  0  0  0  0  0  0  0  0
    5.0276   -8.5227   17.5352 C   0  0  0  0  0  0  0  0  0  0  0  0
    9.8187   -2.0895   25.5800 C   0  0  0  0  0  0  0  0  0  0  0  0
    5.6473   -8.7216   15.3158 C   0  0  0  0  0  0  0  0  0  0  0  0
   10.7581   -3.1233   19.4720 N   0  0  0  0  0  0  0  0  0  0  0  0
    9.9571   -4.0573   16.8866 C   0  0  0  0  0  0  0  0  0  0  0  0
    7.6213   -6.5618   16.0087 C   0  0  0  0  0  0  0  0  0  0  0  0
   10.8583   -2.6527   20.7222 C   0  0  0  0  0  0  0  0  0  0  0  0
   10.6412   -3.5089   21.7936 C   0  0  0  0  0  0  0  0  0  0  0  0
   10.4972   -3.8968   24.1589 C   0  0  0  0  0  0  0  0  0  0  0  0
    5.9260   -8.2736   16.5517 C   0  0  0  0  0  0  0  0  0  0  0  0
    3.8816   -9.1166   17.2493 C   0  0  0  0  0  0  0  0  0  0  0  0
   10.1297   -1.6575   23.2324 C   0  0  0  0  0  0  0  0  0  0  0  0
    9.4684   -1.6929   26.7263 F   0  0  0  0  0  0  0  0  0  0  0  0
    7.7963   -7.7906   17.9837 C   0  0  0  0  0  0  0  0  0  0  0  0
   10.5884   -3.0725   16.7902 O   0  0  0  0  0  0  0  0  0  0  0  0
   10.4323   -5.3494   20.3516 C   0  0  0  0  0  0  0  0  0  0  0  0
    7.1156   -7.5454   16.8218 C   0  0  0  0  0  0  0  0  0  0  0  0
   10.3885   -4.4388   19.2773 C   0  0  0  0  0  0  0  0  0  0  0  0
    4.5160   -9.3822   15.0841 C   0  0  0  0  0  0  0  0  0  0  0  0
  1  3  4  0
  1 24  4  0
  2  6  4  0
  2 15  4  0
  3  5  4  0
  3  6  4  0
  4 21  4  0
  4 29  4  0
  5 15  4  0
  5 28  1  0
  6 16  4  0
  7 18  4  0
  7 26  4  0
  8 18  1  0
  8 19  4  0
  8 22  4  0
  9 12  4  0
  9 19  4  0
 10 12  4  0
 10 22  4  0
 11 20  4  0
 11 21  4  0
 12 23  1  0
 13 20  4  0
 13 29  4  0
 14 17  4  0
 14 28  4  0
 15 25  2  0
 16 27  4  0
 17 18  4  0
 20 27  1  0
 24 27  4  0
 26 28  4  0
M  END
$$$$

 Created by Python create_sdf_string function

 29 33  0  0  0  0  0  0  0  0999 V2000
    8.8270   -7.0288   18.4251 C   0  0  0  0  0  0  0  0  0  0  0  0
    9.1576   -4.6236   15.8860 O   0  0  0  0  0  0  0  0  0  0  0  0
    9.1509   -5.9108   17.7177 C   0  0  0  0  0  0  0  0  0  0  0  0
    3.6373   -9.5349   16.0582 N   0  0  0  0  0  0  0  0  0  0  0  0
    9.9275   -4.8001   18.0438 N   0  0  0  0  0  0  0  0  0  0  0  0
    8.5908   -5.7425   16.4412 C   0  0  0  0  0  0  0  0  0  0  0  0
   10.5993   -4.8981   21.6068 C   0  0  0  0  0  0  0  0  0  0  0  0
   10.4258   -3.0106   23.0998 C   0  0  0  0  0  0  0  0  0  0  0  0
   10.2148   -3.4364   25.4200 C   0  0  0  0  0  0  0  0  0  0  0  0
    9.7853   -1.1840   24.4927 C   0  0  0  0  0  0  0  0  0  0  0  0
    5.0276   -8.5227   17.5352 C   0  0  0  0  0  0  0  0  0  0  0  0
    9.8187   -2.0895   25.5800 C   0  0  0  0  0  0  0  0  0  0  0  0
    5.6473   -8.7216   15.3158 C   0  0  0  0  0  0  0  0  0  0  0  0
   10.7581   -3.1233   19.4720 N   0  0  0  0  0  0  0  0  0  0  0  0
    9.9571   -4.0573   16.8866 C   0  0  0  0  0  0  0  0  0  0  0  0
    7.6213   -6.5618   16.0087 C   0  0  0  0  0  0  0  0  0  0  0  0
   10.8583   -2.6527   20.7222 C   0  0  0  0  0  0  0  0  0  0  0  0
   10.6412   -3.5089   21.7936 C   0  0  0  0  0  0  0  0  0  0  0  0
   10.4972   -3.8968   24.1589 C   0  0  0  0  0  0  0  0  0  0  0  0
    5.9260   -8.2736   16.5517 C   0  0  0  0  0  0  0  0  0  0  0  0
    3.8816   -9.1166   17.2493 C   0  0  0  0  0  0  0  0  0  0  0  0
   10.1297   -1.6575   23.2324 C   0  0  0  0  0  0  0  0  0  0  0  0
    9.4684   -1.6929   26.7263 F   0  0  0  0  0  0  0  0  0  0  0  0
    7.7963   -7.7906   17.9837 C   0  0  0  0  0  0  0  0  0  0  0  0
   10.5884   -3.0725   16.7902 O   0  0  0  0  0  0  0  0  0  0  0  0
   10.4323   -5.3494   20.3516 C   0  0  0  0  0  0  0  0  0  0  0  0
    7.1156   -7.5454   16.8218 C   0  0  0  0  0  0  0  0  0  0  0  0
   10.3885   -4.4388   19.2773 C   0  0  0  0  0  0  0  0  0  0  0  0
    4.5160   -9.3822   15.0841 C   0  0  0  0  0  0  0  0  0  0  0  0
  1  3  4  0
  1 24  4  0
  2  6  4  0
  2 15  4  0
  3  5  4  0
  3  6  4  0
  4 21  4  0
  4 29  4  0
  5 15  4  0
  5 28  1  0
  6 16  4  0
  7 18  4  0
  7 26  4  0
  8 18  1  0
  8 19  4  0
  8 22  4  0
  9 12  4  0
  9 19  4  0
 10 12  4  0
 10 22  4  0
 11 20  4  0
 11 21  4  0
 12 23  1  0
 13 20  4  0
 13 29  4  0
 14 17  4  0
 14 28  4  0
 15 25  2  0
 16 27  4  0
 17 18  4  0
 20 27  1  0
 24 27  4  0
 26 28  4  0
M  END
$$$$

 Created by Python create_sdf_string function

 29 33  0  0  0  0  0  0  0  0999 V2000
    8.8270   -7.0288   18.4251 C   0  0  0  0  0  0  0  0  0  0  0  0
    9.1576   -4.6236   15.8860 O   0  0  0  0  0  0  0  0  0  0  0  0
    9.1509   -5.9108   17.7177 C   0  0  0  0  0  0  0  0  0  0  0  0
    3.6373   -9.5349   16.0582 N   0  0  0  0  0  0  0  0  0  0  0  0
    9.9275   -4.8001   18.0438 N   0  0  0  0  0  0  0  0  0  0  0  0
    8.5908   -5.7425   16.4412 C   0  0  0  0  0  0  0  0  0  0  0  0
   10.5993   -4.8981   21.6068 C   0  0  0  0  0  0  0  0  0  0  0  0
   10.4258   -3.0106   23.0998 C   0  0  0  0  0  0  0  0  0  0  0  0
   10.2148   -3.4364   25.4200 C   0  0  0  0  0  0  0  0  0  0  0  0
    9.7853   -1.1840   24.4927 C   0  0  0  0  0  0  0  0  0  0  0  0
    5.0276   -8.5227   17.5352 C   0  0  0  0  0  0  0  0  0  0  0  0
    9.8187   -2.0895   25.5800 C   0  0  0  0  0  0  0  0  0  0  0  0
    5.6473   -8.7216   15.3158 C   0  0  0  0  0  0  0  0  0  0  0  0
   10.7581   -3.1233   19.4720 N   0  0  0  0  0  0  0  0  0  0  0  0
    9.9571   -4.0573   16.8866 C   0  0  0  0  0  0  0  0  0  0  0  0
    7.6213   -6.5618   16.0087 C   0  0  0  0  0  0  0  0  0  0  0  0
   10.8583   -2.6527   20.7222 C   0  0  0  0  0  0  0  0  0  0  0  0
   10.6412   -3.5089   21.7936 C   0  0  0  0  0  0  0  0  0  0  0  0
   10.4972   -3.8968   24.1589 C   0  0  0  0  0  0  0  0  0  0  0  0
    5.9260   -8.2736   16.5517 C   0  0  0  0  0  0  0  0  0  0  0  0
    3.8816   -9.1166   17.2493 C   0  0  0  0  0  0  0  0  0  0  0  0
   10.1297   -1.6575   23.2324 C   0  0  0  0  0  0  0  0  0  0  0  0
    9.4684   -1.6929   26.7263 F   0  0  0  0  0  0  0  0  0  0  0  0
    7.7963   -7.7906   17.9837 C   0  0  0  0  0  0  0  0  0  0  0  0
   10.5884   -3.0725   16.7902 O   0  0  0  0  0  0  0  0  0  0  0  0
   10.4323   -5.3494   20.3516 C   0  0  0  0  0  0  0  0  0  0  0  0
    7.1156   -7.5454   16.8218 C   0  0  0  0  0  0  0  0  0  0  0  0
   10.3885   -4.4388   19.2773 C   0  0  0  0  0  0  0  0  0  0  0  0
    4.5160   -9.3822   15.0841 C   0  0  0  0  0  0  0  0  0  0  0  0
  1  3  4  0
  1 24  4  0
  2  6  4  0
  2 15  4  0
  3  5  4  0
  3  6  4  0
  4 21  4  0
  4 29  4  0
  5 15  4  0
  5 28  1  0
  6 16  4  0
  7 18  4  0
  7 26  4  0
  8 18  1  0
  8 19  4  0
  8 22  4  0
  9 12  4  0
  9 19  4  0
 10 12  4  0
 10 22  4  0
 11 20  4  0
 11 21  4  0
 12 23  1  0
 13 20  4  0
 13 29  4  0
 14 17  4  0
 14 28  4  0
 15 25  2  0
 16 27  4  0
 17 18  4  0
 20 27  1  0
 24 27  4  0
 26 28  4  0
M  END
$$$$

 Created by Python create_sdf_string function

 29 33  0  0  0  0  0  0  0  0999 V2000
    8.8270   -7.0288   18.4251 C   0  0  0  0  0  0  0  0  0  0  0  0
    9.1576   -4.6236   15.8860 O   0  0  0  0  0  0  0  0  0  0  0  0
    9.1509   -5.9108   17.7177 C   0  0  0  0  0  0  0  0  0  0  0  0
    3.6373   -9.5349   16.0582 N   0  0  0  0  0  0  0  0  0  0  0  0
    9.9275   -4.8001   18.0438 N   0  0  0  0  0  0  0  0  0  0  0  0
    8.5908   -5.7425   16.4412 C   0  0  0  0  0  0  0  0  0  0  0  0
   10.5993   -4.8981   21.6068 C   0  0  0  0  0  0  0  0  0  0  0  0
   10.4258   -3.0106   23.0998 C   0  0  0  0  0  0  0  0  0  0  0  0
   10.2148   -3.4364   25.4200 C   0  0  0  0  0  0  0  0  0  0  0  0
    9.7853   -1.1840   24.4927 C   0  0  0  0  0  0  0  0  0  0  0  0
    5.0276   -8.5227   17.5352 C   0  0  0  0  0  0  0  0  0  0  0  0
    9.8187   -2.0895   25.5800 C   0  0  0  0  0  0  0  0  0  0  0  0
    5.6473   -8.7216   15.3158 C   0  0  0  0  0  0  0  0  0  0  0  0
   10.7581   -3.1233   19.4720 N   0  0  0  0  0  0  0  0  0  0  0  0
    9.9571   -4.0573   16.8866 C   0  0  0  0  0  0  0  0  0  0  0  0
    7.6213   -6.5618   16.0087 C   0  0  0  0  0  0  0  0  0  0  0  0
   10.8583   -2.6527   20.7222 C   0  0  0  0  0  0  0  0  0  0  0  0
   10.6412   -3.5089   21.7936 C   0  0  0  0  0  0  0  0  0  0  0  0
   10.4972   -3.8968   24.1589 C   0  0  0  0  0  0  0  0  0  0  0  0
    5.9260   -8.2736   16.5517 C   0  0  0  0  0  0  0  0  0  0  0  0
    3.8816   -9.1166   17.2493 C   0  0  0  0  0  0  0  0  0  0  0  0
   10.1297   -1.6575   23.2324 C   0  0  0  0  0  0  0  0  0  0  0  0
    9.4684   -1.6929   26.7263 F   0  0  0  0  0  0  0  0  0  0  0  0
    7.7963   -7.7906   17.9837 C   0  0  0  0  0  0  0  0  0  0  0  0
   10.5884   -3.0725   16.7902 O   0  0  0  0  0  0  0  0  0  0  0  0
   10.4323   -5.3494   20.3516 C   0  0  0  0  0  0  0  0  0  0  0  0
    7.1156   -7.5454   16.8218 C   0  0  0  0  0  0  0  0  0  0  0  0
   10.3885   -4.4388   19.2773 C   0  0  0  0  0  0  0  0  0  0  0  0
    4.5160   -9.3822   15.0841 C   0  0  0  0  0  0  0  0  0  0  0  0
  1  3  4  0
  1 24  4  0
  2  6  4  0
  2 15  4  0
  3  5  4  0
  3  6  4  0
  4 21  4  0
  4 29  4  0
  5 15  4  0
  5 28  1  0
  6 16  4  0
  7 18  4  0
  7 26  4  0
  8 18  1  0
  8 19  4  0
  8 22  4  0
  9 12  4  0
  9 19  4  0
 10 12  4  0
 10 22  4  0
 11 20  4  0
 11 21  4  0
 12 23  1  0
 13 20  4  0
 13 29  4  0
 14 17  4  0
 14 28  4  0
 15 25  2  0
 16 27  4  0
 17 18  4  0
 20 27  1  0
 24 27  4  0
 26 28  4  0
M  END
$$$$

 Created by Python create_sdf_string function

 29 33  0  0  0  0  0  0  0  0999 V2000
    8.8270   -7.0288   18.4251 C   0  0  0  0  0  0  0  0  0  0  0  0
    9.1576   -4.6236   15.8860 O   0  0  0  0  0  0  0  0  0  0  0  0
    9.1509   -5.9108   17.7177 C   0  0  0  0  0  0  0  0  0  0  0  0
    3.6373   -9.5349   16.0582 N   0  0  0  0  0  0  0  0  0  0  0  0
    9.9275   -4.8001   18.0438 N   0  0  0  0  0  0  0  0  0  0  0  0
    8.5908   -5.7425   16.4412 C   0  0  0  0  0  0  0  0  0  0  0  0
   10.5993   -4.8981   21.6068 C   0  0  0  0  0  0  0  0  0  0  0  0
   10.4258   -3.0106   23.0998 C   0  0  0  0  0  0  0  0  0  0  0  0
   10.2148   -3.4364   25.4200 C   0  0  0  0  0  0  0  0  0  0  0  0
    9.7853   -1.1840   24.4927 C   0  0  0  0  0  0  0  0  0  0  0  0
    5.0276   -8.5227   17.5352 C   0  0  0  0  0  0  0  0  0  0  0  0
    9.8187   -2.0895   25.5800 C   0  0  0  0  0  0  0  0  0  0  0  0
    5.6473   -8.7216   15.3158 C   0  0  0  0  0  0  0  0  0  0  0  0
   10.7581   -3.1233   19.4720 N   0  0  0  0  0  0  0  0  0  0  0  0
    9.9571   -4.0573   16.8866 C   0  0  0  0  0  0  0  0  0  0  0  0
    7.6213   -6.5618   16.0087 C   0  0  0  0  0  0  0  0  0  0  0  0
   10.8583   -2.6527   20.7222 C   0  0  0  0  0  0  0  0  0  0  0  0
   10.6412   -3.5089   21.7936 C   0  0  0  0  0  0  0  0  0  0  0  0
   10.4972   -3.8968   24.1589 C   0  0  0  0  0  0  0  0  0  0  0  0
    5.9260   -8.2736   16.5517 C   0  0  0  0  0  0  0  0  0  0  0  0
    3.8816   -9.1166   17.2493 C   0  0  0  0  0  0  0  0  0  0  0  0
   10.1297   -1.6575   23.2324 C   0  0  0  0  0  0  0  0  0  0  0  0
    9.4684   -1.6929   26.7263 F   0  0  0  0  0  0  0  0  0  0  0  0
    7.7963   -7.7906   17.9837 C   0  0  0  0  0  0  0  0  0  0  0  0
   10.5884   -3.0725   16.7902 O   0  0  0  0  0  0  0  0  0  0  0  0
   10.4323   -5.3494   20.3516 C   0  0  0  0  0  0  0  0  0  0  0  0
    7.1156   -7.5454   16.8218 C   0  0  0  0  0  0  0  0  0  0  0  0
   10.3885   -4.4388   19.2773 C   0  0  0  0  0  0  0  0  0  0  0  0
    4.5160   -9.3822   15.0841 C   0  0  0  0  0  0  0  0  0  0  0  0
  1  3  4  0
  1 24  4  0
  2  6  4  0
  2 15  4  0
  3  5  4  0
  3  6  4  0
  4 21  4  0
  4 29  4  0
  5 15  4  0
  5 28  1  0
  6 16  4  0
  7 18  4  0
  7 26  4  0
  8 18  1  0
  8 19  4  0
  8 22  4  0
  9 12  4  0
  9 19  4  0
 10 12  4  0
 10 22  4  0
 11 20  4  0
 11 21  4  0
 12 23  1  0
 13 20  4  0
 13 29  4  0
 14 17  4  0
 14 28  4  0
 15 25  2  0
 16 27  4  0
 17 18  4  0
 20 27  1  0
 24 27  4  0
 26 28  4  0
M  END
$$$$

 Created by Python create_sdf_string function

 29 33  0  0  0  0  0  0  0  0999 V2000
    8.8270   -7.0288   18.4251 C   0  0  0  0  0  0  0  0  0  0  0  0
    9.1576   -4.6236   15.8860 O   0  0  0  0  0  0  0  0  0  0  0  0
    9.1509   -5.9108   17.7177 C   0  0  0  0  0  0  0  0  0  0  0  0
    3.6373   -9.5349   16.0582 N   0  0  0  0  0  0  0  0  0  0  0  0
    9.9275   -4.8001   18.0438 N   0  0  0  0  0  0  0  0  0  0  0  0
    8.5908   -5.7425   16.4412 C   0  0  0  0  0  0  0  0  0  0  0  0
   10.5993   -4.8981   21.6068 C   0  0  0  0  0  0  0  0  0  0  0  0
   10.4258   -3.0106   23.0998 C   0  0  0  0  0  0  0  0  0  0  0  0
   10.2148   -3.4364   25.4200 C   0  0  0  0  0  0  0  0  0  0  0  0
    9.7853   -1.1840   24.4927 C   0  0  0  0  0  0  0  0  0  0  0  0
    5.0276   -8.5227   17.5352 C   0  0  0  0  0  0  0  0  0  0  0  0
    9.8187   -2.0895   25.5800 C   0  0  0  0  0  0  0  0  0  0  0  0
    5.6473   -8.7216   15.3158 C   0  0  0  0  0  0  0  0  0  0  0  0
   10.7581   -3.1233   19.4720 N   0  0  0  0  0  0  0  0  0  0  0  0
    9.9571   -4.0573   16.8866 C   0  0  0  0  0  0  0  0  0  0  0  0
    7.6213   -6.5618   16.0087 C   0  0  0  0  0  0  0  0  0  0  0  0
   10.8583   -2.6527   20.7222 C   0  0  0  0  0  0  0  0  0  0  0  0
   10.6412   -3.5089   21.7936 C   0  0  0  0  0  0  0  0  0  0  0  0
   10.4972   -3.8968   24.1589 C   0  0  0  0  0  0  0  0  0  0  0  0
    5.9260   -8.2736   16.5517 C   0  0  0  0  0  0  0  0  0  0  0  0
    3.8816   -9.1166   17.2493 C   0  0  0  0  0  0  0  0  0  0  0  0
   10.1297   -1.6575   23.2324 C   0  0  0  0  0  0  0  0  0  0  0  0
    9.4684   -1.6929   26.7263 F   0  0  0  0  0  0  0  0  0  0  0  0
    7.7963   -7.7906   17.9837 C   0  0  0  0  0  0  0  0  0  0  0  0
   10.5884   -3.0725   16.7902 O   0  0  0  0  0  0  0  0  0  0  0  0
   10.4323   -5.3494   20.3516 C   0  0  0  0  0  0  0  0  0  0  0  0
    7.1156   -7.5454   16.8218 C   0  0  0  0  0  0  0  0  0  0  0  0
   10.3885   -4.4388   19.2773 C   0  0  0  0  0  0  0  0  0  0  0  0
    4.5160   -9.3822   15.0841 C   0  0  0  0  0  0  0  0  0  0  0  0
  1  3  4  0
  1 24  4  0
  2  6  4  0
  2 15  4  0
  3  5  4  0
  3  6  4  0
  4 21  4  0
  4 29  4  0
  5 15  4  0
  5 28  1  0
  6 16  4  0
  7 18  4  0
  7 26  4  0
  8 18  1  0
  8 19  4  0
  8 22  4  0
  9 12  4  0
  9 19  4  0
 10 12  4  0
 10 22  4  0
 11 20  4  0
 11 21  4  0
 12 23  1  0
 13 20  4  0
 13 29  4  0
 14 17  4  0
 14 28  4  0
 15 25  2  0
 16 27  4  0
 17 18  4  0
 20 27  1  0
 24 27  4  0
 26 28  4  0
M  END
$$$$

 Created by Python create_sdf_string function

 29 33  0  0  0  0  0  0  0  0999 V2000
    8.8270   -7.0288   18.4251 C   0  0  0  0  0  0  0  0  0  0  0  0
    9.1576   -4.6236   15.8860 O   0  0  0  0  0  0  0  0  0  0  0  0
    9.1509   -5.9108   17.7177 C   0  0  0  0  0  0  0  0  0  0  0  0
    3.6373   -9.5349   16.0582 N   0  0  0  0  0  0  0  0  0  0  0  0
    9.9275   -4.8001   18.0438 N   0  0  0  0  0  0  0  0  0  0  0  0
    8.5908   -5.7425   16.4412 C   0  0  0  0  0  0  0  0  0  0  0  0
   10.5993   -4.8981   21.6068 C   0  0  0  0  0  0  0  0  0  0  0  0
   10.4258   -3.0106   23.0998 C   0  0  0  0  0  0  0  0  0  0  0  0
   10.2148   -3.4364   25.4200 C   0  0  0  0  0  0  0  0  0  0  0  0
    9.7853   -1.1840   24.4927 C   0  0  0  0  0  0  0  0  0  0  0  0
    5.0276   -8.5227   17.5352 C   0  0  0  0  0  0  0  0  0  0  0  0
    9.8187   -2.0895   25.5800 C   0  0  0  0  0  0  0  0  0  0  0  0
    5.6473   -8.7216   15.3158 C   0  0  0  0  0  0  0  0  0  0  0  0
   10.7581   -3.1233   19.4720 N   0  0  0  0  0  0  0  0  0  0  0  0
    9.9571   -4.0573   16.8866 C   0  0  0  0  0  0  0  0  0  0  0  0
    7.6213   -6.5618   16.0087 C   0  0  0  0  0  0  0  0  0  0  0  0
   10.8583   -2.6527   20.7222 C   0  0  0  0  0  0  0  0  0  0  0  0
   10.6412   -3.5089   21.7936 C   0  0  0  0  0  0  0  0  0  0  0  0
   10.4972   -3.8968   24.1589 C   0  0  0  0  0  0  0  0  0  0  0  0
    5.9260   -8.2736   16.5517 C   0  0  0  0  0  0  0  0  0  0  0  0
    3.8816   -9.1166   17.2493 C   0  0  0  0  0  0  0  0  0  0  0  0
   10.1297   -1.6575   23.2324 C   0  0  0  0  0  0  0  0  0  0  0  0
    9.4684   -1.6929   26.7263 F   0  0  0  0  0  0  0  0  0  0  0  0
    7.7963   -7.7906   17.9837 C   0  0  0  0  0  0  0  0  0  0  0  0
   10.5884   -3.0725   16.7902 O   0  0  0  0  0  0  0  0  0  0  0  0
   10.4323   -5.3494   20.3516 C   0  0  0  0  0  0  0  0  0  0  0  0
    7.1156   -7.5454   16.8218 C   0  0  0  0  0  0  0  0  0  0  0  0
   10.3885   -4.4388   19.2773 C   0  0  0  0  0  0  0  0  0  0  0  0
    4.5160   -9.3822   15.0841 C   0  0  0  0  0  0  0  0  0  0  0  0
  1  3  4  0
  1 24  4  0
  2  6  4  0
  2 15  4  0
  3  5  4  0
  3  6  4  0
  4 21  4  0
  4 29  4  0
  5 15  4  0
  5 28  1  0
  6 16  4  0
  7 18  4  0
  7 26  4  0
  8 18  1  0
  8 19  4  0
  8 22  4  0
  9 12  4  0
  9 19  4  0
 10 12  4  0
 10 22  4  0
 11 20  4  0
 11 21  4  0
 12 23  1  0
 13 20  4  0
 13 29  4  0
 14 17  4  0
 14 28  4  0
 15 25  2  0
 16 27  4  0
 17 18  4  0
 20 27  1  0
 24 27  4  0
 26 28  4  0
M  END
$$$$

 Created by Python create_sdf_string function

 29 33  0  0  0  0  0  0  0  0999 V2000
    8.8270   -7.0288   18.4251 C   0  0  0  0  0  0  0  0  0  0  0  0
    9.1576   -4.6236   15.8860 O   0  0  0  0  0  0  0  0  0  0  0  0
    9.1509   -5.9108   17.7177 C   0  0  0  0  0  0  0  0  0  0  0  0
    3.6373   -9.5349   16.0582 N   0  0  0  0  0  0  0  0  0  0  0  0
    9.9275   -4.8001   18.0438 N   0  0  0  0  0  0  0  0  0  0  0  0
    8.5908   -5.7425   16.4412 C   0  0  0  0  0  0  0  0  0  0  0  0
   10.5993   -4.8981   21.6068 C   0  0  0  0  0  0  0  0  0  0  0  0
   10.4258   -3.0106   23.0998 C   0  0  0  0  0  0  0  0  0  0  0  0
   10.2148   -3.4364   25.4200 C   0  0  0  0  0  0  0  0  0  0  0  0
    9.7853   -1.1840   24.4927 C   0  0  0  0  0  0  0  0  0  0  0  0
    5.0276   -8.5227   17.5352 C   0  0  0  0  0  0  0  0  0  0  0  0
    9.8187   -2.0895   25.5800 C   0  0  0  0  0  0  0  0  0  0  0  0
    5.6473   -8.7216   15.3158 C   0  0  0  0  0  0  0  0  0  0  0  0
   10.7581   -3.1233   19.4720 N   0  0  0  0  0  0  0  0  0  0  0  0
    9.9571   -4.0573   16.8866 C   0  0  0  0  0  0  0  0  0  0  0  0
    7.6213   -6.5618   16.0087 C   0  0  0  0  0  0  0  0  0  0  0  0
   10.8583   -2.6527   20.7222 C   0  0  0  0  0  0  0  0  0  0  0  0
   10.6412   -3.5089   21.7936 C   0  0  0  0  0  0  0  0  0  0  0  0
   10.4972   -3.8968   24.1589 C   0  0  0  0  0  0  0  0  0  0  0  0
    5.9260   -8.2736   16.5517 C   0  0  0  0  0  0  0  0  0  0  0  0
    3.8816   -9.1166   17.2493 C   0  0  0  0  0  0  0  0  0  0  0  0
   10.1297   -1.6575   23.2324 C   0  0  0  0  0  0  0  0  0  0  0  0
    9.4684   -1.6929   26.7263 F   0  0  0  0  0  0  0  0  0  0  0  0
    7.7963   -7.7906   17.9837 C   0  0  0  0  0  0  0  0  0  0  0  0
   10.5884   -3.0725   16.7902 O   0  0  0  0  0  0  0  0  0  0  0  0
   10.4323   -5.3494   20.3516 C   0  0  0  0  0  0  0  0  0  0  0  0
    7.1156   -7.5454   16.8218 C   0  0  0  0  0  0  0  0  0  0  0  0
   10.3885   -4.4388   19.2773 C   0  0  0  0  0  0  0  0  0  0  0  0
    4.5160   -9.3822   15.0841 C   0  0  0  0  0  0  0  0  0  0  0  0
  1  3  4  0
  1 24  4  0
  2  6  4  0
  2 15  4  0
  3  5  4  0
  3  6  4  0
  4 21  4  0
  4 29  4  0
  5 15  4  0
  5 28  1  0
  6 16  4  0
  7 18  4  0
  7 26  4  0
  8 18  1  0
  8 19  4  0
  8 22  4  0
  9 12  4  0
  9 19  4  0
 10 12  4  0
 10 22  4  0
 11 20  4  0
 11 21  4  0
 12 23  1  0
 13 20  4  0
 13 29  4  0
 14 17  4  0
 14 28  4  0
 15 25  2  0
 16 27  4  0
 17 18  4  0
 20 27  1  0
 24 27  4  0
 26 28  4  0
M  END
$$$$

 Created by Python create_sdf_string function

 29 33  0  0  0  0  0  0  0  0999 V2000
    8.8270   -7.0288   18.4251 C   0  0  0  0  0  0  0  0  0  0  0  0
    9.1576   -4.6236   15.8860 O   0  0  0  0  0  0  0  0  0  0  0  0
    9.1509   -5.9108   17.7177 C   0  0  0  0  0  0  0  0  0  0  0  0
    3.6373   -9.5349   16.0582 N   0  0  0  0  0  0  0  0  0  0  0  0
    9.9275   -4.8001   18.0438 N   0  0  0  0  0  0  0  0  0  0  0  0
    8.5908   -5.7425   16.4412 C   0  0  0  0  0  0  0  0  0  0  0  0
   10.5993   -4.8981   21.6068 C   0  0  0  0  0  0  0  0  0  0  0  0
   10.4258   -3.0106   23.0998 C   0  0  0  0  0  0  0  0  0  0  0  0
   10.2148   -3.4364   25.4200 C   0  0  0  0  0  0  0  0  0  0  0  0
    9.7853   -1.1840   24.4927 C   0  0  0  0  0  0  0  0  0  0  0  0
    5.0276   -8.5227   17.5352 C   0  0  0  0  0  0  0  0  0  0  0  0
    9.8187   -2.0895   25.5800 C   0  0  0  0  0  0  0  0  0  0  0  0
    5.6473   -8.7216   15.3158 C   0  0  0  0  0  0  0  0  0  0  0  0
   10.7581   -3.1233   19.4720 N   0  0  0  0  0  0  0  0  0  0  0  0
    9.9571   -4.0573   16.8866 C   0  0  0  0  0  0  0  0  0  0  0  0
    7.6213   -6.5618   16.0087 C   0  0  0  0  0  0  0  0  0  0  0  0
   10.8583   -2.6527   20.7222 C   0  0  0  0  0  0  0  0  0  0  0  0
   10.6412   -3.5089   21.7936 C   0  0  0  0  0  0  0  0  0  0  0  0
   10.4972   -3.8968   24.1589 C   0  0  0  0  0  0  0  0  0  0  0  0
    5.9260   -8.2736   16.5517 C   0  0  0  0  0  0  0  0  0  0  0  0
    3.8816   -9.1166   17.2493 C   0  0  0  0  0  0  0  0  0  0  0  0
   10.1297   -1.6575   23.2324 C   0  0  0  0  0  0  0  0  0  0  0  0
    9.4684   -1.6929   26.7263 F   0  0  0  0  0  0  0  0  0  0  0  0
    7.7963   -7.7906   17.9837 C   0  0  0  0  0  0  0  0  0  0  0  0
   10.5884   -3.0725   16.7902 O   0  0  0  0  0  0  0  0  0  0  0  0
   10.4323   -5.3494   20.3516 C   0  0  0  0  0  0  0  0  0  0  0  0
    7.1156   -7.5454   16.8218 C   0  0  0  0  0  0  0  0  0  0  0  0
   10.3885   -4.4388   19.2773 C   0  0  0  0  0  0  0  0  0  0  0  0
    4.5160   -9.3822   15.0841 C   0  0  0  0  0  0  0  0  0  0  0  0
  1  3  4  0
  1 24  4  0
  2  6  4  0
  2 15  4  0
  3  5  4  0
  3  6  4  0
  4 21  4  0
  4 29  4  0
  5 15  4  0
  5 28  1  0
  6 16  4  0
  7 18  4  0
  7 26  4  0
  8 18  1  0
  8 19  4  0
  8 22  4  0
  9 12  4  0
  9 19  4  0
 10 12  4  0
 10 22  4  0
 11 20  4  0
 11 21  4  0
 12 23  1  0
 13 20  4  0
 13 29  4  0
 14 17  4  0
 14 28  4  0
 15 25  2  0
 16 27  4  0
 17 18  4  0
 20 27  1  0
 24 27  4  0
 26 28  4  0
M  END
$$$$

 Created by Python create_sdf_string function

 29 33  0  0  0  0  0  0  0  0999 V2000
    8.8270   -7.0288   18.4251 C   0  0  0  0  0  0  0  0  0  0  0  0
    9.1576   -4.6236   15.8860 O   0  0  0  0  0  0  0  0  0  0  0  0
    9.1509   -5.9108   17.7177 C   0  0  0  0  0  0  0  0  0  0  0  0
    3.6373   -9.5349   16.0582 N   0  0  0  0  0  0  0  0  0  0  0  0
    9.9275   -4.8001   18.0438 N   0  0  0  0  0  0  0  0  0  0  0  0
    8.5908   -5.7425   16.4412 C   0  0  0  0  0  0  0  0  0  0  0  0
   10.5993   -4.8981   21.6068 C   0  0  0  0  0  0  0  0  0  0  0  0
   10.4258   -3.0106   23.0998 C   0  0  0  0  0  0  0  0  0  0  0  0
   10.2148   -3.4364   25.4200 C   0  0  0  0  0  0  0  0  0  0  0  0
    9.7853   -1.1840   24.4927 C   0  0  0  0  0  0  0  0  0  0  0  0
    5.0276   -8.5227   17.5352 C   0  0  0  0  0  0  0  0  0  0  0  0
    9.8187   -2.0895   25.5800 C   0  0  0  0  0  0  0  0  0  0  0  0
    5.6473   -8.7216   15.3158 C   0  0  0  0  0  0  0  0  0  0  0  0
   10.7581   -3.1233   19.4720 N   0  0  0  0  0  0  0  0  0  0  0  0
    9.9571   -4.0573   16.8866 C   0  0  0  0  0  0  0  0  0  0  0  0
    7.6213   -6.5618   16.0087 C   0  0  0  0  0  0  0  0  0  0  0  0
   10.8583   -2.6527   20.7222 C   0  0  0  0  0  0  0  0  0  0  0  0
   10.6412   -3.5089   21.7936 C   0  0  0  0  0  0  0  0  0  0  0  0
   10.4972   -3.8968   24.1589 C   0  0  0  0  0  0  0  0  0  0  0  0
    5.9260   -8.2736   16.5517 C   0  0  0  0  0  0  0  0  0  0  0  0
    3.8816   -9.1166   17.2493 C   0  0  0  0  0  0  0  0  0  0  0  0
   10.1297   -1.6575   23.2324 C   0  0  0  0  0  0  0  0  0  0  0  0
    9.4684   -1.6929   26.7263 F   0  0  0  0  0  0  0  0  0  0  0  0
    7.7963   -7.7906   17.9837 C   0  0  0  0  0  0  0  0  0  0  0  0
   10.5884   -3.0725   16.7902 O   0  0  0  0  0  0  0  0  0  0  0  0
   10.4323   -5.3494   20.3516 C   0  0  0  0  0  0  0  0  0  0  0  0
    7.1156   -7.5454   16.8218 C   0  0  0  0  0  0  0  0  0  0  0  0
   10.3885   -4.4388   19.2773 C   0  0  0  0  0  0  0  0  0  0  0  0
    4.5160   -9.3822   15.0841 C   0  0  0  0  0  0  0  0  0  0  0  0
  1  3  4  0
  1 24  4  0
  2  6  4  0
  2 15  4  0
  3  5  4  0
  3  6  4  0
  4 21  4  0
  4 29  4  0
  5 15  4  0
  5 28  1  0
  6 16  4  0
  7 18  4  0
  7 26  4  0
  8 18  1  0
  8 19  4  0
  8 22  4  0
  9 12  4  0
  9 19  4  0
 10 12  4  0
 10 22  4  0
 11 20  4  0
 11 21  4  0
 12 23  1  0
 13 20  4  0
 13 29  4  0
 14 17  4  0
 14 28  4  0
 15 25  2  0
 16 27  4  0
 17 18  4  0
 20 27  1  0
 24 27  4  0
 26 28  4  0
M  END
$$$$

 Created by Python create_sdf_string function

 29 33  0  0  0  0  0  0  0  0999 V2000
    8.8270   -7.0288   18.4251 C   0  0  0  0  0  0  0  0  0  0  0  0
    9.1576   -4.6236   15.8860 O   0  0  0  0  0  0  0  0  0  0  0  0
    9.1509   -5.9108   17.7177 C   0  0  0  0  0  0  0  0  0  0  0  0
    3.6373   -9.5349   16.0582 N   0  0  0  0  0  0  0  0  0  0  0  0
    9.9275   -4.8001   18.0438 N   0  0  0  0  0  0  0  0  0  0  0  0
    8.5908   -5.7425   16.4412 C   0  0  0  0  0  0  0  0  0  0  0  0
   10.5993   -4.8981   21.6068 C   0  0  0  0  0  0  0  0  0  0  0  0
   10.4258   -3.0106   23.0998 C   0  0  0  0  0  0  0  0  0  0  0  0
   10.2148   -3.4364   25.4200 C   0  0  0  0  0  0  0  0  0  0  0  0
    9.7853   -1.1840   24.4927 C   0  0  0  0  0  0  0  0  0  0  0  0
    5.0276   -8.5227   17.5352 C   0  0  0  0  0  0  0  0  0  0  0  0
    9.8187   -2.0895   25.5800 C   0  0  0  0  0  0  0  0  0  0  0  0
    5.6473   -8.7216   15.3158 C   0  0  0  0  0  0  0  0  0  0  0  0
   10.7581   -3.1233   19.4720 N   0  0  0  0  0  0  0  0  0  0  0  0
    9.9571   -4.0573   16.8866 C   0  0  0  0  0  0  0  0  0  0  0  0
    7.6213   -6.5618   16.0087 C   0  0  0  0  0  0  0  0  0  0  0  0
   10.8583   -2.6527   20.7222 C   0  0  0  0  0  0  0  0  0  0  0  0
   10.6412   -3.5089   21.7936 C   0  0  0  0  0  0  0  0  0  0  0  0
   10.4972   -3.8968   24.1589 C   0  0  0  0  0  0  0  0  0  0  0  0
    5.9260   -8.2736   16.5517 C   0  0  0  0  0  0  0  0  0  0  0  0
    3.8816   -9.1166   17.2493 C   0  0  0  0  0  0  0  0  0  0  0  0
   10.1297   -1.6575   23.2324 C   0  0  0  0  0  0  0  0  0  0  0  0
    9.4684   -1.6929   26.7263 F   0  0  0  0  0  0  0  0  0  0  0  0
    7.7963   -7.7906   17.9837 C   0  0  0  0  0  0  0  0  0  0  0  0
   10.5884   -3.0725   16.7902 O   0  0  0  0  0  0  0  0  0  0  0  0
   10.4323   -5.3494   20.3516 C   0  0  0  0  0  0  0  0  0  0  0  0
    7.1156   -7.5454   16.8218 C   0  0  0  0  0  0  0  0  0  0  0  0
   10.3885   -4.4388   19.2773 C   0  0  0  0  0  0  0  0  0  0  0  0
    4.5160   -9.3822   15.0841 C   0  0  0  0  0  0  0  0  0  0  0  0
  1  3  4  0
  1 24  4  0
  2  6  4  0
  2 15  4  0
  3  5  4  0
  3  6  4  0
  4 21  4  0
  4 29  4  0
  5 15  4  0
  5 28  1  0
  6 16  4  0
  7 18  4  0
  7 26  4  0
  8 18  1  0
  8 19  4  0
  8 22  4  0
  9 12  4  0
  9 19  4  0
 10 12  4  0
 10 22  4  0
 11 20  4  0
 11 21  4  0
 12 23  1  0
 13 20  4  0
 13 29  4  0
 14 17  4  0
 14 28  4  0
 15 25  2  0
 16 27  4  0
 17 18  4  0
 20 27  1  0
 24 27  4  0
 26 28  4  0
M  END
$$$$

 Created by Python create_sdf_string function

 29 33  0  0  0  0  0  0  0  0999 V2000
    8.8270   -7.0288   18.4251 C   0  0  0  0  0  0  0  0  0  0  0  0
    9.1576   -4.6236   15.8860 O   0  0  0  0  0  0  0  0  0  0  0  0
    9.1509   -5.9108   17.7177 C   0  0  0  0  0  0  0  0  0  0  0  0
    3.6373   -9.5349   16.0582 N   0  0  0  0  0  0  0  0  0  0  0  0
    9.9275   -4.8001   18.0438 N   0  0  0  0  0  0  0  0  0  0  0  0
    8.5908   -5.7425   16.4412 C   0  0  0  0  0  0  0  0  0  0  0  0
   10.5993   -4.8981   21.6068 C   0  0  0  0  0  0  0  0  0  0  0  0
   10.4258   -3.0106   23.0998 C   0  0  0  0  0  0  0  0  0  0  0  0
   10.2148   -3.4364   25.4200 C   0  0  0  0  0  0  0  0  0  0  0  0
    9.7853   -1.1840   24.4927 C   0  0  0  0  0  0  0  0  0  0  0  0
    5.0276   -8.5227   17.5352 C   0  0  0  0  0  0  0  0  0  0  0  0
    9.8187   -2.0895   25.5800 C   0  0  0  0  0  0  0  0  0  0  0  0
    5.6473   -8.7216   15.3158 C   0  0  0  0  0  0  0  0  0  0  0  0
   10.7581   -3.1233   19.4720 N   0  0  0  0  0  0  0  0  0  0  0  0
    9.9571   -4.0573   16.8866 C   0  0  0  0  0  0  0  0  0  0  0  0
    7.6213   -6.5618   16.0087 C   0  0  0  0  0  0  0  0  0  0  0  0
   10.8583   -2.6527   20.7222 C   0  0  0  0  0  0  0  0  0  0  0  0
   10.6412   -3.5089   21.7936 C   0  0  0  0  0  0  0  0  0  0  0  0
   10.4972   -3.8968   24.1589 C   0  0  0  0  0  0  0  0  0  0  0  0
    5.9260   -8.2736   16.5517 C   0  0  0  0  0  0  0  0  0  0  0  0
    3.8816   -9.1166   17.2493 C   0  0  0  0  0  0  0  0  0  0  0  0
   10.1297   -1.6575   23.2324 C   0  0  0  0  0  0  0  0  0  0  0  0
    9.4684   -1.6929   26.7263 F   0  0  0  0  0  0  0  0  0  0  0  0
    7.7963   -7.7906   17.9837 C   0  0  0  0  0  0  0  0  0  0  0  0
   10.5884   -3.0725   16.7902 O   0  0  0  0  0  0  0  0  0  0  0  0
   10.4323   -5.3494   20.3516 C   0  0  0  0  0  0  0  0  0  0  0  0
    7.1156   -7.5454   16.8218 C   0  0  0  0  0  0  0  0  0  0  0  0
   10.3885   -4.4388   19.2773 C   0  0  0  0  0  0  0  0  0  0  0  0
    4.5160   -9.3822   15.0841 C   0  0  0  0  0  0  0  0  0  0  0  0
  1  3  4  0
  1 24  4  0
  2  6  4  0
  2 15  4  0
  3  5  4  0
  3  6  4  0
  4 21  4  0
  4 29  4  0
  5 15  4  0
  5 28  1  0
  6 16  4  0
  7 18  4  0
  7 26  4  0
  8 18  1  0
  8 19  4  0
  8 22  4  0
  9 12  4  0
  9 19  4  0
 10 12  4  0
 10 22  4  0
 11 20  4  0
 11 21  4  0
 12 23  1  0
 13 20  4  0
 13 29  4  0
 14 17  4  0
 14 28  4  0
 15 25  2  0
 16 27  4  0
 17 18  4  0
 20 27  1  0
 24 27  4  0
 26 28  4  0
M  END
$$$$

 Created by Python create_sdf_string function

 29 33  0  0  0  0  0  0  0  0999 V2000
    8.8270   -7.0288   18.4251 C   0  0  0  0  0  0  0  0  0  0  0  0
    9.1576   -4.6236   15.8860 O   0  0  0  0  0  0  0  0  0  0  0  0
    9.1509   -5.9108   17.7177 C   0  0  0  0  0  0  0  0  0  0  0  0
    3.6373   -9.5349   16.0582 N   0  0  0  0  0  0  0  0  0  0  0  0
    9.9275   -4.8001   18.0438 N   0  0  0  0  0  0  0  0  0  0  0  0
    8.5908   -5.7425   16.4412 C   0  0  0  0  0  0  0  0  0  0  0  0
   10.5993   -4.8981   21.6068 C   0  0  0  0  0  0  0  0  0  0  0  0
   10.4258   -3.0106   23.0998 C   0  0  0  0  0  0  0  0  0  0  0  0
   10.2148   -3.4364   25.4200 C   0  0  0  0  0  0  0  0  0  0  0  0
    9.7853   -1.1840   24.4927 C   0  0  0  0  0  0  0  0  0  0  0  0
    5.0276   -8.5227   17.5352 C   0  0  0  0  0  0  0  0  0  0  0  0
    9.8187   -2.0895   25.5800 C   0  0  0  0  0  0  0  0  0  0  0  0
    5.6473   -8.7216   15.3158 C   0  0  0  0  0  0  0  0  0  0  0  0
   10.7581   -3.1233   19.4720 N   0  0  0  0  0  0  0  0  0  0  0  0
    9.9571   -4.0573   16.8866 C   0  0  0  0  0  0  0  0  0  0  0  0
    7.6213   -6.5618   16.0087 C   0  0  0  0  0  0  0  0  0  0  0  0
   10.8583   -2.6527   20.7222 C   0  0  0  0  0  0  0  0  0  0  0  0
   10.6412   -3.5089   21.7936 C   0  0  0  0  0  0  0  0  0  0  0  0
   10.4972   -3.8968   24.1589 C   0  0  0  0  0  0  0  0  0  0  0  0
    5.9260   -8.2736   16.5517 C   0  0  0  0  0  0  0  0  0  0  0  0
    3.8816   -9.1166   17.2493 C   0  0  0  0  0  0  0  0  0  0  0  0
   10.1297   -1.6575   23.2324 C   0  0  0  0  0  0  0  0  0  0  0  0
    9.4684   -1.6929   26.7263 F   0  0  0  0  0  0  0  0  0  0  0  0
    7.7963   -7.7906   17.9837 C   0  0  0  0  0  0  0  0  0  0  0  0
   10.5884   -3.0725   16.7902 O   0  0  0  0  0  0  0  0  0  0  0  0
   10.4323   -5.3494   20.3516 C   0  0  0  0  0  0  0  0  0  0  0  0
    7.1156   -7.5454   16.8218 C   0  0  0  0  0  0  0  0  0  0  0  0
   10.3885   -4.4388   19.2773 C   0  0  0  0  0  0  0  0  0  0  0  0
    4.5160   -9.3822   15.0841 C   0  0  0  0  0  0  0  0  0  0  0  0
  1  3  4  0
  1 24  4  0
  2  6  4  0
  2 15  4  0
  3  5  4  0
  3  6  4  0
  4 21  4  0
  4 29  4  0
  5 15  4  0
  5 28  1  0
  6 16  4  0
  7 18  4  0
  7 26  4  0
  8 18  1  0
  8 19  4  0
  8 22  4  0
  9 12  4  0
  9 19  4  0
 10 12  4  0
 10 22  4  0
 11 20  4  0
 11 21  4  0
 12 23  1  0
 13 20  4  0
 13 29  4  0
 14 17  4  0
 14 28  4  0
 15 25  2  0
 16 27  4  0
 17 18  4  0
 20 27  1  0
 24 27  4  0
 26 28  4  0
M  END
$$$$

 Created by Python create_sdf_string function

 29 33  0  0  0  0  0  0  0  0999 V2000
    8.8270   -7.0288   18.4251 C   0  0  0  0  0  0  0  0  0  0  0  0
    9.1576   -4.6236   15.8860 O   0  0  0  0  0  0  0  0  0  0  0  0
    9.1509   -5.9108   17.7177 C   0  0  0  0  0  0  0  0  0  0  0  0
    3.6373   -9.5349   16.0582 N   0  0  0  0  0  0  0  0  0  0  0  0
    9.9275   -4.8001   18.0438 N   0  0  0  0  0  0  0  0  0  0  0  0
    8.5908   -5.7425   16.4412 C   0  0  0  0  0  0  0  0  0  0  0  0
   10.5993   -4.8981   21.6068 C   0  0  0  0  0  0  0  0  0  0  0  0
   10.4258   -3.0106   23.0998 C   0  0  0  0  0  0  0  0  0  0  0  0
   10.2148   -3.4364   25.4200 C   0  0  0  0  0  0  0  0  0  0  0  0
    9.7853   -1.1840   24.4927 C   0  0  0  0  0  0  0  0  0  0  0  0
    5.0276   -8.5227   17.5352 C   0  0  0  0  0  0  0  0  0  0  0  0
    9.8187   -2.0895   25.5800 C   0  0  0  0  0  0  0  0  0  0  0  0
    5.6473   -8.7216   15.3158 C   0  0  0  0  0  0  0  0  0  0  0  0
   10.7581   -3.1233   19.4720 N   0  0  0  0  0  0  0  0  0  0  0  0
    9.9571   -4.0573   16.8866 C   0  0  0  0  0  0  0  0  0  0  0  0
    7.6213   -6.5618   16.0087 C   0  0  0  0  0  0  0  0  0  0  0  0
   10.8583   -2.6527   20.7222 C   0  0  0  0  0  0  0  0  0  0  0  0
   10.6412   -3.5089   21.7936 C   0  0  0  0  0  0  0  0  0  0  0  0
   10.4972   -3.8968   24.1589 C   0  0  0  0  0  0  0  0  0  0  0  0
    5.9260   -8.2736   16.5517 C   0  0  0  0  0  0  0  0  0  0  0  0
    3.8816   -9.1166   17.2493 C   0  0  0  0  0  0  0  0  0  0  0  0
   10.1297   -1.6575   23.2324 C   0  0  0  0  0  0  0  0  0  0  0  0
    9.4684   -1.6929   26.7263 F   0  0  0  0  0  0  0  0  0  0  0  0
    7.7963   -7.7906   17.9837 C   0  0  0  0  0  0  0  0  0  0  0  0
   10.5884   -3.0725   16.7902 O   0  0  0  0  0  0  0  0  0  0  0  0
   10.4323   -5.3494   20.3516 C   0  0  0  0  0  0  0  0  0  0  0  0
    7.1156   -7.5454   16.8218 C   0  0  0  0  0  0  0  0  0  0  0  0
   10.3885   -4.4388   19.2773 C   0  0  0  0  0  0  0  0  0  0  0  0
    4.5160   -9.3822   15.0841 C   0  0  0  0  0  0  0  0  0  0  0  0
  1  3  4  0
  1 24  4  0
  2  6  4  0
  2 15  4  0
  3  5  4  0
  3  6  4  0
  4 21  4  0
  4 29  4  0
  5 15  4  0
  5 28  1  0
  6 16  4  0
  7 18  4  0
  7 26  4  0
  8 18  1  0
  8 19  4  0
  8 22  4  0
  9 12  4  0
  9 19  4  0
 10 12  4  0
 10 22  4  0
 11 20  4  0
 11 21  4  0
 12 23  1  0
 13 20  4  0
 13 29  4  0
 14 17  4  0
 14 28  4  0
 15 25  2  0
 16 27  4  0
 17 18  4  0
 20 27  1  0
 24 27  4  0
 26 28  4  0
M  END
$$$$

 Created by Python create_sdf_string function

 29 33  0  0  0  0  0  0  0  0999 V2000
    8.8270   -7.0288   18.4251 C   0  0  0  0  0  0  0  0  0  0  0  0
    9.1576   -4.6236   15.8860 O   0  0  0  0  0  0  0  0  0  0  0  0
    9.1509   -5.9108   17.7177 C   0  0  0  0  0  0  0  0  0  0  0  0
    3.6373   -9.5349   16.0582 N   0  0  0  0  0  0  0  0  0  0  0  0
    9.9275   -4.8001   18.0438 N   0  0  0  0  0  0  0  0  0  0  0  0
    8.5908   -5.7425   16.4412 C   0  0  0  0  0  0  0  0  0  0  0  0
   10.5993   -4.8981   21.6068 C   0  0  0  0  0  0  0  0  0  0  0  0
   10.4258   -3.0106   23.0998 C   0  0  0  0  0  0  0  0  0  0  0  0
   10.2148   -3.4364   25.4200 C   0  0  0  0  0  0  0  0  0  0  0  0
    9.7853   -1.1840   24.4927 C   0  0  0  0  0  0  0  0  0  0  0  0
    5.0276   -8.5227   17.5352 C   0  0  0  0  0  0  0  0  0  0  0  0
    9.8187   -2.0895   25.5800 C   0  0  0  0  0  0  0  0  0  0  0  0
    5.6473   -8.7216   15.3158 C   0  0  0  0  0  0  0  0  0  0  0  0
   10.7581   -3.1233   19.4720 N   0  0  0  0  0  0  0  0  0  0  0  0
    9.9571   -4.0573   16.8866 C   0  0  0  0  0  0  0  0  0  0  0  0
    7.6213   -6.5618   16.0087 C   0  0  0  0  0  0  0  0  0  0  0  0
   10.8583   -2.6527   20.7222 C   0  0  0  0  0  0  0  0  0  0  0  0
   10.6412   -3.5089   21.7936 C   0  0  0  0  0  0  0  0  0  0  0  0
   10.4972   -3.8968   24.1589 C   0  0  0  0  0  0  0  0  0  0  0  0
    5.9260   -8.2736   16.5517 C   0  0  0  0  0  0  0  0  0  0  0  0
    3.8816   -9.1166   17.2493 C   0  0  0  0  0  0  0  0  0  0  0  0
   10.1297   -1.6575   23.2324 C   0  0  0  0  0  0  0  0  0  0  0  0
    9.4684   -1.6929   26.7263 F   0  0  0  0  0  0  0  0  0  0  0  0
    7.7963   -7.7906   17.9837 C   0  0  0  0  0  0  0  0  0  0  0  0
   10.5884   -3.0725   16.7902 O   0  0  0  0  0  0  0  0  0  0  0  0
   10.4323   -5.3494   20.3516 C   0  0  0  0  0  0  0  0  0  0  0  0
    7.1156   -7.5454   16.8218 C   0  0  0  0  0  0  0  0  0  0  0  0
   10.3885   -4.4388   19.2773 C   0  0  0  0  0  0  0  0  0  0  0  0
    4.5160   -9.3822   15.0841 C   0  0  0  0  0  0  0  0  0  0  0  0
  1  3  4  0
  1 24  4  0
  2  6  4  0
  2 15  4  0
  3  5  4  0
  3  6  4  0
  4 21  4  0
  4 29  4  0
  5 15  4  0
  5 28  1  0
  6 16  4  0
  7 18  4  0
  7 26  4  0
  8 18  1  0
  8 19  4  0
  8 22  4  0
  9 12  4  0
  9 19  4  0
 10 12  4  0
 10 22  4  0
 11 20  4  0
 11 21  4  0
 12 23  1  0
 13 20  4  0
 13 29  4  0
 14 17  4  0
 14 28  4  0
 15 25  2  0
 16 27  4  0
 17 18  4  0
 20 27  1  0
 24 27  4  0
 26 28  4  0
M  END
$$$$

 Created by Python create_sdf_string function

 29 33  0  0  0  0  0  0  0  0999 V2000
    8.8270   -7.0288   18.4251 C   0  0  0  0  0  0  0  0  0  0  0  0
    9.1576   -4.6236   15.8860 O   0  0  0  0  0  0  0  0  0  0  0  0
    9.1509   -5.9108   17.7177 C   0  0  0  0  0  0  0  0  0  0  0  0
    3.6373   -9.5349   16.0582 N   0  0  0  0  0  0  0  0  0  0  0  0
    9.9275   -4.8001   18.0438 N   0  0  0  0  0  0  0  0  0  0  0  0
    8.5908   -5.7425   16.4412 C   0  0  0  0  0  0  0  0  0  0  0  0
   10.5993   -4.8981   21.6068 C   0  0  0  0  0  0  0  0  0  0  0  0
   10.4258   -3.0106   23.0998 C   0  0  0  0  0  0  0  0  0  0  0  0
   10.2148   -3.4364   25.4200 C   0  0  0  0  0  0  0  0  0  0  0  0
    9.7853   -1.1840   24.4927 C   0  0  0  0  0  0  0  0  0  0  0  0
    5.0276   -8.5227   17.5352 C   0  0  0  0  0  0  0  0  0  0  0  0
    9.8187   -2.0895   25.5800 C   0  0  0  0  0  0  0  0  0  0  0  0
    5.6473   -8.7216   15.3158 C   0  0  0  0  0  0  0  0  0  0  0  0
   10.7581   -3.1233   19.4720 N   0  0  0  0  0  0  0  0  0  0  0  0
    9.9571   -4.0573   16.8866 C   0  0  0  0  0  0  0  0  0  0  0  0
    7.6213   -6.5618   16.0087 C   0  0  0  0  0  0  0  0  0  0  0  0
   10.8583   -2.6527   20.7222 C   0  0  0  0  0  0  0  0  0  0  0  0
   10.6412   -3.5089   21.7936 C   0  0  0  0  0  0  0  0  0  0  0  0
   10.4972   -3.8968   24.1589 C   0  0  0  0  0  0  0  0  0  0  0  0
    5.9260   -8.2736   16.5517 C   0  0  0  0  0  0  0  0  0  0  0  0
    3.8816   -9.1166   17.2493 C   0  0  0  0  0  0  0  0  0  0  0  0
   10.1297   -1.6575   23.2324 C   0  0  0  0  0  0  0  0  0  0  0  0
    9.4684   -1.6929   26.7263 F   0  0  0  0  0  0  0  0  0  0  0  0
    7.7963   -7.7906   17.9837 C   0  0  0  0  0  0  0  0  0  0  0  0
   10.5884   -3.0725   16.7902 O   0  0  0  0  0  0  0  0  0  0  0  0
   10.4323   -5.3494   20.3516 C   0  0  0  0  0  0  0  0  0  0  0  0
    7.1156   -7.5454   16.8218 C   0  0  0  0  0  0  0  0  0  0  0  0
   10.3885   -4.4388   19.2773 C   0  0  0  0  0  0  0  0  0  0  0  0
    4.5160   -9.3822   15.0841 C   0  0  0  0  0  0  0  0  0  0  0  0
  1  3  4  0
  1 24  4  0
  2  6  4  0
  2 15  4  0
  3  5  4  0
  3  6  4  0
  4 21  4  0
  4 29  4  0
  5 15  4  0
  5 28  1  0
  6 16  4  0
  7 18  4  0
  7 26  4  0
  8 18  1  0
  8 19  4  0
  8 22  4  0
  9 12  4  0
  9 19  4  0
 10 12  4  0
 10 22  4  0
 11 20  4  0
 11 21  4  0
 12 23  1  0
 13 20  4  0
 13 29  4  0
 14 17  4  0
 14 28  4  0
 15 25  2  0
 16 27  4  0
 17 18  4  0
 20 27  1  0
 24 27  4  0
 26 28  4  0
M  END
$$$$

 Created by Python create_sdf_string function

 29 33  0  0  0  0  0  0  0  0999 V2000
    8.8270   -7.0288   18.4251 C   0  0  0  0  0  0  0  0  0  0  0  0
    9.1576   -4.6236   15.8860 O   0  0  0  0  0  0  0  0  0  0  0  0
    9.1509   -5.9108   17.7177 C   0  0  0  0  0  0  0  0  0  0  0  0
    3.6373   -9.5349   16.0582 N   0  0  0  0  0  0  0  0  0  0  0  0
    9.9275   -4.8001   18.0438 N   0  0  0  0  0  0  0  0  0  0  0  0
    8.5908   -5.7425   16.4412 C   0  0  0  0  0  0  0  0  0  0  0  0
   10.5993   -4.8981   21.6068 C   0  0  0  0  0  0  0  0  0  0  0  0
   10.4258   -3.0106   23.0998 C   0  0  0  0  0  0  0  0  0  0  0  0
   10.2148   -3.4364   25.4200 C   0  0  0  0  0  0  0  0  0  0  0  0
    9.7853   -1.1840   24.4927 C   0  0  0  0  0  0  0  0  0  0  0  0
    5.0276   -8.5227   17.5352 C   0  0  0  0  0  0  0  0  0  0  0  0
    9.8187   -2.0895   25.5800 C   0  0  0  0  0  0  0  0  0  0  0  0
    5.6473   -8.7216   15.3158 C   0  0  0  0  0  0  0  0  0  0  0  0
   10.7581   -3.1233   19.4720 N   0  0  0  0  0  0  0  0  0  0  0  0
    9.9571   -4.0573   16.8866 C   0  0  0  0  0  0  0  0  0  0  0  0
    7.6213   -6.5618   16.0087 C   0  0  0  0  0  0  0  0  0  0  0  0
   10.8583   -2.6527   20.7222 C   0  0  0  0  0  0  0  0  0  0  0  0
   10.6412   -3.5089   21.7936 C   0  0  0  0  0  0  0  0  0  0  0  0
   10.4972   -3.8968   24.1589 C   0  0  0  0  0  0  0  0  0  0  0  0
    5.9260   -8.2736   16.5517 C   0  0  0  0  0  0  0  0  0  0  0  0
    3.8816   -9.1166   17.2493 C   0  0  0  0  0  0  0  0  0  0  0  0
   10.1297   -1.6575   23.2324 C   0  0  0  0  0  0  0  0  0  0  0  0
    9.4684   -1.6929   26.7263 F   0  0  0  0  0  0  0  0  0  0  0  0
    7.7963   -7.7906   17.9837 C   0  0  0  0  0  0  0  0  0  0  0  0
   10.5884   -3.0725   16.7902 O   0  0  0  0  0  0  0  0  0  0  0  0
   10.4323   -5.3494   20.3516 C   0  0  0  0  0  0  0  0  0  0  0  0
    7.1156   -7.5454   16.8218 C   0  0  0  0  0  0  0  0  0  0  0  0
   10.3885   -4.4388   19.2773 C   0  0  0  0  0  0  0  0  0  0  0  0
    4.5160   -9.3822   15.0841 C   0  0  0  0  0  0  0  0  0  0  0  0
  1  3  4  0
  1 24  4  0
  2  6  4  0
  2 15  4  0
  3  5  4  0
  3  6  4  0
  4 21  4  0
  4 29  4  0
  5 15  4  0
  5 28  1  0
  6 16  4  0
  7 18  4  0
  7 26  4  0
  8 18  1  0
  8 19  4  0
  8 22  4  0
  9 12  4  0
  9 19  4  0
 10 12  4  0
 10 22  4  0
 11 20  4  0
 11 21  4  0
 12 23  1  0
 13 20  4  0
 13 29  4  0
 14 17  4  0
 14 28  4  0
 15 25  2  0
 16 27  4  0
 17 18  4  0
 20 27  1  0
 24 27  4  0
 26 28  4  0
M  END
$$$$

 Created by Python create_sdf_string function

 29 33  0  0  0  0  0  0  0  0999 V2000
    8.8270   -7.0288   18.4251 C   0  0  0  0  0  0  0  0  0  0  0  0
    9.1576   -4.6236   15.8860 O   0  0  0  0  0  0  0  0  0  0  0  0
    9.1509   -5.9108   17.7177 C   0  0  0  0  0  0  0  0  0  0  0  0
    3.6373   -9.5349   16.0582 N   0  0  0  0  0  0  0  0  0  0  0  0
    9.9275   -4.8001   18.0438 N   0  0  0  0  0  0  0  0  0  0  0  0
    8.5908   -5.7425   16.4412 C   0  0  0  0  0  0  0  0  0  0  0  0
   10.5993   -4.8981   21.6068 C   0  0  0  0  0  0  0  0  0  0  0  0
   10.4258   -3.0106   23.0998 C   0  0  0  0  0  0  0  0  0  0  0  0
   10.2148   -3.4364   25.4200 C   0  0  0  0  0  0  0  0  0  0  0  0
    9.7853   -1.1840   24.4927 C   0  0  0  0  0  0  0  0  0  0  0  0
    5.0276   -8.5227   17.5352 C   0  0  0  0  0  0  0  0  0  0  0  0
    9.8187   -2.0895   25.5800 C   0  0  0  0  0  0  0  0  0  0  0  0
    5.6473   -8.7216   15.3158 C   0  0  0  0  0  0  0  0  0  0  0  0
   10.7581   -3.1233   19.4720 N   0  0  0  0  0  0  0  0  0  0  0  0
    9.9571   -4.0573   16.8866 C   0  0  0  0  0  0  0  0  0  0  0  0
    7.6213   -6.5618   16.0087 C   0  0  0  0  0  0  0  0  0  0  0  0
   10.8583   -2.6527   20.7222 C   0  0  0  0  0  0  0  0  0  0  0  0
   10.6412   -3.5089   21.7936 C   0  0  0  0  0  0  0  0  0  0  0  0
   10.4972   -3.8968   24.1589 C   0  0  0  0  0  0  0  0  0  0  0  0
    5.9260   -8.2736   16.5517 C   0  0  0  0  0  0  0  0  0  0  0  0
    3.8816   -9.1166   17.2493 C   0  0  0  0  0  0  0  0  0  0  0  0
   10.1297   -1.6575   23.2324 C   0  0  0  0  0  0  0  0  0  0  0  0
    9.4684   -1.6929   26.7263 F   0  0  0  0  0  0  0  0  0  0  0  0
    7.7963   -7.7906   17.9837 C   0  0  0  0  0  0  0  0  0  0  0  0
   10.5884   -3.0725   16.7902 O   0  0  0  0  0  0  0  0  0  0  0  0
   10.4323   -5.3494   20.3516 C   0  0  0  0  0  0  0  0  0  0  0  0
    7.1156   -7.5454   16.8218 C   0  0  0  0  0  0  0  0  0  0  0  0
   10.3885   -4.4388   19.2773 C   0  0  0  0  0  0  0  0  0  0  0  0
    4.5160   -9.3822   15.0841 C   0  0  0  0  0  0  0  0  0  0  0  0
  1  3  4  0
  1 24  4  0
  2  6  4  0
  2 15  4  0
  3  5  4  0
  3  6  4  0
  4 21  4  0
  4 29  4  0
  5 15  4  0
  5 28  1  0
  6 16  4  0
  7 18  4  0
  7 26  4  0
  8 18  1  0
  8 19  4  0
  8 22  4  0
  9 12  4  0
  9 19  4  0
 10 12  4  0
 10 22  4  0
 11 20  4  0
 11 21  4  0
 12 23  1  0
 13 20  4  0
 13 29  4  0
 14 17  4  0
 14 28  4  0
 15 25  2  0
 16 27  4  0
 17 18  4  0
 20 27  1  0
 24 27  4  0
 26 28  4  0
M  END
$$$$

 Created by Python create_sdf_string function

 29 33  0  0  0  0  0  0  0  0999 V2000
    8.8270   -7.0288   18.4251 C   0  0  0  0  0  0  0  0  0  0  0  0
    9.1576   -4.6236   15.8860 O   0  0  0  0  0  0  0  0  0  0  0  0
    9.1509   -5.9108   17.7177 C   0  0  0  0  0  0  0  0  0  0  0  0
    3.6373   -9.5349   16.0582 N   0  0  0  0  0  0  0  0  0  0  0  0
    9.9275   -4.8001   18.0438 N   0  0  0  0  0  0  0  0  0  0  0  0
    8.5908   -5.7425   16.4412 C   0  0  0  0  0  0  0  0  0  0  0  0
   10.5993   -4.8981   21.6068 C   0  0  0  0  0  0  0  0  0  0  0  0
   10.4258   -3.0106   23.0998 C   0  0  0  0  0  0  0  0  0  0  0  0
   10.2148   -3.4364   25.4200 C   0  0  0  0  0  0  0  0  0  0  0  0
    9.7853   -1.1840   24.4927 C   0  0  0  0  0  0  0  0  0  0  0  0
    5.0276   -8.5227   17.5352 C   0  0  0  0  0  0  0  0  0  0  0  0
    9.8187   -2.0895   25.5800 C   0  0  0  0  0  0  0  0  0  0  0  0
    5.6473   -8.7216   15.3158 C   0  0  0  0  0  0  0  0  0  0  0  0
   10.7581   -3.1233   19.4720 N   0  0  0  0  0  0  0  0  0  0  0  0
    9.9571   -4.0573   16.8866 C   0  0  0  0  0  0  0  0  0  0  0  0
    7.6213   -6.5618   16.0087 C   0  0  0  0  0  0  0  0  0  0  0  0
   10.8583   -2.6527   20.7222 C   0  0  0  0  0  0  0  0  0  0  0  0
   10.6412   -3.5089   21.7936 C   0  0  0  0  0  0  0  0  0  0  0  0
   10.4972   -3.8968   24.1589 C   0  0  0  0  0  0  0  0  0  0  0  0
    5.9260   -8.2736   16.5517 C   0  0  0  0  0  0  0  0  0  0  0  0
    3.8816   -9.1166   17.2493 C   0  0  0  0  0  0  0  0  0  0  0  0
   10.1297   -1.6575   23.2324 C   0  0  0  0  0  0  0  0  0  0  0  0
    9.4684   -1.6929   26.7263 F   0  0  0  0  0  0  0  0  0  0  0  0
    7.7963   -7.7906   17.9837 C   0  0  0  0  0  0  0  0  0  0  0  0
   10.5884   -3.0725   16.7902 O   0  0  0  0  0  0  0  0  0  0  0  0
   10.4323   -5.3494   20.3516 C   0  0  0  0  0  0  0  0  0  0  0  0
    7.1156   -7.5454   16.8218 C   0  0  0  0  0  0  0  0  0  0  0  0
   10.3885   -4.4388   19.2773 C   0  0  0  0  0  0  0  0  0  0  0  0
    4.5160   -9.3822   15.0841 C   0  0  0  0  0  0  0  0  0  0  0  0
  1  3  4  0
  1 24  4  0
  2  6  4  0
  2 15  4  0
  3  5  4  0
  3  6  4  0
  4 21  4  0
  4 29  4  0
  5 15  4  0
  5 28  1  0
  6 16  4  0
  7 18  4  0
  7 26  4  0
  8 18  1  0
  8 19  4  0
  8 22  4  0
  9 12  4  0
  9 19  4  0
 10 12  4  0
 10 22  4  0
 11 20  4  0
 11 21  4  0
 12 23  1  0
 13 20  4  0
 13 29  4  0
 14 17  4  0
 14 28  4  0
 15 25  2  0
 16 27  4  0
 17 18  4  0
 20 27  1  0
 24 27  4  0
 26 28  4  0
M  END
$$$$

 Created by Python create_sdf_string function

 29 33  0  0  0  0  0  0  0  0999 V2000
    8.8270   -7.0288   18.4251 C   0  0  0  0  0  0  0  0  0  0  0  0
    9.1576   -4.6236   15.8860 O   0  0  0  0  0  0  0  0  0  0  0  0
    9.1509   -5.9108   17.7177 C   0  0  0  0  0  0  0  0  0  0  0  0
    3.6373   -9.5349   16.0582 N   0  0  0  0  0  0  0  0  0  0  0  0
    9.9275   -4.8001   18.0438 N   0  0  0  0  0  0  0  0  0  0  0  0
    8.5908   -5.7425   16.4412 C   0  0  0  0  0  0  0  0  0  0  0  0
   10.5993   -4.8981   21.6068 C   0  0  0  0  0  0  0  0  0  0  0  0
   10.4258   -3.0106   23.0998 C   0  0  0  0  0  0  0  0  0  0  0  0
   10.2148   -3.4364   25.4200 C   0  0  0  0  0  0  0  0  0  0  0  0
    9.7853   -1.1840   24.4927 C   0  0  0  0  0  0  0  0  0  0  0  0
    5.0276   -8.5227   17.5352 C   0  0  0  0  0  0  0  0  0  0  0  0
    9.8187   -2.0895   25.5800 C   0  0  0  0  0  0  0  0  0  0  0  0
    5.6473   -8.7216   15.3158 C   0  0  0  0  0  0  0  0  0  0  0  0
   10.7581   -3.1233   19.4720 N   0  0  0  0  0  0  0  0  0  0  0  0
    9.9571   -4.0573   16.8866 C   0  0  0  0  0  0  0  0  0  0  0  0
    7.6213   -6.5618   16.0087 C   0  0  0  0  0  0  0  0  0  0  0  0
   10.8583   -2.6527   20.7222 C   0  0  0  0  0  0  0  0  0  0  0  0
   10.6412   -3.5089   21.7936 C   0  0  0  0  0  0  0  0  0  0  0  0
   10.4972   -3.8968   24.1589 C   0  0  0  0  0  0  0  0  0  0  0  0
    5.9260   -8.2736   16.5517 C   0  0  0  0  0  0  0  0  0  0  0  0
    3.8816   -9.1166   17.2493 C   0  0  0  0  0  0  0  0  0  0  0  0
   10.1297   -1.6575   23.2324 C   0  0  0  0  0  0  0  0  0  0  0  0
    9.4684   -1.6929   26.7263 F   0  0  0  0  0  0  0  0  0  0  0  0
    7.7963   -7.7906   17.9837 C   0  0  0  0  0  0  0  0  0  0  0  0
   10.5884   -3.0725   16.7902 O   0  0  0  0  0  0  0  0  0  0  0  0
   10.4323   -5.3494   20.3516 C   0  0  0  0  0  0  0  0  0  0  0  0
    7.1156   -7.5454   16.8218 C   0  0  0  0  0  0  0  0  0  0  0  0
   10.3885   -4.4388   19.2773 C   0  0  0  0  0  0  0  0  0  0  0  0
    4.5160   -9.3822   15.0841 C   0  0  0  0  0  0  0  0  0  0  0  0
  1  3  4  0
  1 24  4  0
  2  6  4  0
  2 15  4  0
  3  5  4  0
  3  6  4  0
  4 21  4  0
  4 29  4  0
  5 15  4  0
  5 28  1  0
  6 16  4  0
  7 18  4  0
  7 26  4  0
  8 18  1  0
  8 19  4  0
  8 22  4  0
  9 12  4  0
  9 19  4  0
 10 12  4  0
 10 22  4  0
 11 20  4  0
 11 21  4  0
 12 23  1  0
 13 20  4  0
 13 29  4  0
 14 17  4  0
 14 28  4  0
 15 25  2  0
 16 27  4  0
 17 18  4  0
 20 27  1  0
 24 27  4  0
 26 28  4  0
M  END
$$$$

 Created by Python create_sdf_string function

 29 33  0  0  0  0  0  0  0  0999 V2000
    8.8270   -7.0288   18.4251 C   0  0  0  0  0  0  0  0  0  0  0  0
    9.1576   -4.6236   15.8860 O   0  0  0  0  0  0  0  0  0  0  0  0
    9.1509   -5.9108   17.7177 C   0  0  0  0  0  0  0  0  0  0  0  0
    3.6373   -9.5349   16.0582 N   0  0  0  0  0  0  0  0  0  0  0  0
    9.9275   -4.8001   18.0438 N   0  0  0  0  0  0  0  0  0  0  0  0
    8.5908   -5.7425   16.4412 C   0  0  0  0  0  0  0  0  0  0  0  0
   10.5993   -4.8981   21.6068 C   0  0  0  0  0  0  0  0  0  0  0  0
   10.4258   -3.0106   23.0998 C   0  0  0  0  0  0  0  0  0  0  0  0
   10.2148   -3.4364   25.4200 C   0  0  0  0  0  0  0  0  0  0  0  0
    9.7853   -1.1840   24.4927 C   0  0  0  0  0  0  0  0  0  0  0  0
    5.0276   -8.5227   17.5352 C   0  0  0  0  0  0  0  0  0  0  0  0
    9.8187   -2.0895   25.5800 C   0  0  0  0  0  0  0  0  0  0  0  0
    5.6473   -8.7216   15.3158 C   0  0  0  0  0  0  0  0  0  0  0  0
   10.7581   -3.1233   19.4720 N   0  0  0  0  0  0  0  0  0  0  0  0
    9.9571   -4.0573   16.8866 C   0  0  0  0  0  0  0  0  0  0  0  0
    7.6213   -6.5618   16.0087 C   0  0  0  0  0  0  0  0  0  0  0  0
   10.8583   -2.6527   20.7222 C   0  0  0  0  0  0  0  0  0  0  0  0
   10.6412   -3.5089   21.7936 C   0  0  0  0  0  0  0  0  0  0  0  0
   10.4972   -3.8968   24.1589 C   0  0  0  0  0  0  0  0  0  0  0  0
    5.9260   -8.2736   16.5517 C   0  0  0  0  0  0  0  0  0  0  0  0
    3.8816   -9.1166   17.2493 C   0  0  0  0  0  0  0  0  0  0  0  0
   10.1297   -1.6575   23.2324 C   0  0  0  0  0  0  0  0  0  0  0  0
    9.4684   -1.6929   26.7263 F   0  0  0  0  0  0  0  0  0  0  0  0
    7.7963   -7.7906   17.9837 C   0  0  0  0  0  0  0  0  0  0  0  0
   10.5884   -3.0725   16.7902 O   0  0  0  0  0  0  0  0  0  0  0  0
   10.4323   -5.3494   20.3516 C   0  0  0  0  0  0  0  0  0  0  0  0
    7.1156   -7.5454   16.8218 C   0  0  0  0  0  0  0  0  0  0  0  0
   10.3885   -4.4388   19.2773 C   0  0  0  0  0  0  0  0  0  0  0  0
    4.5160   -9.3822   15.0841 C   0  0  0  0  0  0  0  0  0  0  0  0
  1  3  4  0
  1 24  4  0
  2  6  4  0
  2 15  4  0
  3  5  4  0
  3  6  4  0
  4 21  4  0
  4 29  4  0
  5 15  4  0
  5 28  1  0
  6 16  4  0
  7 18  4  0
  7 26  4  0
  8 18  1  0
  8 19  4  0
  8 22  4  0
  9 12  4  0
  9 19  4  0
 10 12  4  0
 10 22  4  0
 11 20  4  0
 11 21  4  0
 12 23  1  0
 13 20  4  0
 13 29  4  0
 14 17  4  0
 14 28  4  0
 15 25  2  0
 16 27  4  0
 17 18  4  0
 20 27  1  0
 24 27  4  0
 26 28  4  0
M  END
$$$$

 Created by Python create_sdf_string function

 29 33  0  0  0  0  0  0  0  0999 V2000
    8.8270   -7.0288   18.4251 C   0  0  0  0  0  0  0  0  0  0  0  0
    9.1576   -4.6236   15.8860 O   0  0  0  0  0  0  0  0  0  0  0  0
    9.1509   -5.9108   17.7177 C   0  0  0  0  0  0  0  0  0  0  0  0
    3.6373   -9.5349   16.0582 N   0  0  0  0  0  0  0  0  0  0  0  0
    9.9275   -4.8001   18.0438 N   0  0  0  0  0  0  0  0  0  0  0  0
    8.5908   -5.7425   16.4412 C   0  0  0  0  0  0  0  0  0  0  0  0
   10.5993   -4.8981   21.6068 C   0  0  0  0  0  0  0  0  0  0  0  0
   10.4258   -3.0106   23.0998 C   0  0  0  0  0  0  0  0  0  0  0  0
   10.2148   -3.4364   25.4200 C   0  0  0  0  0  0  0  0  0  0  0  0
    9.7853   -1.1840   24.4927 C   0  0  0  0  0  0  0  0  0  0  0  0
    5.0276   -8.5227   17.5352 C   0  0  0  0  0  0  0  0  0  0  0  0
    9.8187   -2.0895   25.5800 C   0  0  0  0  0  0  0  0  0  0  0  0
    5.6473   -8.7216   15.3158 C   0  0  0  0  0  0  0  0  0  0  0  0
   10.7581   -3.1233   19.4720 N   0  0  0  0  0  0  0  0  0  0  0  0
    9.9571   -4.0573   16.8866 C   0  0  0  0  0  0  0  0  0  0  0  0
    7.6213   -6.5618   16.0087 C   0  0  0  0  0  0  0  0  0  0  0  0
   10.8583   -2.6527   20.7222 C   0  0  0  0  0  0  0  0  0  0  0  0
   10.6412   -3.5089   21.7936 C   0  0  0  0  0  0  0  0  0  0  0  0
   10.4972   -3.8968   24.1589 C   0  0  0  0  0  0  0  0  0  0  0  0
    5.9260   -8.2736   16.5517 C   0  0  0  0  0  0  0  0  0  0  0  0
    3.8816   -9.1166   17.2493 C   0  0  0  0  0  0  0  0  0  0  0  0
   10.1297   -1.6575   23.2324 C   0  0  0  0  0  0  0  0  0  0  0  0
    9.4684   -1.6929   26.7263 F   0  0  0  0  0  0  0  0  0  0  0  0
    7.7963   -7.7906   17.9837 C   0  0  0  0  0  0  0  0  0  0  0  0
   10.5884   -3.0725   16.7902 O   0  0  0  0  0  0  0  0  0  0  0  0
   10.4323   -5.3494   20.3516 C   0  0  0  0  0  0  0  0  0  0  0  0
    7.1156   -7.5454   16.8218 C   0  0  0  0  0  0  0  0  0  0  0  0
   10.3885   -4.4388   19.2773 C   0  0  0  0  0  0  0  0  0  0  0  0
    4.5160   -9.3822   15.0841 C   0  0  0  0  0  0  0  0  0  0  0  0
  1  3  4  0
  1 24  4  0
  2  6  4  0
  2 15  4  0
  3  5  4  0
  3  6  4  0
  4 21  4  0
  4 29  4  0
  5 15  4  0
  5 28  1  0
  6 16  4  0
  7 18  4  0
  7 26  4  0
  8 18  1  0
  8 19  4  0
  8 22  4  0
  9 12  4  0
  9 19  4  0
 10 12  4  0
 10 22  4  0
 11 20  4  0
 11 21  4  0
 12 23  1  0
 13 20  4  0
 13 29  4  0
 14 17  4  0
 14 28  4  0
 15 25  2  0
 16 27  4  0
 17 18  4  0
 20 27  1  0
 24 27  4  0
 26 28  4  0
M  END
$$$$

 Created by Python create_sdf_string function

 29 33  0  0  0  0  0  0  0  0999 V2000
    8.8270   -7.0288   18.4251 C   0  0  0  0  0  0  0  0  0  0  0  0
    9.1576   -4.6236   15.8860 O   0  0  0  0  0  0  0  0  0  0  0  0
    9.1509   -5.9108   17.7177 C   0  0  0  0  0  0  0  0  0  0  0  0
    3.6373   -9.5349   16.0582 N   0  0  0  0  0  0  0  0  0  0  0  0
    9.9275   -4.8001   18.0438 N   0  0  0  0  0  0  0  0  0  0  0  0
    8.5908   -5.7425   16.4412 C   0  0  0  0  0  0  0  0  0  0  0  0
   10.5993   -4.8981   21.6068 C   0  0  0  0  0  0  0  0  0  0  0  0
   10.4258   -3.0106   23.0998 C   0  0  0  0  0  0  0  0  0  0  0  0
   10.2148   -3.4364   25.4200 C   0  0  0  0  0  0  0  0  0  0  0  0
    9.7853   -1.1840   24.4927 C   0  0  0  0  0  0  0  0  0  0  0  0
    5.0276   -8.5227   17.5352 C   0  0  0  0  0  0  0  0  0  0  0  0
    9.8187   -2.0895   25.5800 C   0  0  0  0  0  0  0  0  0  0  0  0
    5.6473   -8.7216   15.3158 C   0  0  0  0  0  0  0  0  0  0  0  0
   10.7581   -3.1233   19.4720 N   0  0  0  0  0  0  0  0  0  0  0  0
    9.9571   -4.0573   16.8866 C   0  0  0  0  0  0  0  0  0  0  0  0
    7.6213   -6.5618   16.0087 C   0  0  0  0  0  0  0  0  0  0  0  0
   10.8583   -2.6527   20.7222 C   0  0  0  0  0  0  0  0  0  0  0  0
   10.6412   -3.5089   21.7936 C   0  0  0  0  0  0  0  0  0  0  0  0
   10.4972   -3.8968   24.1589 C   0  0  0  0  0  0  0  0  0  0  0  0
    5.9260   -8.2736   16.5517 C   0  0  0  0  0  0  0  0  0  0  0  0
    3.8816   -9.1166   17.2493 C   0  0  0  0  0  0  0  0  0  0  0  0
   10.1297   -1.6575   23.2324 C   0  0  0  0  0  0  0  0  0  0  0  0
    9.4684   -1.6929   26.7263 F   0  0  0  0  0  0  0  0  0  0  0  0
    7.7963   -7.7906   17.9837 C   0  0  0  0  0  0  0  0  0  0  0  0
   10.5884   -3.0725   16.7902 O   0  0  0  0  0  0  0  0  0  0  0  0
   10.4323   -5.3494   20.3516 C   0  0  0  0  0  0  0  0  0  0  0  0
    7.1156   -7.5454   16.8218 C   0  0  0  0  0  0  0  0  0  0  0  0
   10.3885   -4.4388   19.2773 C   0  0  0  0  0  0  0  0  0  0  0  0
    4.5160   -9.3822   15.0841 C   0  0  0  0  0  0  0  0  0  0  0  0
  1  3  4  0
  1 24  4  0
  2  6  4  0
  2 15  4  0
  3  5  4  0
  3  6  4  0
  4 21  4  0
  4 29  4  0
  5 15  4  0
  5 28  1  0
  6 16  4  0
  7 18  4  0
  7 26  4  0
  8 18  1  0
  8 19  4  0
  8 22  4  0
  9 12  4  0
  9 19  4  0
 10 12  4  0
 10 22  4  0
 11 20  4  0
 11 21  4  0
 12 23  1  0
 13 20  4  0
 13 29  4  0
 14 17  4  0
 14 28  4  0
 15 25  2  0
 16 27  4  0
 17 18  4  0
 20 27  1  0
 24 27  4  0
 26 28  4  0
M  END
$$$$

 Created by Python create_sdf_string function

 29 33  0  0  0  0  0  0  0  0999 V2000
    8.8270   -7.0288   18.4251 C   0  0  0  0  0  0  0  0  0  0  0  0
    9.1576   -4.6236   15.8860 O   0  0  0  0  0  0  0  0  0  0  0  0
    9.1509   -5.9108   17.7177 C   0  0  0  0  0  0  0  0  0  0  0  0
    3.6373   -9.5349   16.0582 N   0  0  0  0  0  0  0  0  0  0  0  0
    9.9275   -4.8001   18.0438 N   0  0  0  0  0  0  0  0  0  0  0  0
    8.5908   -5.7425   16.4412 C   0  0  0  0  0  0  0  0  0  0  0  0
   10.5993   -4.8981   21.6068 C   0  0  0  0  0  0  0  0  0  0  0  0
   10.4258   -3.0106   23.0998 C   0  0  0  0  0  0  0  0  0  0  0  0
   10.2148   -3.4364   25.4200 C   0  0  0  0  0  0  0  0  0  0  0  0
    9.7853   -1.1840   24.4927 C   0  0  0  0  0  0  0  0  0  0  0  0
    5.0276   -8.5227   17.5352 C   0  0  0  0  0  0  0  0  0  0  0  0
    9.8187   -2.0895   25.5800 C   0  0  0  0  0  0  0  0  0  0  0  0
    5.6473   -8.7216   15.3158 C   0  0  0  0  0  0  0  0  0  0  0  0
   10.7581   -3.1233   19.4720 N   0  0  0  0  0  0  0  0  0  0  0  0
    9.9571   -4.0573   16.8866 C   0  0  0  0  0  0  0  0  0  0  0  0
    7.6213   -6.5618   16.0087 C   0  0  0  0  0  0  0  0  0  0  0  0
   10.8583   -2.6527   20.7222 C   0  0  0  0  0  0  0  0  0  0  0  0
   10.6412   -3.5089   21.7936 C   0  0  0  0  0  0  0  0  0  0  0  0
   10.4972   -3.8968   24.1589 C   0  0  0  0  0  0  0  0  0  0  0  0
    5.9260   -8.2736   16.5517 C   0  0  0  0  0  0  0  0  0  0  0  0
    3.8816   -9.1166   17.2493 C   0  0  0  0  0  0  0  0  0  0  0  0
   10.1297   -1.6575   23.2324 C   0  0  0  0  0  0  0  0  0  0  0  0
    9.4684   -1.6929   26.7263 F   0  0  0  0  0  0  0  0  0  0  0  0
    7.7963   -7.7906   17.9837 C   0  0  0  0  0  0  0  0  0  0  0  0
   10.5884   -3.0725   16.7902 O   0  0  0  0  0  0  0  0  0  0  0  0
   10.4323   -5.3494   20.3516 C   0  0  0  0  0  0  0  0  0  0  0  0
    7.1156   -7.5454   16.8218 C   0  0  0  0  0  0  0  0  0  0  0  0
   10.3885   -4.4388   19.2773 C   0  0  0  0  0  0  0  0  0  0  0  0
    4.5160   -9.3822   15.0841 C   0  0  0  0  0  0  0  0  0  0  0  0
  1  3  4  0
  1 24  4  0
  2  6  4  0
  2 15  4  0
  3  5  4  0
  3  6  4  0
  4 21  4  0
  4 29  4  0
  5 15  4  0
  5 28  1  0
  6 16  4  0
  7 18  4  0
  7 26  4  0
  8 18  1  0
  8 19  4  0
  8 22  4  0
  9 12  4  0
  9 19  4  0
 10 12  4  0
 10 22  4  0
 11 20  4  0
 11 21  4  0
 12 23  1  0
 13 20  4  0
 13 29  4  0
 14 17  4  0
 14 28  4  0
 15 25  2  0
 16 27  4  0
 17 18  4  0
 20 27  1  0
 24 27  4  0
 26 28  4  0
M  END
$$$$

 Created by Python create_sdf_string function

 29 33  0  0  0  0  0  0  0  0999 V2000
    8.8270   -7.0288   18.4251 C   0  0  0  0  0  0  0  0  0  0  0  0
    9.1576   -4.6236   15.8860 O   0  0  0  0  0  0  0  0  0  0  0  0
    9.1509   -5.9108   17.7177 C   0  0  0  0  0  0  0  0  0  0  0  0
    3.6373   -9.5349   16.0582 N   0  0  0  0  0  0  0  0  0  0  0  0
    9.9275   -4.8001   18.0438 N   0  0  0  0  0  0  0  0  0  0  0  0
    8.5908   -5.7425   16.4412 C   0  0  0  0  0  0  0  0  0  0  0  0
   10.5993   -4.8981   21.6068 C   0  0  0  0  0  0  0  0  0  0  0  0
   10.4258   -3.0106   23.0998 C   0  0  0  0  0  0  0  0  0  0  0  0
   10.2148   -3.4364   25.4200 C   0  0  0  0  0  0  0  0  0  0  0  0
    9.7853   -1.1840   24.4927 C   0  0  0  0  0  0  0  0  0  0  0  0
    5.0276   -8.5227   17.5352 C   0  0  0  0  0  0  0  0  0  0  0  0
    9.8187   -2.0895   25.5800 C   0  0  0  0  0  0  0  0  0  0  0  0
    5.6473   -8.7216   15.3158 C   0  0  0  0  0  0  0  0  0  0  0  0
   10.7581   -3.1233   19.4720 N   0  0  0  0  0  0  0  0  0  0  0  0
    9.9571   -4.0573   16.8866 C   0  0  0  0  0  0  0  0  0  0  0  0
    7.6213   -6.5618   16.0087 C   0  0  0  0  0  0  0  0  0  0  0  0
   10.8583   -2.6527   20.7222 C   0  0  0  0  0  0  0  0  0  0  0  0
   10.6412   -3.5089   21.7936 C   0  0  0  0  0  0  0  0  0  0  0  0
   10.4972   -3.8968   24.1589 C   0  0  0  0  0  0  0  0  0  0  0  0
    5.9260   -8.2736   16.5517 C   0  0  0  0  0  0  0  0  0  0  0  0
    3.8816   -9.1166   17.2493 C   0  0  0  0  0  0  0  0  0  0  0  0
   10.1297   -1.6575   23.2324 C   0  0  0  0  0  0  0  0  0  0  0  0
    9.4684   -1.6929   26.7263 F   0  0  0  0  0  0  0  0  0  0  0  0
    7.7963   -7.7906   17.9837 C   0  0  0  0  0  0  0  0  0  0  0  0
   10.5884   -3.0725   16.7902 O   0  0  0  0  0  0  0  0  0  0  0  0
   10.4323   -5.3494   20.3516 C   0  0  0  0  0  0  0  0  0  0  0  0
    7.1156   -7.5454   16.8218 C   0  0  0  0  0  0  0  0  0  0  0  0
   10.3885   -4.4388   19.2773 C   0  0  0  0  0  0  0  0  0  0  0  0
    4.5160   -9.3822   15.0841 C   0  0  0  0  0  0  0  0  0  0  0  0
  1  3  4  0
  1 24  4  0
  2  6  4  0
  2 15  4  0
  3  5  4  0
  3  6  4  0
  4 21  4  0
  4 29  4  0
  5 15  4  0
  5 28  1  0
  6 16  4  0
  7 18  4  0
  7 26  4  0
  8 18  1  0
  8 19  4  0
  8 22  4  0
  9 12  4  0
  9 19  4  0
 10 12  4  0
 10 22  4  0
 11 20  4  0
 11 21  4  0
 12 23  1  0
 13 20  4  0
 13 29  4  0
 14 17  4  0
 14 28  4  0
 15 25  2  0
 16 27  4  0
 17 18  4  0
 20 27  1  0
 24 27  4  0
 26 28  4  0
M  END
$$$$

 Created by Python create_sdf_string function

 29 33  0  0  0  0  0  0  0  0999 V2000
    8.8270   -7.0288   18.4251 C   0  0  0  0  0  0  0  0  0  0  0  0
    9.1576   -4.6236   15.8860 O   0  0  0  0  0  0  0  0  0  0  0  0
    9.1509   -5.9108   17.7177 C   0  0  0  0  0  0  0  0  0  0  0  0
    3.6373   -9.5349   16.0582 N   0  0  0  0  0  0  0  0  0  0  0  0
    9.9275   -4.8001   18.0438 N   0  0  0  0  0  0  0  0  0  0  0  0
    8.5908   -5.7425   16.4412 C   0  0  0  0  0  0  0  0  0  0  0  0
   10.5993   -4.8981   21.6068 C   0  0  0  0  0  0  0  0  0  0  0  0
   10.4258   -3.0106   23.0998 C   0  0  0  0  0  0  0  0  0  0  0  0
   10.2148   -3.4364   25.4200 C   0  0  0  0  0  0  0  0  0  0  0  0
    9.7853   -1.1840   24.4927 C   0  0  0  0  0  0  0  0  0  0  0  0
    5.0276   -8.5227   17.5352 C   0  0  0  0  0  0  0  0  0  0  0  0
    9.8187   -2.0895   25.5800 C   0  0  0  0  0  0  0  0  0  0  0  0
    5.6473   -8.7216   15.3158 C   0  0  0  0  0  0  0  0  0  0  0  0
   10.7581   -3.1233   19.4720 N   0  0  0  0  0  0  0  0  0  0  0  0
    9.9571   -4.0573   16.8866 C   0  0  0  0  0  0  0  0  0  0  0  0
    7.6213   -6.5618   16.0087 C   0  0  0  0  0  0  0  0  0  0  0  0
   10.8583   -2.6527   20.7222 C   0  0  0  0  0  0  0  0  0  0  0  0
   10.6412   -3.5089   21.7936 C   0  0  0  0  0  0  0  0  0  0  0  0
   10.4972   -3.8968   24.1589 C   0  0  0  0  0  0  0  0  0  0  0  0
    5.9260   -8.2736   16.5517 C   0  0  0  0  0  0  0  0  0  0  0  0
    3.8816   -9.1166   17.2493 C   0  0  0  0  0  0  0  0  0  0  0  0
   10.1297   -1.6575   23.2324 C   0  0  0  0  0  0  0  0  0  0  0  0
    9.4684   -1.6929   26.7263 F   0  0  0  0  0  0  0  0  0  0  0  0
    7.7963   -7.7906   17.9837 C   0  0  0  0  0  0  0  0  0  0  0  0
   10.5884   -3.0725   16.7902 O   0  0  0  0  0  0  0  0  0  0  0  0
   10.4323   -5.3494   20.3516 C   0  0  0  0  0  0  0  0  0  0  0  0
    7.1156   -7.5454   16.8218 C   0  0  0  0  0  0  0  0  0  0  0  0
   10.3885   -4.4388   19.2773 C   0  0  0  0  0  0  0  0  0  0  0  0
    4.5160   -9.3822   15.0841 C   0  0  0  0  0  0  0  0  0  0  0  0
  1  3  4  0
  1 24  4  0
  2  6  4  0
  2 15  4  0
  3  5  4  0
  3  6  4  0
  4 21  4  0
  4 29  4  0
  5 15  4  0
  5 28  1  0
  6 16  4  0
  7 18  4  0
  7 26  4  0
  8 18  1  0
  8 19  4  0
  8 22  4  0
  9 12  4  0
  9 19  4  0
 10 12  4  0
 10 22  4  0
 11 20  4  0
 11 21  4  0
 12 23  1  0
 13 20  4  0
 13 29  4  0
 14 17  4  0
 14 28  4  0
 15 25  2  0
 16 27  4  0
 17 18  4  0
 20 27  1  0
 24 27  4  0
 26 28  4  0
M  END
$$$$

 Created by Python create_sdf_string function

 29 33  0  0  0  0  0  0  0  0999 V2000
    8.8270   -7.0288   18.4251 C   0  0  0  0  0  0  0  0  0  0  0  0
    9.1576   -4.6236   15.8860 O   0  0  0  0  0  0  0  0  0  0  0  0
    9.1509   -5.9108   17.7177 C   0  0  0  0  0  0  0  0  0  0  0  0
    3.6373   -9.5349   16.0582 N   0  0  0  0  0  0  0  0  0  0  0  0
    9.9275   -4.8001   18.0438 N   0  0  0  0  0  0  0  0  0  0  0  0
    8.5908   -5.7425   16.4412 C   0  0  0  0  0  0  0  0  0  0  0  0
   10.5993   -4.8981   21.6068 C   0  0  0  0  0  0  0  0  0  0  0  0
   10.4258   -3.0106   23.0998 C   0  0  0  0  0  0  0  0  0  0  0  0
   10.2148   -3.4364   25.4200 C   0  0  0  0  0  0  0  0  0  0  0  0
    9.7853   -1.1840   24.4927 C   0  0  0  0  0  0  0  0  0  0  0  0
    5.0276   -8.5227   17.5352 C   0  0  0  0  0  0  0  0  0  0  0  0
    9.8187   -2.0895   25.5800 C   0  0  0  0  0  0  0  0  0  0  0  0
    5.6473   -8.7216   15.3158 C   0  0  0  0  0  0  0  0  0  0  0  0
   10.7581   -3.1233   19.4720 N   0  0  0  0  0  0  0  0  0  0  0  0
    9.9571   -4.0573   16.8866 C   0  0  0  0  0  0  0  0  0  0  0  0
    7.6213   -6.5618   16.0087 C   0  0  0  0  0  0  0  0  0  0  0  0
   10.8583   -2.6527   20.7222 C   0  0  0  0  0  0  0  0  0  0  0  0
   10.6412   -3.5089   21.7936 C   0  0  0  0  0  0  0  0  0  0  0  0
   10.4972   -3.8968   24.1589 C   0  0  0  0  0  0  0  0  0  0  0  0
    5.9260   -8.2736   16.5517 C   0  0  0  0  0  0  0  0  0  0  0  0
    3.8816   -9.1166   17.2493 C   0  0  0  0  0  0  0  0  0  0  0  0
   10.1297   -1.6575   23.2324 C   0  0  0  0  0  0  0  0  0  0  0  0
    9.4684   -1.6929   26.7263 F   0  0  0  0  0  0  0  0  0  0  0  0
    7.7963   -7.7906   17.9837 C   0  0  0  0  0  0  0  0  0  0  0  0
   10.5884   -3.0725   16.7902 O   0  0  0  0  0  0  0  0  0  0  0  0
   10.4323   -5.3494   20.3516 C   0  0  0  0  0  0  0  0  0  0  0  0
    7.1156   -7.5454   16.8218 C   0  0  0  0  0  0  0  0  0  0  0  0
   10.3885   -4.4388   19.2773 C   0  0  0  0  0  0  0  0  0  0  0  0
    4.5160   -9.3822   15.0841 C   0  0  0  0  0  0  0  0  0  0  0  0
  1  3  4  0
  1 24  4  0
  2  6  4  0
  2 15  4  0
  3  5  4  0
  3  6  4  0
  4 21  4  0
  4 29  4  0
  5 15  4  0
  5 28  1  0
  6 16  4  0
  7 18  4  0
  7 26  4  0
  8 18  1  0
  8 19  4  0
  8 22  4  0
  9 12  4  0
  9 19  4  0
 10 12  4  0
 10 22  4  0
 11 20  4  0
 11 21  4  0
 12 23  1  0
 13 20  4  0
 13 29  4  0
 14 17  4  0
 14 28  4  0
 15 25  2  0
 16 27  4  0
 17 18  4  0
 20 27  1  0
 24 27  4  0
 26 28  4  0
M  END
$$$$

 Created by Python create_sdf_string function

 29 33  0  0  0  0  0  0  0  0999 V2000
    8.8270   -7.0288   18.4251 C   0  0  0  0  0  0  0  0  0  0  0  0
    9.1576   -4.6236   15.8860 O   0  0  0  0  0  0  0  0  0  0  0  0
    9.1509   -5.9108   17.7177 C   0  0  0  0  0  0  0  0  0  0  0  0
    3.6373   -9.5349   16.0582 N   0  0  0  0  0  0  0  0  0  0  0  0
    9.9275   -4.8001   18.0438 N   0  0  0  0  0  0  0  0  0  0  0  0
    8.5908   -5.7425   16.4412 C   0  0  0  0  0  0  0  0  0  0  0  0
   10.5993   -4.8981   21.6068 C   0  0  0  0  0  0  0  0  0  0  0  0
   10.4258   -3.0106   23.0998 C   0  0  0  0  0  0  0  0  0  0  0  0
   10.2148   -3.4364   25.4200 C   0  0  0  0  0  0  0  0  0  0  0  0
    9.7853   -1.1840   24.4927 C   0  0  0  0  0  0  0  0  0  0  0  0
    5.0276   -8.5227   17.5352 C   0  0  0  0  0  0  0  0  0  0  0  0
    9.8187   -2.0895   25.5800 C   0  0  0  0  0  0  0  0  0  0  0  0
    5.6473   -8.7216   15.3158 C   0  0  0  0  0  0  0  0  0  0  0  0
   10.7581   -3.1233   19.4720 N   0  0  0  0  0  0  0  0  0  0  0  0
    9.9571   -4.0573   16.8866 C   0  0  0  0  0  0  0  0  0  0  0  0
    7.6213   -6.5618   16.0087 C   0  0  0  0  0  0  0  0  0  0  0  0
   10.8583   -2.6527   20.7222 C   0  0  0  0  0  0  0  0  0  0  0  0
   10.6412   -3.5089   21.7936 C   0  0  0  0  0  0  0  0  0  0  0  0
   10.4972   -3.8968   24.1589 C   0  0  0  0  0  0  0  0  0  0  0  0
    5.9260   -8.2736   16.5517 C   0  0  0  0  0  0  0  0  0  0  0  0
    3.8816   -9.1166   17.2493 C   0  0  0  0  0  0  0  0  0  0  0  0
   10.1297   -1.6575   23.2324 C   0  0  0  0  0  0  0  0  0  0  0  0
    9.4684   -1.6929   26.7263 F   0  0  0  0  0  0  0  0  0  0  0  0
    7.7963   -7.7906   17.9837 C   0  0  0  0  0  0  0  0  0  0  0  0
   10.5884   -3.0725   16.7902 O   0  0  0  0  0  0  0  0  0  0  0  0
   10.4323   -5.3494   20.3516 C   0  0  0  0  0  0  0  0  0  0  0  0
    7.1156   -7.5454   16.8218 C   0  0  0  0  0  0  0  0  0  0  0  0
   10.3885   -4.4388   19.2773 C   0  0  0  0  0  0  0  0  0  0  0  0
    4.5160   -9.3822   15.0841 C   0  0  0  0  0  0  0  0  0  0  0  0
  1  3  4  0
  1 24  4  0
  2  6  4  0
  2 15  4  0
  3  5  4  0
  3  6  4  0
  4 21  4  0
  4 29  4  0
  5 15  4  0
  5 28  1  0
  6 16  4  0
  7 18  4  0
  7 26  4  0
  8 18  1  0
  8 19  4  0
  8 22  4  0
  9 12  4  0
  9 19  4  0
 10 12  4  0
 10 22  4  0
 11 20  4  0
 11 21  4  0
 12 23  1  0
 13 20  4  0
 13 29  4  0
 14 17  4  0
 14 28  4  0
 15 25  2  0
 16 27  4  0
 17 18  4  0
 20 27  1  0
 24 27  4  0
 26 28  4  0
M  END
$$$$

 Created by Python create_sdf_string function

 29 33  0  0  0  0  0  0  0  0999 V2000
    8.8270   -7.0288   18.4251 C   0  0  0  0  0  0  0  0  0  0  0  0
    9.1576   -4.6236   15.8860 O   0  0  0  0  0  0  0  0  0  0  0  0
    9.1509   -5.9108   17.7177 C   0  0  0  0  0  0  0  0  0  0  0  0
    3.6373   -9.5349   16.0582 N   0  0  0  0  0  0  0  0  0  0  0  0
    9.9275   -4.8001   18.0438 N   0  0  0  0  0  0  0  0  0  0  0  0
    8.5908   -5.7425   16.4412 C   0  0  0  0  0  0  0  0  0  0  0  0
   10.5993   -4.8981   21.6068 C   0  0  0  0  0  0  0  0  0  0  0  0
   10.4258   -3.0106   23.0998 C   0  0  0  0  0  0  0  0  0  0  0  0
   10.2148   -3.4364   25.4200 C   0  0  0  0  0  0  0  0  0  0  0  0
    9.7853   -1.1840   24.4927 C   0  0  0  0  0  0  0  0  0  0  0  0
    5.0276   -8.5227   17.5352 C   0  0  0  0  0  0  0  0  0  0  0  0
    9.8187   -2.0895   25.5800 C   0  0  0  0  0  0  0  0  0  0  0  0
    5.6473   -8.7216   15.3158 C   0  0  0  0  0  0  0  0  0  0  0  0
   10.7581   -3.1233   19.4720 N   0  0  0  0  0  0  0  0  0  0  0  0
    9.9571   -4.0573   16.8866 C   0  0  0  0  0  0  0  0  0  0  0  0
    7.6213   -6.5618   16.0087 C   0  0  0  0  0  0  0  0  0  0  0  0
   10.8583   -2.6527   20.7222 C   0  0  0  0  0  0  0  0  0  0  0  0
   10.6412   -3.5089   21.7936 C   0  0  0  0  0  0  0  0  0  0  0  0
   10.4972   -3.8968   24.1589 C   0  0  0  0  0  0  0  0  0  0  0  0
    5.9260   -8.2736   16.5517 C   0  0  0  0  0  0  0  0  0  0  0  0
    3.8816   -9.1166   17.2493 C   0  0  0  0  0  0  0  0  0  0  0  0
   10.1297   -1.6575   23.2324 C   0  0  0  0  0  0  0  0  0  0  0  0
    9.4684   -1.6929   26.7263 F   0  0  0  0  0  0  0  0  0  0  0  0
    7.7963   -7.7906   17.9837 C   0  0  0  0  0  0  0  0  0  0  0  0
   10.5884   -3.0725   16.7902 O   0  0  0  0  0  0  0  0  0  0  0  0
   10.4323   -5.3494   20.3516 C   0  0  0  0  0  0  0  0  0  0  0  0
    7.1156   -7.5454   16.8218 C   0  0  0  0  0  0  0  0  0  0  0  0
   10.3885   -4.4388   19.2773 C   0  0  0  0  0  0  0  0  0  0  0  0
    4.5160   -9.3822   15.0841 C   0  0  0  0  0  0  0  0  0  0  0  0
  1  3  4  0
  1 24  4  0
  2  6  4  0
  2 15  4  0
  3  5  4  0
  3  6  4  0
  4 21  4  0
  4 29  4  0
  5 15  4  0
  5 28  1  0
  6 16  4  0
  7 18  4  0
  7 26  4  0
  8 18  1  0
  8 19  4  0
  8 22  4  0
  9 12  4  0
  9 19  4  0
 10 12  4  0
 10 22  4  0
 11 20  4  0
 11 21  4  0
 12 23  1  0
 13 20  4  0
 13 29  4  0
 14 17  4  0
 14 28  4  0
 15 25  2  0
 16 27  4  0
 17 18  4  0
 20 27  1  0
 24 27  4  0
 26 28  4  0
M  END
$$$$

 Created by Python create_sdf_string function

 29 33  0  0  0  0  0  0  0  0999 V2000
    8.8270   -7.0288   18.4251 C   0  0  0  0  0  0  0  0  0  0  0  0
    9.1576   -4.6236   15.8860 O   0  0  0  0  0  0  0  0  0  0  0  0
    9.1509   -5.9108   17.7177 C   0  0  0  0  0  0  0  0  0  0  0  0
    3.6373   -9.5349   16.0582 N   0  0  0  0  0  0  0  0  0  0  0  0
    9.9275   -4.8001   18.0438 N   0  0  0  0  0  0  0  0  0  0  0  0
    8.5908   -5.7425   16.4412 C   0  0  0  0  0  0  0  0  0  0  0  0
   10.5993   -4.8981   21.6068 C   0  0  0  0  0  0  0  0  0  0  0  0
   10.4258   -3.0106   23.0998 C   0  0  0  0  0  0  0  0  0  0  0  0
   10.2148   -3.4364   25.4200 C   0  0  0  0  0  0  0  0  0  0  0  0
    9.7853   -1.1840   24.4927 C   0  0  0  0  0  0  0  0  0  0  0  0
    5.0276   -8.5227   17.5352 C   0  0  0  0  0  0  0  0  0  0  0  0
    9.8187   -2.0895   25.5800 C   0  0  0  0  0  0  0  0  0  0  0  0
    5.6473   -8.7216   15.3158 C   0  0  0  0  0  0  0  0  0  0  0  0
   10.7581   -3.1233   19.4720 N   0  0  0  0  0  0  0  0  0  0  0  0
    9.9571   -4.0573   16.8866 C   0  0  0  0  0  0  0  0  0  0  0  0
    7.6213   -6.5618   16.0087 C   0  0  0  0  0  0  0  0  0  0  0  0
   10.8583   -2.6527   20.7222 C   0  0  0  0  0  0  0  0  0  0  0  0
   10.6412   -3.5089   21.7936 C   0  0  0  0  0  0  0  0  0  0  0  0
   10.4972   -3.8968   24.1589 C   0  0  0  0  0  0  0  0  0  0  0  0
    5.9260   -8.2736   16.5517 C   0  0  0  0  0  0  0  0  0  0  0  0
    3.8816   -9.1166   17.2493 C   0  0  0  0  0  0  0  0  0  0  0  0
   10.1297   -1.6575   23.2324 C   0  0  0  0  0  0  0  0  0  0  0  0
    9.4684   -1.6929   26.7263 F   0  0  0  0  0  0  0  0  0  0  0  0
    7.7963   -7.7906   17.9837 C   0  0  0  0  0  0  0  0  0  0  0  0
   10.5884   -3.0725   16.7902 O   0  0  0  0  0  0  0  0  0  0  0  0
   10.4323   -5.3494   20.3516 C   0  0  0  0  0  0  0  0  0  0  0  0
    7.1156   -7.5454   16.8218 C   0  0  0  0  0  0  0  0  0  0  0  0
   10.3885   -4.4388   19.2773 C   0  0  0  0  0  0  0  0  0  0  0  0
    4.5160   -9.3822   15.0841 C   0  0  0  0  0  0  0  0  0  0  0  0
  1  3  4  0
  1 24  4  0
  2  6  4  0
  2 15  4  0
  3  5  4  0
  3  6  4  0
  4 21  4  0
  4 29  4  0
  5 15  4  0
  5 28  1  0
  6 16  4  0
  7 18  4  0
  7 26  4  0
  8 18  1  0
  8 19  4  0
  8 22  4  0
  9 12  4  0
  9 19  4  0
 10 12  4  0
 10 22  4  0
 11 20  4  0
 11 21  4  0
 12 23  1  0
 13 20  4  0
 13 29  4  0
 14 17  4  0
 14 28  4  0
 15 25  2  0
 16 27  4  0
 17 18  4  0
 20 27  1  0
 24 27  4  0
 26 28  4  0
M  END
$$$$

 Created by Python create_sdf_string function

 29 33  0  0  0  0  0  0  0  0999 V2000
    8.8270   -7.0288   18.4251 C   0  0  0  0  0  0  0  0  0  0  0  0
    9.1576   -4.6236   15.8860 O   0  0  0  0  0  0  0  0  0  0  0  0
    9.1509   -5.9108   17.7177 C   0  0  0  0  0  0  0  0  0  0  0  0
    3.6373   -9.5349   16.0582 N   0  0  0  0  0  0  0  0  0  0  0  0
    9.9275   -4.8001   18.0438 N   0  0  0  0  0  0  0  0  0  0  0  0
    8.5908   -5.7425   16.4412 C   0  0  0  0  0  0  0  0  0  0  0  0
   10.5993   -4.8981   21.6068 C   0  0  0  0  0  0  0  0  0  0  0  0
   10.4258   -3.0106   23.0998 C   0  0  0  0  0  0  0  0  0  0  0  0
   10.2148   -3.4364   25.4200 C   0  0  0  0  0  0  0  0  0  0  0  0
    9.7853   -1.1840   24.4927 C   0  0  0  0  0  0  0  0  0  0  0  0
    5.0276   -8.5227   17.5352 C   0  0  0  0  0  0  0  0  0  0  0  0
    9.8187   -2.0895   25.5800 C   0  0  0  0  0  0  0  0  0  0  0  0
    5.6473   -8.7216   15.3158 C   0  0  0  0  0  0  0  0  0  0  0  0
   10.7581   -3.1233   19.4720 N   0  0  0  0  0  0  0  0  0  0  0  0
    9.9571   -4.0573   16.8866 C   0  0  0  0  0  0  0  0  0  0  0  0
    7.6213   -6.5618   16.0087 C   0  0  0  0  0  0  0  0  0  0  0  0
   10.8583   -2.6527   20.7222 C   0  0  0  0  0  0  0  0  0  0  0  0
   10.6412   -3.5089   21.7936 C   0  0  0  0  0  0  0  0  0  0  0  0
   10.4972   -3.8968   24.1589 C   0  0  0  0  0  0  0  0  0  0  0  0
    5.9260   -8.2736   16.5517 C   0  0  0  0  0  0  0  0  0  0  0  0
    3.8816   -9.1166   17.2493 C   0  0  0  0  0  0  0  0  0  0  0  0
   10.1297   -1.6575   23.2324 C   0  0  0  0  0  0  0  0  0  0  0  0
    9.4684   -1.6929   26.7263 F   0  0  0  0  0  0  0  0  0  0  0  0
    7.7963   -7.7906   17.9837 C   0  0  0  0  0  0  0  0  0  0  0  0
   10.5884   -3.0725   16.7902 O   0  0  0  0  0  0  0  0  0  0  0  0
   10.4323   -5.3494   20.3516 C   0  0  0  0  0  0  0  0  0  0  0  0
    7.1156   -7.5454   16.8218 C   0  0  0  0  0  0  0  0  0  0  0  0
   10.3885   -4.4388   19.2773 C   0  0  0  0  0  0  0  0  0  0  0  0
    4.5160   -9.3822   15.0841 C   0  0  0  0  0  0  0  0  0  0  0  0
  1  3  4  0
  1 24  4  0
  2  6  4  0
  2 15  4  0
  3  5  4  0
  3  6  4  0
  4 21  4  0
  4 29  4  0
  5 15  4  0
  5 28  1  0
  6 16  4  0
  7 18  4  0
  7 26  4  0
  8 18  1  0
  8 19  4  0
  8 22  4  0
  9 12  4  0
  9 19  4  0
 10 12  4  0
 10 22  4  0
 11 20  4  0
 11 21  4  0
 12 23  1  0
 13 20  4  0
 13 29  4  0
 14 17  4  0
 14 28  4  0
 15 25  2  0
 16 27  4  0
 17 18  4  0
 20 27  1  0
 24 27  4  0
 26 28  4  0
M  END
$$$$

 Created by Python create_sdf_string function

 29 33  0  0  0  0  0  0  0  0999 V2000
    8.8270   -7.0288   18.4251 C   0  0  0  0  0  0  0  0  0  0  0  0
    9.1576   -4.6236   15.8860 O   0  0  0  0  0  0  0  0  0  0  0  0
    9.1509   -5.9108   17.7177 C   0  0  0  0  0  0  0  0  0  0  0  0
    3.6373   -9.5349   16.0582 N   0  0  0  0  0  0  0  0  0  0  0  0
    9.9275   -4.8001   18.0438 N   0  0  0  0  0  0  0  0  0  0  0  0
    8.5908   -5.7425   16.4412 C   0  0  0  0  0  0  0  0  0  0  0  0
   10.5993   -4.8981   21.6068 C   0  0  0  0  0  0  0  0  0  0  0  0
   10.4258   -3.0106   23.0998 C   0  0  0  0  0  0  0  0  0  0  0  0
   10.2148   -3.4364   25.4200 C   0  0  0  0  0  0  0  0  0  0  0  0
    9.7853   -1.1840   24.4927 C   0  0  0  0  0  0  0  0  0  0  0  0
    5.0276   -8.5227   17.5352 C   0  0  0  0  0  0  0  0  0  0  0  0
    9.8187   -2.0895   25.5800 C   0  0  0  0  0  0  0  0  0  0  0  0
    5.6473   -8.7216   15.3158 C   0  0  0  0  0  0  0  0  0  0  0  0
   10.7581   -3.1233   19.4720 N   0  0  0  0  0  0  0  0  0  0  0  0
    9.9571   -4.0573   16.8866 C   0  0  0  0  0  0  0  0  0  0  0  0
    7.6213   -6.5618   16.0087 C   0  0  0  0  0  0  0  0  0  0  0  0
   10.8583   -2.6527   20.7222 C   0  0  0  0  0  0  0  0  0  0  0  0
   10.6412   -3.5089   21.7936 C   0  0  0  0  0  0  0  0  0  0  0  0
   10.4972   -3.8968   24.1589 C   0  0  0  0  0  0  0  0  0  0  0  0
    5.9260   -8.2736   16.5517 C   0  0  0  0  0  0  0  0  0  0  0  0
    3.8816   -9.1166   17.2493 C   0  0  0  0  0  0  0  0  0  0  0  0
   10.1297   -1.6575   23.2324 C   0  0  0  0  0  0  0  0  0  0  0  0
    9.4684   -1.6929   26.7263 F   0  0  0  0  0  0  0  0  0  0  0  0
    7.7963   -7.7906   17.9837 C   0  0  0  0  0  0  0  0  0  0  0  0
   10.5884   -3.0725   16.7902 O   0  0  0  0  0  0  0  0  0  0  0  0
   10.4323   -5.3494   20.3516 C   0  0  0  0  0  0  0  0  0  0  0  0
    7.1156   -7.5454   16.8218 C   0  0  0  0  0  0  0  0  0  0  0  0
   10.3885   -4.4388   19.2773 C   0  0  0  0  0  0  0  0  0  0  0  0
    4.5160   -9.3822   15.0841 C   0  0  0  0  0  0  0  0  0  0  0  0
  1  3  4  0
  1 24  4  0
  2  6  4  0
  2 15  4  0
  3  5  4  0
  3  6  4  0
  4 21  4  0
  4 29  4  0
  5 15  4  0
  5 28  1  0
  6 16  4  0
  7 18  4  0
  7 26  4  0
  8 18  1  0
  8 19  4  0
  8 22  4  0
  9 12  4  0
  9 19  4  0
 10 12  4  0
 10 22  4  0
 11 20  4  0
 11 21  4  0
 12 23  1  0
 13 20  4  0
 13 29  4  0
 14 17  4  0
 14 28  4  0
 15 25  2  0
 16 27  4  0
 17 18  4  0
 20 27  1  0
 24 27  4  0
 26 28  4  0
M  END
$$$$

 Created by Python create_sdf_string function

 29 33  0  0  0  0  0  0  0  0999 V2000
    8.8270   -7.0288   18.4251 C   0  0  0  0  0  0  0  0  0  0  0  0
    9.1576   -4.6236   15.8860 O   0  0  0  0  0  0  0  0  0  0  0  0
    9.1509   -5.9108   17.7177 C   0  0  0  0  0  0  0  0  0  0  0  0
    3.6373   -9.5349   16.0582 N   0  0  0  0  0  0  0  0  0  0  0  0
    9.9275   -4.8001   18.0438 N   0  0  0  0  0  0  0  0  0  0  0  0
    8.5908   -5.7425   16.4412 C   0  0  0  0  0  0  0  0  0  0  0  0
   10.5993   -4.8981   21.6068 C   0  0  0  0  0  0  0  0  0  0  0  0
   10.4258   -3.0106   23.0998 C   0  0  0  0  0  0  0  0  0  0  0  0
   10.2148   -3.4364   25.4200 C   0  0  0  0  0  0  0  0  0  0  0  0
    9.7853   -1.1840   24.4927 C   0  0  0  0  0  0  0  0  0  0  0  0
    5.0276   -8.5227   17.5352 C   0  0  0  0  0  0  0  0  0  0  0  0
    9.8187   -2.0895   25.5800 C   0  0  0  0  0  0  0  0  0  0  0  0
    5.6473   -8.7216   15.3158 C   0  0  0  0  0  0  0  0  0  0  0  0
   10.7581   -3.1233   19.4720 N   0  0  0  0  0  0  0  0  0  0  0  0
    9.9571   -4.0573   16.8866 C   0  0  0  0  0  0  0  0  0  0  0  0
    7.6213   -6.5618   16.0087 C   0  0  0  0  0  0  0  0  0  0  0  0
   10.8583   -2.6527   20.7222 C   0  0  0  0  0  0  0  0  0  0  0  0
   10.6412   -3.5089   21.7936 C   0  0  0  0  0  0  0  0  0  0  0  0
   10.4972   -3.8968   24.1589 C   0  0  0  0  0  0  0  0  0  0  0  0
    5.9260   -8.2736   16.5517 C   0  0  0  0  0  0  0  0  0  0  0  0
    3.8816   -9.1166   17.2493 C   0  0  0  0  0  0  0  0  0  0  0  0
   10.1297   -1.6575   23.2324 C   0  0  0  0  0  0  0  0  0  0  0  0
    9.4684   -1.6929   26.7263 F   0  0  0  0  0  0  0  0  0  0  0  0
    7.7963   -7.7906   17.9837 C   0  0  0  0  0  0  0  0  0  0  0  0
   10.5884   -3.0725   16.7902 O   0  0  0  0  0  0  0  0  0  0  0  0
   10.4323   -5.3494   20.3516 C   0  0  0  0  0  0  0  0  0  0  0  0
    7.1156   -7.5454   16.8218 C   0  0  0  0  0  0  0  0  0  0  0  0
   10.3885   -4.4388   19.2773 C   0  0  0  0  0  0  0  0  0  0  0  0
    4.5160   -9.3822   15.0841 C   0  0  0  0  0  0  0  0  0  0  0  0
  1  3  4  0
  1 24  4  0
  2  6  4  0
  2 15  4  0
  3  5  4  0
  3  6  4  0
  4 21  4  0
  4 29  4  0
  5 15  4  0
  5 28  1  0
  6 16  4  0
  7 18  4  0
  7 26  4  0
  8 18  1  0
  8 19  4  0
  8 22  4  0
  9 12  4  0
  9 19  4  0
 10 12  4  0
 10 22  4  0
 11 20  4  0
 11 21  4  0
 12 23  1  0
 13 20  4  0
 13 29  4  0
 14 17  4  0
 14 28  4  0
 15 25  2  0
 16 27  4  0
 17 18  4  0
 20 27  1  0
 24 27  4  0
 26 28  4  0
M  END
$$$$

 Created by Python create_sdf_string function

 29 33  0  0  0  0  0  0  0  0999 V2000
    8.8270   -7.0288   18.4251 C   0  0  0  0  0  0  0  0  0  0  0  0
    9.1576   -4.6236   15.8860 O   0  0  0  0  0  0  0  0  0  0  0  0
    9.1509   -5.9108   17.7177 C   0  0  0  0  0  0  0  0  0  0  0  0
    3.6373   -9.5349   16.0582 N   0  0  0  0  0  0  0  0  0  0  0  0
    9.9275   -4.8001   18.0438 N   0  0  0  0  0  0  0  0  0  0  0  0
    8.5908   -5.7425   16.4412 C   0  0  0  0  0  0  0  0  0  0  0  0
   10.5993   -4.8981   21.6068 C   0  0  0  0  0  0  0  0  0  0  0  0
   10.4258   -3.0106   23.0998 C   0  0  0  0  0  0  0  0  0  0  0  0
   10.2148   -3.4364   25.4200 C   0  0  0  0  0  0  0  0  0  0  0  0
    9.7853   -1.1840   24.4927 C   0  0  0  0  0  0  0  0  0  0  0  0
    5.0276   -8.5227   17.5352 C   0  0  0  0  0  0  0  0  0  0  0  0
    9.8187   -2.0895   25.5800 C   0  0  0  0  0  0  0  0  0  0  0  0
    5.6473   -8.7216   15.3158 C   0  0  0  0  0  0  0  0  0  0  0  0
   10.7581   -3.1233   19.4720 N   0  0  0  0  0  0  0  0  0  0  0  0
    9.9571   -4.0573   16.8866 C   0  0  0  0  0  0  0  0  0  0  0  0
    7.6213   -6.5618   16.0087 C   0  0  0  0  0  0  0  0  0  0  0  0
   10.8583   -2.6527   20.7222 C   0  0  0  0  0  0  0  0  0  0  0  0
   10.6412   -3.5089   21.7936 C   0  0  0  0  0  0  0  0  0  0  0  0
   10.4972   -3.8968   24.1589 C   0  0  0  0  0  0  0  0  0  0  0  0
    5.9260   -8.2736   16.5517 C   0  0  0  0  0  0  0  0  0  0  0  0
    3.8816   -9.1166   17.2493 C   0  0  0  0  0  0  0  0  0  0  0  0
   10.1297   -1.6575   23.2324 C   0  0  0  0  0  0  0  0  0  0  0  0
    9.4684   -1.6929   26.7263 F   0  0  0  0  0  0  0  0  0  0  0  0
    7.7963   -7.7906   17.9837 C   0  0  0  0  0  0  0  0  0  0  0  0
   10.5884   -3.0725   16.7902 O   0  0  0  0  0  0  0  0  0  0  0  0
   10.4323   -5.3494   20.3516 C   0  0  0  0  0  0  0  0  0  0  0  0
    7.1156   -7.5454   16.8218 C   0  0  0  0  0  0  0  0  0  0  0  0
   10.3885   -4.4388   19.2773 C   0  0  0  0  0  0  0  0  0  0  0  0
    4.5160   -9.3822   15.0841 C   0  0  0  0  0  0  0  0  0  0  0  0
  1  3  4  0
  1 24  4  0
  2  6  4  0
  2 15  4  0
  3  5  4  0
  3  6  4  0
  4 21  4  0
  4 29  4  0
  5 15  4  0
  5 28  1  0
  6 16  4  0
  7 18  4  0
  7 26  4  0
  8 18  1  0
  8 19  4  0
  8 22  4  0
  9 12  4  0
  9 19  4  0
 10 12  4  0
 10 22  4  0
 11 20  4  0
 11 21  4  0
 12 23  1  0
 13 20  4  0
 13 29  4  0
 14 17  4  0
 14 28  4  0
 15 25  2  0
 16 27  4  0
 17 18  4  0
 20 27  1  0
 24 27  4  0
 26 28  4  0
M  END
$$$$

 Created by Python create_sdf_string function

 29 33  0  0  0  0  0  0  0  0999 V2000
    8.8270   -7.0288   18.4251 C   0  0  0  0  0  0  0  0  0  0  0  0
    9.1576   -4.6236   15.8860 O   0  0  0  0  0  0  0  0  0  0  0  0
    9.1509   -5.9108   17.7177 C   0  0  0  0  0  0  0  0  0  0  0  0
    3.6373   -9.5349   16.0582 N   0  0  0  0  0  0  0  0  0  0  0  0
    9.9275   -4.8001   18.0438 N   0  0  0  0  0  0  0  0  0  0  0  0
    8.5908   -5.7425   16.4412 C   0  0  0  0  0  0  0  0  0  0  0  0
   10.5993   -4.8981   21.6068 C   0  0  0  0  0  0  0  0  0  0  0  0
   10.4258   -3.0106   23.0998 C   0  0  0  0  0  0  0  0  0  0  0  0
   10.2148   -3.4364   25.4200 C   0  0  0  0  0  0  0  0  0  0  0  0
    9.7853   -1.1840   24.4927 C   0  0  0  0  0  0  0  0  0  0  0  0
    5.0276   -8.5227   17.5352 C   0  0  0  0  0  0  0  0  0  0  0  0
    9.8187   -2.0895   25.5800 C   0  0  0  0  0  0  0  0  0  0  0  0
    5.6473   -8.7216   15.3158 C   0  0  0  0  0  0  0  0  0  0  0  0
   10.7581   -3.1233   19.4720 N   0  0  0  0  0  0  0  0  0  0  0  0
    9.9571   -4.0573   16.8866 C   0  0  0  0  0  0  0  0  0  0  0  0
    7.6213   -6.5618   16.0087 C   0  0  0  0  0  0  0  0  0  0  0  0
   10.8583   -2.6527   20.7222 C   0  0  0  0  0  0  0  0  0  0  0  0
   10.6412   -3.5089   21.7936 C   0  0  0  0  0  0  0  0  0  0  0  0
   10.4972   -3.8968   24.1589 C   0  0  0  0  0  0  0  0  0  0  0  0
    5.9260   -8.2736   16.5517 C   0  0  0  0  0  0  0  0  0  0  0  0
    3.8816   -9.1166   17.2493 C   0  0  0  0  0  0  0  0  0  0  0  0
   10.1297   -1.6575   23.2324 C   0  0  0  0  0  0  0  0  0  0  0  0
    9.4684   -1.6929   26.7263 F   0  0  0  0  0  0  0  0  0  0  0  0
    7.7963   -7.7906   17.9837 C   0  0  0  0  0  0  0  0  0  0  0  0
   10.5884   -3.0725   16.7902 O   0  0  0  0  0  0  0  0  0  0  0  0
   10.4323   -5.3494   20.3516 C   0  0  0  0  0  0  0  0  0  0  0  0
    7.1156   -7.5454   16.8218 C   0  0  0  0  0  0  0  0  0  0  0  0
   10.3885   -4.4388   19.2773 C   0  0  0  0  0  0  0  0  0  0  0  0
    4.5160   -9.3822   15.0841 C   0  0  0  0  0  0  0  0  0  0  0  0
  1  3  4  0
  1 24  4  0
  2  6  4  0
  2 15  4  0
  3  5  4  0
  3  6  4  0
  4 21  4  0
  4 29  4  0
  5 15  4  0
  5 28  1  0
  6 16  4  0
  7 18  4  0
  7 26  4  0
  8 18  1  0
  8 19  4  0
  8 22  4  0
  9 12  4  0
  9 19  4  0
 10 12  4  0
 10 22  4  0
 11 20  4  0
 11 21  4  0
 12 23  1  0
 13 20  4  0
 13 29  4  0
 14 17  4  0
 14 28  4  0
 15 25  2  0
 16 27  4  0
 17 18  4  0
 20 27  1  0
 24 27  4  0
 26 28  4  0
M  END
$$$$

 Created by Python create_sdf_string function

 29 33  0  0  0  0  0  0  0  0999 V2000
    8.8270   -7.0288   18.4251 C   0  0  0  0  0  0  0  0  0  0  0  0
    9.1576   -4.6236   15.8860 O   0  0  0  0  0  0  0  0  0  0  0  0
    9.1509   -5.9108   17.7177 C   0  0  0  0  0  0  0  0  0  0  0  0
    3.6373   -9.5349   16.0582 N   0  0  0  0  0  0  0  0  0  0  0  0
    9.9275   -4.8001   18.0438 N   0  0  0  0  0  0  0  0  0  0  0  0
    8.5908   -5.7425   16.4412 C   0  0  0  0  0  0  0  0  0  0  0  0
   10.5993   -4.8981   21.6068 C   0  0  0  0  0  0  0  0  0  0  0  0
   10.4258   -3.0106   23.0998 C   0  0  0  0  0  0  0  0  0  0  0  0
   10.2148   -3.4364   25.4200 C   0  0  0  0  0  0  0  0  0  0  0  0
    9.7853   -1.1840   24.4927 C   0  0  0  0  0  0  0  0  0  0  0  0
    5.0276   -8.5227   17.5352 C   0  0  0  0  0  0  0  0  0  0  0  0
    9.8187   -2.0895   25.5800 C   0  0  0  0  0  0  0  0  0  0  0  0
    5.6473   -8.7216   15.3158 C   0  0  0  0  0  0  0  0  0  0  0  0
   10.7581   -3.1233   19.4720 N   0  0  0  0  0  0  0  0  0  0  0  0
    9.9571   -4.0573   16.8866 C   0  0  0  0  0  0  0  0  0  0  0  0
    7.6213   -6.5618   16.0087 C   0  0  0  0  0  0  0  0  0  0  0  0
   10.8583   -2.6527   20.7222 C   0  0  0  0  0  0  0  0  0  0  0  0
   10.6412   -3.5089   21.7936 C   0  0  0  0  0  0  0  0  0  0  0  0
   10.4972   -3.8968   24.1589 C   0  0  0  0  0  0  0  0  0  0  0  0
    5.9260   -8.2736   16.5517 C   0  0  0  0  0  0  0  0  0  0  0  0
    3.8816   -9.1166   17.2493 C   0  0  0  0  0  0  0  0  0  0  0  0
   10.1297   -1.6575   23.2324 C   0  0  0  0  0  0  0  0  0  0  0  0
    9.4684   -1.6929   26.7263 F   0  0  0  0  0  0  0  0  0  0  0  0
    7.7963   -7.7906   17.9837 C   0  0  0  0  0  0  0  0  0  0  0  0
   10.5884   -3.0725   16.7902 O   0  0  0  0  0  0  0  0  0  0  0  0
   10.4323   -5.3494   20.3516 C   0  0  0  0  0  0  0  0  0  0  0  0
    7.1156   -7.5454   16.8218 C   0  0  0  0  0  0  0  0  0  0  0  0
   10.3885   -4.4388   19.2773 C   0  0  0  0  0  0  0  0  0  0  0  0
    4.5160   -9.3822   15.0841 C   0  0  0  0  0  0  0  0  0  0  0  0
  1  3  4  0
  1 24  4  0
  2  6  4  0
  2 15  4  0
  3  5  4  0
  3  6  4  0
  4 21  4  0
  4 29  4  0
  5 15  4  0
  5 28  1  0
  6 16  4  0
  7 18  4  0
  7 26  4  0
  8 18  1  0
  8 19  4  0
  8 22  4  0
  9 12  4  0
  9 19  4  0
 10 12  4  0
 10 22  4  0
 11 20  4  0
 11 21  4  0
 12 23  1  0
 13 20  4  0
 13 29  4  0
 14 17  4  0
 14 28  4  0
 15 25  2  0
 16 27  4  0
 17 18  4  0
 20 27  1  0
 24 27  4  0
 26 28  4  0
M  END
$$$$

 Created by Python create_sdf_string function

 29 33  0  0  0  0  0  0  0  0999 V2000
    8.8270   -7.0288   18.4251 C   0  0  0  0  0  0  0  0  0  0  0  0
    9.1576   -4.6236   15.8860 O   0  0  0  0  0  0  0  0  0  0  0  0
    9.1509   -5.9108   17.7177 C   0  0  0  0  0  0  0  0  0  0  0  0
    3.6373   -9.5349   16.0582 N   0  0  0  0  0  0  0  0  0  0  0  0
    9.9275   -4.8001   18.0438 N   0  0  0  0  0  0  0  0  0  0  0  0
    8.5908   -5.7425   16.4412 C   0  0  0  0  0  0  0  0  0  0  0  0
   10.5993   -4.8981   21.6068 C   0  0  0  0  0  0  0  0  0  0  0  0
   10.4258   -3.0106   23.0998 C   0  0  0  0  0  0  0  0  0  0  0  0
   10.2148   -3.4364   25.4200 C   0  0  0  0  0  0  0  0  0  0  0  0
    9.7853   -1.1840   24.4927 C   0  0  0  0  0  0  0  0  0  0  0  0
    5.0276   -8.5227   17.5352 C   0  0  0  0  0  0  0  0  0  0  0  0
    9.8187   -2.0895   25.5800 C   0  0  0  0  0  0  0  0  0  0  0  0
    5.6473   -8.7216   15.3158 C   0  0  0  0  0  0  0  0  0  0  0  0
   10.7581   -3.1233   19.4720 N   0  0  0  0  0  0  0  0  0  0  0  0
    9.9571   -4.0573   16.8866 C   0  0  0  0  0  0  0  0  0  0  0  0
    7.6213   -6.5618   16.0087 C   0  0  0  0  0  0  0  0  0  0  0  0
   10.8583   -2.6527   20.7222 C   0  0  0  0  0  0  0  0  0  0  0  0
   10.6412   -3.5089   21.7936 C   0  0  0  0  0  0  0  0  0  0  0  0
   10.4972   -3.8968   24.1589 C   0  0  0  0  0  0  0  0  0  0  0  0
    5.9260   -8.2736   16.5517 C   0  0  0  0  0  0  0  0  0  0  0  0
    3.8816   -9.1166   17.2493 C   0  0  0  0  0  0  0  0  0  0  0  0
   10.1297   -1.6575   23.2324 C   0  0  0  0  0  0  0  0  0  0  0  0
    9.4684   -1.6929   26.7263 F   0  0  0  0  0  0  0  0  0  0  0  0
    7.7963   -7.7906   17.9837 C   0  0  0  0  0  0  0  0  0  0  0  0
   10.5884   -3.0725   16.7902 O   0  0  0  0  0  0  0  0  0  0  0  0
   10.4323   -5.3494   20.3516 C   0  0  0  0  0  0  0  0  0  0  0  0
    7.1156   -7.5454   16.8218 C   0  0  0  0  0  0  0  0  0  0  0  0
   10.3885   -4.4388   19.2773 C   0  0  0  0  0  0  0  0  0  0  0  0
    4.5160   -9.3822   15.0841 C   0  0  0  0  0  0  0  0  0  0  0  0
  1  3  4  0
  1 24  4  0
  2  6  4  0
  2 15  4  0
  3  5  4  0
  3  6  4  0
  4 21  4  0
  4 29  4  0
  5 15  4  0
  5 28  1  0
  6 16  4  0
  7 18  4  0
  7 26  4  0
  8 18  1  0
  8 19  4  0
  8 22  4  0
  9 12  4  0
  9 19  4  0
 10 12  4  0
 10 22  4  0
 11 20  4  0
 11 21  4  0
 12 23  1  0
 13 20  4  0
 13 29  4  0
 14 17  4  0
 14 28  4  0
 15 25  2  0
 16 27  4  0
 17 18  4  0
 20 27  1  0
 24 27  4  0
 26 28  4  0
M  END
$$$$

 Created by Python create_sdf_string function

 29 33  0  0  0  0  0  0  0  0999 V2000
    8.8270   -7.0288   18.4251 C   0  0  0  0  0  0  0  0  0  0  0  0
    9.1576   -4.6236   15.8860 O   0  0  0  0  0  0  0  0  0  0  0  0
    9.1509   -5.9108   17.7177 C   0  0  0  0  0  0  0  0  0  0  0  0
    3.6373   -9.5349   16.0582 N   0  0  0  0  0  0  0  0  0  0  0  0
    9.9275   -4.8001   18.0438 N   0  0  0  0  0  0  0  0  0  0  0  0
    8.5908   -5.7425   16.4412 C   0  0  0  0  0  0  0  0  0  0  0  0
   10.5993   -4.8981   21.6068 C   0  0  0  0  0  0  0  0  0  0  0  0
   10.4258   -3.0106   23.0998 C   0  0  0  0  0  0  0  0  0  0  0  0
   10.2148   -3.4364   25.4200 C   0  0  0  0  0  0  0  0  0  0  0  0
    9.7853   -1.1840   24.4927 C   0  0  0  0  0  0  0  0  0  0  0  0
    5.0276   -8.5227   17.5352 C   0  0  0  0  0  0  0  0  0  0  0  0
    9.8187   -2.0895   25.5800 C   0  0  0  0  0  0  0  0  0  0  0  0
    5.6473   -8.7216   15.3158 C   0  0  0  0  0  0  0  0  0  0  0  0
   10.7581   -3.1233   19.4720 N   0  0  0  0  0  0  0  0  0  0  0  0
    9.9571   -4.0573   16.8866 C   0  0  0  0  0  0  0  0  0  0  0  0
    7.6213   -6.5618   16.0087 C   0  0  0  0  0  0  0  0  0  0  0  0
   10.8583   -2.6527   20.7222 C   0  0  0  0  0  0  0  0  0  0  0  0
   10.6412   -3.5089   21.7936 C   0  0  0  0  0  0  0  0  0  0  0  0
   10.4972   -3.8968   24.1589 C   0  0  0  0  0  0  0  0  0  0  0  0
    5.9260   -8.2736   16.5517 C   0  0  0  0  0  0  0  0  0  0  0  0
    3.8816   -9.1166   17.2493 C   0  0  0  0  0  0  0  0  0  0  0  0
   10.1297   -1.6575   23.2324 C   0  0  0  0  0  0  0  0  0  0  0  0
    9.4684   -1.6929   26.7263 F   0  0  0  0  0  0  0  0  0  0  0  0
    7.7963   -7.7906   17.9837 C   0  0  0  0  0  0  0  0  0  0  0  0
   10.5884   -3.0725   16.7902 O   0  0  0  0  0  0  0  0  0  0  0  0
   10.4323   -5.3494   20.3516 C   0  0  0  0  0  0  0  0  0  0  0  0
    7.1156   -7.5454   16.8218 C   0  0  0  0  0  0  0  0  0  0  0  0
   10.3885   -4.4388   19.2773 C   0  0  0  0  0  0  0  0  0  0  0  0
    4.5160   -9.3822   15.0841 C   0  0  0  0  0  0  0  0  0  0  0  0
  1  3  4  0
  1 24  4  0
  2  6  4  0
  2 15  4  0
  3  5  4  0
  3  6  4  0
  4 21  4  0
  4 29  4  0
  5 15  4  0
  5 28  1  0
  6 16  4  0
  7 18  4  0
  7 26  4  0
  8 18  1  0
  8 19  4  0
  8 22  4  0
  9 12  4  0
  9 19  4  0
 10 12  4  0
 10 22  4  0
 11 20  4  0
 11 21  4  0
 12 23  1  0
 13 20  4  0
 13 29  4  0
 14 17  4  0
 14 28  4  0
 15 25  2  0
 16 27  4  0
 17 18  4  0
 20 27  1  0
 24 27  4  0
 26 28  4  0
M  END
$$$$

 Created by Python create_sdf_string function

 29 33  0  0  0  0  0  0  0  0999 V2000
    8.8270   -7.0288   18.4251 C   0  0  0  0  0  0  0  0  0  0  0  0
    9.1576   -4.6236   15.8860 O   0  0  0  0  0  0  0  0  0  0  0  0
    9.1509   -5.9108   17.7177 C   0  0  0  0  0  0  0  0  0  0  0  0
    3.6373   -9.5349   16.0582 N   0  0  0  0  0  0  0  0  0  0  0  0
    9.9275   -4.8001   18.0438 N   0  0  0  0  0  0  0  0  0  0  0  0
    8.5908   -5.7425   16.4412 C   0  0  0  0  0  0  0  0  0  0  0  0
   10.5993   -4.8981   21.6068 C   0  0  0  0  0  0  0  0  0  0  0  0
   10.4258   -3.0106   23.0998 C   0  0  0  0  0  0  0  0  0  0  0  0
   10.2148   -3.4364   25.4200 C   0  0  0  0  0  0  0  0  0  0  0  0
    9.7853   -1.1840   24.4927 C   0  0  0  0  0  0  0  0  0  0  0  0
    5.0276   -8.5227   17.5352 C   0  0  0  0  0  0  0  0  0  0  0  0
    9.8187   -2.0895   25.5800 C   0  0  0  0  0  0  0  0  0  0  0  0
    5.6473   -8.7216   15.3158 C   0  0  0  0  0  0  0  0  0  0  0  0
   10.7581   -3.1233   19.4720 N   0  0  0  0  0  0  0  0  0  0  0  0
    9.9571   -4.0573   16.8866 C   0  0  0  0  0  0  0  0  0  0  0  0
    7.6213   -6.5618   16.0087 C   0  0  0  0  0  0  0  0  0  0  0  0
   10.8583   -2.6527   20.7222 C   0  0  0  0  0  0  0  0  0  0  0  0
   10.6412   -3.5089   21.7936 C   0  0  0  0  0  0  0  0  0  0  0  0
   10.4972   -3.8968   24.1589 C   0  0  0  0  0  0  0  0  0  0  0  0
    5.9260   -8.2736   16.5517 C   0  0  0  0  0  0  0  0  0  0  0  0
    3.8816   -9.1166   17.2493 C   0  0  0  0  0  0  0  0  0  0  0  0
   10.1297   -1.6575   23.2324 C   0  0  0  0  0  0  0  0  0  0  0  0
    9.4684   -1.6929   26.7263 F   0  0  0  0  0  0  0  0  0  0  0  0
    7.7963   -7.7906   17.9837 C   0  0  0  0  0  0  0  0  0  0  0  0
   10.5884   -3.0725   16.7902 O   0  0  0  0  0  0  0  0  0  0  0  0
   10.4323   -5.3494   20.3516 C   0  0  0  0  0  0  0  0  0  0  0  0
    7.1156   -7.5454   16.8218 C   0  0  0  0  0  0  0  0  0  0  0  0
   10.3885   -4.4388   19.2773 C   0  0  0  0  0  0  0  0  0  0  0  0
    4.5160   -9.3822   15.0841 C   0  0  0  0  0  0  0  0  0  0  0  0
  1  3  4  0
  1 24  4  0
  2  6  4  0
  2 15  4  0
  3  5  4  0
  3  6  4  0
  4 21  4  0
  4 29  4  0
  5 15  4  0
  5 28  1  0
  6 16  4  0
  7 18  4  0
  7 26  4  0
  8 18  1  0
  8 19  4  0
  8 22  4  0
  9 12  4  0
  9 19  4  0
 10 12  4  0
 10 22  4  0
 11 20  4  0
 11 21  4  0
 12 23  1  0
 13 20  4  0
 13 29  4  0
 14 17  4  0
 14 28  4  0
 15 25  2  0
 16 27  4  0
 17 18  4  0
 20 27  1  0
 24 27  4  0
 26 28  4  0
M  END
$$$$

 Created by Python create_sdf_string function

 29 33  0  0  0  0  0  0  0  0999 V2000
    8.8270   -7.0288   18.4251 C   0  0  0  0  0  0  0  0  0  0  0  0
    9.1576   -4.6236   15.8860 O   0  0  0  0  0  0  0  0  0  0  0  0
    9.1509   -5.9108   17.7177 C   0  0  0  0  0  0  0  0  0  0  0  0
    3.6373   -9.5349   16.0582 N   0  0  0  0  0  0  0  0  0  0  0  0
    9.9275   -4.8001   18.0438 N   0  0  0  0  0  0  0  0  0  0  0  0
    8.5908   -5.7425   16.4412 C   0  0  0  0  0  0  0  0  0  0  0  0
   10.5993   -4.8981   21.6068 C   0  0  0  0  0  0  0  0  0  0  0  0
   10.4258   -3.0106   23.0998 C   0  0  0  0  0  0  0  0  0  0  0  0
   10.2148   -3.4364   25.4200 C   0  0  0  0  0  0  0  0  0  0  0  0
    9.7853   -1.1840   24.4927 C   0  0  0  0  0  0  0  0  0  0  0  0
    5.0276   -8.5227   17.5352 C   0  0  0  0  0  0  0  0  0  0  0  0
    9.8187   -2.0895   25.5800 C   0  0  0  0  0  0  0  0  0  0  0  0
    5.6473   -8.7216   15.3158 C   0  0  0  0  0  0  0  0  0  0  0  0
   10.7581   -3.1233   19.4720 N   0  0  0  0  0  0  0  0  0  0  0  0
    9.9571   -4.0573   16.8866 C   0  0  0  0  0  0  0  0  0  0  0  0
    7.6213   -6.5618   16.0087 C   0  0  0  0  0  0  0  0  0  0  0  0
   10.8583   -2.6527   20.7222 C   0  0  0  0  0  0  0  0  0  0  0  0
   10.6412   -3.5089   21.7936 C   0  0  0  0  0  0  0  0  0  0  0  0
   10.4972   -3.8968   24.1589 C   0  0  0  0  0  0  0  0  0  0  0  0
    5.9260   -8.2736   16.5517 C   0  0  0  0  0  0  0  0  0  0  0  0
    3.8816   -9.1166   17.2493 C   0  0  0  0  0  0  0  0  0  0  0  0
   10.1297   -1.6575   23.2324 C   0  0  0  0  0  0  0  0  0  0  0  0
    9.4684   -1.6929   26.7263 F   0  0  0  0  0  0  0  0  0  0  0  0
    7.7963   -7.7906   17.9837 C   0  0  0  0  0  0  0  0  0  0  0  0
   10.5884   -3.0725   16.7902 O   0  0  0  0  0  0  0  0  0  0  0  0
   10.4323   -5.3494   20.3516 C   0  0  0  0  0  0  0  0  0  0  0  0
    7.1156   -7.5454   16.8218 C   0  0  0  0  0  0  0  0  0  0  0  0
   10.3885   -4.4388   19.2773 C   0  0  0  0  0  0  0  0  0  0  0  0
    4.5160   -9.3822   15.0841 C   0  0  0  0  0  0  0  0  0  0  0  0
  1  3  4  0
  1 24  4  0
  2  6  4  0
  2 15  4  0
  3  5  4  0
  3  6  4  0
  4 21  4  0
  4 29  4  0
  5 15  4  0
  5 28  1  0
  6 16  4  0
  7 18  4  0
  7 26  4  0
  8 18  1  0
  8 19  4  0
  8 22  4  0
  9 12  4  0
  9 19  4  0
 10 12  4  0
 10 22  4  0
 11 20  4  0
 11 21  4  0
 12 23  1  0
 13 20  4  0
 13 29  4  0
 14 17  4  0
 14 28  4  0
 15 25  2  0
 16 27  4  0
 17 18  4  0
 20 27  1  0
 24 27  4  0
 26 28  4  0
M  END
$$$$

 Created by Python create_sdf_string function

 29 33  0  0  0  0  0  0  0  0999 V2000
    8.8270   -7.0288   18.4251 C   0  0  0  0  0  0  0  0  0  0  0  0
    9.1576   -4.6236   15.8860 O   0  0  0  0  0  0  0  0  0  0  0  0
    9.1509   -5.9108   17.7177 C   0  0  0  0  0  0  0  0  0  0  0  0
    3.6373   -9.5349   16.0582 N   0  0  0  0  0  0  0  0  0  0  0  0
    9.9275   -4.8001   18.0438 N   0  0  0  0  0  0  0  0  0  0  0  0
    8.5908   -5.7425   16.4412 C   0  0  0  0  0  0  0  0  0  0  0  0
   10.5993   -4.8981   21.6068 C   0  0  0  0  0  0  0  0  0  0  0  0
   10.4258   -3.0106   23.0998 C   0  0  0  0  0  0  0  0  0  0  0  0
   10.2148   -3.4364   25.4200 C   0  0  0  0  0  0  0  0  0  0  0  0
    9.7853   -1.1840   24.4927 C   0  0  0  0  0  0  0  0  0  0  0  0
    5.0276   -8.5227   17.5352 C   0  0  0  0  0  0  0  0  0  0  0  0
    9.8187   -2.0895   25.5800 C   0  0  0  0  0  0  0  0  0  0  0  0
    5.6473   -8.7216   15.3158 C   0  0  0  0  0  0  0  0  0  0  0  0
   10.7581   -3.1233   19.4720 N   0  0  0  0  0  0  0  0  0  0  0  0
    9.9571   -4.0573   16.8866 C   0  0  0  0  0  0  0  0  0  0  0  0
    7.6213   -6.5618   16.0087 C   0  0  0  0  0  0  0  0  0  0  0  0
   10.8583   -2.6527   20.7222 C   0  0  0  0  0  0  0  0  0  0  0  0
   10.6412   -3.5089   21.7936 C   0  0  0  0  0  0  0  0  0  0  0  0
   10.4972   -3.8968   24.1589 C   0  0  0  0  0  0  0  0  0  0  0  0
    5.9260   -8.2736   16.5517 C   0  0  0  0  0  0  0  0  0  0  0  0
    3.8816   -9.1166   17.2493 C   0  0  0  0  0  0  0  0  0  0  0  0
   10.1297   -1.6575   23.2324 C   0  0  0  0  0  0  0  0  0  0  0  0
    9.4684   -1.6929   26.7263 F   0  0  0  0  0  0  0  0  0  0  0  0
    7.7963   -7.7906   17.9837 C   0  0  0  0  0  0  0  0  0  0  0  0
   10.5884   -3.0725   16.7902 O   0  0  0  0  0  0  0  0  0  0  0  0
   10.4323   -5.3494   20.3516 C   0  0  0  0  0  0  0  0  0  0  0  0
    7.1156   -7.5454   16.8218 C   0  0  0  0  0  0  0  0  0  0  0  0
   10.3885   -4.4388   19.2773 C   0  0  0  0  0  0  0  0  0  0  0  0
    4.5160   -9.3822   15.0841 C   0  0  0  0  0  0  0  0  0  0  0  0
  1  3  4  0
  1 24  4  0
  2  6  4  0
  2 15  4  0
  3  5  4  0
  3  6  4  0
  4 21  4  0
  4 29  4  0
  5 15  4  0
  5 28  1  0
  6 16  4  0
  7 18  4  0
  7 26  4  0
  8 18  1  0
  8 19  4  0
  8 22  4  0
  9 12  4  0
  9 19  4  0
 10 12  4  0
 10 22  4  0
 11 20  4  0
 11 21  4  0
 12 23  1  0
 13 20  4  0
 13 29  4  0
 14 17  4  0
 14 28  4  0
 15 25  2  0
 16 27  4  0
 17 18  4  0
 20 27  1  0
 24 27  4  0
 26 28  4  0
M  END
$$$$

 Created by Python create_sdf_string function

 29 33  0  0  0  0  0  0  0  0999 V2000
    8.8270   -7.0288   18.4251 C   0  0  0  0  0  0  0  0  0  0  0  0
    9.1576   -4.6236   15.8860 O   0  0  0  0  0  0  0  0  0  0  0  0
    9.1509   -5.9108   17.7177 C   0  0  0  0  0  0  0  0  0  0  0  0
    3.6373   -9.5349   16.0582 N   0  0  0  0  0  0  0  0  0  0  0  0
    9.9275   -4.8001   18.0438 N   0  0  0  0  0  0  0  0  0  0  0  0
    8.5908   -5.7425   16.4412 C   0  0  0  0  0  0  0  0  0  0  0  0
   10.5993   -4.8981   21.6068 C   0  0  0  0  0  0  0  0  0  0  0  0
   10.4258   -3.0106   23.0998 C   0  0  0  0  0  0  0  0  0  0  0  0
   10.2148   -3.4364   25.4200 C   0  0  0  0  0  0  0  0  0  0  0  0
    9.7853   -1.1840   24.4927 C   0  0  0  0  0  0  0  0  0  0  0  0
    5.0276   -8.5227   17.5352 C   0  0  0  0  0  0  0  0  0  0  0  0
    9.8187   -2.0895   25.5800 C   0  0  0  0  0  0  0  0  0  0  0  0
    5.6473   -8.7216   15.3158 C   0  0  0  0  0  0  0  0  0  0  0  0
   10.7581   -3.1233   19.4720 N   0  0  0  0  0  0  0  0  0  0  0  0
    9.9571   -4.0573   16.8866 C   0  0  0  0  0  0  0  0  0  0  0  0
    7.6213   -6.5618   16.0087 C   0  0  0  0  0  0  0  0  0  0  0  0
   10.8583   -2.6527   20.7222 C   0  0  0  0  0  0  0  0  0  0  0  0
   10.6412   -3.5089   21.7936 C   0  0  0  0  0  0  0  0  0  0  0  0
   10.4972   -3.8968   24.1589 C   0  0  0  0  0  0  0  0  0  0  0  0
    5.9260   -8.2736   16.5517 C   0  0  0  0  0  0  0  0  0  0  0  0
    3.8816   -9.1166   17.2493 C   0  0  0  0  0  0  0  0  0  0  0  0
   10.1297   -1.6575   23.2324 C   0  0  0  0  0  0  0  0  0  0  0  0
    9.4684   -1.6929   26.7263 F   0  0  0  0  0  0  0  0  0  0  0  0
    7.7963   -7.7906   17.9837 C   0  0  0  0  0  0  0  0  0  0  0  0
   10.5884   -3.0725   16.7902 O   0  0  0  0  0  0  0  0  0  0  0  0
   10.4323   -5.3494   20.3516 C   0  0  0  0  0  0  0  0  0  0  0  0
    7.1156   -7.5454   16.8218 C   0  0  0  0  0  0  0  0  0  0  0  0
   10.3885   -4.4388   19.2773 C   0  0  0  0  0  0  0  0  0  0  0  0
    4.5160   -9.3822   15.0841 C   0  0  0  0  0  0  0  0  0  0  0  0
  1  3  4  0
  1 24  4  0
  2  6  4  0
  2 15  4  0
  3  5  4  0
  3  6  4  0
  4 21  4  0
  4 29  4  0
  5 15  4  0
  5 28  1  0
  6 16  4  0
  7 18  4  0
  7 26  4  0
  8 18  1  0
  8 19  4  0
  8 22  4  0
  9 12  4  0
  9 19  4  0
 10 12  4  0
 10 22  4  0
 11 20  4  0
 11 21  4  0
 12 23  1  0
 13 20  4  0
 13 29  4  0
 14 17  4  0
 14 28  4  0
 15 25  2  0
 16 27  4  0
 17 18  4  0
 20 27  1  0
 24 27  4  0
 26 28  4  0
M  END
$$$$

 Created by Python create_sdf_string function

 29 33  0  0  0  0  0  0  0  0999 V2000
    8.8270   -7.0288   18.4251 C   0  0  0  0  0  0  0  0  0  0  0  0
    9.1576   -4.6236   15.8860 O   0  0  0  0  0  0  0  0  0  0  0  0
    9.1509   -5.9108   17.7177 C   0  0  0  0  0  0  0  0  0  0  0  0
    3.6373   -9.5349   16.0582 N   0  0  0  0  0  0  0  0  0  0  0  0
    9.9275   -4.8001   18.0438 N   0  0  0  0  0  0  0  0  0  0  0  0
    8.5908   -5.7425   16.4412 C   0  0  0  0  0  0  0  0  0  0  0  0
   10.5993   -4.8981   21.6068 C   0  0  0  0  0  0  0  0  0  0  0  0
   10.4258   -3.0106   23.0998 C   0  0  0  0  0  0  0  0  0  0  0  0
   10.2148   -3.4364   25.4200 C   0  0  0  0  0  0  0  0  0  0  0  0
    9.7853   -1.1840   24.4927 C   0  0  0  0  0  0  0  0  0  0  0  0
    5.0276   -8.5227   17.5352 C   0  0  0  0  0  0  0  0  0  0  0  0
    9.8187   -2.0895   25.5800 C   0  0  0  0  0  0  0  0  0  0  0  0
    5.6473   -8.7216   15.3158 C   0  0  0  0  0  0  0  0  0  0  0  0
   10.7581   -3.1233   19.4720 N   0  0  0  0  0  0  0  0  0  0  0  0
    9.9571   -4.0573   16.8866 C   0  0  0  0  0  0  0  0  0  0  0  0
    7.6213   -6.5618   16.0087 C   0  0  0  0  0  0  0  0  0  0  0  0
   10.8583   -2.6527   20.7222 C   0  0  0  0  0  0  0  0  0  0  0  0
   10.6412   -3.5089   21.7936 C   0  0  0  0  0  0  0  0  0  0  0  0
   10.4972   -3.8968   24.1589 C   0  0  0  0  0  0  0  0  0  0  0  0
    5.9260   -8.2736   16.5517 C   0  0  0  0  0  0  0  0  0  0  0  0
    3.8816   -9.1166   17.2493 C   0  0  0  0  0  0  0  0  0  0  0  0
   10.1297   -1.6575   23.2324 C   0  0  0  0  0  0  0  0  0  0  0  0
    9.4684   -1.6929   26.7263 F   0  0  0  0  0  0  0  0  0  0  0  0
    7.7963   -7.7906   17.9837 C   0  0  0  0  0  0  0  0  0  0  0  0
   10.5884   -3.0725   16.7902 O   0  0  0  0  0  0  0  0  0  0  0  0
   10.4323   -5.3494   20.3516 C   0  0  0  0  0  0  0  0  0  0  0  0
    7.1156   -7.5454   16.8218 C   0  0  0  0  0  0  0  0  0  0  0  0
   10.3885   -4.4388   19.2773 C   0  0  0  0  0  0  0  0  0  0  0  0
    4.5160   -9.3822   15.0841 C   0  0  0  0  0  0  0  0  0  0  0  0
  1  3  4  0
  1 24  4  0
  2  6  4  0
  2 15  4  0
  3  5  4  0
  3  6  4  0
  4 21  4  0
  4 29  4  0
  5 15  4  0
  5 28  1  0
  6 16  4  0
  7 18  4  0
  7 26  4  0
  8 18  1  0
  8 19  4  0
  8 22  4  0
  9 12  4  0
  9 19  4  0
 10 12  4  0
 10 22  4  0
 11 20  4  0
 11 21  4  0
 12 23  1  0
 13 20  4  0
 13 29  4  0
 14 17  4  0
 14 28  4  0
 15 25  2  0
 16 27  4  0
 17 18  4  0
 20 27  1  0
 24 27  4  0
 26 28  4  0
M  END
$$$$

 Created by Python create_sdf_string function

 29 33  0  0  0  0  0  0  0  0999 V2000
    8.8270   -7.0288   18.4251 C   0  0  0  0  0  0  0  0  0  0  0  0
    9.1576   -4.6236   15.8860 O   0  0  0  0  0  0  0  0  0  0  0  0
    9.1509   -5.9108   17.7177 C   0  0  0  0  0  0  0  0  0  0  0  0
    3.6373   -9.5349   16.0582 N   0  0  0  0  0  0  0  0  0  0  0  0
    9.9275   -4.8001   18.0438 N   0  0  0  0  0  0  0  0  0  0  0  0
    8.5908   -5.7425   16.4412 C   0  0  0  0  0  0  0  0  0  0  0  0
   10.5993   -4.8981   21.6068 C   0  0  0  0  0  0  0  0  0  0  0  0
   10.4258   -3.0106   23.0998 C   0  0  0  0  0  0  0  0  0  0  0  0
   10.2148   -3.4364   25.4200 C   0  0  0  0  0  0  0  0  0  0  0  0
    9.7853   -1.1840   24.4927 C   0  0  0  0  0  0  0  0  0  0  0  0
    5.0276   -8.5227   17.5352 C   0  0  0  0  0  0  0  0  0  0  0  0
    9.8187   -2.0895   25.5800 C   0  0  0  0  0  0  0  0  0  0  0  0
    5.6473   -8.7216   15.3158 C   0  0  0  0  0  0  0  0  0  0  0  0
   10.7581   -3.1233   19.4720 N   0  0  0  0  0  0  0  0  0  0  0  0
    9.9571   -4.0573   16.8866 C   0  0  0  0  0  0  0  0  0  0  0  0
    7.6213   -6.5618   16.0087 C   0  0  0  0  0  0  0  0  0  0  0  0
   10.8583   -2.6527   20.7222 C   0  0  0  0  0  0  0  0  0  0  0  0
   10.6412   -3.5089   21.7936 C   0  0  0  0  0  0  0  0  0  0  0  0
   10.4972   -3.8968   24.1589 C   0  0  0  0  0  0  0  0  0  0  0  0
    5.9260   -8.2736   16.5517 C   0  0  0  0  0  0  0  0  0  0  0  0
    3.8816   -9.1166   17.2493 C   0  0  0  0  0  0  0  0  0  0  0  0
   10.1297   -1.6575   23.2324 C   0  0  0  0  0  0  0  0  0  0  0  0
    9.4684   -1.6929   26.7263 F   0  0  0  0  0  0  0  0  0  0  0  0
    7.7963   -7.7906   17.9837 C   0  0  0  0  0  0  0  0  0  0  0  0
   10.5884   -3.0725   16.7902 O   0  0  0  0  0  0  0  0  0  0  0  0
   10.4323   -5.3494   20.3516 C   0  0  0  0  0  0  0  0  0  0  0  0
    7.1156   -7.5454   16.8218 C   0  0  0  0  0  0  0  0  0  0  0  0
   10.3885   -4.4388   19.2773 C   0  0  0  0  0  0  0  0  0  0  0  0
    4.5160   -9.3822   15.0841 C   0  0  0  0  0  0  0  0  0  0  0  0
  1  3  4  0
  1 24  4  0
  2  6  4  0
  2 15  4  0
  3  5  4  0
  3  6  4  0
  4 21  4  0
  4 29  4  0
  5 15  4  0
  5 28  1  0
  6 16  4  0
  7 18  4  0
  7 26  4  0
  8 18  1  0
  8 19  4  0
  8 22  4  0
  9 12  4  0
  9 19  4  0
 10 12  4  0
 10 22  4  0
 11 20  4  0
 11 21  4  0
 12 23  1  0
 13 20  4  0
 13 29  4  0
 14 17  4  0
 14 28  4  0
 15 25  2  0
 16 27  4  0
 17 18  4  0
 20 27  1  0
 24 27  4  0
 26 28  4  0
M  END
$$$$

 Created by Python create_sdf_string function

 29 33  0  0  0  0  0  0  0  0999 V2000
    8.8270   -7.0288   18.4251 C   0  0  0  0  0  0  0  0  0  0  0  0
    9.1576   -4.6236   15.8860 O   0  0  0  0  0  0  0  0  0  0  0  0
    9.1509   -5.9108   17.7177 C   0  0  0  0  0  0  0  0  0  0  0  0
    3.6373   -9.5349   16.0582 N   0  0  0  0  0  0  0  0  0  0  0  0
    9.9275   -4.8001   18.0438 N   0  0  0  0  0  0  0  0  0  0  0  0
    8.5908   -5.7425   16.4412 C   0  0  0  0  0  0  0  0  0  0  0  0
   10.5993   -4.8981   21.6068 C   0  0  0  0  0  0  0  0  0  0  0  0
   10.4258   -3.0106   23.0998 C   0  0  0  0  0  0  0  0  0  0  0  0
   10.2148   -3.4364   25.4200 C   0  0  0  0  0  0  0  0  0  0  0  0
    9.7853   -1.1840   24.4927 C   0  0  0  0  0  0  0  0  0  0  0  0
    5.0276   -8.5227   17.5352 C   0  0  0  0  0  0  0  0  0  0  0  0
    9.8187   -2.0895   25.5800 C   0  0  0  0  0  0  0  0  0  0  0  0
    5.6473   -8.7216   15.3158 C   0  0  0  0  0  0  0  0  0  0  0  0
   10.7581   -3.1233   19.4720 N   0  0  0  0  0  0  0  0  0  0  0  0
    9.9571   -4.0573   16.8866 C   0  0  0  0  0  0  0  0  0  0  0  0
    7.6213   -6.5618   16.0087 C   0  0  0  0  0  0  0  0  0  0  0  0
   10.8583   -2.6527   20.7222 C   0  0  0  0  0  0  0  0  0  0  0  0
   10.6412   -3.5089   21.7936 C   0  0  0  0  0  0  0  0  0  0  0  0
   10.4972   -3.8968   24.1589 C   0  0  0  0  0  0  0  0  0  0  0  0
    5.9260   -8.2736   16.5517 C   0  0  0  0  0  0  0  0  0  0  0  0
    3.8816   -9.1166   17.2493 C   0  0  0  0  0  0  0  0  0  0  0  0
   10.1297   -1.6575   23.2324 C   0  0  0  0  0  0  0  0  0  0  0  0
    9.4684   -1.6929   26.7263 F   0  0  0  0  0  0  0  0  0  0  0  0
    7.7963   -7.7906   17.9837 C   0  0  0  0  0  0  0  0  0  0  0  0
   10.5884   -3.0725   16.7902 O   0  0  0  0  0  0  0  0  0  0  0  0
   10.4323   -5.3494   20.3516 C   0  0  0  0  0  0  0  0  0  0  0  0
    7.1156   -7.5454   16.8218 C   0  0  0  0  0  0  0  0  0  0  0  0
   10.3885   -4.4388   19.2773 C   0  0  0  0  0  0  0  0  0  0  0  0
    4.5160   -9.3822   15.0841 C   0  0  0  0  0  0  0  0  0  0  0  0
  1  3  4  0
  1 24  4  0
  2  6  4  0
  2 15  4  0
  3  5  4  0
  3  6  4  0
  4 21  4  0
  4 29  4  0
  5 15  4  0
  5 28  1  0
  6 16  4  0
  7 18  4  0
  7 26  4  0
  8 18  1  0
  8 19  4  0
  8 22  4  0
  9 12  4  0
  9 19  4  0
 10 12  4  0
 10 22  4  0
 11 20  4  0
 11 21  4  0
 12 23  1  0
 13 20  4  0
 13 29  4  0
 14 17  4  0
 14 28  4  0
 15 25  2  0
 16 27  4  0
 17 18  4  0
 20 27  1  0
 24 27  4  0
 26 28  4  0
M  END
$$$$

 Created by Python create_sdf_string function

 29 33  0  0  0  0  0  0  0  0999 V2000
    8.8270   -7.0288   18.4251 C   0  0  0  0  0  0  0  0  0  0  0  0
    9.1576   -4.6236   15.8860 O   0  0  0  0  0  0  0  0  0  0  0  0
    9.1509   -5.9108   17.7177 C   0  0  0  0  0  0  0  0  0  0  0  0
    3.6373   -9.5349   16.0582 N   0  0  0  0  0  0  0  0  0  0  0  0
    9.9275   -4.8001   18.0438 N   0  0  0  0  0  0  0  0  0  0  0  0
    8.5908   -5.7425   16.4412 C   0  0  0  0  0  0  0  0  0  0  0  0
   10.5993   -4.8981   21.6068 C   0  0  0  0  0  0  0  0  0  0  0  0
   10.4258   -3.0106   23.0998 C   0  0  0  0  0  0  0  0  0  0  0  0
   10.2148   -3.4364   25.4200 C   0  0  0  0  0  0  0  0  0  0  0  0
    9.7853   -1.1840   24.4927 C   0  0  0  0  0  0  0  0  0  0  0  0
    5.0276   -8.5227   17.5352 C   0  0  0  0  0  0  0  0  0  0  0  0
    9.8187   -2.0895   25.5800 C   0  0  0  0  0  0  0  0  0  0  0  0
    5.6473   -8.7216   15.3158 C   0  0  0  0  0  0  0  0  0  0  0  0
   10.7581   -3.1233   19.4720 N   0  0  0  0  0  0  0  0  0  0  0  0
    9.9571   -4.0573   16.8866 C   0  0  0  0  0  0  0  0  0  0  0  0
    7.6213   -6.5618   16.0087 C   0  0  0  0  0  0  0  0  0  0  0  0
   10.8583   -2.6527   20.7222 C   0  0  0  0  0  0  0  0  0  0  0  0
   10.6412   -3.5089   21.7936 C   0  0  0  0  0  0  0  0  0  0  0  0
   10.4972   -3.8968   24.1589 C   0  0  0  0  0  0  0  0  0  0  0  0
    5.9260   -8.2736   16.5517 C   0  0  0  0  0  0  0  0  0  0  0  0
    3.8816   -9.1166   17.2493 C   0  0  0  0  0  0  0  0  0  0  0  0
   10.1297   -1.6575   23.2324 C   0  0  0  0  0  0  0  0  0  0  0  0
    9.4684   -1.6929   26.7263 F   0  0  0  0  0  0  0  0  0  0  0  0
    7.7963   -7.7906   17.9837 C   0  0  0  0  0  0  0  0  0  0  0  0
   10.5884   -3.0725   16.7902 O   0  0  0  0  0  0  0  0  0  0  0  0
   10.4323   -5.3494   20.3516 C   0  0  0  0  0  0  0  0  0  0  0  0
    7.1156   -7.5454   16.8218 C   0  0  0  0  0  0  0  0  0  0  0  0
   10.3885   -4.4388   19.2773 C   0  0  0  0  0  0  0  0  0  0  0  0
    4.5160   -9.3822   15.0841 C   0  0  0  0  0  0  0  0  0  0  0  0
  1  3  4  0
  1 24  4  0
  2  6  4  0
  2 15  4  0
  3  5  4  0
  3  6  4  0
  4 21  4  0
  4 29  4  0
  5 15  4  0
  5 28  1  0
  6 16  4  0
  7 18  4  0
  7 26  4  0
  8 18  1  0
  8 19  4  0
  8 22  4  0
  9 12  4  0
  9 19  4  0
 10 12  4  0
 10 22  4  0
 11 20  4  0
 11 21  4  0
 12 23  1  0
 13 20  4  0
 13 29  4  0
 14 17  4  0
 14 28  4  0
 15 25  2  0
 16 27  4  0
 17 18  4  0
 20 27  1  0
 24 27  4  0
 26 28  4  0
M  END
$$$$

 Created by Python create_sdf_string function

 29 33  0  0  0  0  0  0  0  0999 V2000
    8.8270   -7.0288   18.4251 C   0  0  0  0  0  0  0  0  0  0  0  0
    9.1576   -4.6236   15.8860 O   0  0  0  0  0  0  0  0  0  0  0  0
    9.1509   -5.9108   17.7177 C   0  0  0  0  0  0  0  0  0  0  0  0
    3.6373   -9.5349   16.0582 N   0  0  0  0  0  0  0  0  0  0  0  0
    9.9275   -4.8001   18.0438 N   0  0  0  0  0  0  0  0  0  0  0  0
    8.5908   -5.7425   16.4412 C   0  0  0  0  0  0  0  0  0  0  0  0
   10.5993   -4.8981   21.6068 C   0  0  0  0  0  0  0  0  0  0  0  0
   10.4258   -3.0106   23.0998 C   0  0  0  0  0  0  0  0  0  0  0  0
   10.2148   -3.4364   25.4200 C   0  0  0  0  0  0  0  0  0  0  0  0
    9.7853   -1.1840   24.4927 C   0  0  0  0  0  0  0  0  0  0  0  0
    5.0276   -8.5227   17.5352 C   0  0  0  0  0  0  0  0  0  0  0  0
    9.8187   -2.0895   25.5800 C   0  0  0  0  0  0  0  0  0  0  0  0
    5.6473   -8.7216   15.3158 C   0  0  0  0  0  0  0  0  0  0  0  0
   10.7581   -3.1233   19.4720 N   0  0  0  0  0  0  0  0  0  0  0  0
    9.9571   -4.0573   16.8866 C   0  0  0  0  0  0  0  0  0  0  0  0
    7.6213   -6.5618   16.0087 C   0  0  0  0  0  0  0  0  0  0  0  0
   10.8583   -2.6527   20.7222 C   0  0  0  0  0  0  0  0  0  0  0  0
   10.6412   -3.5089   21.7936 C   0  0  0  0  0  0  0  0  0  0  0  0
   10.4972   -3.8968   24.1589 C   0  0  0  0  0  0  0  0  0  0  0  0
    5.9260   -8.2736   16.5517 C   0  0  0  0  0  0  0  0  0  0  0  0
    3.8816   -9.1166   17.2493 C   0  0  0  0  0  0  0  0  0  0  0  0
   10.1297   -1.6575   23.2324 C   0  0  0  0  0  0  0  0  0  0  0  0
    9.4684   -1.6929   26.7263 F   0  0  0  0  0  0  0  0  0  0  0  0
    7.7963   -7.7906   17.9837 C   0  0  0  0  0  0  0  0  0  0  0  0
   10.5884   -3.0725   16.7902 O   0  0  0  0  0  0  0  0  0  0  0  0
   10.4323   -5.3494   20.3516 C   0  0  0  0  0  0  0  0  0  0  0  0
    7.1156   -7.5454   16.8218 C   0  0  0  0  0  0  0  0  0  0  0  0
   10.3885   -4.4388   19.2773 C   0  0  0  0  0  0  0  0  0  0  0  0
    4.5160   -9.3822   15.0841 C   0  0  0  0  0  0  0  0  0  0  0  0
  1  3  4  0
  1 24  4  0
  2  6  4  0
  2 15  4  0
  3  5  4  0
  3  6  4  0
  4 21  4  0
  4 29  4  0
  5 15  4  0
  5 28  1  0
  6 16  4  0
  7 18  4  0
  7 26  4  0
  8 18  1  0
  8 19  4  0
  8 22  4  0
  9 12  4  0
  9 19  4  0
 10 12  4  0
 10 22  4  0
 11 20  4  0
 11 21  4  0
 12 23  1  0
 13 20  4  0
 13 29  4  0
 14 17  4  0
 14 28  4  0
 15 25  2  0
 16 27  4  0
 17 18  4  0
 20 27  1  0
 24 27  4  0
 26 28  4  0
M  END
$$$$

 Created by Python create_sdf_string function

 29 33  0  0  0  0  0  0  0  0999 V2000
    8.8270   -7.0288   18.4251 C   0  0  0  0  0  0  0  0  0  0  0  0
    9.1576   -4.6236   15.8860 O   0  0  0  0  0  0  0  0  0  0  0  0
    9.1509   -5.9108   17.7177 C   0  0  0  0  0  0  0  0  0  0  0  0
    3.6373   -9.5349   16.0582 N   0  0  0  0  0  0  0  0  0  0  0  0
    9.9275   -4.8001   18.0438 N   0  0  0  0  0  0  0  0  0  0  0  0
    8.5908   -5.7425   16.4412 C   0  0  0  0  0  0  0  0  0  0  0  0
   10.5993   -4.8981   21.6068 C   0  0  0  0  0  0  0  0  0  0  0  0
   10.4258   -3.0106   23.0998 C   0  0  0  0  0  0  0  0  0  0  0  0
   10.2148   -3.4364   25.4200 C   0  0  0  0  0  0  0  0  0  0  0  0
    9.7853   -1.1840   24.4927 C   0  0  0  0  0  0  0  0  0  0  0  0
    5.0276   -8.5227   17.5352 C   0  0  0  0  0  0  0  0  0  0  0  0
    9.8187   -2.0895   25.5800 C   0  0  0  0  0  0  0  0  0  0  0  0
    5.6473   -8.7216   15.3158 C   0  0  0  0  0  0  0  0  0  0  0  0
   10.7581   -3.1233   19.4720 N   0  0  0  0  0  0  0  0  0  0  0  0
    9.9571   -4.0573   16.8866 C   0  0  0  0  0  0  0  0  0  0  0  0
    7.6213   -6.5618   16.0087 C   0  0  0  0  0  0  0  0  0  0  0  0
   10.8583   -2.6527   20.7222 C   0  0  0  0  0  0  0  0  0  0  0  0
   10.6412   -3.5089   21.7936 C   0  0  0  0  0  0  0  0  0  0  0  0
   10.4972   -3.8968   24.1589 C   0  0  0  0  0  0  0  0  0  0  0  0
    5.9260   -8.2736   16.5517 C   0  0  0  0  0  0  0  0  0  0  0  0
    3.8816   -9.1166   17.2493 C   0  0  0  0  0  0  0  0  0  0  0  0
   10.1297   -1.6575   23.2324 C   0  0  0  0  0  0  0  0  0  0  0  0
    9.4684   -1.6929   26.7263 F   0  0  0  0  0  0  0  0  0  0  0  0
    7.7963   -7.7906   17.9837 C   0  0  0  0  0  0  0  0  0  0  0  0
   10.5884   -3.0725   16.7902 O   0  0  0  0  0  0  0  0  0  0  0  0
   10.4323   -5.3494   20.3516 C   0  0  0  0  0  0  0  0  0  0  0  0
    7.1156   -7.5454   16.8218 C   0  0  0  0  0  0  0  0  0  0  0  0
   10.3885   -4.4388   19.2773 C   0  0  0  0  0  0  0  0  0  0  0  0
    4.5160   -9.3822   15.0841 C   0  0  0  0  0  0  0  0  0  0  0  0
  1  3  4  0
  1 24  4  0
  2  6  4  0
  2 15  4  0
  3  5  4  0
  3  6  4  0
  4 21  4  0
  4 29  4  0
  5 15  4  0
  5 28  1  0
  6 16  4  0
  7 18  4  0
  7 26  4  0
  8 18  1  0
  8 19  4  0
  8 22  4  0
  9 12  4  0
  9 19  4  0
 10 12  4  0
 10 22  4  0
 11 20  4  0
 11 21  4  0
 12 23  1  0
 13 20  4  0
 13 29  4  0
 14 17  4  0
 14 28  4  0
 15 25  2  0
 16 27  4  0
 17 18  4  0
 20 27  1  0
 24 27  4  0
 26 28  4  0
M  END
$$$$

 Created by Python create_sdf_string function

 29 33  0  0  0  0  0  0  0  0999 V2000
    8.8270   -7.0288   18.4251 C   0  0  0  0  0  0  0  0  0  0  0  0
    9.1576   -4.6236   15.8860 O   0  0  0  0  0  0  0  0  0  0  0  0
    9.1509   -5.9108   17.7177 C   0  0  0  0  0  0  0  0  0  0  0  0
    3.6373   -9.5349   16.0582 N   0  0  0  0  0  0  0  0  0  0  0  0
    9.9275   -4.8001   18.0438 N   0  0  0  0  0  0  0  0  0  0  0  0
    8.5908   -5.7425   16.4412 C   0  0  0  0  0  0  0  0  0  0  0  0
   10.5993   -4.8981   21.6068 C   0  0  0  0  0  0  0  0  0  0  0  0
   10.4258   -3.0106   23.0998 C   0  0  0  0  0  0  0  0  0  0  0  0
   10.2148   -3.4364   25.4200 C   0  0  0  0  0  0  0  0  0  0  0  0
    9.7853   -1.1840   24.4927 C   0  0  0  0  0  0  0  0  0  0  0  0
    5.0276   -8.5227   17.5352 C   0  0  0  0  0  0  0  0  0  0  0  0
    9.8187   -2.0895   25.5800 C   0  0  0  0  0  0  0  0  0  0  0  0
    5.6473   -8.7216   15.3158 C   0  0  0  0  0  0  0  0  0  0  0  0
   10.7581   -3.1233   19.4720 N   0  0  0  0  0  0  0  0  0  0  0  0
    9.9571   -4.0573   16.8866 C   0  0  0  0  0  0  0  0  0  0  0  0
    7.6213   -6.5618   16.0087 C   0  0  0  0  0  0  0  0  0  0  0  0
   10.8583   -2.6527   20.7222 C   0  0  0  0  0  0  0  0  0  0  0  0
   10.6412   -3.5089   21.7936 C   0  0  0  0  0  0  0  0  0  0  0  0
   10.4972   -3.8968   24.1589 C   0  0  0  0  0  0  0  0  0  0  0  0
    5.9260   -8.2736   16.5517 C   0  0  0  0  0  0  0  0  0  0  0  0
    3.8816   -9.1166   17.2493 C   0  0  0  0  0  0  0  0  0  0  0  0
   10.1297   -1.6575   23.2324 C   0  0  0  0  0  0  0  0  0  0  0  0
    9.4684   -1.6929   26.7263 F   0  0  0  0  0  0  0  0  0  0  0  0
    7.7963   -7.7906   17.9837 C   0  0  0  0  0  0  0  0  0  0  0  0
   10.5884   -3.0725   16.7902 O   0  0  0  0  0  0  0  0  0  0  0  0
   10.4323   -5.3494   20.3516 C   0  0  0  0  0  0  0  0  0  0  0  0
    7.1156   -7.5454   16.8218 C   0  0  0  0  0  0  0  0  0  0  0  0
   10.3885   -4.4388   19.2773 C   0  0  0  0  0  0  0  0  0  0  0  0
    4.5160   -9.3822   15.0841 C   0  0  0  0  0  0  0  0  0  0  0  0
  1  3  4  0
  1 24  4  0
  2  6  4  0
  2 15  4  0
  3  5  4  0
  3  6  4  0
  4 21  4  0
  4 29  4  0
  5 15  4  0
  5 28  1  0
  6 16  4  0
  7 18  4  0
  7 26  4  0
  8 18  1  0
  8 19  4  0
  8 22  4  0
  9 12  4  0
  9 19  4  0
 10 12  4  0
 10 22  4  0
 11 20  4  0
 11 21  4  0
 12 23  1  0
 13 20  4  0
 13 29  4  0
 14 17  4  0
 14 28  4  0
 15 25  2  0
 16 27  4  0
 17 18  4  0
 20 27  1  0
 24 27  4  0
 26 28  4  0
M  END
$$$$

 Created by Python create_sdf_string function

 29 33  0  0  0  0  0  0  0  0999 V2000
    8.8270   -7.0288   18.4251 C   0  0  0  0  0  0  0  0  0  0  0  0
    9.1576   -4.6236   15.8860 O   0  0  0  0  0  0  0  0  0  0  0  0
    9.1509   -5.9108   17.7177 C   0  0  0  0  0  0  0  0  0  0  0  0
    3.6373   -9.5349   16.0582 N   0  0  0  0  0  0  0  0  0  0  0  0
    9.9275   -4.8001   18.0438 N   0  0  0  0  0  0  0  0  0  0  0  0
    8.5908   -5.7425   16.4412 C   0  0  0  0  0  0  0  0  0  0  0  0
   10.5993   -4.8981   21.6068 C   0  0  0  0  0  0  0  0  0  0  0  0
   10.4258   -3.0106   23.0998 C   0  0  0  0  0  0  0  0  0  0  0  0
   10.2148   -3.4364   25.4200 C   0  0  0  0  0  0  0  0  0  0  0  0
    9.7853   -1.1840   24.4927 C   0  0  0  0  0  0  0  0  0  0  0  0
    5.0276   -8.5227   17.5352 C   0  0  0  0  0  0  0  0  0  0  0  0
    9.8187   -2.0895   25.5800 C   0  0  0  0  0  0  0  0  0  0  0  0
    5.6473   -8.7216   15.3158 C   0  0  0  0  0  0  0  0  0  0  0  0
   10.7581   -3.1233   19.4720 N   0  0  0  0  0  0  0  0  0  0  0  0
    9.9571   -4.0573   16.8866 C   0  0  0  0  0  0  0  0  0  0  0  0
    7.6213   -6.5618   16.0087 C   0  0  0  0  0  0  0  0  0  0  0  0
   10.8583   -2.6527   20.7222 C   0  0  0  0  0  0  0  0  0  0  0  0
   10.6412   -3.5089   21.7936 C   0  0  0  0  0  0  0  0  0  0  0  0
   10.4972   -3.8968   24.1589 C   0  0  0  0  0  0  0  0  0  0  0  0
    5.9260   -8.2736   16.5517 C   0  0  0  0  0  0  0  0  0  0  0  0
    3.8816   -9.1166   17.2493 C   0  0  0  0  0  0  0  0  0  0  0  0
   10.1297   -1.6575   23.2324 C   0  0  0  0  0  0  0  0  0  0  0  0
    9.4684   -1.6929   26.7263 F   0  0  0  0  0  0  0  0  0  0  0  0
    7.7963   -7.7906   17.9837 C   0  0  0  0  0  0  0  0  0  0  0  0
   10.5884   -3.0725   16.7902 O   0  0  0  0  0  0  0  0  0  0  0  0
   10.4323   -5.3494   20.3516 C   0  0  0  0  0  0  0  0  0  0  0  0
    7.1156   -7.5454   16.8218 C   0  0  0  0  0  0  0  0  0  0  0  0
   10.3885   -4.4388   19.2773 C   0  0  0  0  0  0  0  0  0  0  0  0
    4.5160   -9.3822   15.0841 C   0  0  0  0  0  0  0  0  0  0  0  0
  1  3  4  0
  1 24  4  0
  2  6  4  0
  2 15  4  0
  3  5  4  0
  3  6  4  0
  4 21  4  0
  4 29  4  0
  5 15  4  0
  5 28  1  0
  6 16  4  0
  7 18  4  0
  7 26  4  0
  8 18  1  0
  8 19  4  0
  8 22  4  0
  9 12  4  0
  9 19  4  0
 10 12  4  0
 10 22  4  0
 11 20  4  0
 11 21  4  0
 12 23  1  0
 13 20  4  0
 13 29  4  0
 14 17  4  0
 14 28  4  0
 15 25  2  0
 16 27  4  0
 17 18  4  0
 20 27  1  0
 24 27  4  0
 26 28  4  0
M  END
$$$$

 Created by Python create_sdf_string function

 29 33  0  0  0  0  0  0  0  0999 V2000
    8.8270   -7.0288   18.4251 C   0  0  0  0  0  0  0  0  0  0  0  0
    9.1576   -4.6236   15.8860 O   0  0  0  0  0  0  0  0  0  0  0  0
    9.1509   -5.9108   17.7177 C   0  0  0  0  0  0  0  0  0  0  0  0
    3.6373   -9.5349   16.0582 N   0  0  0  0  0  0  0  0  0  0  0  0
    9.9275   -4.8001   18.0438 N   0  0  0  0  0  0  0  0  0  0  0  0
    8.5908   -5.7425   16.4412 C   0  0  0  0  0  0  0  0  0  0  0  0
   10.5993   -4.8981   21.6068 C   0  0  0  0  0  0  0  0  0  0  0  0
   10.4258   -3.0106   23.0998 C   0  0  0  0  0  0  0  0  0  0  0  0
   10.2148   -3.4364   25.4200 C   0  0  0  0  0  0  0  0  0  0  0  0
    9.7853   -1.1840   24.4927 C   0  0  0  0  0  0  0  0  0  0  0  0
    5.0276   -8.5227   17.5352 C   0  0  0  0  0  0  0  0  0  0  0  0
    9.8187   -2.0895   25.5800 C   0  0  0  0  0  0  0  0  0  0  0  0
    5.6473   -8.7216   15.3158 C   0  0  0  0  0  0  0  0  0  0  0  0
   10.7581   -3.1233   19.4720 N   0  0  0  0  0  0  0  0  0  0  0  0
    9.9571   -4.0573   16.8866 C   0  0  0  0  0  0  0  0  0  0  0  0
    7.6213   -6.5618   16.0087 C   0  0  0  0  0  0  0  0  0  0  0  0
   10.8583   -2.6527   20.7222 C   0  0  0  0  0  0  0  0  0  0  0  0
   10.6412   -3.5089   21.7936 C   0  0  0  0  0  0  0  0  0  0  0  0
   10.4972   -3.8968   24.1589 C   0  0  0  0  0  0  0  0  0  0  0  0
    5.9260   -8.2736   16.5517 C   0  0  0  0  0  0  0  0  0  0  0  0
    3.8816   -9.1166   17.2493 C   0  0  0  0  0  0  0  0  0  0  0  0
   10.1297   -1.6575   23.2324 C   0  0  0  0  0  0  0  0  0  0  0  0
    9.4684   -1.6929   26.7263 F   0  0  0  0  0  0  0  0  0  0  0  0
    7.7963   -7.7906   17.9837 C   0  0  0  0  0  0  0  0  0  0  0  0
   10.5884   -3.0725   16.7902 O   0  0  0  0  0  0  0  0  0  0  0  0
   10.4323   -5.3494   20.3516 C   0  0  0  0  0  0  0  0  0  0  0  0
    7.1156   -7.5454   16.8218 C   0  0  0  0  0  0  0  0  0  0  0  0
   10.3885   -4.4388   19.2773 C   0  0  0  0  0  0  0  0  0  0  0  0
    4.5160   -9.3822   15.0841 C   0  0  0  0  0  0  0  0  0  0  0  0
  1  3  4  0
  1 24  4  0
  2  6  4  0
  2 15  4  0
  3  5  4  0
  3  6  4  0
  4 21  4  0
  4 29  4  0
  5 15  4  0
  5 28  1  0
  6 16  4  0
  7 18  4  0
  7 26  4  0
  8 18  1  0
  8 19  4  0
  8 22  4  0
  9 12  4  0
  9 19  4  0
 10 12  4  0
 10 22  4  0
 11 20  4  0
 11 21  4  0
 12 23  1  0
 13 20  4  0
 13 29  4  0
 14 17  4  0
 14 28  4  0
 15 25  2  0
 16 27  4  0
 17 18  4  0
 20 27  1  0
 24 27  4  0
 26 28  4  0
M  END
$$$$

 Created by Python create_sdf_string function

 29 33  0  0  0  0  0  0  0  0999 V2000
    8.8270   -7.0288   18.4251 C   0  0  0  0  0  0  0  0  0  0  0  0
    9.1576   -4.6236   15.8860 O   0  0  0  0  0  0  0  0  0  0  0  0
    9.1509   -5.9108   17.7177 C   0  0  0  0  0  0  0  0  0  0  0  0
    3.6373   -9.5349   16.0582 N   0  0  0  0  0  0  0  0  0  0  0  0
    9.9275   -4.8001   18.0438 N   0  0  0  0  0  0  0  0  0  0  0  0
    8.5908   -5.7425   16.4412 C   0  0  0  0  0  0  0  0  0  0  0  0
   10.5993   -4.8981   21.6068 C   0  0  0  0  0  0  0  0  0  0  0  0
   10.4258   -3.0106   23.0998 C   0  0  0  0  0  0  0  0  0  0  0  0
   10.2148   -3.4364   25.4200 C   0  0  0  0  0  0  0  0  0  0  0  0
    9.7853   -1.1840   24.4927 C   0  0  0  0  0  0  0  0  0  0  0  0
    5.0276   -8.5227   17.5352 C   0  0  0  0  0  0  0  0  0  0  0  0
    9.8187   -2.0895   25.5800 C   0  0  0  0  0  0  0  0  0  0  0  0
    5.6473   -8.7216   15.3158 C   0  0  0  0  0  0  0  0  0  0  0  0
   10.7581   -3.1233   19.4720 N   0  0  0  0  0  0  0  0  0  0  0  0
    9.9571   -4.0573   16.8866 C   0  0  0  0  0  0  0  0  0  0  0  0
    7.6213   -6.5618   16.0087 C   0  0  0  0  0  0  0  0  0  0  0  0
   10.8583   -2.6527   20.7222 C   0  0  0  0  0  0  0  0  0  0  0  0
   10.6412   -3.5089   21.7936 C   0  0  0  0  0  0  0  0  0  0  0  0
   10.4972   -3.8968   24.1589 C   0  0  0  0  0  0  0  0  0  0  0  0
    5.9260   -8.2736   16.5517 C   0  0  0  0  0  0  0  0  0  0  0  0
    3.8816   -9.1166   17.2493 C   0  0  0  0  0  0  0  0  0  0  0  0
   10.1297   -1.6575   23.2324 C   0  0  0  0  0  0  0  0  0  0  0  0
    9.4684   -1.6929   26.7263 F   0  0  0  0  0  0  0  0  0  0  0  0
    7.7963   -7.7906   17.9837 C   0  0  0  0  0  0  0  0  0  0  0  0
   10.5884   -3.0725   16.7902 O   0  0  0  0  0  0  0  0  0  0  0  0
   10.4323   -5.3494   20.3516 C   0  0  0  0  0  0  0  0  0  0  0  0
    7.1156   -7.5454   16.8218 C   0  0  0  0  0  0  0  0  0  0  0  0
   10.3885   -4.4388   19.2773 C   0  0  0  0  0  0  0  0  0  0  0  0
    4.5160   -9.3822   15.0841 C   0  0  0  0  0  0  0  0  0  0  0  0
  1  3  4  0
  1 24  4  0
  2  6  4  0
  2 15  4  0
  3  5  4  0
  3  6  4  0
  4 21  4  0
  4 29  4  0
  5 15  4  0
  5 28  1  0
  6 16  4  0
  7 18  4  0
  7 26  4  0
  8 18  1  0
  8 19  4  0
  8 22  4  0
  9 12  4  0
  9 19  4  0
 10 12  4  0
 10 22  4  0
 11 20  4  0
 11 21  4  0
 12 23  1  0
 13 20  4  0
 13 29  4  0
 14 17  4  0
 14 28  4  0
 15 25  2  0
 16 27  4  0
 17 18  4  0
 20 27  1  0
 24 27  4  0
 26 28  4  0
M  END
$$$$

 Created by Python create_sdf_string function

 29 33  0  0  0  0  0  0  0  0999 V2000
    8.8270   -7.0288   18.4251 C   0  0  0  0  0  0  0  0  0  0  0  0
    9.1576   -4.6236   15.8860 O   0  0  0  0  0  0  0  0  0  0  0  0
    9.1509   -5.9108   17.7177 C   0  0  0  0  0  0  0  0  0  0  0  0
    3.6373   -9.5349   16.0582 N   0  0  0  0  0  0  0  0  0  0  0  0
    9.9275   -4.8001   18.0438 N   0  0  0  0  0  0  0  0  0  0  0  0
    8.5908   -5.7425   16.4412 C   0  0  0  0  0  0  0  0  0  0  0  0
   10.5993   -4.8981   21.6068 C   0  0  0  0  0  0  0  0  0  0  0  0
   10.4258   -3.0106   23.0998 C   0  0  0  0  0  0  0  0  0  0  0  0
   10.2148   -3.4364   25.4200 C   0  0  0  0  0  0  0  0  0  0  0  0
    9.7853   -1.1840   24.4927 C   0  0  0  0  0  0  0  0  0  0  0  0
    5.0276   -8.5227   17.5352 C   0  0  0  0  0  0  0  0  0  0  0  0
    9.8187   -2.0895   25.5800 C   0  0  0  0  0  0  0  0  0  0  0  0
    5.6473   -8.7216   15.3158 C   0  0  0  0  0  0  0  0  0  0  0  0
   10.7581   -3.1233   19.4720 N   0  0  0  0  0  0  0  0  0  0  0  0
    9.9571   -4.0573   16.8866 C   0  0  0  0  0  0  0  0  0  0  0  0
    7.6213   -6.5618   16.0087 C   0  0  0  0  0  0  0  0  0  0  0  0
   10.8583   -2.6527   20.7222 C   0  0  0  0  0  0  0  0  0  0  0  0
   10.6412   -3.5089   21.7936 C   0  0  0  0  0  0  0  0  0  0  0  0
   10.4972   -3.8968   24.1589 C   0  0  0  0  0  0  0  0  0  0  0  0
    5.9260   -8.2736   16.5517 C   0  0  0  0  0  0  0  0  0  0  0  0
    3.8816   -9.1166   17.2493 C   0  0  0  0  0  0  0  0  0  0  0  0
   10.1297   -1.6575   23.2324 C   0  0  0  0  0  0  0  0  0  0  0  0
    9.4684   -1.6929   26.7263 F   0  0  0  0  0  0  0  0  0  0  0  0
    7.7963   -7.7906   17.9837 C   0  0  0  0  0  0  0  0  0  0  0  0
   10.5884   -3.0725   16.7902 O   0  0  0  0  0  0  0  0  0  0  0  0
   10.4323   -5.3494   20.3516 C   0  0  0  0  0  0  0  0  0  0  0  0
    7.1156   -7.5454   16.8218 C   0  0  0  0  0  0  0  0  0  0  0  0
   10.3885   -4.4388   19.2773 C   0  0  0  0  0  0  0  0  0  0  0  0
    4.5160   -9.3822   15.0841 C   0  0  0  0  0  0  0  0  0  0  0  0
  1  3  4  0
  1 24  4  0
  2  6  4  0
  2 15  4  0
  3  5  4  0
  3  6  4  0
  4 21  4  0
  4 29  4  0
  5 15  4  0
  5 28  1  0
  6 16  4  0
  7 18  4  0
  7 26  4  0
  8 18  1  0
  8 19  4  0
  8 22  4  0
  9 12  4  0
  9 19  4  0
 10 12  4  0
 10 22  4  0
 11 20  4  0
 11 21  4  0
 12 23  1  0
 13 20  4  0
 13 29  4  0
 14 17  4  0
 14 28  4  0
 15 25  2  0
 16 27  4  0
 17 18  4  0
 20 27  1  0
 24 27  4  0
 26 28  4  0
M  END
$$$$

 Created by Python create_sdf_string function

 29 33  0  0  0  0  0  0  0  0999 V2000
    8.8270   -7.0288   18.4251 C   0  0  0  0  0  0  0  0  0  0  0  0
    9.1576   -4.6236   15.8860 O   0  0  0  0  0  0  0  0  0  0  0  0
    9.1509   -5.9108   17.7177 C   0  0  0  0  0  0  0  0  0  0  0  0
    3.6373   -9.5349   16.0582 N   0  0  0  0  0  0  0  0  0  0  0  0
    9.9275   -4.8001   18.0438 N   0  0  0  0  0  0  0  0  0  0  0  0
    8.5908   -5.7425   16.4412 C   0  0  0  0  0  0  0  0  0  0  0  0
   10.5993   -4.8981   21.6068 C   0  0  0  0  0  0  0  0  0  0  0  0
   10.4258   -3.0106   23.0998 C   0  0  0  0  0  0  0  0  0  0  0  0
   10.2148   -3.4364   25.4200 C   0  0  0  0  0  0  0  0  0  0  0  0
    9.7853   -1.1840   24.4927 C   0  0  0  0  0  0  0  0  0  0  0  0
    5.0276   -8.5227   17.5352 C   0  0  0  0  0  0  0  0  0  0  0  0
    9.8187   -2.0895   25.5800 C   0  0  0  0  0  0  0  0  0  0  0  0
    5.6473   -8.7216   15.3158 C   0  0  0  0  0  0  0  0  0  0  0  0
   10.7581   -3.1233   19.4720 N   0  0  0  0  0  0  0  0  0  0  0  0
    9.9571   -4.0573   16.8866 C   0  0  0  0  0  0  0  0  0  0  0  0
    7.6213   -6.5618   16.0087 C   0  0  0  0  0  0  0  0  0  0  0  0
   10.8583   -2.6527   20.7222 C   0  0  0  0  0  0  0  0  0  0  0  0
   10.6412   -3.5089   21.7936 C   0  0  0  0  0  0  0  0  0  0  0  0
   10.4972   -3.8968   24.1589 C   0  0  0  0  0  0  0  0  0  0  0  0
    5.9260   -8.2736   16.5517 C   0  0  0  0  0  0  0  0  0  0  0  0
    3.8816   -9.1166   17.2493 C   0  0  0  0  0  0  0  0  0  0  0  0
   10.1297   -1.6575   23.2324 C   0  0  0  0  0  0  0  0  0  0  0  0
    9.4684   -1.6929   26.7263 F   0  0  0  0  0  0  0  0  0  0  0  0
    7.7963   -7.7906   17.9837 C   0  0  0  0  0  0  0  0  0  0  0  0
   10.5884   -3.0725   16.7902 O   0  0  0  0  0  0  0  0  0  0  0  0
   10.4323   -5.3494   20.3516 C   0  0  0  0  0  0  0  0  0  0  0  0
    7.1156   -7.5454   16.8218 C   0  0  0  0  0  0  0  0  0  0  0  0
   10.3885   -4.4388   19.2773 C   0  0  0  0  0  0  0  0  0  0  0  0
    4.5160   -9.3822   15.0841 C   0  0  0  0  0  0  0  0  0  0  0  0
  1  3  4  0
  1 24  4  0
  2  6  4  0
  2 15  4  0
  3  5  4  0
  3  6  4  0
  4 21  4  0
  4 29  4  0
  5 15  4  0
  5 28  1  0
  6 16  4  0
  7 18  4  0
  7 26  4  0
  8 18  1  0
  8 19  4  0
  8 22  4  0
  9 12  4  0
  9 19  4  0
 10 12  4  0
 10 22  4  0
 11 20  4  0
 11 21  4  0
 12 23  1  0
 13 20  4  0
 13 29  4  0
 14 17  4  0
 14 28  4  0
 15 25  2  0
 16 27  4  0
 17 18  4  0
 20 27  1  0
 24 27  4  0
 26 28  4  0
M  END
$$$$

 Created by Python create_sdf_string function

 29 33  0  0  0  0  0  0  0  0999 V2000
    8.8270   -7.0288   18.4251 C   0  0  0  0  0  0  0  0  0  0  0  0
    9.1576   -4.6236   15.8860 O   0  0  0  0  0  0  0  0  0  0  0  0
    9.1509   -5.9108   17.7177 C   0  0  0  0  0  0  0  0  0  0  0  0
    3.6373   -9.5349   16.0582 N   0  0  0  0  0  0  0  0  0  0  0  0
    9.9275   -4.8001   18.0438 N   0  0  0  0  0  0  0  0  0  0  0  0
    8.5908   -5.7425   16.4412 C   0  0  0  0  0  0  0  0  0  0  0  0
   10.5993   -4.8981   21.6068 C   0  0  0  0  0  0  0  0  0  0  0  0
   10.4258   -3.0106   23.0998 C   0  0  0  0  0  0  0  0  0  0  0  0
   10.2148   -3.4364   25.4200 C   0  0  0  0  0  0  0  0  0  0  0  0
    9.7853   -1.1840   24.4927 C   0  0  0  0  0  0  0  0  0  0  0  0
    5.0276   -8.5227   17.5352 C   0  0  0  0  0  0  0  0  0  0  0  0
    9.8187   -2.0895   25.5800 C   0  0  0  0  0  0  0  0  0  0  0  0
    5.6473   -8.7216   15.3158 C   0  0  0  0  0  0  0  0  0  0  0  0
   10.7581   -3.1233   19.4720 N   0  0  0  0  0  0  0  0  0  0  0  0
    9.9571   -4.0573   16.8866 C   0  0  0  0  0  0  0  0  0  0  0  0
    7.6213   -6.5618   16.0087 C   0  0  0  0  0  0  0  0  0  0  0  0
   10.8583   -2.6527   20.7222 C   0  0  0  0  0  0  0  0  0  0  0  0
   10.6412   -3.5089   21.7936 C   0  0  0  0  0  0  0  0  0  0  0  0
   10.4972   -3.8968   24.1589 C   0  0  0  0  0  0  0  0  0  0  0  0
    5.9260   -8.2736   16.5517 C   0  0  0  0  0  0  0  0  0  0  0  0
    3.8816   -9.1166   17.2493 C   0  0  0  0  0  0  0  0  0  0  0  0
   10.1297   -1.6575   23.2324 C   0  0  0  0  0  0  0  0  0  0  0  0
    9.4684   -1.6929   26.7263 F   0  0  0  0  0  0  0  0  0  0  0  0
    7.7963   -7.7906   17.9837 C   0  0  0  0  0  0  0  0  0  0  0  0
   10.5884   -3.0725   16.7902 O   0  0  0  0  0  0  0  0  0  0  0  0
   10.4323   -5.3494   20.3516 C   0  0  0  0  0  0  0  0  0  0  0  0
    7.1156   -7.5454   16.8218 C   0  0  0  0  0  0  0  0  0  0  0  0
   10.3885   -4.4388   19.2773 C   0  0  0  0  0  0  0  0  0  0  0  0
    4.5160   -9.3822   15.0841 C   0  0  0  0  0  0  0  0  0  0  0  0
  1  3  4  0
  1 24  4  0
  2  6  4  0
  2 15  4  0
  3  5  4  0
  3  6  4  0
  4 21  4  0
  4 29  4  0
  5 15  4  0
  5 28  1  0
  6 16  4  0
  7 18  4  0
  7 26  4  0
  8 18  1  0
  8 19  4  0
  8 22  4  0
  9 12  4  0
  9 19  4  0
 10 12  4  0
 10 22  4  0
 11 20  4  0
 11 21  4  0
 12 23  1  0
 13 20  4  0
 13 29  4  0
 14 17  4  0
 14 28  4  0
 15 25  2  0
 16 27  4  0
 17 18  4  0
 20 27  1  0
 24 27  4  0
 26 28  4  0
M  END
$$$$

 Created by Python create_sdf_string function

 29 33  0  0  0  0  0  0  0  0999 V2000
    8.8270   -7.0288   18.4251 C   0  0  0  0  0  0  0  0  0  0  0  0
    9.1576   -4.6236   15.8860 O   0  0  0  0  0  0  0  0  0  0  0  0
    9.1509   -5.9108   17.7177 C   0  0  0  0  0  0  0  0  0  0  0  0
    3.6373   -9.5349   16.0582 N   0  0  0  0  0  0  0  0  0  0  0  0
    9.9275   -4.8001   18.0438 N   0  0  0  0  0  0  0  0  0  0  0  0
    8.5908   -5.7425   16.4412 C   0  0  0  0  0  0  0  0  0  0  0  0
   10.5993   -4.8981   21.6068 C   0  0  0  0  0  0  0  0  0  0  0  0
   10.4258   -3.0106   23.0998 C   0  0  0  0  0  0  0  0  0  0  0  0
   10.2148   -3.4364   25.4200 C   0  0  0  0  0  0  0  0  0  0  0  0
    9.7853   -1.1840   24.4927 C   0  0  0  0  0  0  0  0  0  0  0  0
    5.0276   -8.5227   17.5352 C   0  0  0  0  0  0  0  0  0  0  0  0
    9.8187   -2.0895   25.5800 C   0  0  0  0  0  0  0  0  0  0  0  0
    5.6473   -8.7216   15.3158 C   0  0  0  0  0  0  0  0  0  0  0  0
   10.7581   -3.1233   19.4720 N   0  0  0  0  0  0  0  0  0  0  0  0
    9.9571   -4.0573   16.8866 C   0  0  0  0  0  0  0  0  0  0  0  0
    7.6213   -6.5618   16.0087 C   0  0  0  0  0  0  0  0  0  0  0  0
   10.8583   -2.6527   20.7222 C   0  0  0  0  0  0  0  0  0  0  0  0
   10.6412   -3.5089   21.7936 C   0  0  0  0  0  0  0  0  0  0  0  0
   10.4972   -3.8968   24.1589 C   0  0  0  0  0  0  0  0  0  0  0  0
    5.9260   -8.2736   16.5517 C   0  0  0  0  0  0  0  0  0  0  0  0
    3.8816   -9.1166   17.2493 C   0  0  0  0  0  0  0  0  0  0  0  0
   10.1297   -1.6575   23.2324 C   0  0  0  0  0  0  0  0  0  0  0  0
    9.4684   -1.6929   26.7263 F   0  0  0  0  0  0  0  0  0  0  0  0
    7.7963   -7.7906   17.9837 C   0  0  0  0  0  0  0  0  0  0  0  0
   10.5884   -3.0725   16.7902 O   0  0  0  0  0  0  0  0  0  0  0  0
   10.4323   -5.3494   20.3516 C   0  0  0  0  0  0  0  0  0  0  0  0
    7.1156   -7.5454   16.8218 C   0  0  0  0  0  0  0  0  0  0  0  0
   10.3885   -4.4388   19.2773 C   0  0  0  0  0  0  0  0  0  0  0  0
    4.5160   -9.3822   15.0841 C   0  0  0  0  0  0  0  0  0  0  0  0
  1  3  4  0
  1 24  4  0
  2  6  4  0
  2 15  4  0
  3  5  4  0
  3  6  4  0
  4 21  4  0
  4 29  4  0
  5 15  4  0
  5 28  1  0
  6 16  4  0
  7 18  4  0
  7 26  4  0
  8 18  1  0
  8 19  4  0
  8 22  4  0
  9 12  4  0
  9 19  4  0
 10 12  4  0
 10 22  4  0
 11 20  4  0
 11 21  4  0
 12 23  1  0
 13 20  4  0
 13 29  4  0
 14 17  4  0
 14 28  4  0
 15 25  2  0
 16 27  4  0
 17 18  4  0
 20 27  1  0
 24 27  4  0
 26 28  4  0
M  END
$$$$

 Created by Python create_sdf_string function

 29 33  0  0  0  0  0  0  0  0999 V2000
    8.8270   -7.0288   18.4251 C   0  0  0  0  0  0  0  0  0  0  0  0
    9.1576   -4.6236   15.8860 O   0  0  0  0  0  0  0  0  0  0  0  0
    9.1509   -5.9108   17.7177 C   0  0  0  0  0  0  0  0  0  0  0  0
    3.6373   -9.5349   16.0582 N   0  0  0  0  0  0  0  0  0  0  0  0
    9.9275   -4.8001   18.0438 N   0  0  0  0  0  0  0  0  0  0  0  0
    8.5908   -5.7425   16.4412 C   0  0  0  0  0  0  0  0  0  0  0  0
   10.5993   -4.8981   21.6068 C   0  0  0  0  0  0  0  0  0  0  0  0
   10.4258   -3.0106   23.0998 C   0  0  0  0  0  0  0  0  0  0  0  0
   10.2148   -3.4364   25.4200 C   0  0  0  0  0  0  0  0  0  0  0  0
    9.7853   -1.1840   24.4927 C   0  0  0  0  0  0  0  0  0  0  0  0
    5.0276   -8.5227   17.5352 C   0  0  0  0  0  0  0  0  0  0  0  0
    9.8187   -2.0895   25.5800 C   0  0  0  0  0  0  0  0  0  0  0  0
    5.6473   -8.7216   15.3158 C   0  0  0  0  0  0  0  0  0  0  0  0
   10.7581   -3.1233   19.4720 N   0  0  0  0  0  0  0  0  0  0  0  0
    9.9571   -4.0573   16.8866 C   0  0  0  0  0  0  0  0  0  0  0  0
    7.6213   -6.5618   16.0087 C   0  0  0  0  0  0  0  0  0  0  0  0
   10.8583   -2.6527   20.7222 C   0  0  0  0  0  0  0  0  0  0  0  0
   10.6412   -3.5089   21.7936 C   0  0  0  0  0  0  0  0  0  0  0  0
   10.4972   -3.8968   24.1589 C   0  0  0  0  0  0  0  0  0  0  0  0
    5.9260   -8.2736   16.5517 C   0  0  0  0  0  0  0  0  0  0  0  0
    3.8816   -9.1166   17.2493 C   0  0  0  0  0  0  0  0  0  0  0  0
   10.1297   -1.6575   23.2324 C   0  0  0  0  0  0  0  0  0  0  0  0
    9.4684   -1.6929   26.7263 F   0  0  0  0  0  0  0  0  0  0  0  0
    7.7963   -7.7906   17.9837 C   0  0  0  0  0  0  0  0  0  0  0  0
   10.5884   -3.0725   16.7902 O   0  0  0  0  0  0  0  0  0  0  0  0
   10.4323   -5.3494   20.3516 C   0  0  0  0  0  0  0  0  0  0  0  0
    7.1156   -7.5454   16.8218 C   0  0  0  0  0  0  0  0  0  0  0  0
   10.3885   -4.4388   19.2773 C   0  0  0  0  0  0  0  0  0  0  0  0
    4.5160   -9.3822   15.0841 C   0  0  0  0  0  0  0  0  0  0  0  0
  1  3  4  0
  1 24  4  0
  2  6  4  0
  2 15  4  0
  3  5  4  0
  3  6  4  0
  4 21  4  0
  4 29  4  0
  5 15  4  0
  5 28  1  0
  6 16  4  0
  7 18  4  0
  7 26  4  0
  8 18  1  0
  8 19  4  0
  8 22  4  0
  9 12  4  0
  9 19  4  0
 10 12  4  0
 10 22  4  0
 11 20  4  0
 11 21  4  0
 12 23  1  0
 13 20  4  0
 13 29  4  0
 14 17  4  0
 14 28  4  0
 15 25  2  0
 16 27  4  0
 17 18  4  0
 20 27  1  0
 24 27  4  0
 26 28  4  0
M  END
$$$$

 Created by Python create_sdf_string function

 29 33  0  0  0  0  0  0  0  0999 V2000
    8.8270   -7.0288   18.4251 C   0  0  0  0  0  0  0  0  0  0  0  0
    9.1576   -4.6236   15.8860 O   0  0  0  0  0  0  0  0  0  0  0  0
    9.1509   -5.9108   17.7177 C   0  0  0  0  0  0  0  0  0  0  0  0
    3.6373   -9.5349   16.0582 N   0  0  0  0  0  0  0  0  0  0  0  0
    9.9275   -4.8001   18.0438 N   0  0  0  0  0  0  0  0  0  0  0  0
    8.5908   -5.7425   16.4412 C   0  0  0  0  0  0  0  0  0  0  0  0
   10.5993   -4.8981   21.6068 C   0  0  0  0  0  0  0  0  0  0  0  0
   10.4258   -3.0106   23.0998 C   0  0  0  0  0  0  0  0  0  0  0  0
   10.2148   -3.4364   25.4200 C   0  0  0  0  0  0  0  0  0  0  0  0
    9.7853   -1.1840   24.4927 C   0  0  0  0  0  0  0  0  0  0  0  0
    5.0276   -8.5227   17.5352 C   0  0  0  0  0  0  0  0  0  0  0  0
    9.8187   -2.0895   25.5800 C   0  0  0  0  0  0  0  0  0  0  0  0
    5.6473   -8.7216   15.3158 C   0  0  0  0  0  0  0  0  0  0  0  0
   10.7581   -3.1233   19.4720 N   0  0  0  0  0  0  0  0  0  0  0  0
    9.9571   -4.0573   16.8866 C   0  0  0  0  0  0  0  0  0  0  0  0
    7.6213   -6.5618   16.0087 C   0  0  0  0  0  0  0  0  0  0  0  0
   10.8583   -2.6527   20.7222 C   0  0  0  0  0  0  0  0  0  0  0  0
   10.6412   -3.5089   21.7936 C   0  0  0  0  0  0  0  0  0  0  0  0
   10.4972   -3.8968   24.1589 C   0  0  0  0  0  0  0  0  0  0  0  0
    5.9260   -8.2736   16.5517 C   0  0  0  0  0  0  0  0  0  0  0  0
    3.8816   -9.1166   17.2493 C   0  0  0  0  0  0  0  0  0  0  0  0
   10.1297   -1.6575   23.2324 C   0  0  0  0  0  0  0  0  0  0  0  0
    9.4684   -1.6929   26.7263 F   0  0  0  0  0  0  0  0  0  0  0  0
    7.7963   -7.7906   17.9837 C   0  0  0  0  0  0  0  0  0  0  0  0
   10.5884   -3.0725   16.7902 O   0  0  0  0  0  0  0  0  0  0  0  0
   10.4323   -5.3494   20.3516 C   0  0  0  0  0  0  0  0  0  0  0  0
    7.1156   -7.5454   16.8218 C   0  0  0  0  0  0  0  0  0  0  0  0
   10.3885   -4.4388   19.2773 C   0  0  0  0  0  0  0  0  0  0  0  0
    4.5160   -9.3822   15.0841 C   0  0  0  0  0  0  0  0  0  0  0  0
  1  3  4  0
  1 24  4  0
  2  6  4  0
  2 15  4  0
  3  5  4  0
  3  6  4  0
  4 21  4  0
  4 29  4  0
  5 15  4  0
  5 28  1  0
  6 16  4  0
  7 18  4  0
  7 26  4  0
  8 18  1  0
  8 19  4  0
  8 22  4  0
  9 12  4  0
  9 19  4  0
 10 12  4  0
 10 22  4  0
 11 20  4  0
 11 21  4  0
 12 23  1  0
 13 20  4  0
 13 29  4  0
 14 17  4  0
 14 28  4  0
 15 25  2  0
 16 27  4  0
 17 18  4  0
 20 27  1  0
 24 27  4  0
 26 28  4  0
M  END
$$$$

 Created by Python create_sdf_string function

 29 33  0  0  0  0  0  0  0  0999 V2000
    8.8270   -7.0288   18.4251 C   0  0  0  0  0  0  0  0  0  0  0  0
    9.1576   -4.6236   15.8860 O   0  0  0  0  0  0  0  0  0  0  0  0
    9.1509   -5.9108   17.7177 C   0  0  0  0  0  0  0  0  0  0  0  0
    3.6373   -9.5349   16.0582 N   0  0  0  0  0  0  0  0  0  0  0  0
    9.9275   -4.8001   18.0438 N   0  0  0  0  0  0  0  0  0  0  0  0
    8.5908   -5.7425   16.4412 C   0  0  0  0  0  0  0  0  0  0  0  0
   10.5993   -4.8981   21.6068 C   0  0  0  0  0  0  0  0  0  0  0  0
   10.4258   -3.0106   23.0998 C   0  0  0  0  0  0  0  0  0  0  0  0
   10.2148   -3.4364   25.4200 C   0  0  0  0  0  0  0  0  0  0  0  0
    9.7853   -1.1840   24.4927 C   0  0  0  0  0  0  0  0  0  0  0  0
    5.0276   -8.5227   17.5352 C   0  0  0  0  0  0  0  0  0  0  0  0
    9.8187   -2.0895   25.5800 C   0  0  0  0  0  0  0  0  0  0  0  0
    5.6473   -8.7216   15.3158 C   0  0  0  0  0  0  0  0  0  0  0  0
   10.7581   -3.1233   19.4720 N   0  0  0  0  0  0  0  0  0  0  0  0
    9.9571   -4.0573   16.8866 C   0  0  0  0  0  0  0  0  0  0  0  0
    7.6213   -6.5618   16.0087 C   0  0  0  0  0  0  0  0  0  0  0  0
   10.8583   -2.6527   20.7222 C   0  0  0  0  0  0  0  0  0  0  0  0
   10.6412   -3.5089   21.7936 C   0  0  0  0  0  0  0  0  0  0  0  0
   10.4972   -3.8968   24.1589 C   0  0  0  0  0  0  0  0  0  0  0  0
    5.9260   -8.2736   16.5517 C   0  0  0  0  0  0  0  0  0  0  0  0
    3.8816   -9.1166   17.2493 C   0  0  0  0  0  0  0  0  0  0  0  0
   10.1297   -1.6575   23.2324 C   0  0  0  0  0  0  0  0  0  0  0  0
    9.4684   -1.6929   26.7263 F   0  0  0  0  0  0  0  0  0  0  0  0
    7.7963   -7.7906   17.9837 C   0  0  0  0  0  0  0  0  0  0  0  0
   10.5884   -3.0725   16.7902 O   0  0  0  0  0  0  0  0  0  0  0  0
   10.4323   -5.3494   20.3516 C   0  0  0  0  0  0  0  0  0  0  0  0
    7.1156   -7.5454   16.8218 C   0  0  0  0  0  0  0  0  0  0  0  0
   10.3885   -4.4388   19.2773 C   0  0  0  0  0  0  0  0  0  0  0  0
    4.5160   -9.3822   15.0841 C   0  0  0  0  0  0  0  0  0  0  0  0
  1  3  4  0
  1 24  4  0
  2  6  4  0
  2 15  4  0
  3  5  4  0
  3  6  4  0
  4 21  4  0
  4 29  4  0
  5 15  4  0
  5 28  1  0
  6 16  4  0
  7 18  4  0
  7 26  4  0
  8 18  1  0
  8 19  4  0
  8 22  4  0
  9 12  4  0
  9 19  4  0
 10 12  4  0
 10 22  4  0
 11 20  4  0
 11 21  4  0
 12 23  1  0
 13 20  4  0
 13 29  4  0
 14 17  4  0
 14 28  4  0
 15 25  2  0
 16 27  4  0
 17 18  4  0
 20 27  1  0
 24 27  4  0
 26 28  4  0
M  END
$$$$

 Created by Python create_sdf_string function

 29 33  0  0  0  0  0  0  0  0999 V2000
    8.8270   -7.0288   18.4251 C   0  0  0  0  0  0  0  0  0  0  0  0
    9.1576   -4.6236   15.8860 O   0  0  0  0  0  0  0  0  0  0  0  0
    9.1509   -5.9108   17.7177 C   0  0  0  0  0  0  0  0  0  0  0  0
    3.6373   -9.5349   16.0582 N   0  0  0  0  0  0  0  0  0  0  0  0
    9.9275   -4.8001   18.0438 N   0  0  0  0  0  0  0  0  0  0  0  0
    8.5908   -5.7425   16.4412 C   0  0  0  0  0  0  0  0  0  0  0  0
   10.5993   -4.8981   21.6068 C   0  0  0  0  0  0  0  0  0  0  0  0
   10.4258   -3.0106   23.0998 C   0  0  0  0  0  0  0  0  0  0  0  0
   10.2148   -3.4364   25.4200 C   0  0  0  0  0  0  0  0  0  0  0  0
    9.7853   -1.1840   24.4927 C   0  0  0  0  0  0  0  0  0  0  0  0
    5.0276   -8.5227   17.5352 C   0  0  0  0  0  0  0  0  0  0  0  0
    9.8187   -2.0895   25.5800 C   0  0  0  0  0  0  0  0  0  0  0  0
    5.6473   -8.7216   15.3158 C   0  0  0  0  0  0  0  0  0  0  0  0
   10.7581   -3.1233   19.4720 N   0  0  0  0  0  0  0  0  0  0  0  0
    9.9571   -4.0573   16.8866 C   0  0  0  0  0  0  0  0  0  0  0  0
    7.6213   -6.5618   16.0087 C   0  0  0  0  0  0  0  0  0  0  0  0
   10.8583   -2.6527   20.7222 C   0  0  0  0  0  0  0  0  0  0  0  0
   10.6412   -3.5089   21.7936 C   0  0  0  0  0  0  0  0  0  0  0  0
   10.4972   -3.8968   24.1589 C   0  0  0  0  0  0  0  0  0  0  0  0
    5.9260   -8.2736   16.5517 C   0  0  0  0  0  0  0  0  0  0  0  0
    3.8816   -9.1166   17.2493 C   0  0  0  0  0  0  0  0  0  0  0  0
   10.1297   -1.6575   23.2324 C   0  0  0  0  0  0  0  0  0  0  0  0
    9.4684   -1.6929   26.7263 F   0  0  0  0  0  0  0  0  0  0  0  0
    7.7963   -7.7906   17.9837 C   0  0  0  0  0  0  0  0  0  0  0  0
   10.5884   -3.0725   16.7902 O   0  0  0  0  0  0  0  0  0  0  0  0
   10.4323   -5.3494   20.3516 C   0  0  0  0  0  0  0  0  0  0  0  0
    7.1156   -7.5454   16.8218 C   0  0  0  0  0  0  0  0  0  0  0  0
   10.3885   -4.4388   19.2773 C   0  0  0  0  0  0  0  0  0  0  0  0
    4.5160   -9.3822   15.0841 C   0  0  0  0  0  0  0  0  0  0  0  0
  1  3  4  0
  1 24  4  0
  2  6  4  0
  2 15  4  0
  3  5  4  0
  3  6  4  0
  4 21  4  0
  4 29  4  0
  5 15  4  0
  5 28  1  0
  6 16  4  0
  7 18  4  0
  7 26  4  0
  8 18  1  0
  8 19  4  0
  8 22  4  0
  9 12  4  0
  9 19  4  0
 10 12  4  0
 10 22  4  0
 11 20  4  0
 11 21  4  0
 12 23  1  0
 13 20  4  0
 13 29  4  0
 14 17  4  0
 14 28  4  0
 15 25  2  0
 16 27  4  0
 17 18  4  0
 20 27  1  0
 24 27  4  0
 26 28  4  0
M  END
$$$$

 Created by Python create_sdf_string function

 29 33  0  0  0  0  0  0  0  0999 V2000
    8.8270   -7.0288   18.4251 C   0  0  0  0  0  0  0  0  0  0  0  0
    9.1576   -4.6236   15.8860 O   0  0  0  0  0  0  0  0  0  0  0  0
    9.1509   -5.9108   17.7177 C   0  0  0  0  0  0  0  0  0  0  0  0
    3.6373   -9.5349   16.0582 N   0  0  0  0  0  0  0  0  0  0  0  0
    9.9275   -4.8001   18.0438 N   0  0  0  0  0  0  0  0  0  0  0  0
    8.5908   -5.7425   16.4412 C   0  0  0  0  0  0  0  0  0  0  0  0
   10.5993   -4.8981   21.6068 C   0  0  0  0  0  0  0  0  0  0  0  0
   10.4258   -3.0106   23.0998 C   0  0  0  0  0  0  0  0  0  0  0  0
   10.2148   -3.4364   25.4200 C   0  0  0  0  0  0  0  0  0  0  0  0
    9.7853   -1.1840   24.4927 C   0  0  0  0  0  0  0  0  0  0  0  0
    5.0276   -8.5227   17.5352 C   0  0  0  0  0  0  0  0  0  0  0  0
    9.8187   -2.0895   25.5800 C   0  0  0  0  0  0  0  0  0  0  0  0
    5.6473   -8.7216   15.3158 C   0  0  0  0  0  0  0  0  0  0  0  0
   10.7581   -3.1233   19.4720 N   0  0  0  0  0  0  0  0  0  0  0  0
    9.9571   -4.0573   16.8866 C   0  0  0  0  0  0  0  0  0  0  0  0
    7.6213   -6.5618   16.0087 C   0  0  0  0  0  0  0  0  0  0  0  0
   10.8583   -2.6527   20.7222 C   0  0  0  0  0  0  0  0  0  0  0  0
   10.6412   -3.5089   21.7936 C   0  0  0  0  0  0  0  0  0  0  0  0
   10.4972   -3.8968   24.1589 C   0  0  0  0  0  0  0  0  0  0  0  0
    5.9260   -8.2736   16.5517 C   0  0  0  0  0  0  0  0  0  0  0  0
    3.8816   -9.1166   17.2493 C   0  0  0  0  0  0  0  0  0  0  0  0
   10.1297   -1.6575   23.2324 C   0  0  0  0  0  0  0  0  0  0  0  0
    9.4684   -1.6929   26.7263 F   0  0  0  0  0  0  0  0  0  0  0  0
    7.7963   -7.7906   17.9837 C   0  0  0  0  0  0  0  0  0  0  0  0
   10.5884   -3.0725   16.7902 O   0  0  0  0  0  0  0  0  0  0  0  0
   10.4323   -5.3494   20.3516 C   0  0  0  0  0  0  0  0  0  0  0  0
    7.1156   -7.5454   16.8218 C   0  0  0  0  0  0  0  0  0  0  0  0
   10.3885   -4.4388   19.2773 C   0  0  0  0  0  0  0  0  0  0  0  0
    4.5160   -9.3822   15.0841 C   0  0  0  0  0  0  0  0  0  0  0  0
  1  3  4  0
  1 24  4  0
  2  6  4  0
  2 15  4  0
  3  5  4  0
  3  6  4  0
  4 21  4  0
  4 29  4  0
  5 15  4  0
  5 28  1  0
  6 16  4  0
  7 18  4  0
  7 26  4  0
  8 18  1  0
  8 19  4  0
  8 22  4  0
  9 12  4  0
  9 19  4  0
 10 12  4  0
 10 22  4  0
 11 20  4  0
 11 21  4  0
 12 23  1  0
 13 20  4  0
 13 29  4  0
 14 17  4  0
 14 28  4  0
 15 25  2  0
 16 27  4  0
 17 18  4  0
 20 27  1  0
 24 27  4  0
 26 28  4  0
M  END
$$$$

 Created by Python create_sdf_string function

 29 33  0  0  0  0  0  0  0  0999 V2000
    8.8270   -7.0288   18.4251 C   0  0  0  0  0  0  0  0  0  0  0  0
    9.1576   -4.6236   15.8860 O   0  0  0  0  0  0  0  0  0  0  0  0
    9.1509   -5.9108   17.7177 C   0  0  0  0  0  0  0  0  0  0  0  0
    3.6373   -9.5349   16.0582 N   0  0  0  0  0  0  0  0  0  0  0  0
    9.9275   -4.8001   18.0438 N   0  0  0  0  0  0  0  0  0  0  0  0
    8.5908   -5.7425   16.4412 C   0  0  0  0  0  0  0  0  0  0  0  0
   10.5993   -4.8981   21.6068 C   0  0  0  0  0  0  0  0  0  0  0  0
   10.4258   -3.0106   23.0998 C   0  0  0  0  0  0  0  0  0  0  0  0
   10.2148   -3.4364   25.4200 C   0  0  0  0  0  0  0  0  0  0  0  0
    9.7853   -1.1840   24.4927 C   0  0  0  0  0  0  0  0  0  0  0  0
    5.0276   -8.5227   17.5352 C   0  0  0  0  0  0  0  0  0  0  0  0
    9.8187   -2.0895   25.5800 C   0  0  0  0  0  0  0  0  0  0  0  0
    5.6473   -8.7216   15.3158 C   0  0  0  0  0  0  0  0  0  0  0  0
   10.7581   -3.1233   19.4720 N   0  0  0  0  0  0  0  0  0  0  0  0
    9.9571   -4.0573   16.8866 C   0  0  0  0  0  0  0  0  0  0  0  0
    7.6213   -6.5618   16.0087 C   0  0  0  0  0  0  0  0  0  0  0  0
   10.8583   -2.6527   20.7222 C   0  0  0  0  0  0  0  0  0  0  0  0
   10.6412   -3.5089   21.7936 C   0  0  0  0  0  0  0  0  0  0  0  0
   10.4972   -3.8968   24.1589 C   0  0  0  0  0  0  0  0  0  0  0  0
    5.9260   -8.2736   16.5517 C   0  0  0  0  0  0  0  0  0  0  0  0
    3.8816   -9.1166   17.2493 C   0  0  0  0  0  0  0  0  0  0  0  0
   10.1297   -1.6575   23.2324 C   0  0  0  0  0  0  0  0  0  0  0  0
    9.4684   -1.6929   26.7263 F   0  0  0  0  0  0  0  0  0  0  0  0
    7.7963   -7.7906   17.9837 C   0  0  0  0  0  0  0  0  0  0  0  0
   10.5884   -3.0725   16.7902 O   0  0  0  0  0  0  0  0  0  0  0  0
   10.4323   -5.3494   20.3516 C   0  0  0  0  0  0  0  0  0  0  0  0
    7.1156   -7.5454   16.8218 C   0  0  0  0  0  0  0  0  0  0  0  0
   10.3885   -4.4388   19.2773 C   0  0  0  0  0  0  0  0  0  0  0  0
    4.5160   -9.3822   15.0841 C   0  0  0  0  0  0  0  0  0  0  0  0
  1  3  4  0
  1 24  4  0
  2  6  4  0
  2 15  4  0
  3  5  4  0
  3  6  4  0
  4 21  4  0
  4 29  4  0
  5 15  4  0
  5 28  1  0
  6 16  4  0
  7 18  4  0
  7 26  4  0
  8 18  1  0
  8 19  4  0
  8 22  4  0
  9 12  4  0
  9 19  4  0
 10 12  4  0
 10 22  4  0
 11 20  4  0
 11 21  4  0
 12 23  1  0
 13 20  4  0
 13 29  4  0
 14 17  4  0
 14 28  4  0
 15 25  2  0
 16 27  4  0
 17 18  4  0
 20 27  1  0
 24 27  4  0
 26 28  4  0
M  END
$$$$

 Created by Python create_sdf_string function

 29 33  0  0  0  0  0  0  0  0999 V2000
    8.8270   -7.0288   18.4251 C   0  0  0  0  0  0  0  0  0  0  0  0
    9.1576   -4.6236   15.8860 O   0  0  0  0  0  0  0  0  0  0  0  0
    9.1509   -5.9108   17.7177 C   0  0  0  0  0  0  0  0  0  0  0  0
    3.6373   -9.5349   16.0582 N   0  0  0  0  0  0  0  0  0  0  0  0
    9.9275   -4.8001   18.0438 N   0  0  0  0  0  0  0  0  0  0  0  0
    8.5908   -5.7425   16.4412 C   0  0  0  0  0  0  0  0  0  0  0  0
   10.5993   -4.8981   21.6068 C   0  0  0  0  0  0  0  0  0  0  0  0
   10.4258   -3.0106   23.0998 C   0  0  0  0  0  0  0  0  0  0  0  0
   10.2148   -3.4364   25.4200 C   0  0  0  0  0  0  0  0  0  0  0  0
    9.7853   -1.1840   24.4927 C   0  0  0  0  0  0  0  0  0  0  0  0
    5.0276   -8.5227   17.5352 C   0  0  0  0  0  0  0  0  0  0  0  0
    9.8187   -2.0895   25.5800 C   0  0  0  0  0  0  0  0  0  0  0  0
    5.6473   -8.7216   15.3158 C   0  0  0  0  0  0  0  0  0  0  0  0
   10.7581   -3.1233   19.4720 N   0  0  0  0  0  0  0  0  0  0  0  0
    9.9571   -4.0573   16.8866 C   0  0  0  0  0  0  0  0  0  0  0  0
    7.6213   -6.5618   16.0087 C   0  0  0  0  0  0  0  0  0  0  0  0
   10.8583   -2.6527   20.7222 C   0  0  0  0  0  0  0  0  0  0  0  0
   10.6412   -3.5089   21.7936 C   0  0  0  0  0  0  0  0  0  0  0  0
   10.4972   -3.8968   24.1589 C   0  0  0  0  0  0  0  0  0  0  0  0
    5.9260   -8.2736   16.5517 C   0  0  0  0  0  0  0  0  0  0  0  0
    3.8816   -9.1166   17.2493 C   0  0  0  0  0  0  0  0  0  0  0  0
   10.1297   -1.6575   23.2324 C   0  0  0  0  0  0  0  0  0  0  0  0
    9.4684   -1.6929   26.7263 F   0  0  0  0  0  0  0  0  0  0  0  0
    7.7963   -7.7906   17.9837 C   0  0  0  0  0  0  0  0  0  0  0  0
   10.5884   -3.0725   16.7902 O   0  0  0  0  0  0  0  0  0  0  0  0
   10.4323   -5.3494   20.3516 C   0  0  0  0  0  0  0  0  0  0  0  0
    7.1156   -7.5454   16.8218 C   0  0  0  0  0  0  0  0  0  0  0  0
   10.3885   -4.4388   19.2773 C   0  0  0  0  0  0  0  0  0  0  0  0
    4.5160   -9.3822   15.0841 C   0  0  0  0  0  0  0  0  0  0  0  0
  1  3  4  0
  1 24  4  0
  2  6  4  0
  2 15  4  0
  3  5  4  0
  3  6  4  0
  4 21  4  0
  4 29  4  0
  5 15  4  0
  5 28  1  0
  6 16  4  0
  7 18  4  0
  7 26  4  0
  8 18  1  0
  8 19  4  0
  8 22  4  0
  9 12  4  0
  9 19  4  0
 10 12  4  0
 10 22  4  0
 11 20  4  0
 11 21  4  0
 12 23  1  0
 13 20  4  0
 13 29  4  0
 14 17  4  0
 14 28  4  0
 15 25  2  0
 16 27  4  0
 17 18  4  0
 20 27  1  0
 24 27  4  0
 26 28  4  0
M  END
$$$$

 Created by Python create_sdf_string function

 29 33  0  0  0  0  0  0  0  0999 V2000
    8.8270   -7.0288   18.4251 C   0  0  0  0  0  0  0  0  0  0  0  0
    9.1576   -4.6236   15.8860 O   0  0  0  0  0  0  0  0  0  0  0  0
    9.1509   -5.9108   17.7177 C   0  0  0  0  0  0  0  0  0  0  0  0
    3.6373   -9.5349   16.0582 N   0  0  0  0  0  0  0  0  0  0  0  0
    9.9275   -4.8001   18.0438 N   0  0  0  0  0  0  0  0  0  0  0  0
    8.5908   -5.7425   16.4412 C   0  0  0  0  0  0  0  0  0  0  0  0
   10.5993   -4.8981   21.6068 C   0  0  0  0  0  0  0  0  0  0  0  0
   10.4258   -3.0106   23.0998 C   0  0  0  0  0  0  0  0  0  0  0  0
   10.2148   -3.4364   25.4200 C   0  0  0  0  0  0  0  0  0  0  0  0
    9.7853   -1.1840   24.4927 C   0  0  0  0  0  0  0  0  0  0  0  0
    5.0276   -8.5227   17.5352 C   0  0  0  0  0  0  0  0  0  0  0  0
    9.8187   -2.0895   25.5800 C   0  0  0  0  0  0  0  0  0  0  0  0
    5.6473   -8.7216   15.3158 C   0  0  0  0  0  0  0  0  0  0  0  0
   10.7581   -3.1233   19.4720 N   0  0  0  0  0  0  0  0  0  0  0  0
    9.9571   -4.0573   16.8866 C   0  0  0  0  0  0  0  0  0  0  0  0
    7.6213   -6.5618   16.0087 C   0  0  0  0  0  0  0  0  0  0  0  0
   10.8583   -2.6527   20.7222 C   0  0  0  0  0  0  0  0  0  0  0  0
   10.6412   -3.5089   21.7936 C   0  0  0  0  0  0  0  0  0  0  0  0
   10.4972   -3.8968   24.1589 C   0  0  0  0  0  0  0  0  0  0  0  0
    5.9260   -8.2736   16.5517 C   0  0  0  0  0  0  0  0  0  0  0  0
    3.8816   -9.1166   17.2493 C   0  0  0  0  0  0  0  0  0  0  0  0
   10.1297   -1.6575   23.2324 C   0  0  0  0  0  0  0  0  0  0  0  0
    9.4684   -1.6929   26.7263 F   0  0  0  0  0  0  0  0  0  0  0  0
    7.7963   -7.7906   17.9837 C   0  0  0  0  0  0  0  0  0  0  0  0
   10.5884   -3.0725   16.7902 O   0  0  0  0  0  0  0  0  0  0  0  0
   10.4323   -5.3494   20.3516 C   0  0  0  0  0  0  0  0  0  0  0  0
    7.1156   -7.5454   16.8218 C   0  0  0  0  0  0  0  0  0  0  0  0
   10.3885   -4.4388   19.2773 C   0  0  0  0  0  0  0  0  0  0  0  0
    4.5160   -9.3822   15.0841 C   0  0  0  0  0  0  0  0  0  0  0  0
  1  3  4  0
  1 24  4  0
  2  6  4  0
  2 15  4  0
  3  5  4  0
  3  6  4  0
  4 21  4  0
  4 29  4  0
  5 15  4  0
  5 28  1  0
  6 16  4  0
  7 18  4  0
  7 26  4  0
  8 18  1  0
  8 19  4  0
  8 22  4  0
  9 12  4  0
  9 19  4  0
 10 12  4  0
 10 22  4  0
 11 20  4  0
 11 21  4  0
 12 23  1  0
 13 20  4  0
 13 29  4  0
 14 17  4  0
 14 28  4  0
 15 25  2  0
 16 27  4  0
 17 18  4  0
 20 27  1  0
 24 27  4  0
 26 28  4  0
M  END
$$$$

 Created by Python create_sdf_string function

 29 33  0  0  0  0  0  0  0  0999 V2000
    8.8270   -7.0288   18.4251 C   0  0  0  0  0  0  0  0  0  0  0  0
    9.1576   -4.6236   15.8860 O   0  0  0  0  0  0  0  0  0  0  0  0
    9.1509   -5.9108   17.7177 C   0  0  0  0  0  0  0  0  0  0  0  0
    3.6373   -9.5349   16.0582 N   0  0  0  0  0  0  0  0  0  0  0  0
    9.9275   -4.8001   18.0438 N   0  0  0  0  0  0  0  0  0  0  0  0
    8.5908   -5.7425   16.4412 C   0  0  0  0  0  0  0  0  0  0  0  0
   10.5993   -4.8981   21.6068 C   0  0  0  0  0  0  0  0  0  0  0  0
   10.4258   -3.0106   23.0998 C   0  0  0  0  0  0  0  0  0  0  0  0
   10.2148   -3.4364   25.4200 C   0  0  0  0  0  0  0  0  0  0  0  0
    9.7853   -1.1840   24.4927 C   0  0  0  0  0  0  0  0  0  0  0  0
    5.0276   -8.5227   17.5352 C   0  0  0  0  0  0  0  0  0  0  0  0
    9.8187   -2.0895   25.5800 C   0  0  0  0  0  0  0  0  0  0  0  0
    5.6473   -8.7216   15.3158 C   0  0  0  0  0  0  0  0  0  0  0  0
   10.7581   -3.1233   19.4720 N   0  0  0  0  0  0  0  0  0  0  0  0
    9.9571   -4.0573   16.8866 C   0  0  0  0  0  0  0  0  0  0  0  0
    7.6213   -6.5618   16.0087 C   0  0  0  0  0  0  0  0  0  0  0  0
   10.8583   -2.6527   20.7222 C   0  0  0  0  0  0  0  0  0  0  0  0
   10.6412   -3.5089   21.7936 C   0  0  0  0  0  0  0  0  0  0  0  0
   10.4972   -3.8968   24.1589 C   0  0  0  0  0  0  0  0  0  0  0  0
    5.9260   -8.2736   16.5517 C   0  0  0  0  0  0  0  0  0  0  0  0
    3.8816   -9.1166   17.2493 C   0  0  0  0  0  0  0  0  0  0  0  0
   10.1297   -1.6575   23.2324 C   0  0  0  0  0  0  0  0  0  0  0  0
    9.4684   -1.6929   26.7263 F   0  0  0  0  0  0  0  0  0  0  0  0
    7.7963   -7.7906   17.9837 C   0  0  0  0  0  0  0  0  0  0  0  0
   10.5884   -3.0725   16.7902 O   0  0  0  0  0  0  0  0  0  0  0  0
   10.4323   -5.3494   20.3516 C   0  0  0  0  0  0  0  0  0  0  0  0
    7.1156   -7.5454   16.8218 C   0  0  0  0  0  0  0  0  0  0  0  0
   10.3885   -4.4388   19.2773 C   0  0  0  0  0  0  0  0  0  0  0  0
    4.5160   -9.3822   15.0841 C   0  0  0  0  0  0  0  0  0  0  0  0
  1  3  4  0
  1 24  4  0
  2  6  4  0
  2 15  4  0
  3  5  4  0
  3  6  4  0
  4 21  4  0
  4 29  4  0
  5 15  4  0
  5 28  1  0
  6 16  4  0
  7 18  4  0
  7 26  4  0
  8 18  1  0
  8 19  4  0
  8 22  4  0
  9 12  4  0
  9 19  4  0
 10 12  4  0
 10 22  4  0
 11 20  4  0
 11 21  4  0
 12 23  1  0
 13 20  4  0
 13 29  4  0
 14 17  4  0
 14 28  4  0
 15 25  2  0
 16 27  4  0
 17 18  4  0
 20 27  1  0
 24 27  4  0
 26 28  4  0
M  END
$$$$

 Created by Python create_sdf_string function

 29 33  0  0  0  0  0  0  0  0999 V2000
    8.8270   -7.0288   18.4251 C   0  0  0  0  0  0  0  0  0  0  0  0
    9.1576   -4.6236   15.8860 O   0  0  0  0  0  0  0  0  0  0  0  0
    9.1509   -5.9108   17.7177 C   0  0  0  0  0  0  0  0  0  0  0  0
    3.6373   -9.5349   16.0582 N   0  0  0  0  0  0  0  0  0  0  0  0
    9.9275   -4.8001   18.0438 N   0  0  0  0  0  0  0  0  0  0  0  0
    8.5908   -5.7425   16.4412 C   0  0  0  0  0  0  0  0  0  0  0  0
   10.5993   -4.8981   21.6068 C   0  0  0  0  0  0  0  0  0  0  0  0
   10.4258   -3.0106   23.0998 C   0  0  0  0  0  0  0  0  0  0  0  0
   10.2148   -3.4364   25.4200 C   0  0  0  0  0  0  0  0  0  0  0  0
    9.7853   -1.1840   24.4927 C   0  0  0  0  0  0  0  0  0  0  0  0
    5.0276   -8.5227   17.5352 C   0  0  0  0  0  0  0  0  0  0  0  0
    9.8187   -2.0895   25.5800 C   0  0  0  0  0  0  0  0  0  0  0  0
    5.6473   -8.7216   15.3158 C   0  0  0  0  0  0  0  0  0  0  0  0
   10.7581   -3.1233   19.4720 N   0  0  0  0  0  0  0  0  0  0  0  0
    9.9571   -4.0573   16.8866 C   0  0  0  0  0  0  0  0  0  0  0  0
    7.6213   -6.5618   16.0087 C   0  0  0  0  0  0  0  0  0  0  0  0
   10.8583   -2.6527   20.7222 C   0  0  0  0  0  0  0  0  0  0  0  0
   10.6412   -3.5089   21.7936 C   0  0  0  0  0  0  0  0  0  0  0  0
   10.4972   -3.8968   24.1589 C   0  0  0  0  0  0  0  0  0  0  0  0
    5.9260   -8.2736   16.5517 C   0  0  0  0  0  0  0  0  0  0  0  0
    3.8816   -9.1166   17.2493 C   0  0  0  0  0  0  0  0  0  0  0  0
   10.1297   -1.6575   23.2324 C   0  0  0  0  0  0  0  0  0  0  0  0
    9.4684   -1.6929   26.7263 F   0  0  0  0  0  0  0  0  0  0  0  0
    7.7963   -7.7906   17.9837 C   0  0  0  0  0  0  0  0  0  0  0  0
   10.5884   -3.0725   16.7902 O   0  0  0  0  0  0  0  0  0  0  0  0
   10.4323   -5.3494   20.3516 C   0  0  0  0  0  0  0  0  0  0  0  0
    7.1156   -7.5454   16.8218 C   0  0  0  0  0  0  0  0  0  0  0  0
   10.3885   -4.4388   19.2773 C   0  0  0  0  0  0  0  0  0  0  0  0
    4.5160   -9.3822   15.0841 C   0  0  0  0  0  0  0  0  0  0  0  0
  1  3  4  0
  1 24  4  0
  2  6  4  0
  2 15  4  0
  3  5  4  0
  3  6  4  0
  4 21  4  0
  4 29  4  0
  5 15  4  0
  5 28  1  0
  6 16  4  0
  7 18  4  0
  7 26  4  0
  8 18  1  0
  8 19  4  0
  8 22  4  0
  9 12  4  0
  9 19  4  0
 10 12  4  0
 10 22  4  0
 11 20  4  0
 11 21  4  0
 12 23  1  0
 13 20  4  0
 13 29  4  0
 14 17  4  0
 14 28  4  0
 15 25  2  0
 16 27  4  0
 17 18  4  0
 20 27  1  0
 24 27  4  0
 26 28  4  0
M  END
$$$$

 Created by Python create_sdf_string function

 29 33  0  0  0  0  0  0  0  0999 V2000
    8.8270   -7.0288   18.4251 C   0  0  0  0  0  0  0  0  0  0  0  0
    9.1576   -4.6236   15.8860 O   0  0  0  0  0  0  0  0  0  0  0  0
    9.1509   -5.9108   17.7177 C   0  0  0  0  0  0  0  0  0  0  0  0
    3.6373   -9.5349   16.0582 N   0  0  0  0  0  0  0  0  0  0  0  0
    9.9275   -4.8001   18.0438 N   0  0  0  0  0  0  0  0  0  0  0  0
    8.5908   -5.7425   16.4412 C   0  0  0  0  0  0  0  0  0  0  0  0
   10.5993   -4.8981   21.6068 C   0  0  0  0  0  0  0  0  0  0  0  0
   10.4258   -3.0106   23.0998 C   0  0  0  0  0  0  0  0  0  0  0  0
   10.2148   -3.4364   25.4200 C   0  0  0  0  0  0  0  0  0  0  0  0
    9.7853   -1.1840   24.4927 C   0  0  0  0  0  0  0  0  0  0  0  0
    5.0276   -8.5227   17.5352 C   0  0  0  0  0  0  0  0  0  0  0  0
    9.8187   -2.0895   25.5800 C   0  0  0  0  0  0  0  0  0  0  0  0
    5.6473   -8.7216   15.3158 C   0  0  0  0  0  0  0  0  0  0  0  0
   10.7581   -3.1233   19.4720 N   0  0  0  0  0  0  0  0  0  0  0  0
    9.9571   -4.0573   16.8866 C   0  0  0  0  0  0  0  0  0  0  0  0
    7.6213   -6.5618   16.0087 C   0  0  0  0  0  0  0  0  0  0  0  0
   10.8583   -2.6527   20.7222 C   0  0  0  0  0  0  0  0  0  0  0  0
   10.6412   -3.5089   21.7936 C   0  0  0  0  0  0  0  0  0  0  0  0
   10.4972   -3.8968   24.1589 C   0  0  0  0  0  0  0  0  0  0  0  0
    5.9260   -8.2736   16.5517 C   0  0  0  0  0  0  0  0  0  0  0  0
    3.8816   -9.1166   17.2493 C   0  0  0  0  0  0  0  0  0  0  0  0
   10.1297   -1.6575   23.2324 C   0  0  0  0  0  0  0  0  0  0  0  0
    9.4684   -1.6929   26.7263 F   0  0  0  0  0  0  0  0  0  0  0  0
    7.7963   -7.7906   17.9837 C   0  0  0  0  0  0  0  0  0  0  0  0
   10.5884   -3.0725   16.7902 O   0  0  0  0  0  0  0  0  0  0  0  0
   10.4323   -5.3494   20.3516 C   0  0  0  0  0  0  0  0  0  0  0  0
    7.1156   -7.5454   16.8218 C   0  0  0  0  0  0  0  0  0  0  0  0
   10.3885   -4.4388   19.2773 C   0  0  0  0  0  0  0  0  0  0  0  0
    4.5160   -9.3822   15.0841 C   0  0  0  0  0  0  0  0  0  0  0  0
  1  3  4  0
  1 24  4  0
  2  6  4  0
  2 15  4  0
  3  5  4  0
  3  6  4  0
  4 21  4  0
  4 29  4  0
  5 15  4  0
  5 28  1  0
  6 16  4  0
  7 18  4  0
  7 26  4  0
  8 18  1  0
  8 19  4  0
  8 22  4  0
  9 12  4  0
  9 19  4  0
 10 12  4  0
 10 22  4  0
 11 20  4  0
 11 21  4  0
 12 23  1  0
 13 20  4  0
 13 29  4  0
 14 17  4  0
 14 28  4  0
 15 25  2  0
 16 27  4  0
 17 18  4  0
 20 27  1  0
 24 27  4  0
 26 28  4  0
M  END
$$$$

 Created by Python create_sdf_string function

 29 33  0  0  0  0  0  0  0  0999 V2000
    8.8270   -7.0288   18.4251 C   0  0  0  0  0  0  0  0  0  0  0  0
    9.1576   -4.6236   15.8860 O   0  0  0  0  0  0  0  0  0  0  0  0
    9.1509   -5.9108   17.7177 C   0  0  0  0  0  0  0  0  0  0  0  0
    3.6373   -9.5349   16.0582 N   0  0  0  0  0  0  0  0  0  0  0  0
    9.9275   -4.8001   18.0438 N   0  0  0  0  0  0  0  0  0  0  0  0
    8.5908   -5.7425   16.4412 C   0  0  0  0  0  0  0  0  0  0  0  0
   10.5993   -4.8981   21.6068 C   0  0  0  0  0  0  0  0  0  0  0  0
   10.4258   -3.0106   23.0998 C   0  0  0  0  0  0  0  0  0  0  0  0
   10.2148   -3.4364   25.4200 C   0  0  0  0  0  0  0  0  0  0  0  0
    9.7853   -1.1840   24.4927 C   0  0  0  0  0  0  0  0  0  0  0  0
    5.0276   -8.5227   17.5352 C   0  0  0  0  0  0  0  0  0  0  0  0
    9.8187   -2.0895   25.5800 C   0  0  0  0  0  0  0  0  0  0  0  0
    5.6473   -8.7216   15.3158 C   0  0  0  0  0  0  0  0  0  0  0  0
   10.7581   -3.1233   19.4720 N   0  0  0  0  0  0  0  0  0  0  0  0
    9.9571   -4.0573   16.8866 C   0  0  0  0  0  0  0  0  0  0  0  0
    7.6213   -6.5618   16.0087 C   0  0  0  0  0  0  0  0  0  0  0  0
   10.8583   -2.6527   20.7222 C   0  0  0  0  0  0  0  0  0  0  0  0
   10.6412   -3.5089   21.7936 C   0  0  0  0  0  0  0  0  0  0  0  0
   10.4972   -3.8968   24.1589 C   0  0  0  0  0  0  0  0  0  0  0  0
    5.9260   -8.2736   16.5517 C   0  0  0  0  0  0  0  0  0  0  0  0
    3.8816   -9.1166   17.2493 C   0  0  0  0  0  0  0  0  0  0  0  0
   10.1297   -1.6575   23.2324 C   0  0  0  0  0  0  0  0  0  0  0  0
    9.4684   -1.6929   26.7263 F   0  0  0  0  0  0  0  0  0  0  0  0
    7.7963   -7.7906   17.9837 C   0  0  0  0  0  0  0  0  0  0  0  0
   10.5884   -3.0725   16.7902 O   0  0  0  0  0  0  0  0  0  0  0  0
   10.4323   -5.3494   20.3516 C   0  0  0  0  0  0  0  0  0  0  0  0
    7.1156   -7.5454   16.8218 C   0  0  0  0  0  0  0  0  0  0  0  0
   10.3885   -4.4388   19.2773 C   0  0  0  0  0  0  0  0  0  0  0  0
    4.5160   -9.3822   15.0841 C   0  0  0  0  0  0  0  0  0  0  0  0
  1  3  4  0
  1 24  4  0
  2  6  4  0
  2 15  4  0
  3  5  4  0
  3  6  4  0
  4 21  4  0
  4 29  4  0
  5 15  4  0
  5 28  1  0
  6 16  4  0
  7 18  4  0
  7 26  4  0
  8 18  1  0
  8 19  4  0
  8 22  4  0
  9 12  4  0
  9 19  4  0
 10 12  4  0
 10 22  4  0
 11 20  4  0
 11 21  4  0
 12 23  1  0
 13 20  4  0
 13 29  4  0
 14 17  4  0
 14 28  4  0
 15 25  2  0
 16 27  4  0
 17 18  4  0
 20 27  1  0
 24 27  4  0
 26 28  4  0
M  END
$$$$

 Created by Python create_sdf_string function

 29 33  0  0  0  0  0  0  0  0999 V2000
    8.8270   -7.0288   18.4251 C   0  0  0  0  0  0  0  0  0  0  0  0
    9.1576   -4.6236   15.8860 O   0  0  0  0  0  0  0  0  0  0  0  0
    9.1509   -5.9108   17.7177 C   0  0  0  0  0  0  0  0  0  0  0  0
    3.6373   -9.5349   16.0582 N   0  0  0  0  0  0  0  0  0  0  0  0
    9.9275   -4.8001   18.0438 N   0  0  0  0  0  0  0  0  0  0  0  0
    8.5908   -5.7425   16.4412 C   0  0  0  0  0  0  0  0  0  0  0  0
   10.5993   -4.8981   21.6068 C   0  0  0  0  0  0  0  0  0  0  0  0
   10.4258   -3.0106   23.0998 C   0  0  0  0  0  0  0  0  0  0  0  0
   10.2148   -3.4364   25.4200 C   0  0  0  0  0  0  0  0  0  0  0  0
    9.7853   -1.1840   24.4927 C   0  0  0  0  0  0  0  0  0  0  0  0
    5.0276   -8.5227   17.5352 C   0  0  0  0  0  0  0  0  0  0  0  0
    9.8187   -2.0895   25.5800 C   0  0  0  0  0  0  0  0  0  0  0  0
    5.6473   -8.7216   15.3158 C   0  0  0  0  0  0  0  0  0  0  0  0
   10.7581   -3.1233   19.4720 N   0  0  0  0  0  0  0  0  0  0  0  0
    9.9571   -4.0573   16.8866 C   0  0  0  0  0  0  0  0  0  0  0  0
    7.6213   -6.5618   16.0087 C   0  0  0  0  0  0  0  0  0  0  0  0
   10.8583   -2.6527   20.7222 C   0  0  0  0  0  0  0  0  0  0  0  0
   10.6412   -3.5089   21.7936 C   0  0  0  0  0  0  0  0  0  0  0  0
   10.4972   -3.8968   24.1589 C   0  0  0  0  0  0  0  0  0  0  0  0
    5.9260   -8.2736   16.5517 C   0  0  0  0  0  0  0  0  0  0  0  0
    3.8816   -9.1166   17.2493 C   0  0  0  0  0  0  0  0  0  0  0  0
   10.1297   -1.6575   23.2324 C   0  0  0  0  0  0  0  0  0  0  0  0
    9.4684   -1.6929   26.7263 F   0  0  0  0  0  0  0  0  0  0  0  0
    7.7963   -7.7906   17.9837 C   0  0  0  0  0  0  0  0  0  0  0  0
   10.5884   -3.0725   16.7902 O   0  0  0  0  0  0  0  0  0  0  0  0
   10.4323   -5.3494   20.3516 C   0  0  0  0  0  0  0  0  0  0  0  0
    7.1156   -7.5454   16.8218 C   0  0  0  0  0  0  0  0  0  0  0  0
   10.3885   -4.4388   19.2773 C   0  0  0  0  0  0  0  0  0  0  0  0
    4.5160   -9.3822   15.0841 C   0  0  0  0  0  0  0  0  0  0  0  0
  1  3  4  0
  1 24  4  0
  2  6  4  0
  2 15  4  0
  3  5  4  0
  3  6  4  0
  4 21  4  0
  4 29  4  0
  5 15  4  0
  5 28  1  0
  6 16  4  0
  7 18  4  0
  7 26  4  0
  8 18  1  0
  8 19  4  0
  8 22  4  0
  9 12  4  0
  9 19  4  0
 10 12  4  0
 10 22  4  0
 11 20  4  0
 11 21  4  0
 12 23  1  0
 13 20  4  0
 13 29  4  0
 14 17  4  0
 14 28  4  0
 15 25  2  0
 16 27  4  0
 17 18  4  0
 20 27  1  0
 24 27  4  0
 26 28  4  0
M  END
$$$$

 Created by Python create_sdf_string function

 29 33  0  0  0  0  0  0  0  0999 V2000
    8.8270   -7.0288   18.4251 C   0  0  0  0  0  0  0  0  0  0  0  0
    9.1576   -4.6236   15.8860 O   0  0  0  0  0  0  0  0  0  0  0  0
    9.1509   -5.9108   17.7177 C   0  0  0  0  0  0  0  0  0  0  0  0
    3.6373   -9.5349   16.0582 N   0  0  0  0  0  0  0  0  0  0  0  0
    9.9275   -4.8001   18.0438 N   0  0  0  0  0  0  0  0  0  0  0  0
    8.5908   -5.7425   16.4412 C   0  0  0  0  0  0  0  0  0  0  0  0
   10.5993   -4.8981   21.6068 C   0  0  0  0  0  0  0  0  0  0  0  0
   10.4258   -3.0106   23.0998 C   0  0  0  0  0  0  0  0  0  0  0  0
   10.2148   -3.4364   25.4200 C   0  0  0  0  0  0  0  0  0  0  0  0
    9.7853   -1.1840   24.4927 C   0  0  0  0  0  0  0  0  0  0  0  0
    5.0276   -8.5227   17.5352 C   0  0  0  0  0  0  0  0  0  0  0  0
    9.8187   -2.0895   25.5800 C   0  0  0  0  0  0  0  0  0  0  0  0
    5.6473   -8.7216   15.3158 C   0  0  0  0  0  0  0  0  0  0  0  0
   10.7581   -3.1233   19.4720 N   0  0  0  0  0  0  0  0  0  0  0  0
    9.9571   -4.0573   16.8866 C   0  0  0  0  0  0  0  0  0  0  0  0
    7.6213   -6.5618   16.0087 C   0  0  0  0  0  0  0  0  0  0  0  0
   10.8583   -2.6527   20.7222 C   0  0  0  0  0  0  0  0  0  0  0  0
   10.6412   -3.5089   21.7936 C   0  0  0  0  0  0  0  0  0  0  0  0
   10.4972   -3.8968   24.1589 C   0  0  0  0  0  0  0  0  0  0  0  0
    5.9260   -8.2736   16.5517 C   0  0  0  0  0  0  0  0  0  0  0  0
    3.8816   -9.1166   17.2493 C   0  0  0  0  0  0  0  0  0  0  0  0
   10.1297   -1.6575   23.2324 C   0  0  0  0  0  0  0  0  0  0  0  0
    9.4684   -1.6929   26.7263 F   0  0  0  0  0  0  0  0  0  0  0  0
    7.7963   -7.7906   17.9837 C   0  0  0  0  0  0  0  0  0  0  0  0
   10.5884   -3.0725   16.7902 O   0  0  0  0  0  0  0  0  0  0  0  0
   10.4323   -5.3494   20.3516 C   0  0  0  0  0  0  0  0  0  0  0  0
    7.1156   -7.5454   16.8218 C   0  0  0  0  0  0  0  0  0  0  0  0
   10.3885   -4.4388   19.2773 C   0  0  0  0  0  0  0  0  0  0  0  0
    4.5160   -9.3822   15.0841 C   0  0  0  0  0  0  0  0  0  0  0  0
  1  3  4  0
  1 24  4  0
  2  6  4  0
  2 15  4  0
  3  5  4  0
  3  6  4  0
  4 21  4  0
  4 29  4  0
  5 15  4  0
  5 28  1  0
  6 16  4  0
  7 18  4  0
  7 26  4  0
  8 18  1  0
  8 19  4  0
  8 22  4  0
  9 12  4  0
  9 19  4  0
 10 12  4  0
 10 22  4  0
 11 20  4  0
 11 21  4  0
 12 23  1  0
 13 20  4  0
 13 29  4  0
 14 17  4  0
 14 28  4  0
 15 25  2  0
 16 27  4  0
 17 18  4  0
 20 27  1  0
 24 27  4  0
 26 28  4  0
M  END
$$$$

 Created by Python create_sdf_string function

 29 33  0  0  0  0  0  0  0  0999 V2000
    8.8270   -7.0288   18.4251 C   0  0  0  0  0  0  0  0  0  0  0  0
    9.1576   -4.6236   15.8860 O   0  0  0  0  0  0  0  0  0  0  0  0
    9.1509   -5.9108   17.7177 C   0  0  0  0  0  0  0  0  0  0  0  0
    3.6373   -9.5349   16.0582 N   0  0  0  0  0  0  0  0  0  0  0  0
    9.9275   -4.8001   18.0438 N   0  0  0  0  0  0  0  0  0  0  0  0
    8.5908   -5.7425   16.4412 C   0  0  0  0  0  0  0  0  0  0  0  0
   10.5993   -4.8981   21.6068 C   0  0  0  0  0  0  0  0  0  0  0  0
   10.4258   -3.0106   23.0998 C   0  0  0  0  0  0  0  0  0  0  0  0
   10.2148   -3.4364   25.4200 C   0  0  0  0  0  0  0  0  0  0  0  0
    9.7853   -1.1840   24.4927 C   0  0  0  0  0  0  0  0  0  0  0  0
    5.0276   -8.5227   17.5352 C   0  0  0  0  0  0  0  0  0  0  0  0
    9.8187   -2.0895   25.5800 C   0  0  0  0  0  0  0  0  0  0  0  0
    5.6473   -8.7216   15.3158 C   0  0  0  0  0  0  0  0  0  0  0  0
   10.7581   -3.1233   19.4720 N   0  0  0  0  0  0  0  0  0  0  0  0
    9.9571   -4.0573   16.8866 C   0  0  0  0  0  0  0  0  0  0  0  0
    7.6213   -6.5618   16.0087 C   0  0  0  0  0  0  0  0  0  0  0  0
   10.8583   -2.6527   20.7222 C   0  0  0  0  0  0  0  0  0  0  0  0
   10.6412   -3.5089   21.7936 C   0  0  0  0  0  0  0  0  0  0  0  0
   10.4972   -3.8968   24.1589 C   0  0  0  0  0  0  0  0  0  0  0  0
    5.9260   -8.2736   16.5517 C   0  0  0  0  0  0  0  0  0  0  0  0
    3.8816   -9.1166   17.2493 C   0  0  0  0  0  0  0  0  0  0  0  0
   10.1297   -1.6575   23.2324 C   0  0  0  0  0  0  0  0  0  0  0  0
    9.4684   -1.6929   26.7263 F   0  0  0  0  0  0  0  0  0  0  0  0
    7.7963   -7.7906   17.9837 C   0  0  0  0  0  0  0  0  0  0  0  0
   10.5884   -3.0725   16.7902 O   0  0  0  0  0  0  0  0  0  0  0  0
   10.4323   -5.3494   20.3516 C   0  0  0  0  0  0  0  0  0  0  0  0
    7.1156   -7.5454   16.8218 C   0  0  0  0  0  0  0  0  0  0  0  0
   10.3885   -4.4388   19.2773 C   0  0  0  0  0  0  0  0  0  0  0  0
    4.5160   -9.3822   15.0841 C   0  0  0  0  0  0  0  0  0  0  0  0
  1  3  4  0
  1 24  4  0
  2  6  4  0
  2 15  4  0
  3  5  4  0
  3  6  4  0
  4 21  4  0
  4 29  4  0
  5 15  4  0
  5 28  1  0
  6 16  4  0
  7 18  4  0
  7 26  4  0
  8 18  1  0
  8 19  4  0
  8 22  4  0
  9 12  4  0
  9 19  4  0
 10 12  4  0
 10 22  4  0
 11 20  4  0
 11 21  4  0
 12 23  1  0
 13 20  4  0
 13 29  4  0
 14 17  4  0
 14 28  4  0
 15 25  2  0
 16 27  4  0
 17 18  4  0
 20 27  1  0
 24 27  4  0
 26 28  4  0
M  END
$$$$

 Created by Python create_sdf_string function

 29 33  0  0  0  0  0  0  0  0999 V2000
    8.8270   -7.0288   18.4251 C   0  0  0  0  0  0  0  0  0  0  0  0
    9.1576   -4.6236   15.8860 O   0  0  0  0  0  0  0  0  0  0  0  0
    9.1509   -5.9108   17.7177 C   0  0  0  0  0  0  0  0  0  0  0  0
    3.6373   -9.5349   16.0582 N   0  0  0  0  0  0  0  0  0  0  0  0
    9.9275   -4.8001   18.0438 N   0  0  0  0  0  0  0  0  0  0  0  0
    8.5908   -5.7425   16.4412 C   0  0  0  0  0  0  0  0  0  0  0  0
   10.5993   -4.8981   21.6068 C   0  0  0  0  0  0  0  0  0  0  0  0
   10.4258   -3.0106   23.0998 C   0  0  0  0  0  0  0  0  0  0  0  0
   10.2148   -3.4364   25.4200 C   0  0  0  0  0  0  0  0  0  0  0  0
    9.7853   -1.1840   24.4927 C   0  0  0  0  0  0  0  0  0  0  0  0
    5.0276   -8.5227   17.5352 C   0  0  0  0  0  0  0  0  0  0  0  0
    9.8187   -2.0895   25.5800 C   0  0  0  0  0  0  0  0  0  0  0  0
    5.6473   -8.7216   15.3158 C   0  0  0  0  0  0  0  0  0  0  0  0
   10.7581   -3.1233   19.4720 N   0  0  0  0  0  0  0  0  0  0  0  0
    9.9571   -4.0573   16.8866 C   0  0  0  0  0  0  0  0  0  0  0  0
    7.6213   -6.5618   16.0087 C   0  0  0  0  0  0  0  0  0  0  0  0
   10.8583   -2.6527   20.7222 C   0  0  0  0  0  0  0  0  0  0  0  0
   10.6412   -3.5089   21.7936 C   0  0  0  0  0  0  0  0  0  0  0  0
   10.4972   -3.8968   24.1589 C   0  0  0  0  0  0  0  0  0  0  0  0
    5.9260   -8.2736   16.5517 C   0  0  0  0  0  0  0  0  0  0  0  0
    3.8816   -9.1166   17.2493 C   0  0  0  0  0  0  0  0  0  0  0  0
   10.1297   -1.6575   23.2324 C   0  0  0  0  0  0  0  0  0  0  0  0
    9.4684   -1.6929   26.7263 F   0  0  0  0  0  0  0  0  0  0  0  0
    7.7963   -7.7906   17.9837 C   0  0  0  0  0  0  0  0  0  0  0  0
   10.5884   -3.0725   16.7902 O   0  0  0  0  0  0  0  0  0  0  0  0
   10.4323   -5.3494   20.3516 C   0  0  0  0  0  0  0  0  0  0  0  0
    7.1156   -7.5454   16.8218 C   0  0  0  0  0  0  0  0  0  0  0  0
   10.3885   -4.4388   19.2773 C   0  0  0  0  0  0  0  0  0  0  0  0
    4.5160   -9.3822   15.0841 C   0  0  0  0  0  0  0  0  0  0  0  0
  1  3  4  0
  1 24  4  0
  2  6  4  0
  2 15  4  0
  3  5  4  0
  3  6  4  0
  4 21  4  0
  4 29  4  0
  5 15  4  0
  5 28  1  0
  6 16  4  0
  7 18  4  0
  7 26  4  0
  8 18  1  0
  8 19  4  0
  8 22  4  0
  9 12  4  0
  9 19  4  0
 10 12  4  0
 10 22  4  0
 11 20  4  0
 11 21  4  0
 12 23  1  0
 13 20  4  0
 13 29  4  0
 14 17  4  0
 14 28  4  0
 15 25  2  0
 16 27  4  0
 17 18  4  0
 20 27  1  0
 24 27  4  0
 26 28  4  0
M  END
$$$$

 Created by Python create_sdf_string function

 29 33  0  0  0  0  0  0  0  0999 V2000
    8.8270   -7.0288   18.4251 C   0  0  0  0  0  0  0  0  0  0  0  0
    9.1576   -4.6236   15.8860 O   0  0  0  0  0  0  0  0  0  0  0  0
    9.1509   -5.9108   17.7177 C   0  0  0  0  0  0  0  0  0  0  0  0
    3.6373   -9.5349   16.0582 N   0  0  0  0  0  0  0  0  0  0  0  0
    9.9275   -4.8001   18.0438 N   0  0  0  0  0  0  0  0  0  0  0  0
    8.5908   -5.7425   16.4412 C   0  0  0  0  0  0  0  0  0  0  0  0
   10.5993   -4.8981   21.6068 C   0  0  0  0  0  0  0  0  0  0  0  0
   10.4258   -3.0106   23.0998 C   0  0  0  0  0  0  0  0  0  0  0  0
   10.2148   -3.4364   25.4200 C   0  0  0  0  0  0  0  0  0  0  0  0
    9.7853   -1.1840   24.4927 C   0  0  0  0  0  0  0  0  0  0  0  0
    5.0276   -8.5227   17.5352 C   0  0  0  0  0  0  0  0  0  0  0  0
    9.8187   -2.0895   25.5800 C   0  0  0  0  0  0  0  0  0  0  0  0
    5.6473   -8.7216   15.3158 C   0  0  0  0  0  0  0  0  0  0  0  0
   10.7581   -3.1233   19.4720 N   0  0  0  0  0  0  0  0  0  0  0  0
    9.9571   -4.0573   16.8866 C   0  0  0  0  0  0  0  0  0  0  0  0
    7.6213   -6.5618   16.0087 C   0  0  0  0  0  0  0  0  0  0  0  0
   10.8583   -2.6527   20.7222 C   0  0  0  0  0  0  0  0  0  0  0  0
   10.6412   -3.5089   21.7936 C   0  0  0  0  0  0  0  0  0  0  0  0
   10.4972   -3.8968   24.1589 C   0  0  0  0  0  0  0  0  0  0  0  0
    5.9260   -8.2736   16.5517 C   0  0  0  0  0  0  0  0  0  0  0  0
    3.8816   -9.1166   17.2493 C   0  0  0  0  0  0  0  0  0  0  0  0
   10.1297   -1.6575   23.2324 C   0  0  0  0  0  0  0  0  0  0  0  0
    9.4684   -1.6929   26.7263 F   0  0  0  0  0  0  0  0  0  0  0  0
    7.7963   -7.7906   17.9837 C   0  0  0  0  0  0  0  0  0  0  0  0
   10.5884   -3.0725   16.7902 O   0  0  0  0  0  0  0  0  0  0  0  0
   10.4323   -5.3494   20.3516 C   0  0  0  0  0  0  0  0  0  0  0  0
    7.1156   -7.5454   16.8218 C   0  0  0  0  0  0  0  0  0  0  0  0
   10.3885   -4.4388   19.2773 C   0  0  0  0  0  0  0  0  0  0  0  0
    4.5160   -9.3822   15.0841 C   0  0  0  0  0  0  0  0  0  0  0  0
  1  3  4  0
  1 24  4  0
  2  6  4  0
  2 15  4  0
  3  5  4  0
  3  6  4  0
  4 21  4  0
  4 29  4  0
  5 15  4  0
  5 28  1  0
  6 16  4  0
  7 18  4  0
  7 26  4  0
  8 18  1  0
  8 19  4  0
  8 22  4  0
  9 12  4  0
  9 19  4  0
 10 12  4  0
 10 22  4  0
 11 20  4  0
 11 21  4  0
 12 23  1  0
 13 20  4  0
 13 29  4  0
 14 17  4  0
 14 28  4  0
 15 25  2  0
 16 27  4  0
 17 18  4  0
 20 27  1  0
 24 27  4  0
 26 28  4  0
M  END
$$$$

 Created by Python create_sdf_string function

 29 33  0  0  0  0  0  0  0  0999 V2000
    8.8270   -7.0288   18.4251 C   0  0  0  0  0  0  0  0  0  0  0  0
    9.1576   -4.6236   15.8860 O   0  0  0  0  0  0  0  0  0  0  0  0
    9.1509   -5.9108   17.7177 C   0  0  0  0  0  0  0  0  0  0  0  0
    3.6373   -9.5349   16.0582 N   0  0  0  0  0  0  0  0  0  0  0  0
    9.9275   -4.8001   18.0438 N   0  0  0  0  0  0  0  0  0  0  0  0
    8.5908   -5.7425   16.4412 C   0  0  0  0  0  0  0  0  0  0  0  0
   10.5993   -4.8981   21.6068 C   0  0  0  0  0  0  0  0  0  0  0  0
   10.4258   -3.0106   23.0998 C   0  0  0  0  0  0  0  0  0  0  0  0
   10.2148   -3.4364   25.4200 C   0  0  0  0  0  0  0  0  0  0  0  0
    9.7853   -1.1840   24.4927 C   0  0  0  0  0  0  0  0  0  0  0  0
    5.0276   -8.5227   17.5352 C   0  0  0  0  0  0  0  0  0  0  0  0
    9.8187   -2.0895   25.5800 C   0  0  0  0  0  0  0  0  0  0  0  0
    5.6473   -8.7216   15.3158 C   0  0  0  0  0  0  0  0  0  0  0  0
   10.7581   -3.1233   19.4720 N   0  0  0  0  0  0  0  0  0  0  0  0
    9.9571   -4.0573   16.8866 C   0  0  0  0  0  0  0  0  0  0  0  0
    7.6213   -6.5618   16.0087 C   0  0  0  0  0  0  0  0  0  0  0  0
   10.8583   -2.6527   20.7222 C   0  0  0  0  0  0  0  0  0  0  0  0
   10.6412   -3.5089   21.7936 C   0  0  0  0  0  0  0  0  0  0  0  0
   10.4972   -3.8968   24.1589 C   0  0  0  0  0  0  0  0  0  0  0  0
    5.9260   -8.2736   16.5517 C   0  0  0  0  0  0  0  0  0  0  0  0
    3.8816   -9.1166   17.2493 C   0  0  0  0  0  0  0  0  0  0  0  0
   10.1297   -1.6575   23.2324 C   0  0  0  0  0  0  0  0  0  0  0  0
    9.4684   -1.6929   26.7263 F   0  0  0  0  0  0  0  0  0  0  0  0
    7.7963   -7.7906   17.9837 C   0  0  0  0  0  0  0  0  0  0  0  0
   10.5884   -3.0725   16.7902 O   0  0  0  0  0  0  0  0  0  0  0  0
   10.4323   -5.3494   20.3516 C   0  0  0  0  0  0  0  0  0  0  0  0
    7.1156   -7.5454   16.8218 C   0  0  0  0  0  0  0  0  0  0  0  0
   10.3885   -4.4388   19.2773 C   0  0  0  0  0  0  0  0  0  0  0  0
    4.5160   -9.3822   15.0841 C   0  0  0  0  0  0  0  0  0  0  0  0
  1  3  4  0
  1 24  4  0
  2  6  4  0
  2 15  4  0
  3  5  4  0
  3  6  4  0
  4 21  4  0
  4 29  4  0
  5 15  4  0
  5 28  1  0
  6 16  4  0
  7 18  4  0
  7 26  4  0
  8 18  1  0
  8 19  4  0
  8 22  4  0
  9 12  4  0
  9 19  4  0
 10 12  4  0
 10 22  4  0
 11 20  4  0
 11 21  4  0
 12 23  1  0
 13 20  4  0
 13 29  4  0
 14 17  4  0
 14 28  4  0
 15 25  2  0
 16 27  4  0
 17 18  4  0
 20 27  1  0
 24 27  4  0
 26 28  4  0
M  END
$$$$

 Created by Python create_sdf_string function

 29 33  0  0  0  0  0  0  0  0999 V2000
    8.8270   -7.0288   18.4251 C   0  0  0  0  0  0  0  0  0  0  0  0
    9.1576   -4.6236   15.8860 O   0  0  0  0  0  0  0  0  0  0  0  0
    9.1509   -5.9108   17.7177 C   0  0  0  0  0  0  0  0  0  0  0  0
    3.6373   -9.5349   16.0582 N   0  0  0  0  0  0  0  0  0  0  0  0
    9.9275   -4.8001   18.0438 N   0  0  0  0  0  0  0  0  0  0  0  0
    8.5908   -5.7425   16.4412 C   0  0  0  0  0  0  0  0  0  0  0  0
   10.5993   -4.8981   21.6068 C   0  0  0  0  0  0  0  0  0  0  0  0
   10.4258   -3.0106   23.0998 C   0  0  0  0  0  0  0  0  0  0  0  0
   10.2148   -3.4364   25.4200 C   0  0  0  0  0  0  0  0  0  0  0  0
    9.7853   -1.1840   24.4927 C   0  0  0  0  0  0  0  0  0  0  0  0
    5.0276   -8.5227   17.5352 C   0  0  0  0  0  0  0  0  0  0  0  0
    9.8187   -2.0895   25.5800 C   0  0  0  0  0  0  0  0  0  0  0  0
    5.6473   -8.7216   15.3158 C   0  0  0  0  0  0  0  0  0  0  0  0
   10.7581   -3.1233   19.4720 N   0  0  0  0  0  0  0  0  0  0  0  0
    9.9571   -4.0573   16.8866 C   0  0  0  0  0  0  0  0  0  0  0  0
    7.6213   -6.5618   16.0087 C   0  0  0  0  0  0  0  0  0  0  0  0
   10.8583   -2.6527   20.7222 C   0  0  0  0  0  0  0  0  0  0  0  0
   10.6412   -3.5089   21.7936 C   0  0  0  0  0  0  0  0  0  0  0  0
   10.4972   -3.8968   24.1589 C   0  0  0  0  0  0  0  0  0  0  0  0
    5.9260   -8.2736   16.5517 C   0  0  0  0  0  0  0  0  0  0  0  0
    3.8816   -9.1166   17.2493 C   0  0  0  0  0  0  0  0  0  0  0  0
   10.1297   -1.6575   23.2324 C   0  0  0  0  0  0  0  0  0  0  0  0
    9.4684   -1.6929   26.7263 F   0  0  0  0  0  0  0  0  0  0  0  0
    7.7963   -7.7906   17.9837 C   0  0  0  0  0  0  0  0  0  0  0  0
   10.5884   -3.0725   16.7902 O   0  0  0  0  0  0  0  0  0  0  0  0
   10.4323   -5.3494   20.3516 C   0  0  0  0  0  0  0  0  0  0  0  0
    7.1156   -7.5454   16.8218 C   0  0  0  0  0  0  0  0  0  0  0  0
   10.3885   -4.4388   19.2773 C   0  0  0  0  0  0  0  0  0  0  0  0
    4.5160   -9.3822   15.0841 C   0  0  0  0  0  0  0  0  0  0  0  0
  1  3  4  0
  1 24  4  0
  2  6  4  0
  2 15  4  0
  3  5  4  0
  3  6  4  0
  4 21  4  0
  4 29  4  0
  5 15  4  0
  5 28  1  0
  6 16  4  0
  7 18  4  0
  7 26  4  0
  8 18  1  0
  8 19  4  0
  8 22  4  0
  9 12  4  0
  9 19  4  0
 10 12  4  0
 10 22  4  0
 11 20  4  0
 11 21  4  0
 12 23  1  0
 13 20  4  0
 13 29  4  0
 14 17  4  0
 14 28  4  0
 15 25  2  0
 16 27  4  0
 17 18  4  0
 20 27  1  0
 24 27  4  0
 26 28  4  0
M  END
$$$$

 Created by Python create_sdf_string function

 29 33  0  0  0  0  0  0  0  0999 V2000
    8.8270   -7.0288   18.4251 C   0  0  0  0  0  0  0  0  0  0  0  0
    9.1576   -4.6236   15.8860 O   0  0  0  0  0  0  0  0  0  0  0  0
    9.1509   -5.9108   17.7177 C   0  0  0  0  0  0  0  0  0  0  0  0
    3.6373   -9.5349   16.0582 N   0  0  0  0  0  0  0  0  0  0  0  0
    9.9275   -4.8001   18.0438 N   0  0  0  0  0  0  0  0  0  0  0  0
    8.5908   -5.7425   16.4412 C   0  0  0  0  0  0  0  0  0  0  0  0
   10.5993   -4.8981   21.6068 C   0  0  0  0  0  0  0  0  0  0  0  0
   10.4258   -3.0106   23.0998 C   0  0  0  0  0  0  0  0  0  0  0  0
   10.2148   -3.4364   25.4200 C   0  0  0  0  0  0  0  0  0  0  0  0
    9.7853   -1.1840   24.4927 C   0  0  0  0  0  0  0  0  0  0  0  0
    5.0276   -8.5227   17.5352 C   0  0  0  0  0  0  0  0  0  0  0  0
    9.8187   -2.0895   25.5800 C   0  0  0  0  0  0  0  0  0  0  0  0
    5.6473   -8.7216   15.3158 C   0  0  0  0  0  0  0  0  0  0  0  0
   10.7581   -3.1233   19.4720 N   0  0  0  0  0  0  0  0  0  0  0  0
    9.9571   -4.0573   16.8866 C   0  0  0  0  0  0  0  0  0  0  0  0
    7.6213   -6.5618   16.0087 C   0  0  0  0  0  0  0  0  0  0  0  0
   10.8583   -2.6527   20.7222 C   0  0  0  0  0  0  0  0  0  0  0  0
   10.6412   -3.5089   21.7936 C   0  0  0  0  0  0  0  0  0  0  0  0
   10.4972   -3.8968   24.1589 C   0  0  0  0  0  0  0  0  0  0  0  0
    5.9260   -8.2736   16.5517 C   0  0  0  0  0  0  0  0  0  0  0  0
    3.8816   -9.1166   17.2493 C   0  0  0  0  0  0  0  0  0  0  0  0
   10.1297   -1.6575   23.2324 C   0  0  0  0  0  0  0  0  0  0  0  0
    9.4684   -1.6929   26.7263 F   0  0  0  0  0  0  0  0  0  0  0  0
    7.7963   -7.7906   17.9837 C   0  0  0  0  0  0  0  0  0  0  0  0
   10.5884   -3.0725   16.7902 O   0  0  0  0  0  0  0  0  0  0  0  0
   10.4323   -5.3494   20.3516 C   0  0  0  0  0  0  0  0  0  0  0  0
    7.1156   -7.5454   16.8218 C   0  0  0  0  0  0  0  0  0  0  0  0
   10.3885   -4.4388   19.2773 C   0  0  0  0  0  0  0  0  0  0  0  0
    4.5160   -9.3822   15.0841 C   0  0  0  0  0  0  0  0  0  0  0  0
  1  3  4  0
  1 24  4  0
  2  6  4  0
  2 15  4  0
  3  5  4  0
  3  6  4  0
  4 21  4  0
  4 29  4  0
  5 15  4  0
  5 28  1  0
  6 16  4  0
  7 18  4  0
  7 26  4  0
  8 18  1  0
  8 19  4  0
  8 22  4  0
  9 12  4  0
  9 19  4  0
 10 12  4  0
 10 22  4  0
 11 20  4  0
 11 21  4  0
 12 23  1  0
 13 20  4  0
 13 29  4  0
 14 17  4  0
 14 28  4  0
 15 25  2  0
 16 27  4  0
 17 18  4  0
 20 27  1  0
 24 27  4  0
 26 28  4  0
M  END
$$$$

 Created by Python create_sdf_string function

 29 33  0  0  0  0  0  0  0  0999 V2000
    8.8270   -7.0288   18.4251 C   0  0  0  0  0  0  0  0  0  0  0  0
    9.1576   -4.6236   15.8860 O   0  0  0  0  0  0  0  0  0  0  0  0
    9.1509   -5.9108   17.7177 C   0  0  0  0  0  0  0  0  0  0  0  0
    3.6373   -9.5349   16.0582 N   0  0  0  0  0  0  0  0  0  0  0  0
    9.9275   -4.8001   18.0438 N   0  0  0  0  0  0  0  0  0  0  0  0
    8.5908   -5.7425   16.4412 C   0  0  0  0  0  0  0  0  0  0  0  0
   10.5993   -4.8981   21.6068 C   0  0  0  0  0  0  0  0  0  0  0  0
   10.4258   -3.0106   23.0998 C   0  0  0  0  0  0  0  0  0  0  0  0
   10.2148   -3.4364   25.4200 C   0  0  0  0  0  0  0  0  0  0  0  0
    9.7853   -1.1840   24.4927 C   0  0  0  0  0  0  0  0  0  0  0  0
    5.0276   -8.5227   17.5352 C   0  0  0  0  0  0  0  0  0  0  0  0
    9.8187   -2.0895   25.5800 C   0  0  0  0  0  0  0  0  0  0  0  0
    5.6473   -8.7216   15.3158 C   0  0  0  0  0  0  0  0  0  0  0  0
   10.7581   -3.1233   19.4720 N   0  0  0  0  0  0  0  0  0  0  0  0
    9.9571   -4.0573   16.8866 C   0  0  0  0  0  0  0  0  0  0  0  0
    7.6213   -6.5618   16.0087 C   0  0  0  0  0  0  0  0  0  0  0  0
   10.8583   -2.6527   20.7222 C   0  0  0  0  0  0  0  0  0  0  0  0
   10.6412   -3.5089   21.7936 C   0  0  0  0  0  0  0  0  0  0  0  0
   10.4972   -3.8968   24.1589 C   0  0  0  0  0  0  0  0  0  0  0  0
    5.9260   -8.2736   16.5517 C   0  0  0  0  0  0  0  0  0  0  0  0
    3.8816   -9.1166   17.2493 C   0  0  0  0  0  0  0  0  0  0  0  0
   10.1297   -1.6575   23.2324 C   0  0  0  0  0  0  0  0  0  0  0  0
    9.4684   -1.6929   26.7263 F   0  0  0  0  0  0  0  0  0  0  0  0
    7.7963   -7.7906   17.9837 C   0  0  0  0  0  0  0  0  0  0  0  0
   10.5884   -3.0725   16.7902 O   0  0  0  0  0  0  0  0  0  0  0  0
   10.4323   -5.3494   20.3516 C   0  0  0  0  0  0  0  0  0  0  0  0
    7.1156   -7.5454   16.8218 C   0  0  0  0  0  0  0  0  0  0  0  0
   10.3885   -4.4388   19.2773 C   0  0  0  0  0  0  0  0  0  0  0  0
    4.5160   -9.3822   15.0841 C   0  0  0  0  0  0  0  0  0  0  0  0
  1  3  4  0
  1 24  4  0
  2  6  4  0
  2 15  4  0
  3  5  4  0
  3  6  4  0
  4 21  4  0
  4 29  4  0
  5 15  4  0
  5 28  1  0
  6 16  4  0
  7 18  4  0
  7 26  4  0
  8 18  1  0
  8 19  4  0
  8 22  4  0
  9 12  4  0
  9 19  4  0
 10 12  4  0
 10 22  4  0
 11 20  4  0
 11 21  4  0
 12 23  1  0
 13 20  4  0
 13 29  4  0
 14 17  4  0
 14 28  4  0
 15 25  2  0
 16 27  4  0
 17 18  4  0
 20 27  1  0
 24 27  4  0
 26 28  4  0
M  END
$$$$

 Created by Python create_sdf_string function

 29 33  0  0  0  0  0  0  0  0999 V2000
    8.8270   -7.0288   18.4251 C   0  0  0  0  0  0  0  0  0  0  0  0
    9.1576   -4.6236   15.8860 O   0  0  0  0  0  0  0  0  0  0  0  0
    9.1509   -5.9108   17.7177 C   0  0  0  0  0  0  0  0  0  0  0  0
    3.6373   -9.5349   16.0582 N   0  0  0  0  0  0  0  0  0  0  0  0
    9.9275   -4.8001   18.0438 N   0  0  0  0  0  0  0  0  0  0  0  0
    8.5908   -5.7425   16.4412 C   0  0  0  0  0  0  0  0  0  0  0  0
   10.5993   -4.8981   21.6068 C   0  0  0  0  0  0  0  0  0  0  0  0
   10.4258   -3.0106   23.0998 C   0  0  0  0  0  0  0  0  0  0  0  0
   10.2148   -3.4364   25.4200 C   0  0  0  0  0  0  0  0  0  0  0  0
    9.7853   -1.1840   24.4927 C   0  0  0  0  0  0  0  0  0  0  0  0
    5.0276   -8.5227   17.5352 C   0  0  0  0  0  0  0  0  0  0  0  0
    9.8187   -2.0895   25.5800 C   0  0  0  0  0  0  0  0  0  0  0  0
    5.6473   -8.7216   15.3158 C   0  0  0  0  0  0  0  0  0  0  0  0
   10.7581   -3.1233   19.4720 N   0  0  0  0  0  0  0  0  0  0  0  0
    9.9571   -4.0573   16.8866 C   0  0  0  0  0  0  0  0  0  0  0  0
    7.6213   -6.5618   16.0087 C   0  0  0  0  0  0  0  0  0  0  0  0
   10.8583   -2.6527   20.7222 C   0  0  0  0  0  0  0  0  0  0  0  0
   10.6412   -3.5089   21.7936 C   0  0  0  0  0  0  0  0  0  0  0  0
   10.4972   -3.8968   24.1589 C   0  0  0  0  0  0  0  0  0  0  0  0
    5.9260   -8.2736   16.5517 C   0  0  0  0  0  0  0  0  0  0  0  0
    3.8816   -9.1166   17.2493 C   0  0  0  0  0  0  0  0  0  0  0  0
   10.1297   -1.6575   23.2324 C   0  0  0  0  0  0  0  0  0  0  0  0
    9.4684   -1.6929   26.7263 F   0  0  0  0  0  0  0  0  0  0  0  0
    7.7963   -7.7906   17.9837 C   0  0  0  0  0  0  0  0  0  0  0  0
   10.5884   -3.0725   16.7902 O   0  0  0  0  0  0  0  0  0  0  0  0
   10.4323   -5.3494   20.3516 C   0  0  0  0  0  0  0  0  0  0  0  0
    7.1156   -7.5454   16.8218 C   0  0  0  0  0  0  0  0  0  0  0  0
   10.3885   -4.4388   19.2773 C   0  0  0  0  0  0  0  0  0  0  0  0
    4.5160   -9.3822   15.0841 C   0  0  0  0  0  0  0  0  0  0  0  0
  1  3  4  0
  1 24  4  0
  2  6  4  0
  2 15  4  0
  3  5  4  0
  3  6  4  0
  4 21  4  0
  4 29  4  0
  5 15  4  0
  5 28  1  0
  6 16  4  0
  7 18  4  0
  7 26  4  0
  8 18  1  0
  8 19  4  0
  8 22  4  0
  9 12  4  0
  9 19  4  0
 10 12  4  0
 10 22  4  0
 11 20  4  0
 11 21  4  0
 12 23  1  0
 13 20  4  0
 13 29  4  0
 14 17  4  0
 14 28  4  0
 15 25  2  0
 16 27  4  0
 17 18  4  0
 20 27  1  0
 24 27  4  0
 26 28  4  0
M  END
$$$$

 Created by Python create_sdf_string function

 29 33  0  0  0  0  0  0  0  0999 V2000
    8.8270   -7.0288   18.4251 C   0  0  0  0  0  0  0  0  0  0  0  0
    9.1576   -4.6236   15.8860 O   0  0  0  0  0  0  0  0  0  0  0  0
    9.1509   -5.9108   17.7177 C   0  0  0  0  0  0  0  0  0  0  0  0
    3.6373   -9.5349   16.0582 N   0  0  0  0  0  0  0  0  0  0  0  0
    9.9275   -4.8001   18.0438 N   0  0  0  0  0  0  0  0  0  0  0  0
    8.5908   -5.7425   16.4412 C   0  0  0  0  0  0  0  0  0  0  0  0
   10.5993   -4.8981   21.6068 C   0  0  0  0  0  0  0  0  0  0  0  0
   10.4258   -3.0106   23.0998 C   0  0  0  0  0  0  0  0  0  0  0  0
   10.2148   -3.4364   25.4200 C   0  0  0  0  0  0  0  0  0  0  0  0
    9.7853   -1.1840   24.4927 C   0  0  0  0  0  0  0  0  0  0  0  0
    5.0276   -8.5227   17.5352 C   0  0  0  0  0  0  0  0  0  0  0  0
    9.8187   -2.0895   25.5800 C   0  0  0  0  0  0  0  0  0  0  0  0
    5.6473   -8.7216   15.3158 C   0  0  0  0  0  0  0  0  0  0  0  0
   10.7581   -3.1233   19.4720 N   0  0  0  0  0  0  0  0  0  0  0  0
    9.9571   -4.0573   16.8866 C   0  0  0  0  0  0  0  0  0  0  0  0
    7.6213   -6.5618   16.0087 C   0  0  0  0  0  0  0  0  0  0  0  0
   10.8583   -2.6527   20.7222 C   0  0  0  0  0  0  0  0  0  0  0  0
   10.6412   -3.5089   21.7936 C   0  0  0  0  0  0  0  0  0  0  0  0
   10.4972   -3.8968   24.1589 C   0  0  0  0  0  0  0  0  0  0  0  0
    5.9260   -8.2736   16.5517 C   0  0  0  0  0  0  0  0  0  0  0  0
    3.8816   -9.1166   17.2493 C   0  0  0  0  0  0  0  0  0  0  0  0
   10.1297   -1.6575   23.2324 C   0  0  0  0  0  0  0  0  0  0  0  0
    9.4684   -1.6929   26.7263 F   0  0  0  0  0  0  0  0  0  0  0  0
    7.7963   -7.7906   17.9837 C   0  0  0  0  0  0  0  0  0  0  0  0
   10.5884   -3.0725   16.7902 O   0  0  0  0  0  0  0  0  0  0  0  0
   10.4323   -5.3494   20.3516 C   0  0  0  0  0  0  0  0  0  0  0  0
    7.1156   -7.5454   16.8218 C   0  0  0  0  0  0  0  0  0  0  0  0
   10.3885   -4.4388   19.2773 C   0  0  0  0  0  0  0  0  0  0  0  0
    4.5160   -9.3822   15.0841 C   0  0  0  0  0  0  0  0  0  0  0  0
  1  3  4  0
  1 24  4  0
  2  6  4  0
  2 15  4  0
  3  5  4  0
  3  6  4  0
  4 21  4  0
  4 29  4  0
  5 15  4  0
  5 28  1  0
  6 16  4  0
  7 18  4  0
  7 26  4  0
  8 18  1  0
  8 19  4  0
  8 22  4  0
  9 12  4  0
  9 19  4  0
 10 12  4  0
 10 22  4  0
 11 20  4  0
 11 21  4  0
 12 23  1  0
 13 20  4  0
 13 29  4  0
 14 17  4  0
 14 28  4  0
 15 25  2  0
 16 27  4  0
 17 18  4  0
 20 27  1  0
 24 27  4  0
 26 28  4  0
M  END
$$$$

 Created by Python create_sdf_string function

 29 33  0  0  0  0  0  0  0  0999 V2000
    8.8270   -7.0288   18.4251 C   0  0  0  0  0  0  0  0  0  0  0  0
    9.1576   -4.6236   15.8860 O   0  0  0  0  0  0  0  0  0  0  0  0
    9.1509   -5.9108   17.7177 C   0  0  0  0  0  0  0  0  0  0  0  0
    3.6373   -9.5349   16.0582 N   0  0  0  0  0  0  0  0  0  0  0  0
    9.9275   -4.8001   18.0438 N   0  0  0  0  0  0  0  0  0  0  0  0
    8.5908   -5.7425   16.4412 C   0  0  0  0  0  0  0  0  0  0  0  0
   10.5993   -4.8981   21.6068 C   0  0  0  0  0  0  0  0  0  0  0  0
   10.4258   -3.0106   23.0998 C   0  0  0  0  0  0  0  0  0  0  0  0
   10.2148   -3.4364   25.4200 C   0  0  0  0  0  0  0  0  0  0  0  0
    9.7853   -1.1840   24.4927 C   0  0  0  0  0  0  0  0  0  0  0  0
    5.0276   -8.5227   17.5352 C   0  0  0  0  0  0  0  0  0  0  0  0
    9.8187   -2.0895   25.5800 C   0  0  0  0  0  0  0  0  0  0  0  0
    5.6473   -8.7216   15.3158 C   0  0  0  0  0  0  0  0  0  0  0  0
   10.7581   -3.1233   19.4720 N   0  0  0  0  0  0  0  0  0  0  0  0
    9.9571   -4.0573   16.8866 C   0  0  0  0  0  0  0  0  0  0  0  0
    7.6213   -6.5618   16.0087 C   0  0  0  0  0  0  0  0  0  0  0  0
   10.8583   -2.6527   20.7222 C   0  0  0  0  0  0  0  0  0  0  0  0
   10.6412   -3.5089   21.7936 C   0  0  0  0  0  0  0  0  0  0  0  0
   10.4972   -3.8968   24.1589 C   0  0  0  0  0  0  0  0  0  0  0  0
    5.9260   -8.2736   16.5517 C   0  0  0  0  0  0  0  0  0  0  0  0
    3.8816   -9.1166   17.2493 C   0  0  0  0  0  0  0  0  0  0  0  0
   10.1297   -1.6575   23.2324 C   0  0  0  0  0  0  0  0  0  0  0  0
    9.4684   -1.6929   26.7263 F   0  0  0  0  0  0  0  0  0  0  0  0
    7.7963   -7.7906   17.9837 C   0  0  0  0  0  0  0  0  0  0  0  0
   10.5884   -3.0725   16.7902 O   0  0  0  0  0  0  0  0  0  0  0  0
   10.4323   -5.3494   20.3516 C   0  0  0  0  0  0  0  0  0  0  0  0
    7.1156   -7.5454   16.8218 C   0  0  0  0  0  0  0  0  0  0  0  0
   10.3885   -4.4388   19.2773 C   0  0  0  0  0  0  0  0  0  0  0  0
    4.5160   -9.3822   15.0841 C   0  0  0  0  0  0  0  0  0  0  0  0
  1  3  4  0
  1 24  4  0
  2  6  4  0
  2 15  4  0
  3  5  4  0
  3  6  4  0
  4 21  4  0
  4 29  4  0
  5 15  4  0
  5 28  1  0
  6 16  4  0
  7 18  4  0
  7 26  4  0
  8 18  1  0
  8 19  4  0
  8 22  4  0
  9 12  4  0
  9 19  4  0
 10 12  4  0
 10 22  4  0
 11 20  4  0
 11 21  4  0
 12 23  1  0
 13 20  4  0
 13 29  4  0
 14 17  4  0
 14 28  4  0
 15 25  2  0
 16 27  4  0
 17 18  4  0
 20 27  1  0
 24 27  4  0
 26 28  4  0
M  END
$$$$

 Created by Python create_sdf_string function

 29 33  0  0  0  0  0  0  0  0999 V2000
    8.8270   -7.0288   18.4251 C   0  0  0  0  0  0  0  0  0  0  0  0
    9.1576   -4.6236   15.8860 O   0  0  0  0  0  0  0  0  0  0  0  0
    9.1509   -5.9108   17.7177 C   0  0  0  0  0  0  0  0  0  0  0  0
    3.6373   -9.5349   16.0582 N   0  0  0  0  0  0  0  0  0  0  0  0
    9.9275   -4.8001   18.0438 N   0  0  0  0  0  0  0  0  0  0  0  0
    8.5908   -5.7425   16.4412 C   0  0  0  0  0  0  0  0  0  0  0  0
   10.5993   -4.8981   21.6068 C   0  0  0  0  0  0  0  0  0  0  0  0
   10.4258   -3.0106   23.0998 C   0  0  0  0  0  0  0  0  0  0  0  0
   10.2148   -3.4364   25.4200 C   0  0  0  0  0  0  0  0  0  0  0  0
    9.7853   -1.1840   24.4927 C   0  0  0  0  0  0  0  0  0  0  0  0
    5.0276   -8.5227   17.5352 C   0  0  0  0  0  0  0  0  0  0  0  0
    9.8187   -2.0895   25.5800 C   0  0  0  0  0  0  0  0  0  0  0  0
    5.6473   -8.7216   15.3158 C   0  0  0  0  0  0  0  0  0  0  0  0
   10.7581   -3.1233   19.4720 N   0  0  0  0  0  0  0  0  0  0  0  0
    9.9571   -4.0573   16.8866 C   0  0  0  0  0  0  0  0  0  0  0  0
    7.6213   -6.5618   16.0087 C   0  0  0  0  0  0  0  0  0  0  0  0
   10.8583   -2.6527   20.7222 C   0  0  0  0  0  0  0  0  0  0  0  0
   10.6412   -3.5089   21.7936 C   0  0  0  0  0  0  0  0  0  0  0  0
   10.4972   -3.8968   24.1589 C   0  0  0  0  0  0  0  0  0  0  0  0
    5.9260   -8.2736   16.5517 C   0  0  0  0  0  0  0  0  0  0  0  0
    3.8816   -9.1166   17.2493 C   0  0  0  0  0  0  0  0  0  0  0  0
   10.1297   -1.6575   23.2324 C   0  0  0  0  0  0  0  0  0  0  0  0
    9.4684   -1.6929   26.7263 F   0  0  0  0  0  0  0  0  0  0  0  0
    7.7963   -7.7906   17.9837 C   0  0  0  0  0  0  0  0  0  0  0  0
   10.5884   -3.0725   16.7902 O   0  0  0  0  0  0  0  0  0  0  0  0
   10.4323   -5.3494   20.3516 C   0  0  0  0  0  0  0  0  0  0  0  0
    7.1156   -7.5454   16.8218 C   0  0  0  0  0  0  0  0  0  0  0  0
   10.3885   -4.4388   19.2773 C   0  0  0  0  0  0  0  0  0  0  0  0
    4.5160   -9.3822   15.0841 C   0  0  0  0  0  0  0  0  0  0  0  0
  1  3  4  0
  1 24  4  0
  2  6  4  0
  2 15  4  0
  3  5  4  0
  3  6  4  0
  4 21  4  0
  4 29  4  0
  5 15  4  0
  5 28  1  0
  6 16  4  0
  7 18  4  0
  7 26  4  0
  8 18  1  0
  8 19  4  0
  8 22  4  0
  9 12  4  0
  9 19  4  0
 10 12  4  0
 10 22  4  0
 11 20  4  0
 11 21  4  0
 12 23  1  0
 13 20  4  0
 13 29  4  0
 14 17  4  0
 14 28  4  0
 15 25  2  0
 16 27  4  0
 17 18  4  0
 20 27  1  0
 24 27  4  0
 26 28  4  0
M  END
$$$$

 Created by Python create_sdf_string function

 29 33  0  0  0  0  0  0  0  0999 V2000
    8.8270   -7.0288   18.4251 C   0  0  0  0  0  0  0  0  0  0  0  0
    9.1576   -4.6236   15.8860 O   0  0  0  0  0  0  0  0  0  0  0  0
    9.1509   -5.9108   17.7177 C   0  0  0  0  0  0  0  0  0  0  0  0
    3.6373   -9.5349   16.0582 N   0  0  0  0  0  0  0  0  0  0  0  0
    9.9275   -4.8001   18.0438 N   0  0  0  0  0  0  0  0  0  0  0  0
    8.5908   -5.7425   16.4412 C   0  0  0  0  0  0  0  0  0  0  0  0
   10.5993   -4.8981   21.6068 C   0  0  0  0  0  0  0  0  0  0  0  0
   10.4258   -3.0106   23.0998 C   0  0  0  0  0  0  0  0  0  0  0  0
   10.2148   -3.4364   25.4200 C   0  0  0  0  0  0  0  0  0  0  0  0
    9.7853   -1.1840   24.4927 C   0  0  0  0  0  0  0  0  0  0  0  0
    5.0276   -8.5227   17.5352 C   0  0  0  0  0  0  0  0  0  0  0  0
    9.8187   -2.0895   25.5800 C   0  0  0  0  0  0  0  0  0  0  0  0
    5.6473   -8.7216   15.3158 C   0  0  0  0  0  0  0  0  0  0  0  0
   10.7581   -3.1233   19.4720 N   0  0  0  0  0  0  0  0  0  0  0  0
    9.9571   -4.0573   16.8866 C   0  0  0  0  0  0  0  0  0  0  0  0
    7.6213   -6.5618   16.0087 C   0  0  0  0  0  0  0  0  0  0  0  0
   10.8583   -2.6527   20.7222 C   0  0  0  0  0  0  0  0  0  0  0  0
   10.6412   -3.5089   21.7936 C   0  0  0  0  0  0  0  0  0  0  0  0
   10.4972   -3.8968   24.1589 C   0  0  0  0  0  0  0  0  0  0  0  0
    5.9260   -8.2736   16.5517 C   0  0  0  0  0  0  0  0  0  0  0  0
    3.8816   -9.1166   17.2493 C   0  0  0  0  0  0  0  0  0  0  0  0
   10.1297   -1.6575   23.2324 C   0  0  0  0  0  0  0  0  0  0  0  0
    9.4684   -1.6929   26.7263 F   0  0  0  0  0  0  0  0  0  0  0  0
    7.7963   -7.7906   17.9837 C   0  0  0  0  0  0  0  0  0  0  0  0
   10.5884   -3.0725   16.7902 O   0  0  0  0  0  0  0  0  0  0  0  0
   10.4323   -5.3494   20.3516 C   0  0  0  0  0  0  0  0  0  0  0  0
    7.1156   -7.5454   16.8218 C   0  0  0  0  0  0  0  0  0  0  0  0
   10.3885   -4.4388   19.2773 C   0  0  0  0  0  0  0  0  0  0  0  0
    4.5160   -9.3822   15.0841 C   0  0  0  0  0  0  0  0  0  0  0  0
  1  3  4  0
  1 24  4  0
  2  6  4  0
  2 15  4  0
  3  5  4  0
  3  6  4  0
  4 21  4  0
  4 29  4  0
  5 15  4  0
  5 28  1  0
  6 16  4  0
  7 18  4  0
  7 26  4  0
  8 18  1  0
  8 19  4  0
  8 22  4  0
  9 12  4  0
  9 19  4  0
 10 12  4  0
 10 22  4  0
 11 20  4  0
 11 21  4  0
 12 23  1  0
 13 20  4  0
 13 29  4  0
 14 17  4  0
 14 28  4  0
 15 25  2  0
 16 27  4  0
 17 18  4  0
 20 27  1  0
 24 27  4  0
 26 28  4  0
M  END
$$$$

 Created by Python create_sdf_string function

 29 33  0  0  0  0  0  0  0  0999 V2000
    8.8270   -7.0288   18.4251 C   0  0  0  0  0  0  0  0  0  0  0  0
    9.1576   -4.6236   15.8860 O   0  0  0  0  0  0  0  0  0  0  0  0
    9.1509   -5.9108   17.7177 C   0  0  0  0  0  0  0  0  0  0  0  0
    3.6373   -9.5349   16.0582 N   0  0  0  0  0  0  0  0  0  0  0  0
    9.9275   -4.8001   18.0438 N   0  0  0  0  0  0  0  0  0  0  0  0
    8.5908   -5.7425   16.4412 C   0  0  0  0  0  0  0  0  0  0  0  0
   10.5993   -4.8981   21.6068 C   0  0  0  0  0  0  0  0  0  0  0  0
   10.4258   -3.0106   23.0998 C   0  0  0  0  0  0  0  0  0  0  0  0
   10.2148   -3.4364   25.4200 C   0  0  0  0  0  0  0  0  0  0  0  0
    9.7853   -1.1840   24.4927 C   0  0  0  0  0  0  0  0  0  0  0  0
    5.0276   -8.5227   17.5352 C   0  0  0  0  0  0  0  0  0  0  0  0
    9.8187   -2.0895   25.5800 C   0  0  0  0  0  0  0  0  0  0  0  0
    5.6473   -8.7216   15.3158 C   0  0  0  0  0  0  0  0  0  0  0  0
   10.7581   -3.1233   19.4720 N   0  0  0  0  0  0  0  0  0  0  0  0
    9.9571   -4.0573   16.8866 C   0  0  0  0  0  0  0  0  0  0  0  0
    7.6213   -6.5618   16.0087 C   0  0  0  0  0  0  0  0  0  0  0  0
   10.8583   -2.6527   20.7222 C   0  0  0  0  0  0  0  0  0  0  0  0
   10.6412   -3.5089   21.7936 C   0  0  0  0  0  0  0  0  0  0  0  0
   10.4972   -3.8968   24.1589 C   0  0  0  0  0  0  0  0  0  0  0  0
    5.9260   -8.2736   16.5517 C   0  0  0  0  0  0  0  0  0  0  0  0
    3.8816   -9.1166   17.2493 C   0  0  0  0  0  0  0  0  0  0  0  0
   10.1297   -1.6575   23.2324 C   0  0  0  0  0  0  0  0  0  0  0  0
    9.4684   -1.6929   26.7263 F   0  0  0  0  0  0  0  0  0  0  0  0
    7.7963   -7.7906   17.9837 C   0  0  0  0  0  0  0  0  0  0  0  0
   10.5884   -3.0725   16.7902 O   0  0  0  0  0  0  0  0  0  0  0  0
   10.4323   -5.3494   20.3516 C   0  0  0  0  0  0  0  0  0  0  0  0
    7.1156   -7.5454   16.8218 C   0  0  0  0  0  0  0  0  0  0  0  0
   10.3885   -4.4388   19.2773 C   0  0  0  0  0  0  0  0  0  0  0  0
    4.5160   -9.3822   15.0841 C   0  0  0  0  0  0  0  0  0  0  0  0
  1  3  4  0
  1 24  4  0
  2  6  4  0
  2 15  4  0
  3  5  4  0
  3  6  4  0
  4 21  4  0
  4 29  4  0
  5 15  4  0
  5 28  1  0
  6 16  4  0
  7 18  4  0
  7 26  4  0
  8 18  1  0
  8 19  4  0
  8 22  4  0
  9 12  4  0
  9 19  4  0
 10 12  4  0
 10 22  4  0
 11 20  4  0
 11 21  4  0
 12 23  1  0
 13 20  4  0
 13 29  4  0
 14 17  4  0
 14 28  4  0
 15 25  2  0
 16 27  4  0
 17 18  4  0
 20 27  1  0
 24 27  4  0
 26 28  4  0
M  END
$$$$

 Created by Python create_sdf_string function

 29 33  0  0  0  0  0  0  0  0999 V2000
    8.8270   -7.0288   18.4251 C   0  0  0  0  0  0  0  0  0  0  0  0
    9.1576   -4.6236   15.8860 O   0  0  0  0  0  0  0  0  0  0  0  0
    9.1509   -5.9108   17.7177 C   0  0  0  0  0  0  0  0  0  0  0  0
    3.6373   -9.5349   16.0582 N   0  0  0  0  0  0  0  0  0  0  0  0
    9.9275   -4.8001   18.0438 N   0  0  0  0  0  0  0  0  0  0  0  0
    8.5908   -5.7425   16.4412 C   0  0  0  0  0  0  0  0  0  0  0  0
   10.5993   -4.8981   21.6068 C   0  0  0  0  0  0  0  0  0  0  0  0
   10.4258   -3.0106   23.0998 C   0  0  0  0  0  0  0  0  0  0  0  0
   10.2148   -3.4364   25.4200 C   0  0  0  0  0  0  0  0  0  0  0  0
    9.7853   -1.1840   24.4927 C   0  0  0  0  0  0  0  0  0  0  0  0
    5.0276   -8.5227   17.5352 C   0  0  0  0  0  0  0  0  0  0  0  0
    9.8187   -2.0895   25.5800 C   0  0  0  0  0  0  0  0  0  0  0  0
    5.6473   -8.7216   15.3158 C   0  0  0  0  0  0  0  0  0  0  0  0
   10.7581   -3.1233   19.4720 N   0  0  0  0  0  0  0  0  0  0  0  0
    9.9571   -4.0573   16.8866 C   0  0  0  0  0  0  0  0  0  0  0  0
    7.6213   -6.5618   16.0087 C   0  0  0  0  0  0  0  0  0  0  0  0
   10.8583   -2.6527   20.7222 C   0  0  0  0  0  0  0  0  0  0  0  0
   10.6412   -3.5089   21.7936 C   0  0  0  0  0  0  0  0  0  0  0  0
   10.4972   -3.8968   24.1589 C   0  0  0  0  0  0  0  0  0  0  0  0
    5.9260   -8.2736   16.5517 C   0  0  0  0  0  0  0  0  0  0  0  0
    3.8816   -9.1166   17.2493 C   0  0  0  0  0  0  0  0  0  0  0  0
   10.1297   -1.6575   23.2324 C   0  0  0  0  0  0  0  0  0  0  0  0
    9.4684   -1.6929   26.7263 F   0  0  0  0  0  0  0  0  0  0  0  0
    7.7963   -7.7906   17.9837 C   0  0  0  0  0  0  0  0  0  0  0  0
   10.5884   -3.0725   16.7902 O   0  0  0  0  0  0  0  0  0  0  0  0
   10.4323   -5.3494   20.3516 C   0  0  0  0  0  0  0  0  0  0  0  0
    7.1156   -7.5454   16.8218 C   0  0  0  0  0  0  0  0  0  0  0  0
   10.3885   -4.4388   19.2773 C   0  0  0  0  0  0  0  0  0  0  0  0
    4.5160   -9.3822   15.0841 C   0  0  0  0  0  0  0  0  0  0  0  0
  1  3  4  0
  1 24  4  0
  2  6  4  0
  2 15  4  0
  3  5  4  0
  3  6  4  0
  4 21  4  0
  4 29  4  0
  5 15  4  0
  5 28  1  0
  6 16  4  0
  7 18  4  0
  7 26  4  0
  8 18  1  0
  8 19  4  0
  8 22  4  0
  9 12  4  0
  9 19  4  0
 10 12  4  0
 10 22  4  0
 11 20  4  0
 11 21  4  0
 12 23  1  0
 13 20  4  0
 13 29  4  0
 14 17  4  0
 14 28  4  0
 15 25  2  0
 16 27  4  0
 17 18  4  0
 20 27  1  0
 24 27  4  0
 26 28  4  0
M  END
$$$$

 Created by Python create_sdf_string function

 29 33  0  0  0  0  0  0  0  0999 V2000
    8.8270   -7.0288   18.4251 C   0  0  0  0  0  0  0  0  0  0  0  0
    9.1576   -4.6236   15.8860 O   0  0  0  0  0  0  0  0  0  0  0  0
    9.1509   -5.9108   17.7177 C   0  0  0  0  0  0  0  0  0  0  0  0
    3.6373   -9.5349   16.0582 N   0  0  0  0  0  0  0  0  0  0  0  0
    9.9275   -4.8001   18.0438 N   0  0  0  0  0  0  0  0  0  0  0  0
    8.5908   -5.7425   16.4412 C   0  0  0  0  0  0  0  0  0  0  0  0
   10.5993   -4.8981   21.6068 C   0  0  0  0  0  0  0  0  0  0  0  0
   10.4258   -3.0106   23.0998 C   0  0  0  0  0  0  0  0  0  0  0  0
   10.2148   -3.4364   25.4200 C   0  0  0  0  0  0  0  0  0  0  0  0
    9.7853   -1.1840   24.4927 C   0  0  0  0  0  0  0  0  0  0  0  0
    5.0276   -8.5227   17.5352 C   0  0  0  0  0  0  0  0  0  0  0  0
    9.8187   -2.0895   25.5800 C   0  0  0  0  0  0  0  0  0  0  0  0
    5.6473   -8.7216   15.3158 C   0  0  0  0  0  0  0  0  0  0  0  0
   10.7581   -3.1233   19.4720 N   0  0  0  0  0  0  0  0  0  0  0  0
    9.9571   -4.0573   16.8866 C   0  0  0  0  0  0  0  0  0  0  0  0
    7.6213   -6.5618   16.0087 C   0  0  0  0  0  0  0  0  0  0  0  0
   10.8583   -2.6527   20.7222 C   0  0  0  0  0  0  0  0  0  0  0  0
   10.6412   -3.5089   21.7936 C   0  0  0  0  0  0  0  0  0  0  0  0
   10.4972   -3.8968   24.1589 C   0  0  0  0  0  0  0  0  0  0  0  0
    5.9260   -8.2736   16.5517 C   0  0  0  0  0  0  0  0  0  0  0  0
    3.8816   -9.1166   17.2493 C   0  0  0  0  0  0  0  0  0  0  0  0
   10.1297   -1.6575   23.2324 C   0  0  0  0  0  0  0  0  0  0  0  0
    9.4684   -1.6929   26.7263 F   0  0  0  0  0  0  0  0  0  0  0  0
    7.7963   -7.7906   17.9837 C   0  0  0  0  0  0  0  0  0  0  0  0
   10.5884   -3.0725   16.7902 O   0  0  0  0  0  0  0  0  0  0  0  0
   10.4323   -5.3494   20.3516 C   0  0  0  0  0  0  0  0  0  0  0  0
    7.1156   -7.5454   16.8218 C   0  0  0  0  0  0  0  0  0  0  0  0
   10.3885   -4.4388   19.2773 C   0  0  0  0  0  0  0  0  0  0  0  0
    4.5160   -9.3822   15.0841 C   0  0  0  0  0  0  0  0  0  0  0  0
  1  3  4  0
  1 24  4  0
  2  6  4  0
  2 15  4  0
  3  5  4  0
  3  6  4  0
  4 21  4  0
  4 29  4  0
  5 15  4  0
  5 28  1  0
  6 16  4  0
  7 18  4  0
  7 26  4  0
  8 18  1  0
  8 19  4  0
  8 22  4  0
  9 12  4  0
  9 19  4  0
 10 12  4  0
 10 22  4  0
 11 20  4  0
 11 21  4  0
 12 23  1  0
 13 20  4  0
 13 29  4  0
 14 17  4  0
 14 28  4  0
 15 25  2  0
 16 27  4  0
 17 18  4  0
 20 27  1  0
 24 27  4  0
 26 28  4  0
M  END
$$$$

 Created by Python create_sdf_string function

 29 33  0  0  0  0  0  0  0  0999 V2000
    8.8270   -7.0288   18.4251 C   0  0  0  0  0  0  0  0  0  0  0  0
    9.1576   -4.6236   15.8860 O   0  0  0  0  0  0  0  0  0  0  0  0
    9.1509   -5.9108   17.7177 C   0  0  0  0  0  0  0  0  0  0  0  0
    3.6373   -9.5349   16.0582 N   0  0  0  0  0  0  0  0  0  0  0  0
    9.9275   -4.8001   18.0438 N   0  0  0  0  0  0  0  0  0  0  0  0
    8.5908   -5.7425   16.4412 C   0  0  0  0  0  0  0  0  0  0  0  0
   10.5993   -4.8981   21.6068 C   0  0  0  0  0  0  0  0  0  0  0  0
   10.4258   -3.0106   23.0998 C   0  0  0  0  0  0  0  0  0  0  0  0
   10.2148   -3.4364   25.4200 C   0  0  0  0  0  0  0  0  0  0  0  0
    9.7853   -1.1840   24.4927 C   0  0  0  0  0  0  0  0  0  0  0  0
    5.0276   -8.5227   17.5352 C   0  0  0  0  0  0  0  0  0  0  0  0
    9.8187   -2.0895   25.5800 C   0  0  0  0  0  0  0  0  0  0  0  0
    5.6473   -8.7216   15.3158 C   0  0  0  0  0  0  0  0  0  0  0  0
   10.7581   -3.1233   19.4720 N   0  0  0  0  0  0  0  0  0  0  0  0
    9.9571   -4.0573   16.8866 C   0  0  0  0  0  0  0  0  0  0  0  0
    7.6213   -6.5618   16.0087 C   0  0  0  0  0  0  0  0  0  0  0  0
   10.8583   -2.6527   20.7222 C   0  0  0  0  0  0  0  0  0  0  0  0
   10.6412   -3.5089   21.7936 C   0  0  0  0  0  0  0  0  0  0  0  0
   10.4972   -3.8968   24.1589 C   0  0  0  0  0  0  0  0  0  0  0  0
    5.9260   -8.2736   16.5517 C   0  0  0  0  0  0  0  0  0  0  0  0
    3.8816   -9.1166   17.2493 C   0  0  0  0  0  0  0  0  0  0  0  0
   10.1297   -1.6575   23.2324 C   0  0  0  0  0  0  0  0  0  0  0  0
    9.4684   -1.6929   26.7263 F   0  0  0  0  0  0  0  0  0  0  0  0
    7.7963   -7.7906   17.9837 C   0  0  0  0  0  0  0  0  0  0  0  0
   10.5884   -3.0725   16.7902 O   0  0  0  0  0  0  0  0  0  0  0  0
   10.4323   -5.3494   20.3516 C   0  0  0  0  0  0  0  0  0  0  0  0
    7.1156   -7.5454   16.8218 C   0  0  0  0  0  0  0  0  0  0  0  0
   10.3885   -4.4388   19.2773 C   0  0  0  0  0  0  0  0  0  0  0  0
    4.5160   -9.3822   15.0841 C   0  0  0  0  0  0  0  0  0  0  0  0
  1  3  4  0
  1 24  4  0
  2  6  4  0
  2 15  4  0
  3  5  4  0
  3  6  4  0
  4 21  4  0
  4 29  4  0
  5 15  4  0
  5 28  1  0
  6 16  4  0
  7 18  4  0
  7 26  4  0
  8 18  1  0
  8 19  4  0
  8 22  4  0
  9 12  4  0
  9 19  4  0
 10 12  4  0
 10 22  4  0
 11 20  4  0
 11 21  4  0
 12 23  1  0
 13 20  4  0
 13 29  4  0
 14 17  4  0
 14 28  4  0
 15 25  2  0
 16 27  4  0
 17 18  4  0
 20 27  1  0
 24 27  4  0
 26 28  4  0
M  END
$$$$

 Created by Python create_sdf_string function

 29 33  0  0  0  0  0  0  0  0999 V2000
    8.8270   -7.0288   18.4251 C   0  0  0  0  0  0  0  0  0  0  0  0
    9.1576   -4.6236   15.8860 O   0  0  0  0  0  0  0  0  0  0  0  0
    9.1509   -5.9108   17.7177 C   0  0  0  0  0  0  0  0  0  0  0  0
    3.6373   -9.5349   16.0582 N   0  0  0  0  0  0  0  0  0  0  0  0
    9.9275   -4.8001   18.0438 N   0  0  0  0  0  0  0  0  0  0  0  0
    8.5908   -5.7425   16.4412 C   0  0  0  0  0  0  0  0  0  0  0  0
   10.5993   -4.8981   21.6068 C   0  0  0  0  0  0  0  0  0  0  0  0
   10.4258   -3.0106   23.0998 C   0  0  0  0  0  0  0  0  0  0  0  0
   10.2148   -3.4364   25.4200 C   0  0  0  0  0  0  0  0  0  0  0  0
    9.7853   -1.1840   24.4927 C   0  0  0  0  0  0  0  0  0  0  0  0
    5.0276   -8.5227   17.5352 C   0  0  0  0  0  0  0  0  0  0  0  0
    9.8187   -2.0895   25.5800 C   0  0  0  0  0  0  0  0  0  0  0  0
    5.6473   -8.7216   15.3158 C   0  0  0  0  0  0  0  0  0  0  0  0
   10.7581   -3.1233   19.4720 N   0  0  0  0  0  0  0  0  0  0  0  0
    9.9571   -4.0573   16.8866 C   0  0  0  0  0  0  0  0  0  0  0  0
    7.6213   -6.5618   16.0087 C   0  0  0  0  0  0  0  0  0  0  0  0
   10.8583   -2.6527   20.7222 C   0  0  0  0  0  0  0  0  0  0  0  0
   10.6412   -3.5089   21.7936 C   0  0  0  0  0  0  0  0  0  0  0  0
   10.4972   -3.8968   24.1589 C   0  0  0  0  0  0  0  0  0  0  0  0
    5.9260   -8.2736   16.5517 C   0  0  0  0  0  0  0  0  0  0  0  0
    3.8816   -9.1166   17.2493 C   0  0  0  0  0  0  0  0  0  0  0  0
   10.1297   -1.6575   23.2324 C   0  0  0  0  0  0  0  0  0  0  0  0
    9.4684   -1.6929   26.7263 F   0  0  0  0  0  0  0  0  0  0  0  0
    7.7963   -7.7906   17.9837 C   0  0  0  0  0  0  0  0  0  0  0  0
   10.5884   -3.0725   16.7902 O   0  0  0  0  0  0  0  0  0  0  0  0
   10.4323   -5.3494   20.3516 C   0  0  0  0  0  0  0  0  0  0  0  0
    7.1156   -7.5454   16.8218 C   0  0  0  0  0  0  0  0  0  0  0  0
   10.3885   -4.4388   19.2773 C   0  0  0  0  0  0  0  0  0  0  0  0
    4.5160   -9.3822   15.0841 C   0  0  0  0  0  0  0  0  0  0  0  0
  1  3  4  0
  1 24  4  0
  2  6  4  0
  2 15  4  0
  3  5  4  0
  3  6  4  0
  4 21  4  0
  4 29  4  0
  5 15  4  0
  5 28  1  0
  6 16  4  0
  7 18  4  0
  7 26  4  0
  8 18  1  0
  8 19  4  0
  8 22  4  0
  9 12  4  0
  9 19  4  0
 10 12  4  0
 10 22  4  0
 11 20  4  0
 11 21  4  0
 12 23  1  0
 13 20  4  0
 13 29  4  0
 14 17  4  0
 14 28  4  0
 15 25  2  0
 16 27  4  0
 17 18  4  0
 20 27  1  0
 24 27  4  0
 26 28  4  0
M  END
$$$$

 Created by Python create_sdf_string function

 29 33  0  0  0  0  0  0  0  0999 V2000
    8.8270   -7.0288   18.4251 C   0  0  0  0  0  0  0  0  0  0  0  0
    9.1576   -4.6236   15.8860 O   0  0  0  0  0  0  0  0  0  0  0  0
    9.1509   -5.9108   17.7177 C   0  0  0  0  0  0  0  0  0  0  0  0
    3.6373   -9.5349   16.0582 N   0  0  0  0  0  0  0  0  0  0  0  0
    9.9275   -4.8001   18.0438 N   0  0  0  0  0  0  0  0  0  0  0  0
    8.5908   -5.7425   16.4412 C   0  0  0  0  0  0  0  0  0  0  0  0
   10.5993   -4.8981   21.6068 C   0  0  0  0  0  0  0  0  0  0  0  0
   10.4258   -3.0106   23.0998 C   0  0  0  0  0  0  0  0  0  0  0  0
   10.2148   -3.4364   25.4200 C   0  0  0  0  0  0  0  0  0  0  0  0
    9.7853   -1.1840   24.4927 C   0  0  0  0  0  0  0  0  0  0  0  0
    5.0276   -8.5227   17.5352 C   0  0  0  0  0  0  0  0  0  0  0  0
    9.8187   -2.0895   25.5800 C   0  0  0  0  0  0  0  0  0  0  0  0
    5.6473   -8.7216   15.3158 C   0  0  0  0  0  0  0  0  0  0  0  0
   10.7581   -3.1233   19.4720 N   0  0  0  0  0  0  0  0  0  0  0  0
    9.9571   -4.0573   16.8866 C   0  0  0  0  0  0  0  0  0  0  0  0
    7.6213   -6.5618   16.0087 C   0  0  0  0  0  0  0  0  0  0  0  0
   10.8583   -2.6527   20.7222 C   0  0  0  0  0  0  0  0  0  0  0  0
   10.6412   -3.5089   21.7936 C   0  0  0  0  0  0  0  0  0  0  0  0
   10.4972   -3.8968   24.1589 C   0  0  0  0  0  0  0  0  0  0  0  0
    5.9260   -8.2736   16.5517 C   0  0  0  0  0  0  0  0  0  0  0  0
    3.8816   -9.1166   17.2493 C   0  0  0  0  0  0  0  0  0  0  0  0
   10.1297   -1.6575   23.2324 C   0  0  0  0  0  0  0  0  0  0  0  0
    9.4684   -1.6929   26.7263 F   0  0  0  0  0  0  0  0  0  0  0  0
    7.7963   -7.7906   17.9837 C   0  0  0  0  0  0  0  0  0  0  0  0
   10.5884   -3.0725   16.7902 O   0  0  0  0  0  0  0  0  0  0  0  0
   10.4323   -5.3494   20.3516 C   0  0  0  0  0  0  0  0  0  0  0  0
    7.1156   -7.5454   16.8218 C   0  0  0  0  0  0  0  0  0  0  0  0
   10.3885   -4.4388   19.2773 C   0  0  0  0  0  0  0  0  0  0  0  0
    4.5160   -9.3822   15.0841 C   0  0  0  0  0  0  0  0  0  0  0  0
  1  3  4  0
  1 24  4  0
  2  6  4  0
  2 15  4  0
  3  5  4  0
  3  6  4  0
  4 21  4  0
  4 29  4  0
  5 15  4  0
  5 28  1  0
  6 16  4  0
  7 18  4  0
  7 26  4  0
  8 18  1  0
  8 19  4  0
  8 22  4  0
  9 12  4  0
  9 19  4  0
 10 12  4  0
 10 22  4  0
 11 20  4  0
 11 21  4  0
 12 23  1  0
 13 20  4  0
 13 29  4  0
 14 17  4  0
 14 28  4  0
 15 25  2  0
 16 27  4  0
 17 18  4  0
 20 27  1  0
 24 27  4  0
 26 28  4  0
M  END
$$$$

 Created by Python create_sdf_string function

 29 33  0  0  0  0  0  0  0  0999 V2000
    8.8270   -7.0288   18.4251 C   0  0  0  0  0  0  0  0  0  0  0  0
    9.1576   -4.6236   15.8860 O   0  0  0  0  0  0  0  0  0  0  0  0
    9.1509   -5.9108   17.7177 C   0  0  0  0  0  0  0  0  0  0  0  0
    3.6373   -9.5349   16.0582 N   0  0  0  0  0  0  0  0  0  0  0  0
    9.9275   -4.8001   18.0438 N   0  0  0  0  0  0  0  0  0  0  0  0
    8.5908   -5.7425   16.4412 C   0  0  0  0  0  0  0  0  0  0  0  0
   10.5993   -4.8981   21.6068 C   0  0  0  0  0  0  0  0  0  0  0  0
   10.4258   -3.0106   23.0998 C   0  0  0  0  0  0  0  0  0  0  0  0
   10.2148   -3.4364   25.4200 C   0  0  0  0  0  0  0  0  0  0  0  0
    9.7853   -1.1840   24.4927 C   0  0  0  0  0  0  0  0  0  0  0  0
    5.0276   -8.5227   17.5352 C   0  0  0  0  0  0  0  0  0  0  0  0
    9.8187   -2.0895   25.5800 C   0  0  0  0  0  0  0  0  0  0  0  0
    5.6473   -8.7216   15.3158 C   0  0  0  0  0  0  0  0  0  0  0  0
   10.7581   -3.1233   19.4720 N   0  0  0  0  0  0  0  0  0  0  0  0
    9.9571   -4.0573   16.8866 C   0  0  0  0  0  0  0  0  0  0  0  0
    7.6213   -6.5618   16.0087 C   0  0  0  0  0  0  0  0  0  0  0  0
   10.8583   -2.6527   20.7222 C   0  0  0  0  0  0  0  0  0  0  0  0
   10.6412   -3.5089   21.7936 C   0  0  0  0  0  0  0  0  0  0  0  0
   10.4972   -3.8968   24.1589 C   0  0  0  0  0  0  0  0  0  0  0  0
    5.9260   -8.2736   16.5517 C   0  0  0  0  0  0  0  0  0  0  0  0
    3.8816   -9.1166   17.2493 C   0  0  0  0  0  0  0  0  0  0  0  0
   10.1297   -1.6575   23.2324 C   0  0  0  0  0  0  0  0  0  0  0  0
    9.4684   -1.6929   26.7263 F   0  0  0  0  0  0  0  0  0  0  0  0
    7.7963   -7.7906   17.9837 C   0  0  0  0  0  0  0  0  0  0  0  0
   10.5884   -3.0725   16.7902 O   0  0  0  0  0  0  0  0  0  0  0  0
   10.4323   -5.3494   20.3516 C   0  0  0  0  0  0  0  0  0  0  0  0
    7.1156   -7.5454   16.8218 C   0  0  0  0  0  0  0  0  0  0  0  0
   10.3885   -4.4388   19.2773 C   0  0  0  0  0  0  0  0  0  0  0  0
    4.5160   -9.3822   15.0841 C   0  0  0  0  0  0  0  0  0  0  0  0
  1  3  4  0
  1 24  4  0
  2  6  4  0
  2 15  4  0
  3  5  4  0
  3  6  4  0
  4 21  4  0
  4 29  4  0
  5 15  4  0
  5 28  1  0
  6 16  4  0
  7 18  4  0
  7 26  4  0
  8 18  1  0
  8 19  4  0
  8 22  4  0
  9 12  4  0
  9 19  4  0
 10 12  4  0
 10 22  4  0
 11 20  4  0
 11 21  4  0
 12 23  1  0
 13 20  4  0
 13 29  4  0
 14 17  4  0
 14 28  4  0
 15 25  2  0
 16 27  4  0
 17 18  4  0
 20 27  1  0
 24 27  4  0
 26 28  4  0
M  END
$$$$

 Created by Python create_sdf_string function

 29 33  0  0  0  0  0  0  0  0999 V2000
    8.8270   -7.0288   18.4251 C   0  0  0  0  0  0  0  0  0  0  0  0
    9.1576   -4.6236   15.8860 O   0  0  0  0  0  0  0  0  0  0  0  0
    9.1509   -5.9108   17.7177 C   0  0  0  0  0  0  0  0  0  0  0  0
    3.6373   -9.5349   16.0582 N   0  0  0  0  0  0  0  0  0  0  0  0
    9.9275   -4.8001   18.0438 N   0  0  0  0  0  0  0  0  0  0  0  0
    8.5908   -5.7425   16.4412 C   0  0  0  0  0  0  0  0  0  0  0  0
   10.5993   -4.8981   21.6068 C   0  0  0  0  0  0  0  0  0  0  0  0
   10.4258   -3.0106   23.0998 C   0  0  0  0  0  0  0  0  0  0  0  0
   10.2148   -3.4364   25.4200 C   0  0  0  0  0  0  0  0  0  0  0  0
    9.7853   -1.1840   24.4927 C   0  0  0  0  0  0  0  0  0  0  0  0
    5.0276   -8.5227   17.5352 C   0  0  0  0  0  0  0  0  0  0  0  0
    9.8187   -2.0895   25.5800 C   0  0  0  0  0  0  0  0  0  0  0  0
    5.6473   -8.7216   15.3158 C   0  0  0  0  0  0  0  0  0  0  0  0
   10.7581   -3.1233   19.4720 N   0  0  0  0  0  0  0  0  0  0  0  0
    9.9571   -4.0573   16.8866 C   0  0  0  0  0  0  0  0  0  0  0  0
    7.6213   -6.5618   16.0087 C   0  0  0  0  0  0  0  0  0  0  0  0
   10.8583   -2.6527   20.7222 C   0  0  0  0  0  0  0  0  0  0  0  0
   10.6412   -3.5089   21.7936 C   0  0  0  0  0  0  0  0  0  0  0  0
   10.4972   -3.8968   24.1589 C   0  0  0  0  0  0  0  0  0  0  0  0
    5.9260   -8.2736   16.5517 C   0  0  0  0  0  0  0  0  0  0  0  0
    3.8816   -9.1166   17.2493 C   0  0  0  0  0  0  0  0  0  0  0  0
   10.1297   -1.6575   23.2324 C   0  0  0  0  0  0  0  0  0  0  0  0
    9.4684   -1.6929   26.7263 F   0  0  0  0  0  0  0  0  0  0  0  0
    7.7963   -7.7906   17.9837 C   0  0  0  0  0  0  0  0  0  0  0  0
   10.5884   -3.0725   16.7902 O   0  0  0  0  0  0  0  0  0  0  0  0
   10.4323   -5.3494   20.3516 C   0  0  0  0  0  0  0  0  0  0  0  0
    7.1156   -7.5454   16.8218 C   0  0  0  0  0  0  0  0  0  0  0  0
   10.3885   -4.4388   19.2773 C   0  0  0  0  0  0  0  0  0  0  0  0
    4.5160   -9.3822   15.0841 C   0  0  0  0  0  0  0  0  0  0  0  0
  1  3  4  0
  1 24  4  0
  2  6  4  0
  2 15  4  0
  3  5  4  0
  3  6  4  0
  4 21  4  0
  4 29  4  0
  5 15  4  0
  5 28  1  0
  6 16  4  0
  7 18  4  0
  7 26  4  0
  8 18  1  0
  8 19  4  0
  8 22  4  0
  9 12  4  0
  9 19  4  0
 10 12  4  0
 10 22  4  0
 11 20  4  0
 11 21  4  0
 12 23  1  0
 13 20  4  0
 13 29  4  0
 14 17  4  0
 14 28  4  0
 15 25  2  0
 16 27  4  0
 17 18  4  0
 20 27  1  0
 24 27  4  0
 26 28  4  0
M  END
$$$$

 Created by Python create_sdf_string function

 29 33  0  0  0  0  0  0  0  0999 V2000
    8.8270   -7.0288   18.4251 C   0  0  0  0  0  0  0  0  0  0  0  0
    9.1576   -4.6236   15.8860 O   0  0  0  0  0  0  0  0  0  0  0  0
    9.1509   -5.9108   17.7177 C   0  0  0  0  0  0  0  0  0  0  0  0
    3.6373   -9.5349   16.0582 N   0  0  0  0  0  0  0  0  0  0  0  0
    9.9275   -4.8001   18.0438 N   0  0  0  0  0  0  0  0  0  0  0  0
    8.5908   -5.7425   16.4412 C   0  0  0  0  0  0  0  0  0  0  0  0
   10.5993   -4.8981   21.6068 C   0  0  0  0  0  0  0  0  0  0  0  0
   10.4258   -3.0106   23.0998 C   0  0  0  0  0  0  0  0  0  0  0  0
   10.2148   -3.4364   25.4200 C   0  0  0  0  0  0  0  0  0  0  0  0
    9.7853   -1.1840   24.4927 C   0  0  0  0  0  0  0  0  0  0  0  0
    5.0276   -8.5227   17.5352 C   0  0  0  0  0  0  0  0  0  0  0  0
    9.8187   -2.0895   25.5800 C   0  0  0  0  0  0  0  0  0  0  0  0
    5.6473   -8.7216   15.3158 C   0  0  0  0  0  0  0  0  0  0  0  0
   10.7581   -3.1233   19.4720 N   0  0  0  0  0  0  0  0  0  0  0  0
    9.9571   -4.0573   16.8866 C   0  0  0  0  0  0  0  0  0  0  0  0
    7.6213   -6.5618   16.0087 C   0  0  0  0  0  0  0  0  0  0  0  0
   10.8583   -2.6527   20.7222 C   0  0  0  0  0  0  0  0  0  0  0  0
   10.6412   -3.5089   21.7936 C   0  0  0  0  0  0  0  0  0  0  0  0
   10.4972   -3.8968   24.1589 C   0  0  0  0  0  0  0  0  0  0  0  0
    5.9260   -8.2736   16.5517 C   0  0  0  0  0  0  0  0  0  0  0  0
    3.8816   -9.1166   17.2493 C   0  0  0  0  0  0  0  0  0  0  0  0
   10.1297   -1.6575   23.2324 C   0  0  0  0  0  0  0  0  0  0  0  0
    9.4684   -1.6929   26.7263 F   0  0  0  0  0  0  0  0  0  0  0  0
    7.7963   -7.7906   17.9837 C   0  0  0  0  0  0  0  0  0  0  0  0
   10.5884   -3.0725   16.7902 O   0  0  0  0  0  0  0  0  0  0  0  0
   10.4323   -5.3494   20.3516 C   0  0  0  0  0  0  0  0  0  0  0  0
    7.1156   -7.5454   16.8218 C   0  0  0  0  0  0  0  0  0  0  0  0
   10.3885   -4.4388   19.2773 C   0  0  0  0  0  0  0  0  0  0  0  0
    4.5160   -9.3822   15.0841 C   0  0  0  0  0  0  0  0  0  0  0  0
  1  3  4  0
  1 24  4  0
  2  6  4  0
  2 15  4  0
  3  5  4  0
  3  6  4  0
  4 21  4  0
  4 29  4  0
  5 15  4  0
  5 28  1  0
  6 16  4  0
  7 18  4  0
  7 26  4  0
  8 18  1  0
  8 19  4  0
  8 22  4  0
  9 12  4  0
  9 19  4  0
 10 12  4  0
 10 22  4  0
 11 20  4  0
 11 21  4  0
 12 23  1  0
 13 20  4  0
 13 29  4  0
 14 17  4  0
 14 28  4  0
 15 25  2  0
 16 27  4  0
 17 18  4  0
 20 27  1  0
 24 27  4  0
 26 28  4  0
M  END
$$$$

 Created by Python create_sdf_string function

 29 33  0  0  0  0  0  0  0  0999 V2000
    8.8270   -7.0288   18.4251 C   0  0  0  0  0  0  0  0  0  0  0  0
    9.1576   -4.6236   15.8860 O   0  0  0  0  0  0  0  0  0  0  0  0
    9.1509   -5.9108   17.7177 C   0  0  0  0  0  0  0  0  0  0  0  0
    3.6373   -9.5349   16.0582 N   0  0  0  0  0  0  0  0  0  0  0  0
    9.9275   -4.8001   18.0438 N   0  0  0  0  0  0  0  0  0  0  0  0
    8.5908   -5.7425   16.4412 C   0  0  0  0  0  0  0  0  0  0  0  0
   10.5993   -4.8981   21.6068 C   0  0  0  0  0  0  0  0  0  0  0  0
   10.4258   -3.0106   23.0998 C   0  0  0  0  0  0  0  0  0  0  0  0
   10.2148   -3.4364   25.4200 C   0  0  0  0  0  0  0  0  0  0  0  0
    9.7853   -1.1840   24.4927 C   0  0  0  0  0  0  0  0  0  0  0  0
    5.0276   -8.5227   17.5352 C   0  0  0  0  0  0  0  0  0  0  0  0
    9.8187   -2.0895   25.5800 C   0  0  0  0  0  0  0  0  0  0  0  0
    5.6473   -8.7216   15.3158 C   0  0  0  0  0  0  0  0  0  0  0  0
   10.7581   -3.1233   19.4720 N   0  0  0  0  0  0  0  0  0  0  0  0
    9.9571   -4.0573   16.8866 C   0  0  0  0  0  0  0  0  0  0  0  0
    7.6213   -6.5618   16.0087 C   0  0  0  0  0  0  0  0  0  0  0  0
   10.8583   -2.6527   20.7222 C   0  0  0  0  0  0  0  0  0  0  0  0
   10.6412   -3.5089   21.7936 C   0  0  0  0  0  0  0  0  0  0  0  0
   10.4972   -3.8968   24.1589 C   0  0  0  0  0  0  0  0  0  0  0  0
    5.9260   -8.2736   16.5517 C   0  0  0  0  0  0  0  0  0  0  0  0
    3.8816   -9.1166   17.2493 C   0  0  0  0  0  0  0  0  0  0  0  0
   10.1297   -1.6575   23.2324 C   0  0  0  0  0  0  0  0  0  0  0  0
    9.4684   -1.6929   26.7263 F   0  0  0  0  0  0  0  0  0  0  0  0
    7.7963   -7.7906   17.9837 C   0  0  0  0  0  0  0  0  0  0  0  0
   10.5884   -3.0725   16.7902 O   0  0  0  0  0  0  0  0  0  0  0  0
   10.4323   -5.3494   20.3516 C   0  0  0  0  0  0  0  0  0  0  0  0
    7.1156   -7.5454   16.8218 C   0  0  0  0  0  0  0  0  0  0  0  0
   10.3885   -4.4388   19.2773 C   0  0  0  0  0  0  0  0  0  0  0  0
    4.5160   -9.3822   15.0841 C   0  0  0  0  0  0  0  0  0  0  0  0
  1  3  4  0
  1 24  4  0
  2  6  4  0
  2 15  4  0
  3  5  4  0
  3  6  4  0
  4 21  4  0
  4 29  4  0
  5 15  4  0
  5 28  1  0
  6 16  4  0
  7 18  4  0
  7 26  4  0
  8 18  1  0
  8 19  4  0
  8 22  4  0
  9 12  4  0
  9 19  4  0
 10 12  4  0
 10 22  4  0
 11 20  4  0
 11 21  4  0
 12 23  1  0
 13 20  4  0
 13 29  4  0
 14 17  4  0
 14 28  4  0
 15 25  2  0
 16 27  4  0
 17 18  4  0
 20 27  1  0
 24 27  4  0
 26 28  4  0
M  END
$$$$

 Created by Python create_sdf_string function

 29 33  0  0  0  0  0  0  0  0999 V2000
    8.8270   -7.0288   18.4251 C   0  0  0  0  0  0  0  0  0  0  0  0
    9.1576   -4.6236   15.8860 O   0  0  0  0  0  0  0  0  0  0  0  0
    9.1509   -5.9108   17.7177 C   0  0  0  0  0  0  0  0  0  0  0  0
    3.6373   -9.5349   16.0582 N   0  0  0  0  0  0  0  0  0  0  0  0
    9.9275   -4.8001   18.0438 N   0  0  0  0  0  0  0  0  0  0  0  0
    8.5908   -5.7425   16.4412 C   0  0  0  0  0  0  0  0  0  0  0  0
   10.5993   -4.8981   21.6068 C   0  0  0  0  0  0  0  0  0  0  0  0
   10.4258   -3.0106   23.0998 C   0  0  0  0  0  0  0  0  0  0  0  0
   10.2148   -3.4364   25.4200 C   0  0  0  0  0  0  0  0  0  0  0  0
    9.7853   -1.1840   24.4927 C   0  0  0  0  0  0  0  0  0  0  0  0
    5.0276   -8.5227   17.5352 C   0  0  0  0  0  0  0  0  0  0  0  0
    9.8187   -2.0895   25.5800 C   0  0  0  0  0  0  0  0  0  0  0  0
    5.6473   -8.7216   15.3158 C   0  0  0  0  0  0  0  0  0  0  0  0
   10.7581   -3.1233   19.4720 N   0  0  0  0  0  0  0  0  0  0  0  0
    9.9571   -4.0573   16.8866 C   0  0  0  0  0  0  0  0  0  0  0  0
    7.6213   -6.5618   16.0087 C   0  0  0  0  0  0  0  0  0  0  0  0
   10.8583   -2.6527   20.7222 C   0  0  0  0  0  0  0  0  0  0  0  0
   10.6412   -3.5089   21.7936 C   0  0  0  0  0  0  0  0  0  0  0  0
   10.4972   -3.8968   24.1589 C   0  0  0  0  0  0  0  0  0  0  0  0
    5.9260   -8.2736   16.5517 C   0  0  0  0  0  0  0  0  0  0  0  0
    3.8816   -9.1166   17.2493 C   0  0  0  0  0  0  0  0  0  0  0  0
   10.1297   -1.6575   23.2324 C   0  0  0  0  0  0  0  0  0  0  0  0
    9.4684   -1.6929   26.7263 F   0  0  0  0  0  0  0  0  0  0  0  0
    7.7963   -7.7906   17.9837 C   0  0  0  0  0  0  0  0  0  0  0  0
   10.5884   -3.0725   16.7902 O   0  0  0  0  0  0  0  0  0  0  0  0
   10.4323   -5.3494   20.3516 C   0  0  0  0  0  0  0  0  0  0  0  0
    7.1156   -7.5454   16.8218 C   0  0  0  0  0  0  0  0  0  0  0  0
   10.3885   -4.4388   19.2773 C   0  0  0  0  0  0  0  0  0  0  0  0
    4.5160   -9.3822   15.0841 C   0  0  0  0  0  0  0  0  0  0  0  0
  1  3  4  0
  1 24  4  0
  2  6  4  0
  2 15  4  0
  3  5  4  0
  3  6  4  0
  4 21  4  0
  4 29  4  0
  5 15  4  0
  5 28  1  0
  6 16  4  0
  7 18  4  0
  7 26  4  0
  8 18  1  0
  8 19  4  0
  8 22  4  0
  9 12  4  0
  9 19  4  0
 10 12  4  0
 10 22  4  0
 11 20  4  0
 11 21  4  0
 12 23  1  0
 13 20  4  0
 13 29  4  0
 14 17  4  0
 14 28  4  0
 15 25  2  0
 16 27  4  0
 17 18  4  0
 20 27  1  0
 24 27  4  0
 26 28  4  0
M  END
$$$$

 Created by Python create_sdf_string function

 29 33  0  0  0  0  0  0  0  0999 V2000
    8.8270   -7.0288   18.4251 C   0  0  0  0  0  0  0  0  0  0  0  0
    9.1576   -4.6236   15.8860 O   0  0  0  0  0  0  0  0  0  0  0  0
    9.1509   -5.9108   17.7177 C   0  0  0  0  0  0  0  0  0  0  0  0
    3.6373   -9.5349   16.0582 N   0  0  0  0  0  0  0  0  0  0  0  0
    9.9275   -4.8001   18.0438 N   0  0  0  0  0  0  0  0  0  0  0  0
    8.5908   -5.7425   16.4412 C   0  0  0  0  0  0  0  0  0  0  0  0
   10.5993   -4.8981   21.6068 C   0  0  0  0  0  0  0  0  0  0  0  0
   10.4258   -3.0106   23.0998 C   0  0  0  0  0  0  0  0  0  0  0  0
   10.2148   -3.4364   25.4200 C   0  0  0  0  0  0  0  0  0  0  0  0
    9.7853   -1.1840   24.4927 C   0  0  0  0  0  0  0  0  0  0  0  0
    5.0276   -8.5227   17.5352 C   0  0  0  0  0  0  0  0  0  0  0  0
    9.8187   -2.0895   25.5800 C   0  0  0  0  0  0  0  0  0  0  0  0
    5.6473   -8.7216   15.3158 C   0  0  0  0  0  0  0  0  0  0  0  0
   10.7581   -3.1233   19.4720 N   0  0  0  0  0  0  0  0  0  0  0  0
    9.9571   -4.0573   16.8866 C   0  0  0  0  0  0  0  0  0  0  0  0
    7.6213   -6.5618   16.0087 C   0  0  0  0  0  0  0  0  0  0  0  0
   10.8583   -2.6527   20.7222 C   0  0  0  0  0  0  0  0  0  0  0  0
   10.6412   -3.5089   21.7936 C   0  0  0  0  0  0  0  0  0  0  0  0
   10.4972   -3.8968   24.1589 C   0  0  0  0  0  0  0  0  0  0  0  0
    5.9260   -8.2736   16.5517 C   0  0  0  0  0  0  0  0  0  0  0  0
    3.8816   -9.1166   17.2493 C   0  0  0  0  0  0  0  0  0  0  0  0
   10.1297   -1.6575   23.2324 C   0  0  0  0  0  0  0  0  0  0  0  0
    9.4684   -1.6929   26.7263 F   0  0  0  0  0  0  0  0  0  0  0  0
    7.7963   -7.7906   17.9837 C   0  0  0  0  0  0  0  0  0  0  0  0
   10.5884   -3.0725   16.7902 O   0  0  0  0  0  0  0  0  0  0  0  0
   10.4323   -5.3494   20.3516 C   0  0  0  0  0  0  0  0  0  0  0  0
    7.1156   -7.5454   16.8218 C   0  0  0  0  0  0  0  0  0  0  0  0
   10.3885   -4.4388   19.2773 C   0  0  0  0  0  0  0  0  0  0  0  0
    4.5160   -9.3822   15.0841 C   0  0  0  0  0  0  0  0  0  0  0  0
  1  3  4  0
  1 24  4  0
  2  6  4  0
  2 15  4  0
  3  5  4  0
  3  6  4  0
  4 21  4  0
  4 29  4  0
  5 15  4  0
  5 28  1  0
  6 16  4  0
  7 18  4  0
  7 26  4  0
  8 18  1  0
  8 19  4  0
  8 22  4  0
  9 12  4  0
  9 19  4  0
 10 12  4  0
 10 22  4  0
 11 20  4  0
 11 21  4  0
 12 23  1  0
 13 20  4  0
 13 29  4  0
 14 17  4  0
 14 28  4  0
 15 25  2  0
 16 27  4  0
 17 18  4  0
 20 27  1  0
 24 27  4  0
 26 28  4  0
M  END
$$$$

 Created by Python create_sdf_string function

 29 33  0  0  0  0  0  0  0  0999 V2000
    8.8270   -7.0288   18.4251 C   0  0  0  0  0  0  0  0  0  0  0  0
    9.1576   -4.6236   15.8860 O   0  0  0  0  0  0  0  0  0  0  0  0
    9.1509   -5.9108   17.7177 C   0  0  0  0  0  0  0  0  0  0  0  0
    3.6373   -9.5349   16.0582 N   0  0  0  0  0  0  0  0  0  0  0  0
    9.9275   -4.8001   18.0438 N   0  0  0  0  0  0  0  0  0  0  0  0
    8.5908   -5.7425   16.4412 C   0  0  0  0  0  0  0  0  0  0  0  0
   10.5993   -4.8981   21.6068 C   0  0  0  0  0  0  0  0  0  0  0  0
   10.4258   -3.0106   23.0998 C   0  0  0  0  0  0  0  0  0  0  0  0
   10.2148   -3.4364   25.4200 C   0  0  0  0  0  0  0  0  0  0  0  0
    9.7853   -1.1840   24.4927 C   0  0  0  0  0  0  0  0  0  0  0  0
    5.0276   -8.5227   17.5352 C   0  0  0  0  0  0  0  0  0  0  0  0
    9.8187   -2.0895   25.5800 C   0  0  0  0  0  0  0  0  0  0  0  0
    5.6473   -8.7216   15.3158 C   0  0  0  0  0  0  0  0  0  0  0  0
   10.7581   -3.1233   19.4720 N   0  0  0  0  0  0  0  0  0  0  0  0
    9.9571   -4.0573   16.8866 C   0  0  0  0  0  0  0  0  0  0  0  0
    7.6213   -6.5618   16.0087 C   0  0  0  0  0  0  0  0  0  0  0  0
   10.8583   -2.6527   20.7222 C   0  0  0  0  0  0  0  0  0  0  0  0
   10.6412   -3.5089   21.7936 C   0  0  0  0  0  0  0  0  0  0  0  0
   10.4972   -3.8968   24.1589 C   0  0  0  0  0  0  0  0  0  0  0  0
    5.9260   -8.2736   16.5517 C   0  0  0  0  0  0  0  0  0  0  0  0
    3.8816   -9.1166   17.2493 C   0  0  0  0  0  0  0  0  0  0  0  0
   10.1297   -1.6575   23.2324 C   0  0  0  0  0  0  0  0  0  0  0  0
    9.4684   -1.6929   26.7263 F   0  0  0  0  0  0  0  0  0  0  0  0
    7.7963   -7.7906   17.9837 C   0  0  0  0  0  0  0  0  0  0  0  0
   10.5884   -3.0725   16.7902 O   0  0  0  0  0  0  0  0  0  0  0  0
   10.4323   -5.3494   20.3516 C   0  0  0  0  0  0  0  0  0  0  0  0
    7.1156   -7.5454   16.8218 C   0  0  0  0  0  0  0  0  0  0  0  0
   10.3885   -4.4388   19.2773 C   0  0  0  0  0  0  0  0  0  0  0  0
    4.5160   -9.3822   15.0841 C   0  0  0  0  0  0  0  0  0  0  0  0
  1  3  4  0
  1 24  4  0
  2  6  4  0
  2 15  4  0
  3  5  4  0
  3  6  4  0
  4 21  4  0
  4 29  4  0
  5 15  4  0
  5 28  1  0
  6 16  4  0
  7 18  4  0
  7 26  4  0
  8 18  1  0
  8 19  4  0
  8 22  4  0
  9 12  4  0
  9 19  4  0
 10 12  4  0
 10 22  4  0
 11 20  4  0
 11 21  4  0
 12 23  1  0
 13 20  4  0
 13 29  4  0
 14 17  4  0
 14 28  4  0
 15 25  2  0
 16 27  4  0
 17 18  4  0
 20 27  1  0
 24 27  4  0
 26 28  4  0
M  END
$$$$

 Created by Python create_sdf_string function

 29 33  0  0  0  0  0  0  0  0999 V2000
    8.8270   -7.0288   18.4251 C   0  0  0  0  0  0  0  0  0  0  0  0
    9.1576   -4.6236   15.8860 O   0  0  0  0  0  0  0  0  0  0  0  0
    9.1509   -5.9108   17.7177 C   0  0  0  0  0  0  0  0  0  0  0  0
    3.6373   -9.5349   16.0582 N   0  0  0  0  0  0  0  0  0  0  0  0
    9.9275   -4.8001   18.0438 N   0  0  0  0  0  0  0  0  0  0  0  0
    8.5908   -5.7425   16.4412 C   0  0  0  0  0  0  0  0  0  0  0  0
   10.5993   -4.8981   21.6068 C   0  0  0  0  0  0  0  0  0  0  0  0
   10.4258   -3.0106   23.0998 C   0  0  0  0  0  0  0  0  0  0  0  0
   10.2148   -3.4364   25.4200 C   0  0  0  0  0  0  0  0  0  0  0  0
    9.7853   -1.1840   24.4927 C   0  0  0  0  0  0  0  0  0  0  0  0
    5.0276   -8.5227   17.5352 C   0  0  0  0  0  0  0  0  0  0  0  0
    9.8187   -2.0895   25.5800 C   0  0  0  0  0  0  0  0  0  0  0  0
    5.6473   -8.7216   15.3158 C   0  0  0  0  0  0  0  0  0  0  0  0
   10.7581   -3.1233   19.4720 N   0  0  0  0  0  0  0  0  0  0  0  0
    9.9571   -4.0573   16.8866 C   0  0  0  0  0  0  0  0  0  0  0  0
    7.6213   -6.5618   16.0087 C   0  0  0  0  0  0  0  0  0  0  0  0
   10.8583   -2.6527   20.7222 C   0  0  0  0  0  0  0  0  0  0  0  0
   10.6412   -3.5089   21.7936 C   0  0  0  0  0  0  0  0  0  0  0  0
   10.4972   -3.8968   24.1589 C   0  0  0  0  0  0  0  0  0  0  0  0
    5.9260   -8.2736   16.5517 C   0  0  0  0  0  0  0  0  0  0  0  0
    3.8816   -9.1166   17.2493 C   0  0  0  0  0  0  0  0  0  0  0  0
   10.1297   -1.6575   23.2324 C   0  0  0  0  0  0  0  0  0  0  0  0
    9.4684   -1.6929   26.7263 F   0  0  0  0  0  0  0  0  0  0  0  0
    7.7963   -7.7906   17.9837 C   0  0  0  0  0  0  0  0  0  0  0  0
   10.5884   -3.0725   16.7902 O   0  0  0  0  0  0  0  0  0  0  0  0
   10.4323   -5.3494   20.3516 C   0  0  0  0  0  0  0  0  0  0  0  0
    7.1156   -7.5454   16.8218 C   0  0  0  0  0  0  0  0  0  0  0  0
   10.3885   -4.4388   19.2773 C   0  0  0  0  0  0  0  0  0  0  0  0
    4.5160   -9.3822   15.0841 C   0  0  0  0  0  0  0  0  0  0  0  0
  1  3  4  0
  1 24  4  0
  2  6  4  0
  2 15  4  0
  3  5  4  0
  3  6  4  0
  4 21  4  0
  4 29  4  0
  5 15  4  0
  5 28  1  0
  6 16  4  0
  7 18  4  0
  7 26  4  0
  8 18  1  0
  8 19  4  0
  8 22  4  0
  9 12  4  0
  9 19  4  0
 10 12  4  0
 10 22  4  0
 11 20  4  0
 11 21  4  0
 12 23  1  0
 13 20  4  0
 13 29  4  0
 14 17  4  0
 14 28  4  0
 15 25  2  0
 16 27  4  0
 17 18  4  0
 20 27  1  0
 24 27  4  0
 26 28  4  0
M  END
$$$$

 Created by Python create_sdf_string function

 29 33  0  0  0  0  0  0  0  0999 V2000
    8.8270   -7.0288   18.4251 C   0  0  0  0  0  0  0  0  0  0  0  0
    9.1576   -4.6236   15.8860 O   0  0  0  0  0  0  0  0  0  0  0  0
    9.1509   -5.9108   17.7177 C   0  0  0  0  0  0  0  0  0  0  0  0
    3.6373   -9.5349   16.0582 N   0  0  0  0  0  0  0  0  0  0  0  0
    9.9275   -4.8001   18.0438 N   0  0  0  0  0  0  0  0  0  0  0  0
    8.5908   -5.7425   16.4412 C   0  0  0  0  0  0  0  0  0  0  0  0
   10.5993   -4.8981   21.6068 C   0  0  0  0  0  0  0  0  0  0  0  0
   10.4258   -3.0106   23.0998 C   0  0  0  0  0  0  0  0  0  0  0  0
   10.2148   -3.4364   25.4200 C   0  0  0  0  0  0  0  0  0  0  0  0
    9.7853   -1.1840   24.4927 C   0  0  0  0  0  0  0  0  0  0  0  0
    5.0276   -8.5227   17.5352 C   0  0  0  0  0  0  0  0  0  0  0  0
    9.8187   -2.0895   25.5800 C   0  0  0  0  0  0  0  0  0  0  0  0
    5.6473   -8.7216   15.3158 C   0  0  0  0  0  0  0  0  0  0  0  0
   10.7581   -3.1233   19.4720 N   0  0  0  0  0  0  0  0  0  0  0  0
    9.9571   -4.0573   16.8866 C   0  0  0  0  0  0  0  0  0  0  0  0
    7.6213   -6.5618   16.0087 C   0  0  0  0  0  0  0  0  0  0  0  0
   10.8583   -2.6527   20.7222 C   0  0  0  0  0  0  0  0  0  0  0  0
   10.6412   -3.5089   21.7936 C   0  0  0  0  0  0  0  0  0  0  0  0
   10.4972   -3.8968   24.1589 C   0  0  0  0  0  0  0  0  0  0  0  0
    5.9260   -8.2736   16.5517 C   0  0  0  0  0  0  0  0  0  0  0  0
    3.8816   -9.1166   17.2493 C   0  0  0  0  0  0  0  0  0  0  0  0
   10.1297   -1.6575   23.2324 C   0  0  0  0  0  0  0  0  0  0  0  0
    9.4684   -1.6929   26.7263 F   0  0  0  0  0  0  0  0  0  0  0  0
    7.7963   -7.7906   17.9837 C   0  0  0  0  0  0  0  0  0  0  0  0
   10.5884   -3.0725   16.7902 O   0  0  0  0  0  0  0  0  0  0  0  0
   10.4323   -5.3494   20.3516 C   0  0  0  0  0  0  0  0  0  0  0  0
    7.1156   -7.5454   16.8218 C   0  0  0  0  0  0  0  0  0  0  0  0
   10.3885   -4.4388   19.2773 C   0  0  0  0  0  0  0  0  0  0  0  0
    4.5160   -9.3822   15.0841 C   0  0  0  0  0  0  0  0  0  0  0  0
  1  3  4  0
  1 24  4  0
  2  6  4  0
  2 15  4  0
  3  5  4  0
  3  6  4  0
  4 21  4  0
  4 29  4  0
  5 15  4  0
  5 28  1  0
  6 16  4  0
  7 18  4  0
  7 26  4  0
  8 18  1  0
  8 19  4  0
  8 22  4  0
  9 12  4  0
  9 19  4  0
 10 12  4  0
 10 22  4  0
 11 20  4  0
 11 21  4  0
 12 23  1  0
 13 20  4  0
 13 29  4  0
 14 17  4  0
 14 28  4  0
 15 25  2  0
 16 27  4  0
 17 18  4  0
 20 27  1  0
 24 27  4  0
 26 28  4  0
M  END
$$$$

 Created by Python create_sdf_string function

 29 33  0  0  0  0  0  0  0  0999 V2000
    8.8270   -7.0288   18.4251 C   0  0  0  0  0  0  0  0  0  0  0  0
    9.1576   -4.6236   15.8860 O   0  0  0  0  0  0  0  0  0  0  0  0
    9.1509   -5.9108   17.7177 C   0  0  0  0  0  0  0  0  0  0  0  0
    3.6373   -9.5349   16.0582 N   0  0  0  0  0  0  0  0  0  0  0  0
    9.9275   -4.8001   18.0438 N   0  0  0  0  0  0  0  0  0  0  0  0
    8.5908   -5.7425   16.4412 C   0  0  0  0  0  0  0  0  0  0  0  0
   10.5993   -4.8981   21.6068 C   0  0  0  0  0  0  0  0  0  0  0  0
   10.4258   -3.0106   23.0998 C   0  0  0  0  0  0  0  0  0  0  0  0
   10.2148   -3.4364   25.4200 C   0  0  0  0  0  0  0  0  0  0  0  0
    9.7853   -1.1840   24.4927 C   0  0  0  0  0  0  0  0  0  0  0  0
    5.0276   -8.5227   17.5352 C   0  0  0  0  0  0  0  0  0  0  0  0
    9.8187   -2.0895   25.5800 C   0  0  0  0  0  0  0  0  0  0  0  0
    5.6473   -8.7216   15.3158 C   0  0  0  0  0  0  0  0  0  0  0  0
   10.7581   -3.1233   19.4720 N   0  0  0  0  0  0  0  0  0  0  0  0
    9.9571   -4.0573   16.8866 C   0  0  0  0  0  0  0  0  0  0  0  0
    7.6213   -6.5618   16.0087 C   0  0  0  0  0  0  0  0  0  0  0  0
   10.8583   -2.6527   20.7222 C   0  0  0  0  0  0  0  0  0  0  0  0
   10.6412   -3.5089   21.7936 C   0  0  0  0  0  0  0  0  0  0  0  0
   10.4972   -3.8968   24.1589 C   0  0  0  0  0  0  0  0  0  0  0  0
    5.9260   -8.2736   16.5517 C   0  0  0  0  0  0  0  0  0  0  0  0
    3.8816   -9.1166   17.2493 C   0  0  0  0  0  0  0  0  0  0  0  0
   10.1297   -1.6575   23.2324 C   0  0  0  0  0  0  0  0  0  0  0  0
    9.4684   -1.6929   26.7263 F   0  0  0  0  0  0  0  0  0  0  0  0
    7.7963   -7.7906   17.9837 C   0  0  0  0  0  0  0  0  0  0  0  0
   10.5884   -3.0725   16.7902 O   0  0  0  0  0  0  0  0  0  0  0  0
   10.4323   -5.3494   20.3516 C   0  0  0  0  0  0  0  0  0  0  0  0
    7.1156   -7.5454   16.8218 C   0  0  0  0  0  0  0  0  0  0  0  0
   10.3885   -4.4388   19.2773 C   0  0  0  0  0  0  0  0  0  0  0  0
    4.5160   -9.3822   15.0841 C   0  0  0  0  0  0  0  0  0  0  0  0
  1  3  4  0
  1 24  4  0
  2  6  4  0
  2 15  4  0
  3  5  4  0
  3  6  4  0
  4 21  4  0
  4 29  4  0
  5 15  4  0
  5 28  1  0
  6 16  4  0
  7 18  4  0
  7 26  4  0
  8 18  1  0
  8 19  4  0
  8 22  4  0
  9 12  4  0
  9 19  4  0
 10 12  4  0
 10 22  4  0
 11 20  4  0
 11 21  4  0
 12 23  1  0
 13 20  4  0
 13 29  4  0
 14 17  4  0
 14 28  4  0
 15 25  2  0
 16 27  4  0
 17 18  4  0
 20 27  1  0
 24 27  4  0
 26 28  4  0
M  END
$$$$

 Created by Python create_sdf_string function

 29 33  0  0  0  0  0  0  0  0999 V2000
    8.8270   -7.0288   18.4251 C   0  0  0  0  0  0  0  0  0  0  0  0
    9.1576   -4.6236   15.8860 O   0  0  0  0  0  0  0  0  0  0  0  0
    9.1509   -5.9108   17.7177 C   0  0  0  0  0  0  0  0  0  0  0  0
    3.6373   -9.5349   16.0582 N   0  0  0  0  0  0  0  0  0  0  0  0
    9.9275   -4.8001   18.0438 N   0  0  0  0  0  0  0  0  0  0  0  0
    8.5908   -5.7425   16.4412 C   0  0  0  0  0  0  0  0  0  0  0  0
   10.5993   -4.8981   21.6068 C   0  0  0  0  0  0  0  0  0  0  0  0
   10.4258   -3.0106   23.0998 C   0  0  0  0  0  0  0  0  0  0  0  0
   10.2148   -3.4364   25.4200 C   0  0  0  0  0  0  0  0  0  0  0  0
    9.7853   -1.1840   24.4927 C   0  0  0  0  0  0  0  0  0  0  0  0
    5.0276   -8.5227   17.5352 C   0  0  0  0  0  0  0  0  0  0  0  0
    9.8187   -2.0895   25.5800 C   0  0  0  0  0  0  0  0  0  0  0  0
    5.6473   -8.7216   15.3158 C   0  0  0  0  0  0  0  0  0  0  0  0
   10.7581   -3.1233   19.4720 N   0  0  0  0  0  0  0  0  0  0  0  0
    9.9571   -4.0573   16.8866 C   0  0  0  0  0  0  0  0  0  0  0  0
    7.6213   -6.5618   16.0087 C   0  0  0  0  0  0  0  0  0  0  0  0
   10.8583   -2.6527   20.7222 C   0  0  0  0  0  0  0  0  0  0  0  0
   10.6412   -3.5089   21.7936 C   0  0  0  0  0  0  0  0  0  0  0  0
   10.4972   -3.8968   24.1589 C   0  0  0  0  0  0  0  0  0  0  0  0
    5.9260   -8.2736   16.5517 C   0  0  0  0  0  0  0  0  0  0  0  0
    3.8816   -9.1166   17.2493 C   0  0  0  0  0  0  0  0  0  0  0  0
   10.1297   -1.6575   23.2324 C   0  0  0  0  0  0  0  0  0  0  0  0
    9.4684   -1.6929   26.7263 F   0  0  0  0  0  0  0  0  0  0  0  0
    7.7963   -7.7906   17.9837 C   0  0  0  0  0  0  0  0  0  0  0  0
   10.5884   -3.0725   16.7902 O   0  0  0  0  0  0  0  0  0  0  0  0
   10.4323   -5.3494   20.3516 C   0  0  0  0  0  0  0  0  0  0  0  0
    7.1156   -7.5454   16.8218 C   0  0  0  0  0  0  0  0  0  0  0  0
   10.3885   -4.4388   19.2773 C   0  0  0  0  0  0  0  0  0  0  0  0
    4.5160   -9.3822   15.0841 C   0  0  0  0  0  0  0  0  0  0  0  0
  1  3  4  0
  1 24  4  0
  2  6  4  0
  2 15  4  0
  3  5  4  0
  3  6  4  0
  4 21  4  0
  4 29  4  0
  5 15  4  0
  5 28  1  0
  6 16  4  0
  7 18  4  0
  7 26  4  0
  8 18  1  0
  8 19  4  0
  8 22  4  0
  9 12  4  0
  9 19  4  0
 10 12  4  0
 10 22  4  0
 11 20  4  0
 11 21  4  0
 12 23  1  0
 13 20  4  0
 13 29  4  0
 14 17  4  0
 14 28  4  0
 15 25  2  0
 16 27  4  0
 17 18  4  0
 20 27  1  0
 24 27  4  0
 26 28  4  0
M  END
$$$$

 Created by Python create_sdf_string function

 29 33  0  0  0  0  0  0  0  0999 V2000
    8.8270   -7.0288   18.4251 C   0  0  0  0  0  0  0  0  0  0  0  0
    9.1576   -4.6236   15.8860 O   0  0  0  0  0  0  0  0  0  0  0  0
    9.1509   -5.9108   17.7177 C   0  0  0  0  0  0  0  0  0  0  0  0
    3.6373   -9.5349   16.0582 N   0  0  0  0  0  0  0  0  0  0  0  0
    9.9275   -4.8001   18.0438 N   0  0  0  0  0  0  0  0  0  0  0  0
    8.5908   -5.7425   16.4412 C   0  0  0  0  0  0  0  0  0  0  0  0
   10.5993   -4.8981   21.6068 C   0  0  0  0  0  0  0  0  0  0  0  0
   10.4258   -3.0106   23.0998 C   0  0  0  0  0  0  0  0  0  0  0  0
   10.2148   -3.4364   25.4200 C   0  0  0  0  0  0  0  0  0  0  0  0
    9.7853   -1.1840   24.4927 C   0  0  0  0  0  0  0  0  0  0  0  0
    5.0276   -8.5227   17.5352 C   0  0  0  0  0  0  0  0  0  0  0  0
    9.8187   -2.0895   25.5800 C   0  0  0  0  0  0  0  0  0  0  0  0
    5.6473   -8.7216   15.3158 C   0  0  0  0  0  0  0  0  0  0  0  0
   10.7581   -3.1233   19.4720 N   0  0  0  0  0  0  0  0  0  0  0  0
    9.9571   -4.0573   16.8866 C   0  0  0  0  0  0  0  0  0  0  0  0
    7.6213   -6.5618   16.0087 C   0  0  0  0  0  0  0  0  0  0  0  0
   10.8583   -2.6527   20.7222 C   0  0  0  0  0  0  0  0  0  0  0  0
   10.6412   -3.5089   21.7936 C   0  0  0  0  0  0  0  0  0  0  0  0
   10.4972   -3.8968   24.1589 C   0  0  0  0  0  0  0  0  0  0  0  0
    5.9260   -8.2736   16.5517 C   0  0  0  0  0  0  0  0  0  0  0  0
    3.8816   -9.1166   17.2493 C   0  0  0  0  0  0  0  0  0  0  0  0
   10.1297   -1.6575   23.2324 C   0  0  0  0  0  0  0  0  0  0  0  0
    9.4684   -1.6929   26.7263 F   0  0  0  0  0  0  0  0  0  0  0  0
    7.7963   -7.7906   17.9837 C   0  0  0  0  0  0  0  0  0  0  0  0
   10.5884   -3.0725   16.7902 O   0  0  0  0  0  0  0  0  0  0  0  0
   10.4323   -5.3494   20.3516 C   0  0  0  0  0  0  0  0  0  0  0  0
    7.1156   -7.5454   16.8218 C   0  0  0  0  0  0  0  0  0  0  0  0
   10.3885   -4.4388   19.2773 C   0  0  0  0  0  0  0  0  0  0  0  0
    4.5160   -9.3822   15.0841 C   0  0  0  0  0  0  0  0  0  0  0  0
  1  3  4  0
  1 24  4  0
  2  6  4  0
  2 15  4  0
  3  5  4  0
  3  6  4  0
  4 21  4  0
  4 29  4  0
  5 15  4  0
  5 28  1  0
  6 16  4  0
  7 18  4  0
  7 26  4  0
  8 18  1  0
  8 19  4  0
  8 22  4  0
  9 12  4  0
  9 19  4  0
 10 12  4  0
 10 22  4  0
 11 20  4  0
 11 21  4  0
 12 23  1  0
 13 20  4  0
 13 29  4  0
 14 17  4  0
 14 28  4  0
 15 25  2  0
 16 27  4  0
 17 18  4  0
 20 27  1  0
 24 27  4  0
 26 28  4  0
M  END
$$$$

 Created by Python create_sdf_string function

 29 33  0  0  0  0  0  0  0  0999 V2000
    8.8270   -7.0288   18.4251 C   0  0  0  0  0  0  0  0  0  0  0  0
    9.1576   -4.6236   15.8860 O   0  0  0  0  0  0  0  0  0  0  0  0
    9.1509   -5.9108   17.7177 C   0  0  0  0  0  0  0  0  0  0  0  0
    3.6373   -9.5349   16.0582 N   0  0  0  0  0  0  0  0  0  0  0  0
    9.9275   -4.8001   18.0438 N   0  0  0  0  0  0  0  0  0  0  0  0
    8.5908   -5.7425   16.4412 C   0  0  0  0  0  0  0  0  0  0  0  0
   10.5993   -4.8981   21.6068 C   0  0  0  0  0  0  0  0  0  0  0  0
   10.4258   -3.0106   23.0998 C   0  0  0  0  0  0  0  0  0  0  0  0
   10.2148   -3.4364   25.4200 C   0  0  0  0  0  0  0  0  0  0  0  0
    9.7853   -1.1840   24.4927 C   0  0  0  0  0  0  0  0  0  0  0  0
    5.0276   -8.5227   17.5352 C   0  0  0  0  0  0  0  0  0  0  0  0
    9.8187   -2.0895   25.5800 C   0  0  0  0  0  0  0  0  0  0  0  0
    5.6473   -8.7216   15.3158 C   0  0  0  0  0  0  0  0  0  0  0  0
   10.7581   -3.1233   19.4720 N   0  0  0  0  0  0  0  0  0  0  0  0
    9.9571   -4.0573   16.8866 C   0  0  0  0  0  0  0  0  0  0  0  0
    7.6213   -6.5618   16.0087 C   0  0  0  0  0  0  0  0  0  0  0  0
   10.8583   -2.6527   20.7222 C   0  0  0  0  0  0  0  0  0  0  0  0
   10.6412   -3.5089   21.7936 C   0  0  0  0  0  0  0  0  0  0  0  0
   10.4972   -3.8968   24.1589 C   0  0  0  0  0  0  0  0  0  0  0  0
    5.9260   -8.2736   16.5517 C   0  0  0  0  0  0  0  0  0  0  0  0
    3.8816   -9.1166   17.2493 C   0  0  0  0  0  0  0  0  0  0  0  0
   10.1297   -1.6575   23.2324 C   0  0  0  0  0  0  0  0  0  0  0  0
    9.4684   -1.6929   26.7263 F   0  0  0  0  0  0  0  0  0  0  0  0
    7.7963   -7.7906   17.9837 C   0  0  0  0  0  0  0  0  0  0  0  0
   10.5884   -3.0725   16.7902 O   0  0  0  0  0  0  0  0  0  0  0  0
   10.4323   -5.3494   20.3516 C   0  0  0  0  0  0  0  0  0  0  0  0
    7.1156   -7.5454   16.8218 C   0  0  0  0  0  0  0  0  0  0  0  0
   10.3885   -4.4388   19.2773 C   0  0  0  0  0  0  0  0  0  0  0  0
    4.5160   -9.3822   15.0841 C   0  0  0  0  0  0  0  0  0  0  0  0
  1  3  4  0
  1 24  4  0
  2  6  4  0
  2 15  4  0
  3  5  4  0
  3  6  4  0
  4 21  4  0
  4 29  4  0
  5 15  4  0
  5 28  1  0
  6 16  4  0
  7 18  4  0
  7 26  4  0
  8 18  1  0
  8 19  4  0
  8 22  4  0
  9 12  4  0
  9 19  4  0
 10 12  4  0
 10 22  4  0
 11 20  4  0
 11 21  4  0
 12 23  1  0
 13 20  4  0
 13 29  4  0
 14 17  4  0
 14 28  4  0
 15 25  2  0
 16 27  4  0
 17 18  4  0
 20 27  1  0
 24 27  4  0
 26 28  4  0
M  END
$$$$

 Created by Python create_sdf_string function

 29 33  0  0  0  0  0  0  0  0999 V2000
    8.8270   -7.0288   18.4251 C   0  0  0  0  0  0  0  0  0  0  0  0
    9.1576   -4.6236   15.8860 O   0  0  0  0  0  0  0  0  0  0  0  0
    9.1509   -5.9108   17.7177 C   0  0  0  0  0  0  0  0  0  0  0  0
    3.6373   -9.5349   16.0582 N   0  0  0  0  0  0  0  0  0  0  0  0
    9.9275   -4.8001   18.0438 N   0  0  0  0  0  0  0  0  0  0  0  0
    8.5908   -5.7425   16.4412 C   0  0  0  0  0  0  0  0  0  0  0  0
   10.5993   -4.8981   21.6068 C   0  0  0  0  0  0  0  0  0  0  0  0
   10.4258   -3.0106   23.0998 C   0  0  0  0  0  0  0  0  0  0  0  0
   10.2148   -3.4364   25.4200 C   0  0  0  0  0  0  0  0  0  0  0  0
    9.7853   -1.1840   24.4927 C   0  0  0  0  0  0  0  0  0  0  0  0
    5.0276   -8.5227   17.5352 C   0  0  0  0  0  0  0  0  0  0  0  0
    9.8187   -2.0895   25.5800 C   0  0  0  0  0  0  0  0  0  0  0  0
    5.6473   -8.7216   15.3158 C   0  0  0  0  0  0  0  0  0  0  0  0
   10.7581   -3.1233   19.4720 N   0  0  0  0  0  0  0  0  0  0  0  0
    9.9571   -4.0573   16.8866 C   0  0  0  0  0  0  0  0  0  0  0  0
    7.6213   -6.5618   16.0087 C   0  0  0  0  0  0  0  0  0  0  0  0
   10.8583   -2.6527   20.7222 C   0  0  0  0  0  0  0  0  0  0  0  0
   10.6412   -3.5089   21.7936 C   0  0  0  0  0  0  0  0  0  0  0  0
   10.4972   -3.8968   24.1589 C   0  0  0  0  0  0  0  0  0  0  0  0
    5.9260   -8.2736   16.5517 C   0  0  0  0  0  0  0  0  0  0  0  0
    3.8816   -9.1166   17.2493 C   0  0  0  0  0  0  0  0  0  0  0  0
   10.1297   -1.6575   23.2324 C   0  0  0  0  0  0  0  0  0  0  0  0
    9.4684   -1.6929   26.7263 F   0  0  0  0  0  0  0  0  0  0  0  0
    7.7963   -7.7906   17.9837 C   0  0  0  0  0  0  0  0  0  0  0  0
   10.5884   -3.0725   16.7902 O   0  0  0  0  0  0  0  0  0  0  0  0
   10.4323   -5.3494   20.3516 C   0  0  0  0  0  0  0  0  0  0  0  0
    7.1156   -7.5454   16.8218 C   0  0  0  0  0  0  0  0  0  0  0  0
   10.3885   -4.4388   19.2773 C   0  0  0  0  0  0  0  0  0  0  0  0
    4.5160   -9.3822   15.0841 C   0  0  0  0  0  0  0  0  0  0  0  0
  1  3  4  0
  1 24  4  0
  2  6  4  0
  2 15  4  0
  3  5  4  0
  3  6  4  0
  4 21  4  0
  4 29  4  0
  5 15  4  0
  5 28  1  0
  6 16  4  0
  7 18  4  0
  7 26  4  0
  8 18  1  0
  8 19  4  0
  8 22  4  0
  9 12  4  0
  9 19  4  0
 10 12  4  0
 10 22  4  0
 11 20  4  0
 11 21  4  0
 12 23  1  0
 13 20  4  0
 13 29  4  0
 14 17  4  0
 14 28  4  0
 15 25  2  0
 16 27  4  0
 17 18  4  0
 20 27  1  0
 24 27  4  0
 26 28  4  0
M  END
$$$$

 Created by Python create_sdf_string function

 29 33  0  0  0  0  0  0  0  0999 V2000
    8.8270   -7.0288   18.4251 C   0  0  0  0  0  0  0  0  0  0  0  0
    9.1576   -4.6236   15.8860 O   0  0  0  0  0  0  0  0  0  0  0  0
    9.1509   -5.9108   17.7177 C   0  0  0  0  0  0  0  0  0  0  0  0
    3.6373   -9.5349   16.0582 N   0  0  0  0  0  0  0  0  0  0  0  0
    9.9275   -4.8001   18.0438 N   0  0  0  0  0  0  0  0  0  0  0  0
    8.5908   -5.7425   16.4412 C   0  0  0  0  0  0  0  0  0  0  0  0
   10.5993   -4.8981   21.6068 C   0  0  0  0  0  0  0  0  0  0  0  0
   10.4258   -3.0106   23.0998 C   0  0  0  0  0  0  0  0  0  0  0  0
   10.2148   -3.4364   25.4200 C   0  0  0  0  0  0  0  0  0  0  0  0
    9.7853   -1.1840   24.4927 C   0  0  0  0  0  0  0  0  0  0  0  0
    5.0276   -8.5227   17.5352 C   0  0  0  0  0  0  0  0  0  0  0  0
    9.8187   -2.0895   25.5800 C   0  0  0  0  0  0  0  0  0  0  0  0
    5.6473   -8.7216   15.3158 C   0  0  0  0  0  0  0  0  0  0  0  0
   10.7581   -3.1233   19.4720 N   0  0  0  0  0  0  0  0  0  0  0  0
    9.9571   -4.0573   16.8866 C   0  0  0  0  0  0  0  0  0  0  0  0
    7.6213   -6.5618   16.0087 C   0  0  0  0  0  0  0  0  0  0  0  0
   10.8583   -2.6527   20.7222 C   0  0  0  0  0  0  0  0  0  0  0  0
   10.6412   -3.5089   21.7936 C   0  0  0  0  0  0  0  0  0  0  0  0
   10.4972   -3.8968   24.1589 C   0  0  0  0  0  0  0  0  0  0  0  0
    5.9260   -8.2736   16.5517 C   0  0  0  0  0  0  0  0  0  0  0  0
    3.8816   -9.1166   17.2493 C   0  0  0  0  0  0  0  0  0  0  0  0
   10.1297   -1.6575   23.2324 C   0  0  0  0  0  0  0  0  0  0  0  0
    9.4684   -1.6929   26.7263 F   0  0  0  0  0  0  0  0  0  0  0  0
    7.7963   -7.7906   17.9837 C   0  0  0  0  0  0  0  0  0  0  0  0
   10.5884   -3.0725   16.7902 O   0  0  0  0  0  0  0  0  0  0  0  0
   10.4323   -5.3494   20.3516 C   0  0  0  0  0  0  0  0  0  0  0  0
    7.1156   -7.5454   16.8218 C   0  0  0  0  0  0  0  0  0  0  0  0
   10.3885   -4.4388   19.2773 C   0  0  0  0  0  0  0  0  0  0  0  0
    4.5160   -9.3822   15.0841 C   0  0  0  0  0  0  0  0  0  0  0  0
  1  3  4  0
  1 24  4  0
  2  6  4  0
  2 15  4  0
  3  5  4  0
  3  6  4  0
  4 21  4  0
  4 29  4  0
  5 15  4  0
  5 28  1  0
  6 16  4  0
  7 18  4  0
  7 26  4  0
  8 18  1  0
  8 19  4  0
  8 22  4  0
  9 12  4  0
  9 19  4  0
 10 12  4  0
 10 22  4  0
 11 20  4  0
 11 21  4  0
 12 23  1  0
 13 20  4  0
 13 29  4  0
 14 17  4  0
 14 28  4  0
 15 25  2  0
 16 27  4  0
 17 18  4  0
 20 27  1  0
 24 27  4  0
 26 28  4  0
M  END
$$$$

 Created by Python create_sdf_string function

 29 33  0  0  0  0  0  0  0  0999 V2000
    8.8270   -7.0288   18.4251 C   0  0  0  0  0  0  0  0  0  0  0  0
    9.1576   -4.6236   15.8860 O   0  0  0  0  0  0  0  0  0  0  0  0
    9.1509   -5.9108   17.7177 C   0  0  0  0  0  0  0  0  0  0  0  0
    3.6373   -9.5349   16.0582 N   0  0  0  0  0  0  0  0  0  0  0  0
    9.9275   -4.8001   18.0438 N   0  0  0  0  0  0  0  0  0  0  0  0
    8.5908   -5.7425   16.4412 C   0  0  0  0  0  0  0  0  0  0  0  0
   10.5993   -4.8981   21.6068 C   0  0  0  0  0  0  0  0  0  0  0  0
   10.4258   -3.0106   23.0998 C   0  0  0  0  0  0  0  0  0  0  0  0
   10.2148   -3.4364   25.4200 C   0  0  0  0  0  0  0  0  0  0  0  0
    9.7853   -1.1840   24.4927 C   0  0  0  0  0  0  0  0  0  0  0  0
    5.0276   -8.5227   17.5352 C   0  0  0  0  0  0  0  0  0  0  0  0
    9.8187   -2.0895   25.5800 C   0  0  0  0  0  0  0  0  0  0  0  0
    5.6473   -8.7216   15.3158 C   0  0  0  0  0  0  0  0  0  0  0  0
   10.7581   -3.1233   19.4720 N   0  0  0  0  0  0  0  0  0  0  0  0
    9.9571   -4.0573   16.8866 C   0  0  0  0  0  0  0  0  0  0  0  0
    7.6213   -6.5618   16.0087 C   0  0  0  0  0  0  0  0  0  0  0  0
   10.8583   -2.6527   20.7222 C   0  0  0  0  0  0  0  0  0  0  0  0
   10.6412   -3.5089   21.7936 C   0  0  0  0  0  0  0  0  0  0  0  0
   10.4972   -3.8968   24.1589 C   0  0  0  0  0  0  0  0  0  0  0  0
    5.9260   -8.2736   16.5517 C   0  0  0  0  0  0  0  0  0  0  0  0
    3.8816   -9.1166   17.2493 C   0  0  0  0  0  0  0  0  0  0  0  0
   10.1297   -1.6575   23.2324 C   0  0  0  0  0  0  0  0  0  0  0  0
    9.4684   -1.6929   26.7263 F   0  0  0  0  0  0  0  0  0  0  0  0
    7.7963   -7.7906   17.9837 C   0  0  0  0  0  0  0  0  0  0  0  0
   10.5884   -3.0725   16.7902 O   0  0  0  0  0  0  0  0  0  0  0  0
   10.4323   -5.3494   20.3516 C   0  0  0  0  0  0  0  0  0  0  0  0
    7.1156   -7.5454   16.8218 C   0  0  0  0  0  0  0  0  0  0  0  0
   10.3885   -4.4388   19.2773 C   0  0  0  0  0  0  0  0  0  0  0  0
    4.5160   -9.3822   15.0841 C   0  0  0  0  0  0  0  0  0  0  0  0
  1  3  4  0
  1 24  4  0
  2  6  4  0
  2 15  4  0
  3  5  4  0
  3  6  4  0
  4 21  4  0
  4 29  4  0
  5 15  4  0
  5 28  1  0
  6 16  4  0
  7 18  4  0
  7 26  4  0
  8 18  1  0
  8 19  4  0
  8 22  4  0
  9 12  4  0
  9 19  4  0
 10 12  4  0
 10 22  4  0
 11 20  4  0
 11 21  4  0
 12 23  1  0
 13 20  4  0
 13 29  4  0
 14 17  4  0
 14 28  4  0
 15 25  2  0
 16 27  4  0
 17 18  4  0
 20 27  1  0
 24 27  4  0
 26 28  4  0
M  END
$$$$

 Created by Python create_sdf_string function

 29 33  0  0  0  0  0  0  0  0999 V2000
    8.8270   -7.0288   18.4251 C   0  0  0  0  0  0  0  0  0  0  0  0
    9.1576   -4.6236   15.8860 O   0  0  0  0  0  0  0  0  0  0  0  0
    9.1509   -5.9108   17.7177 C   0  0  0  0  0  0  0  0  0  0  0  0
    3.6373   -9.5349   16.0582 N   0  0  0  0  0  0  0  0  0  0  0  0
    9.9275   -4.8001   18.0438 N   0  0  0  0  0  0  0  0  0  0  0  0
    8.5908   -5.7425   16.4412 C   0  0  0  0  0  0  0  0  0  0  0  0
   10.5993   -4.8981   21.6068 C   0  0  0  0  0  0  0  0  0  0  0  0
   10.4258   -3.0106   23.0998 C   0  0  0  0  0  0  0  0  0  0  0  0
   10.2148   -3.4364   25.4200 C   0  0  0  0  0  0  0  0  0  0  0  0
    9.7853   -1.1840   24.4927 C   0  0  0  0  0  0  0  0  0  0  0  0
    5.0276   -8.5227   17.5352 C   0  0  0  0  0  0  0  0  0  0  0  0
    9.8187   -2.0895   25.5800 C   0  0  0  0  0  0  0  0  0  0  0  0
    5.6473   -8.7216   15.3158 C   0  0  0  0  0  0  0  0  0  0  0  0
   10.7581   -3.1233   19.4720 N   0  0  0  0  0  0  0  0  0  0  0  0
    9.9571   -4.0573   16.8866 C   0  0  0  0  0  0  0  0  0  0  0  0
    7.6213   -6.5618   16.0087 C   0  0  0  0  0  0  0  0  0  0  0  0
   10.8583   -2.6527   20.7222 C   0  0  0  0  0  0  0  0  0  0  0  0
   10.6412   -3.5089   21.7936 C   0  0  0  0  0  0  0  0  0  0  0  0
   10.4972   -3.8968   24.1589 C   0  0  0  0  0  0  0  0  0  0  0  0
    5.9260   -8.2736   16.5517 C   0  0  0  0  0  0  0  0  0  0  0  0
    3.8816   -9.1166   17.2493 C   0  0  0  0  0  0  0  0  0  0  0  0
   10.1297   -1.6575   23.2324 C   0  0  0  0  0  0  0  0  0  0  0  0
    9.4684   -1.6929   26.7263 F   0  0  0  0  0  0  0  0  0  0  0  0
    7.7963   -7.7906   17.9837 C   0  0  0  0  0  0  0  0  0  0  0  0
   10.5884   -3.0725   16.7902 O   0  0  0  0  0  0  0  0  0  0  0  0
   10.4323   -5.3494   20.3516 C   0  0  0  0  0  0  0  0  0  0  0  0
    7.1156   -7.5454   16.8218 C   0  0  0  0  0  0  0  0  0  0  0  0
   10.3885   -4.4388   19.2773 C   0  0  0  0  0  0  0  0  0  0  0  0
    4.5160   -9.3822   15.0841 C   0  0  0  0  0  0  0  0  0  0  0  0
  1  3  4  0
  1 24  4  0
  2  6  4  0
  2 15  4  0
  3  5  4  0
  3  6  4  0
  4 21  4  0
  4 29  4  0
  5 15  4  0
  5 28  1  0
  6 16  4  0
  7 18  4  0
  7 26  4  0
  8 18  1  0
  8 19  4  0
  8 22  4  0
  9 12  4  0
  9 19  4  0
 10 12  4  0
 10 22  4  0
 11 20  4  0
 11 21  4  0
 12 23  1  0
 13 20  4  0
 13 29  4  0
 14 17  4  0
 14 28  4  0
 15 25  2  0
 16 27  4  0
 17 18  4  0
 20 27  1  0
 24 27  4  0
 26 28  4  0
M  END
$$$$

 Created by Python create_sdf_string function

 29 33  0  0  0  0  0  0  0  0999 V2000
    8.8270   -7.0288   18.4251 C   0  0  0  0  0  0  0  0  0  0  0  0
    9.1576   -4.6236   15.8860 O   0  0  0  0  0  0  0  0  0  0  0  0
    9.1509   -5.9108   17.7177 C   0  0  0  0  0  0  0  0  0  0  0  0
    3.6373   -9.5349   16.0582 N   0  0  0  0  0  0  0  0  0  0  0  0
    9.9275   -4.8001   18.0438 N   0  0  0  0  0  0  0  0  0  0  0  0
    8.5908   -5.7425   16.4412 C   0  0  0  0  0  0  0  0  0  0  0  0
   10.5993   -4.8981   21.6068 C   0  0  0  0  0  0  0  0  0  0  0  0
   10.4258   -3.0106   23.0998 C   0  0  0  0  0  0  0  0  0  0  0  0
   10.2148   -3.4364   25.4200 C   0  0  0  0  0  0  0  0  0  0  0  0
    9.7853   -1.1840   24.4927 C   0  0  0  0  0  0  0  0  0  0  0  0
    5.0276   -8.5227   17.5352 C   0  0  0  0  0  0  0  0  0  0  0  0
    9.8187   -2.0895   25.5800 C   0  0  0  0  0  0  0  0  0  0  0  0
    5.6473   -8.7216   15.3158 C   0  0  0  0  0  0  0  0  0  0  0  0
   10.7581   -3.1233   19.4720 N   0  0  0  0  0  0  0  0  0  0  0  0
    9.9571   -4.0573   16.8866 C   0  0  0  0  0  0  0  0  0  0  0  0
    7.6213   -6.5618   16.0087 C   0  0  0  0  0  0  0  0  0  0  0  0
   10.8583   -2.6527   20.7222 C   0  0  0  0  0  0  0  0  0  0  0  0
   10.6412   -3.5089   21.7936 C   0  0  0  0  0  0  0  0  0  0  0  0
   10.4972   -3.8968   24.1589 C   0  0  0  0  0  0  0  0  0  0  0  0
    5.9260   -8.2736   16.5517 C   0  0  0  0  0  0  0  0  0  0  0  0
    3.8816   -9.1166   17.2493 C   0  0  0  0  0  0  0  0  0  0  0  0
   10.1297   -1.6575   23.2324 C   0  0  0  0  0  0  0  0  0  0  0  0
    9.4684   -1.6929   26.7263 F   0  0  0  0  0  0  0  0  0  0  0  0
    7.7963   -7.7906   17.9837 C   0  0  0  0  0  0  0  0  0  0  0  0
   10.5884   -3.0725   16.7902 O   0  0  0  0  0  0  0  0  0  0  0  0
   10.4323   -5.3494   20.3516 C   0  0  0  0  0  0  0  0  0  0  0  0
    7.1156   -7.5454   16.8218 C   0  0  0  0  0  0  0  0  0  0  0  0
   10.3885   -4.4388   19.2773 C   0  0  0  0  0  0  0  0  0  0  0  0
    4.5160   -9.3822   15.0841 C   0  0  0  0  0  0  0  0  0  0  0  0
  1  3  4  0
  1 24  4  0
  2  6  4  0
  2 15  4  0
  3  5  4  0
  3  6  4  0
  4 21  4  0
  4 29  4  0
  5 15  4  0
  5 28  1  0
  6 16  4  0
  7 18  4  0
  7 26  4  0
  8 18  1  0
  8 19  4  0
  8 22  4  0
  9 12  4  0
  9 19  4  0
 10 12  4  0
 10 22  4  0
 11 20  4  0
 11 21  4  0
 12 23  1  0
 13 20  4  0
 13 29  4  0
 14 17  4  0
 14 28  4  0
 15 25  2  0
 16 27  4  0
 17 18  4  0
 20 27  1  0
 24 27  4  0
 26 28  4  0
M  END
$$$$

 Created by Python create_sdf_string function

 29 33  0  0  0  0  0  0  0  0999 V2000
    8.8270   -7.0288   18.4251 C   0  0  0  0  0  0  0  0  0  0  0  0
    9.1576   -4.6236   15.8860 O   0  0  0  0  0  0  0  0  0  0  0  0
    9.1509   -5.9108   17.7177 C   0  0  0  0  0  0  0  0  0  0  0  0
    3.6373   -9.5349   16.0582 N   0  0  0  0  0  0  0  0  0  0  0  0
    9.9275   -4.8001   18.0438 N   0  0  0  0  0  0  0  0  0  0  0  0
    8.5908   -5.7425   16.4412 C   0  0  0  0  0  0  0  0  0  0  0  0
   10.5993   -4.8981   21.6068 C   0  0  0  0  0  0  0  0  0  0  0  0
   10.4258   -3.0106   23.0998 C   0  0  0  0  0  0  0  0  0  0  0  0
   10.2148   -3.4364   25.4200 C   0  0  0  0  0  0  0  0  0  0  0  0
    9.7853   -1.1840   24.4927 C   0  0  0  0  0  0  0  0  0  0  0  0
    5.0276   -8.5227   17.5352 C   0  0  0  0  0  0  0  0  0  0  0  0
    9.8187   -2.0895   25.5800 C   0  0  0  0  0  0  0  0  0  0  0  0
    5.6473   -8.7216   15.3158 C   0  0  0  0  0  0  0  0  0  0  0  0
   10.7581   -3.1233   19.4720 N   0  0  0  0  0  0  0  0  0  0  0  0
    9.9571   -4.0573   16.8866 C   0  0  0  0  0  0  0  0  0  0  0  0
    7.6213   -6.5618   16.0087 C   0  0  0  0  0  0  0  0  0  0  0  0
   10.8583   -2.6527   20.7222 C   0  0  0  0  0  0  0  0  0  0  0  0
   10.6412   -3.5089   21.7936 C   0  0  0  0  0  0  0  0  0  0  0  0
   10.4972   -3.8968   24.1589 C   0  0  0  0  0  0  0  0  0  0  0  0
    5.9260   -8.2736   16.5517 C   0  0  0  0  0  0  0  0  0  0  0  0
    3.8816   -9.1166   17.2493 C   0  0  0  0  0  0  0  0  0  0  0  0
   10.1297   -1.6575   23.2324 C   0  0  0  0  0  0  0  0  0  0  0  0
    9.4684   -1.6929   26.7263 F   0  0  0  0  0  0  0  0  0  0  0  0
    7.7963   -7.7906   17.9837 C   0  0  0  0  0  0  0  0  0  0  0  0
   10.5884   -3.0725   16.7902 O   0  0  0  0  0  0  0  0  0  0  0  0
   10.4323   -5.3494   20.3516 C   0  0  0  0  0  0  0  0  0  0  0  0
    7.1156   -7.5454   16.8218 C   0  0  0  0  0  0  0  0  0  0  0  0
   10.3885   -4.4388   19.2773 C   0  0  0  0  0  0  0  0  0  0  0  0
    4.5160   -9.3822   15.0841 C   0  0  0  0  0  0  0  0  0  0  0  0
  1  3  4  0
  1 24  4  0
  2  6  4  0
  2 15  4  0
  3  5  4  0
  3  6  4  0
  4 21  4  0
  4 29  4  0
  5 15  4  0
  5 28  1  0
  6 16  4  0
  7 18  4  0
  7 26  4  0
  8 18  1  0
  8 19  4  0
  8 22  4  0
  9 12  4  0
  9 19  4  0
 10 12  4  0
 10 22  4  0
 11 20  4  0
 11 21  4  0
 12 23  1  0
 13 20  4  0
 13 29  4  0
 14 17  4  0
 14 28  4  0
 15 25  2  0
 16 27  4  0
 17 18  4  0
 20 27  1  0
 24 27  4  0
 26 28  4  0
M  END
$$$$

 Created by Python create_sdf_string function

 29 33  0  0  0  0  0  0  0  0999 V2000
    8.8270   -7.0288   18.4251 C   0  0  0  0  0  0  0  0  0  0  0  0
    9.1576   -4.6236   15.8860 O   0  0  0  0  0  0  0  0  0  0  0  0
    9.1509   -5.9108   17.7177 C   0  0  0  0  0  0  0  0  0  0  0  0
    3.6373   -9.5349   16.0582 N   0  0  0  0  0  0  0  0  0  0  0  0
    9.9275   -4.8001   18.0438 N   0  0  0  0  0  0  0  0  0  0  0  0
    8.5908   -5.7425   16.4412 C   0  0  0  0  0  0  0  0  0  0  0  0
   10.5993   -4.8981   21.6068 C   0  0  0  0  0  0  0  0  0  0  0  0
   10.4258   -3.0106   23.0998 C   0  0  0  0  0  0  0  0  0  0  0  0
   10.2148   -3.4364   25.4200 C   0  0  0  0  0  0  0  0  0  0  0  0
    9.7853   -1.1840   24.4927 C   0  0  0  0  0  0  0  0  0  0  0  0
    5.0276   -8.5227   17.5352 C   0  0  0  0  0  0  0  0  0  0  0  0
    9.8187   -2.0895   25.5800 C   0  0  0  0  0  0  0  0  0  0  0  0
    5.6473   -8.7216   15.3158 C   0  0  0  0  0  0  0  0  0  0  0  0
   10.7581   -3.1233   19.4720 N   0  0  0  0  0  0  0  0  0  0  0  0
    9.9571   -4.0573   16.8866 C   0  0  0  0  0  0  0  0  0  0  0  0
    7.6213   -6.5618   16.0087 C   0  0  0  0  0  0  0  0  0  0  0  0
   10.8583   -2.6527   20.7222 C   0  0  0  0  0  0  0  0  0  0  0  0
   10.6412   -3.5089   21.7936 C   0  0  0  0  0  0  0  0  0  0  0  0
   10.4972   -3.8968   24.1589 C   0  0  0  0  0  0  0  0  0  0  0  0
    5.9260   -8.2736   16.5517 C   0  0  0  0  0  0  0  0  0  0  0  0
    3.8816   -9.1166   17.2493 C   0  0  0  0  0  0  0  0  0  0  0  0
   10.1297   -1.6575   23.2324 C   0  0  0  0  0  0  0  0  0  0  0  0
    9.4684   -1.6929   26.7263 F   0  0  0  0  0  0  0  0  0  0  0  0
    7.7963   -7.7906   17.9837 C   0  0  0  0  0  0  0  0  0  0  0  0
   10.5884   -3.0725   16.7902 O   0  0  0  0  0  0  0  0  0  0  0  0
   10.4323   -5.3494   20.3516 C   0  0  0  0  0  0  0  0  0  0  0  0
    7.1156   -7.5454   16.8218 C   0  0  0  0  0  0  0  0  0  0  0  0
   10.3885   -4.4388   19.2773 C   0  0  0  0  0  0  0  0  0  0  0  0
    4.5160   -9.3822   15.0841 C   0  0  0  0  0  0  0  0  0  0  0  0
  1  3  4  0
  1 24  4  0
  2  6  4  0
  2 15  4  0
  3  5  4  0
  3  6  4  0
  4 21  4  0
  4 29  4  0
  5 15  4  0
  5 28  1  0
  6 16  4  0
  7 18  4  0
  7 26  4  0
  8 18  1  0
  8 19  4  0
  8 22  4  0
  9 12  4  0
  9 19  4  0
 10 12  4  0
 10 22  4  0
 11 20  4  0
 11 21  4  0
 12 23  1  0
 13 20  4  0
 13 29  4  0
 14 17  4  0
 14 28  4  0
 15 25  2  0
 16 27  4  0
 17 18  4  0
 20 27  1  0
 24 27  4  0
 26 28  4  0
M  END
$$$$

 Created by Python create_sdf_string function

 29 33  0  0  0  0  0  0  0  0999 V2000
    8.8270   -7.0288   18.4251 C   0  0  0  0  0  0  0  0  0  0  0  0
    9.1576   -4.6236   15.8860 O   0  0  0  0  0  0  0  0  0  0  0  0
    9.1509   -5.9108   17.7177 C   0  0  0  0  0  0  0  0  0  0  0  0
    3.6373   -9.5349   16.0582 N   0  0  0  0  0  0  0  0  0  0  0  0
    9.9275   -4.8001   18.0438 N   0  0  0  0  0  0  0  0  0  0  0  0
    8.5908   -5.7425   16.4412 C   0  0  0  0  0  0  0  0  0  0  0  0
   10.5993   -4.8981   21.6068 C   0  0  0  0  0  0  0  0  0  0  0  0
   10.4258   -3.0106   23.0998 C   0  0  0  0  0  0  0  0  0  0  0  0
   10.2148   -3.4364   25.4200 C   0  0  0  0  0  0  0  0  0  0  0  0
    9.7853   -1.1840   24.4927 C   0  0  0  0  0  0  0  0  0  0  0  0
    5.0276   -8.5227   17.5352 C   0  0  0  0  0  0  0  0  0  0  0  0
    9.8187   -2.0895   25.5800 C   0  0  0  0  0  0  0  0  0  0  0  0
    5.6473   -8.7216   15.3158 C   0  0  0  0  0  0  0  0  0  0  0  0
   10.7581   -3.1233   19.4720 N   0  0  0  0  0  0  0  0  0  0  0  0
    9.9571   -4.0573   16.8866 C   0  0  0  0  0  0  0  0  0  0  0  0
    7.6213   -6.5618   16.0087 C   0  0  0  0  0  0  0  0  0  0  0  0
   10.8583   -2.6527   20.7222 C   0  0  0  0  0  0  0  0  0  0  0  0
   10.6412   -3.5089   21.7936 C   0  0  0  0  0  0  0  0  0  0  0  0
   10.4972   -3.8968   24.1589 C   0  0  0  0  0  0  0  0  0  0  0  0
    5.9260   -8.2736   16.5517 C   0  0  0  0  0  0  0  0  0  0  0  0
    3.8816   -9.1166   17.2493 C   0  0  0  0  0  0  0  0  0  0  0  0
   10.1297   -1.6575   23.2324 C   0  0  0  0  0  0  0  0  0  0  0  0
    9.4684   -1.6929   26.7263 F   0  0  0  0  0  0  0  0  0  0  0  0
    7.7963   -7.7906   17.9837 C   0  0  0  0  0  0  0  0  0  0  0  0
   10.5884   -3.0725   16.7902 O   0  0  0  0  0  0  0  0  0  0  0  0
   10.4323   -5.3494   20.3516 C   0  0  0  0  0  0  0  0  0  0  0  0
    7.1156   -7.5454   16.8218 C   0  0  0  0  0  0  0  0  0  0  0  0
   10.3885   -4.4388   19.2773 C   0  0  0  0  0  0  0  0  0  0  0  0
    4.5160   -9.3822   15.0841 C   0  0  0  0  0  0  0  0  0  0  0  0
  1  3  4  0
  1 24  4  0
  2  6  4  0
  2 15  4  0
  3  5  4  0
  3  6  4  0
  4 21  4  0
  4 29  4  0
  5 15  4  0
  5 28  1  0
  6 16  4  0
  7 18  4  0
  7 26  4  0
  8 18  1  0
  8 19  4  0
  8 22  4  0
  9 12  4  0
  9 19  4  0
 10 12  4  0
 10 22  4  0
 11 20  4  0
 11 21  4  0
 12 23  1  0
 13 20  4  0
 13 29  4  0
 14 17  4  0
 14 28  4  0
 15 25  2  0
 16 27  4  0
 17 18  4  0
 20 27  1  0
 24 27  4  0
 26 28  4  0
M  END
$$$$

 Created by Python create_sdf_string function

 29 33  0  0  0  0  0  0  0  0999 V2000
    8.8270   -7.0288   18.4251 C   0  0  0  0  0  0  0  0  0  0  0  0
    9.1576   -4.6236   15.8860 O   0  0  0  0  0  0  0  0  0  0  0  0
    9.1509   -5.9108   17.7177 C   0  0  0  0  0  0  0  0  0  0  0  0
    3.6373   -9.5349   16.0582 N   0  0  0  0  0  0  0  0  0  0  0  0
    9.9275   -4.8001   18.0438 N   0  0  0  0  0  0  0  0  0  0  0  0
    8.5908   -5.7425   16.4412 C   0  0  0  0  0  0  0  0  0  0  0  0
   10.5993   -4.8981   21.6068 C   0  0  0  0  0  0  0  0  0  0  0  0
   10.4258   -3.0106   23.0998 C   0  0  0  0  0  0  0  0  0  0  0  0
   10.2148   -3.4364   25.4200 C   0  0  0  0  0  0  0  0  0  0  0  0
    9.7853   -1.1840   24.4927 C   0  0  0  0  0  0  0  0  0  0  0  0
    5.0276   -8.5227   17.5352 C   0  0  0  0  0  0  0  0  0  0  0  0
    9.8187   -2.0895   25.5800 C   0  0  0  0  0  0  0  0  0  0  0  0
    5.6473   -8.7216   15.3158 C   0  0  0  0  0  0  0  0  0  0  0  0
   10.7581   -3.1233   19.4720 N   0  0  0  0  0  0  0  0  0  0  0  0
    9.9571   -4.0573   16.8866 C   0  0  0  0  0  0  0  0  0  0  0  0
    7.6213   -6.5618   16.0087 C   0  0  0  0  0  0  0  0  0  0  0  0
   10.8583   -2.6527   20.7222 C   0  0  0  0  0  0  0  0  0  0  0  0
   10.6412   -3.5089   21.7936 C   0  0  0  0  0  0  0  0  0  0  0  0
   10.4972   -3.8968   24.1589 C   0  0  0  0  0  0  0  0  0  0  0  0
    5.9260   -8.2736   16.5517 C   0  0  0  0  0  0  0  0  0  0  0  0
    3.8816   -9.1166   17.2493 C   0  0  0  0  0  0  0  0  0  0  0  0
   10.1297   -1.6575   23.2324 C   0  0  0  0  0  0  0  0  0  0  0  0
    9.4684   -1.6929   26.7263 F   0  0  0  0  0  0  0  0  0  0  0  0
    7.7963   -7.7906   17.9837 C   0  0  0  0  0  0  0  0  0  0  0  0
   10.5884   -3.0725   16.7902 O   0  0  0  0  0  0  0  0  0  0  0  0
   10.4323   -5.3494   20.3516 C   0  0  0  0  0  0  0  0  0  0  0  0
    7.1156   -7.5454   16.8218 C   0  0  0  0  0  0  0  0  0  0  0  0
   10.3885   -4.4388   19.2773 C   0  0  0  0  0  0  0  0  0  0  0  0
    4.5160   -9.3822   15.0841 C   0  0  0  0  0  0  0  0  0  0  0  0
  1  3  4  0
  1 24  4  0
  2  6  4  0
  2 15  4  0
  3  5  4  0
  3  6  4  0
  4 21  4  0
  4 29  4  0
  5 15  4  0
  5 28  1  0
  6 16  4  0
  7 18  4  0
  7 26  4  0
  8 18  1  0
  8 19  4  0
  8 22  4  0
  9 12  4  0
  9 19  4  0
 10 12  4  0
 10 22  4  0
 11 20  4  0
 11 21  4  0
 12 23  1  0
 13 20  4  0
 13 29  4  0
 14 17  4  0
 14 28  4  0
 15 25  2  0
 16 27  4  0
 17 18  4  0
 20 27  1  0
 24 27  4  0
 26 28  4  0
M  END
$$$$

 Created by Python create_sdf_string function

 29 33  0  0  0  0  0  0  0  0999 V2000
    8.8270   -7.0288   18.4251 C   0  0  0  0  0  0  0  0  0  0  0  0
    9.1576   -4.6236   15.8860 O   0  0  0  0  0  0  0  0  0  0  0  0
    9.1509   -5.9108   17.7177 C   0  0  0  0  0  0  0  0  0  0  0  0
    3.6373   -9.5349   16.0582 N   0  0  0  0  0  0  0  0  0  0  0  0
    9.9275   -4.8001   18.0438 N   0  0  0  0  0  0  0  0  0  0  0  0
    8.5908   -5.7425   16.4412 C   0  0  0  0  0  0  0  0  0  0  0  0
   10.5993   -4.8981   21.6068 C   0  0  0  0  0  0  0  0  0  0  0  0
   10.4258   -3.0106   23.0998 C   0  0  0  0  0  0  0  0  0  0  0  0
   10.2148   -3.4364   25.4200 C   0  0  0  0  0  0  0  0  0  0  0  0
    9.7853   -1.1840   24.4927 C   0  0  0  0  0  0  0  0  0  0  0  0
    5.0276   -8.5227   17.5352 C   0  0  0  0  0  0  0  0  0  0  0  0
    9.8187   -2.0895   25.5800 C   0  0  0  0  0  0  0  0  0  0  0  0
    5.6473   -8.7216   15.3158 C   0  0  0  0  0  0  0  0  0  0  0  0
   10.7581   -3.1233   19.4720 N   0  0  0  0  0  0  0  0  0  0  0  0
    9.9571   -4.0573   16.8866 C   0  0  0  0  0  0  0  0  0  0  0  0
    7.6213   -6.5618   16.0087 C   0  0  0  0  0  0  0  0  0  0  0  0
   10.8583   -2.6527   20.7222 C   0  0  0  0  0  0  0  0  0  0  0  0
   10.6412   -3.5089   21.7936 C   0  0  0  0  0  0  0  0  0  0  0  0
   10.4972   -3.8968   24.1589 C   0  0  0  0  0  0  0  0  0  0  0  0
    5.9260   -8.2736   16.5517 C   0  0  0  0  0  0  0  0  0  0  0  0
    3.8816   -9.1166   17.2493 C   0  0  0  0  0  0  0  0  0  0  0  0
   10.1297   -1.6575   23.2324 C   0  0  0  0  0  0  0  0  0  0  0  0
    9.4684   -1.6929   26.7263 F   0  0  0  0  0  0  0  0  0  0  0  0
    7.7963   -7.7906   17.9837 C   0  0  0  0  0  0  0  0  0  0  0  0
   10.5884   -3.0725   16.7902 O   0  0  0  0  0  0  0  0  0  0  0  0
   10.4323   -5.3494   20.3516 C   0  0  0  0  0  0  0  0  0  0  0  0
    7.1156   -7.5454   16.8218 C   0  0  0  0  0  0  0  0  0  0  0  0
   10.3885   -4.4388   19.2773 C   0  0  0  0  0  0  0  0  0  0  0  0
    4.5160   -9.3822   15.0841 C   0  0  0  0  0  0  0  0  0  0  0  0
  1  3  4  0
  1 24  4  0
  2  6  4  0
  2 15  4  0
  3  5  4  0
  3  6  4  0
  4 21  4  0
  4 29  4  0
  5 15  4  0
  5 28  1  0
  6 16  4  0
  7 18  4  0
  7 26  4  0
  8 18  1  0
  8 19  4  0
  8 22  4  0
  9 12  4  0
  9 19  4  0
 10 12  4  0
 10 22  4  0
 11 20  4  0
 11 21  4  0
 12 23  1  0
 13 20  4  0
 13 29  4  0
 14 17  4  0
 14 28  4  0
 15 25  2  0
 16 27  4  0
 17 18  4  0
 20 27  1  0
 24 27  4  0
 26 28  4  0
M  END
$$$$

 Created by Python create_sdf_string function

 29 33  0  0  0  0  0  0  0  0999 V2000
    8.8270   -7.0288   18.4251 C   0  0  0  0  0  0  0  0  0  0  0  0
    9.1576   -4.6236   15.8860 O   0  0  0  0  0  0  0  0  0  0  0  0
    9.1509   -5.9108   17.7177 C   0  0  0  0  0  0  0  0  0  0  0  0
    3.6373   -9.5349   16.0582 N   0  0  0  0  0  0  0  0  0  0  0  0
    9.9275   -4.8001   18.0438 N   0  0  0  0  0  0  0  0  0  0  0  0
    8.5908   -5.7425   16.4412 C   0  0  0  0  0  0  0  0  0  0  0  0
   10.5993   -4.8981   21.6068 C   0  0  0  0  0  0  0  0  0  0  0  0
   10.4258   -3.0106   23.0998 C   0  0  0  0  0  0  0  0  0  0  0  0
   10.2148   -3.4364   25.4200 C   0  0  0  0  0  0  0  0  0  0  0  0
    9.7853   -1.1840   24.4927 C   0  0  0  0  0  0  0  0  0  0  0  0
    5.0276   -8.5227   17.5352 C   0  0  0  0  0  0  0  0  0  0  0  0
    9.8187   -2.0895   25.5800 C   0  0  0  0  0  0  0  0  0  0  0  0
    5.6473   -8.7216   15.3158 C   0  0  0  0  0  0  0  0  0  0  0  0
   10.7581   -3.1233   19.4720 N   0  0  0  0  0  0  0  0  0  0  0  0
    9.9571   -4.0573   16.8866 C   0  0  0  0  0  0  0  0  0  0  0  0
    7.6213   -6.5618   16.0087 C   0  0  0  0  0  0  0  0  0  0  0  0
   10.8583   -2.6527   20.7222 C   0  0  0  0  0  0  0  0  0  0  0  0
   10.6412   -3.5089   21.7936 C   0  0  0  0  0  0  0  0  0  0  0  0
   10.4972   -3.8968   24.1589 C   0  0  0  0  0  0  0  0  0  0  0  0
    5.9260   -8.2736   16.5517 C   0  0  0  0  0  0  0  0  0  0  0  0
    3.8816   -9.1166   17.2493 C   0  0  0  0  0  0  0  0  0  0  0  0
   10.1297   -1.6575   23.2324 C   0  0  0  0  0  0  0  0  0  0  0  0
    9.4684   -1.6929   26.7263 F   0  0  0  0  0  0  0  0  0  0  0  0
    7.7963   -7.7906   17.9837 C   0  0  0  0  0  0  0  0  0  0  0  0
   10.5884   -3.0725   16.7902 O   0  0  0  0  0  0  0  0  0  0  0  0
   10.4323   -5.3494   20.3516 C   0  0  0  0  0  0  0  0  0  0  0  0
    7.1156   -7.5454   16.8218 C   0  0  0  0  0  0  0  0  0  0  0  0
   10.3885   -4.4388   19.2773 C   0  0  0  0  0  0  0  0  0  0  0  0
    4.5160   -9.3822   15.0841 C   0  0  0  0  0  0  0  0  0  0  0  0
  1  3  4  0
  1 24  4  0
  2  6  4  0
  2 15  4  0
  3  5  4  0
  3  6  4  0
  4 21  4  0
  4 29  4  0
  5 15  4  0
  5 28  1  0
  6 16  4  0
  7 18  4  0
  7 26  4  0
  8 18  1  0
  8 19  4  0
  8 22  4  0
  9 12  4  0
  9 19  4  0
 10 12  4  0
 10 22  4  0
 11 20  4  0
 11 21  4  0
 12 23  1  0
 13 20  4  0
 13 29  4  0
 14 17  4  0
 14 28  4  0
 15 25  2  0
 16 27  4  0
 17 18  4  0
 20 27  1  0
 24 27  4  0
 26 28  4  0
M  END
$$$$

 Created by Python create_sdf_string function

 29 33  0  0  0  0  0  0  0  0999 V2000
    8.8270   -7.0288   18.4251 C   0  0  0  0  0  0  0  0  0  0  0  0
    9.1576   -4.6236   15.8860 O   0  0  0  0  0  0  0  0  0  0  0  0
    9.1509   -5.9108   17.7177 C   0  0  0  0  0  0  0  0  0  0  0  0
    3.6373   -9.5349   16.0582 N   0  0  0  0  0  0  0  0  0  0  0  0
    9.9275   -4.8001   18.0438 N   0  0  0  0  0  0  0  0  0  0  0  0
    8.5908   -5.7425   16.4412 C   0  0  0  0  0  0  0  0  0  0  0  0
   10.5993   -4.8981   21.6068 C   0  0  0  0  0  0  0  0  0  0  0  0
   10.4258   -3.0106   23.0998 C   0  0  0  0  0  0  0  0  0  0  0  0
   10.2148   -3.4364   25.4200 C   0  0  0  0  0  0  0  0  0  0  0  0
    9.7853   -1.1840   24.4927 C   0  0  0  0  0  0  0  0  0  0  0  0
    5.0276   -8.5227   17.5352 C   0  0  0  0  0  0  0  0  0  0  0  0
    9.8187   -2.0895   25.5800 C   0  0  0  0  0  0  0  0  0  0  0  0
    5.6473   -8.7216   15.3158 C   0  0  0  0  0  0  0  0  0  0  0  0
   10.7581   -3.1233   19.4720 N   0  0  0  0  0  0  0  0  0  0  0  0
    9.9571   -4.0573   16.8866 C   0  0  0  0  0  0  0  0  0  0  0  0
    7.6213   -6.5618   16.0087 C   0  0  0  0  0  0  0  0  0  0  0  0
   10.8583   -2.6527   20.7222 C   0  0  0  0  0  0  0  0  0  0  0  0
   10.6412   -3.5089   21.7936 C   0  0  0  0  0  0  0  0  0  0  0  0
   10.4972   -3.8968   24.1589 C   0  0  0  0  0  0  0  0  0  0  0  0
    5.9260   -8.2736   16.5517 C   0  0  0  0  0  0  0  0  0  0  0  0
    3.8816   -9.1166   17.2493 C   0  0  0  0  0  0  0  0  0  0  0  0
   10.1297   -1.6575   23.2324 C   0  0  0  0  0  0  0  0  0  0  0  0
    9.4684   -1.6929   26.7263 F   0  0  0  0  0  0  0  0  0  0  0  0
    7.7963   -7.7906   17.9837 C   0  0  0  0  0  0  0  0  0  0  0  0
   10.5884   -3.0725   16.7902 O   0  0  0  0  0  0  0  0  0  0  0  0
   10.4323   -5.3494   20.3516 C   0  0  0  0  0  0  0  0  0  0  0  0
    7.1156   -7.5454   16.8218 C   0  0  0  0  0  0  0  0  0  0  0  0
   10.3885   -4.4388   19.2773 C   0  0  0  0  0  0  0  0  0  0  0  0
    4.5160   -9.3822   15.0841 C   0  0  0  0  0  0  0  0  0  0  0  0
  1  3  4  0
  1 24  4  0
  2  6  4  0
  2 15  4  0
  3  5  4  0
  3  6  4  0
  4 21  4  0
  4 29  4  0
  5 15  4  0
  5 28  1  0
  6 16  4  0
  7 18  4  0
  7 26  4  0
  8 18  1  0
  8 19  4  0
  8 22  4  0
  9 12  4  0
  9 19  4  0
 10 12  4  0
 10 22  4  0
 11 20  4  0
 11 21  4  0
 12 23  1  0
 13 20  4  0
 13 29  4  0
 14 17  4  0
 14 28  4  0
 15 25  2  0
 16 27  4  0
 17 18  4  0
 20 27  1  0
 24 27  4  0
 26 28  4  0
M  END
$$$$

 Created by Python create_sdf_string function

 29 33  0  0  0  0  0  0  0  0999 V2000
    8.8270   -7.0288   18.4251 C   0  0  0  0  0  0  0  0  0  0  0  0
    9.1576   -4.6236   15.8860 O   0  0  0  0  0  0  0  0  0  0  0  0
    9.1509   -5.9108   17.7177 C   0  0  0  0  0  0  0  0  0  0  0  0
    3.6373   -9.5349   16.0582 N   0  0  0  0  0  0  0  0  0  0  0  0
    9.9275   -4.8001   18.0438 N   0  0  0  0  0  0  0  0  0  0  0  0
    8.5908   -5.7425   16.4412 C   0  0  0  0  0  0  0  0  0  0  0  0
   10.5993   -4.8981   21.6068 C   0  0  0  0  0  0  0  0  0  0  0  0
   10.4258   -3.0106   23.0998 C   0  0  0  0  0  0  0  0  0  0  0  0
   10.2148   -3.4364   25.4200 C   0  0  0  0  0  0  0  0  0  0  0  0
    9.7853   -1.1840   24.4927 C   0  0  0  0  0  0  0  0  0  0  0  0
    5.0276   -8.5227   17.5352 C   0  0  0  0  0  0  0  0  0  0  0  0
    9.8187   -2.0895   25.5800 C   0  0  0  0  0  0  0  0  0  0  0  0
    5.6473   -8.7216   15.3158 C   0  0  0  0  0  0  0  0  0  0  0  0
   10.7581   -3.1233   19.4720 N   0  0  0  0  0  0  0  0  0  0  0  0
    9.9571   -4.0573   16.8866 C   0  0  0  0  0  0  0  0  0  0  0  0
    7.6213   -6.5618   16.0087 C   0  0  0  0  0  0  0  0  0  0  0  0
   10.8583   -2.6527   20.7222 C   0  0  0  0  0  0  0  0  0  0  0  0
   10.6412   -3.5089   21.7936 C   0  0  0  0  0  0  0  0  0  0  0  0
   10.4972   -3.8968   24.1589 C   0  0  0  0  0  0  0  0  0  0  0  0
    5.9260   -8.2736   16.5517 C   0  0  0  0  0  0  0  0  0  0  0  0
    3.8816   -9.1166   17.2493 C   0  0  0  0  0  0  0  0  0  0  0  0
   10.1297   -1.6575   23.2324 C   0  0  0  0  0  0  0  0  0  0  0  0
    9.4684   -1.6929   26.7263 F   0  0  0  0  0  0  0  0  0  0  0  0
    7.7963   -7.7906   17.9837 C   0  0  0  0  0  0  0  0  0  0  0  0
   10.5884   -3.0725   16.7902 O   0  0  0  0  0  0  0  0  0  0  0  0
   10.4323   -5.3494   20.3516 C   0  0  0  0  0  0  0  0  0  0  0  0
    7.1156   -7.5454   16.8218 C   0  0  0  0  0  0  0  0  0  0  0  0
   10.3885   -4.4388   19.2773 C   0  0  0  0  0  0  0  0  0  0  0  0
    4.5160   -9.3822   15.0841 C   0  0  0  0  0  0  0  0  0  0  0  0
  1  3  4  0
  1 24  4  0
  2  6  4  0
  2 15  4  0
  3  5  4  0
  3  6  4  0
  4 21  4  0
  4 29  4  0
  5 15  4  0
  5 28  1  0
  6 16  4  0
  7 18  4  0
  7 26  4  0
  8 18  1  0
  8 19  4  0
  8 22  4  0
  9 12  4  0
  9 19  4  0
 10 12  4  0
 10 22  4  0
 11 20  4  0
 11 21  4  0
 12 23  1  0
 13 20  4  0
 13 29  4  0
 14 17  4  0
 14 28  4  0
 15 25  2  0
 16 27  4  0
 17 18  4  0
 20 27  1  0
 24 27  4  0
 26 28  4  0
M  END
$$$$

 Created by Python create_sdf_string function

 29 33  0  0  0  0  0  0  0  0999 V2000
    8.8270   -7.0288   18.4251 C   0  0  0  0  0  0  0  0  0  0  0  0
    9.1576   -4.6236   15.8860 O   0  0  0  0  0  0  0  0  0  0  0  0
    9.1509   -5.9108   17.7177 C   0  0  0  0  0  0  0  0  0  0  0  0
    3.6373   -9.5349   16.0582 N   0  0  0  0  0  0  0  0  0  0  0  0
    9.9275   -4.8001   18.0438 N   0  0  0  0  0  0  0  0  0  0  0  0
    8.5908   -5.7425   16.4412 C   0  0  0  0  0  0  0  0  0  0  0  0
   10.5993   -4.8981   21.6068 C   0  0  0  0  0  0  0  0  0  0  0  0
   10.4258   -3.0106   23.0998 C   0  0  0  0  0  0  0  0  0  0  0  0
   10.2148   -3.4364   25.4200 C   0  0  0  0  0  0  0  0  0  0  0  0
    9.7853   -1.1840   24.4927 C   0  0  0  0  0  0  0  0  0  0  0  0
    5.0276   -8.5227   17.5352 C   0  0  0  0  0  0  0  0  0  0  0  0
    9.8187   -2.0895   25.5800 C   0  0  0  0  0  0  0  0  0  0  0  0
    5.6473   -8.7216   15.3158 C   0  0  0  0  0  0  0  0  0  0  0  0
   10.7581   -3.1233   19.4720 N   0  0  0  0  0  0  0  0  0  0  0  0
    9.9571   -4.0573   16.8866 C   0  0  0  0  0  0  0  0  0  0  0  0
    7.6213   -6.5618   16.0087 C   0  0  0  0  0  0  0  0  0  0  0  0
   10.8583   -2.6527   20.7222 C   0  0  0  0  0  0  0  0  0  0  0  0
   10.6412   -3.5089   21.7936 C   0  0  0  0  0  0  0  0  0  0  0  0
   10.4972   -3.8968   24.1589 C   0  0  0  0  0  0  0  0  0  0  0  0
    5.9260   -8.2736   16.5517 C   0  0  0  0  0  0  0  0  0  0  0  0
    3.8816   -9.1166   17.2493 C   0  0  0  0  0  0  0  0  0  0  0  0
   10.1297   -1.6575   23.2324 C   0  0  0  0  0  0  0  0  0  0  0  0
    9.4684   -1.6929   26.7263 F   0  0  0  0  0  0  0  0  0  0  0  0
    7.7963   -7.7906   17.9837 C   0  0  0  0  0  0  0  0  0  0  0  0
   10.5884   -3.0725   16.7902 O   0  0  0  0  0  0  0  0  0  0  0  0
   10.4323   -5.3494   20.3516 C   0  0  0  0  0  0  0  0  0  0  0  0
    7.1156   -7.5454   16.8218 C   0  0  0  0  0  0  0  0  0  0  0  0
   10.3885   -4.4388   19.2773 C   0  0  0  0  0  0  0  0  0  0  0  0
    4.5160   -9.3822   15.0841 C   0  0  0  0  0  0  0  0  0  0  0  0
  1  3  4  0
  1 24  4  0
  2  6  4  0
  2 15  4  0
  3  5  4  0
  3  6  4  0
  4 21  4  0
  4 29  4  0
  5 15  4  0
  5 28  1  0
  6 16  4  0
  7 18  4  0
  7 26  4  0
  8 18  1  0
  8 19  4  0
  8 22  4  0
  9 12  4  0
  9 19  4  0
 10 12  4  0
 10 22  4  0
 11 20  4  0
 11 21  4  0
 12 23  1  0
 13 20  4  0
 13 29  4  0
 14 17  4  0
 14 28  4  0
 15 25  2  0
 16 27  4  0
 17 18  4  0
 20 27  1  0
 24 27  4  0
 26 28  4  0
M  END
$$$$

 Created by Python create_sdf_string function

 29 33  0  0  0  0  0  0  0  0999 V2000
    8.8270   -7.0288   18.4251 C   0  0  0  0  0  0  0  0  0  0  0  0
    9.1576   -4.6236   15.8860 O   0  0  0  0  0  0  0  0  0  0  0  0
    9.1509   -5.9108   17.7177 C   0  0  0  0  0  0  0  0  0  0  0  0
    3.6373   -9.5349   16.0582 N   0  0  0  0  0  0  0  0  0  0  0  0
    9.9275   -4.8001   18.0438 N   0  0  0  0  0  0  0  0  0  0  0  0
    8.5908   -5.7425   16.4412 C   0  0  0  0  0  0  0  0  0  0  0  0
   10.5993   -4.8981   21.6068 C   0  0  0  0  0  0  0  0  0  0  0  0
   10.4258   -3.0106   23.0998 C   0  0  0  0  0  0  0  0  0  0  0  0
   10.2148   -3.4364   25.4200 C   0  0  0  0  0  0  0  0  0  0  0  0
    9.7853   -1.1840   24.4927 C   0  0  0  0  0  0  0  0  0  0  0  0
    5.0276   -8.5227   17.5352 C   0  0  0  0  0  0  0  0  0  0  0  0
    9.8187   -2.0895   25.5800 C   0  0  0  0  0  0  0  0  0  0  0  0
    5.6473   -8.7216   15.3158 C   0  0  0  0  0  0  0  0  0  0  0  0
   10.7581   -3.1233   19.4720 N   0  0  0  0  0  0  0  0  0  0  0  0
    9.9571   -4.0573   16.8866 C   0  0  0  0  0  0  0  0  0  0  0  0
    7.6213   -6.5618   16.0087 C   0  0  0  0  0  0  0  0  0  0  0  0
   10.8583   -2.6527   20.7222 C   0  0  0  0  0  0  0  0  0  0  0  0
   10.6412   -3.5089   21.7936 C   0  0  0  0  0  0  0  0  0  0  0  0
   10.4972   -3.8968   24.1589 C   0  0  0  0  0  0  0  0  0  0  0  0
    5.9260   -8.2736   16.5517 C   0  0  0  0  0  0  0  0  0  0  0  0
    3.8816   -9.1166   17.2493 C   0  0  0  0  0  0  0  0  0  0  0  0
   10.1297   -1.6575   23.2324 C   0  0  0  0  0  0  0  0  0  0  0  0
    9.4684   -1.6929   26.7263 F   0  0  0  0  0  0  0  0  0  0  0  0
    7.7963   -7.7906   17.9837 C   0  0  0  0  0  0  0  0  0  0  0  0
   10.5884   -3.0725   16.7902 O   0  0  0  0  0  0  0  0  0  0  0  0
   10.4323   -5.3494   20.3516 C   0  0  0  0  0  0  0  0  0  0  0  0
    7.1156   -7.5454   16.8218 C   0  0  0  0  0  0  0  0  0  0  0  0
   10.3885   -4.4388   19.2773 C   0  0  0  0  0  0  0  0  0  0  0  0
    4.5160   -9.3822   15.0841 C   0  0  0  0  0  0  0  0  0  0  0  0
  1  3  4  0
  1 24  4  0
  2  6  4  0
  2 15  4  0
  3  5  4  0
  3  6  4  0
  4 21  4  0
  4 29  4  0
  5 15  4  0
  5 28  1  0
  6 16  4  0
  7 18  4  0
  7 26  4  0
  8 18  1  0
  8 19  4  0
  8 22  4  0
  9 12  4  0
  9 19  4  0
 10 12  4  0
 10 22  4  0
 11 20  4  0
 11 21  4  0
 12 23  1  0
 13 20  4  0
 13 29  4  0
 14 17  4  0
 14 28  4  0
 15 25  2  0
 16 27  4  0
 17 18  4  0
 20 27  1  0
 24 27  4  0
 26 28  4  0
M  END
$$$$

 Created by Python create_sdf_string function

 29 33  0  0  0  0  0  0  0  0999 V2000
    8.8270   -7.0288   18.4251 C   0  0  0  0  0  0  0  0  0  0  0  0
    9.1576   -4.6236   15.8860 O   0  0  0  0  0  0  0  0  0  0  0  0
    9.1509   -5.9108   17.7177 C   0  0  0  0  0  0  0  0  0  0  0  0
    3.6373   -9.5349   16.0582 N   0  0  0  0  0  0  0  0  0  0  0  0
    9.9275   -4.8001   18.0438 N   0  0  0  0  0  0  0  0  0  0  0  0
    8.5908   -5.7425   16.4412 C   0  0  0  0  0  0  0  0  0  0  0  0
   10.5993   -4.8981   21.6068 C   0  0  0  0  0  0  0  0  0  0  0  0
   10.4258   -3.0106   23.0998 C   0  0  0  0  0  0  0  0  0  0  0  0
   10.2148   -3.4364   25.4200 C   0  0  0  0  0  0  0  0  0  0  0  0
    9.7853   -1.1840   24.4927 C   0  0  0  0  0  0  0  0  0  0  0  0
    5.0276   -8.5227   17.5352 C   0  0  0  0  0  0  0  0  0  0  0  0
    9.8187   -2.0895   25.5800 C   0  0  0  0  0  0  0  0  0  0  0  0
    5.6473   -8.7216   15.3158 C   0  0  0  0  0  0  0  0  0  0  0  0
   10.7581   -3.1233   19.4720 N   0  0  0  0  0  0  0  0  0  0  0  0
    9.9571   -4.0573   16.8866 C   0  0  0  0  0  0  0  0  0  0  0  0
    7.6213   -6.5618   16.0087 C   0  0  0  0  0  0  0  0  0  0  0  0
   10.8583   -2.6527   20.7222 C   0  0  0  0  0  0  0  0  0  0  0  0
   10.6412   -3.5089   21.7936 C   0  0  0  0  0  0  0  0  0  0  0  0
   10.4972   -3.8968   24.1589 C   0  0  0  0  0  0  0  0  0  0  0  0
    5.9260   -8.2736   16.5517 C   0  0  0  0  0  0  0  0  0  0  0  0
    3.8816   -9.1166   17.2493 C   0  0  0  0  0  0  0  0  0  0  0  0
   10.1297   -1.6575   23.2324 C   0  0  0  0  0  0  0  0  0  0  0  0
    9.4684   -1.6929   26.7263 F   0  0  0  0  0  0  0  0  0  0  0  0
    7.7963   -7.7906   17.9837 C   0  0  0  0  0  0  0  0  0  0  0  0
   10.5884   -3.0725   16.7902 O   0  0  0  0  0  0  0  0  0  0  0  0
   10.4323   -5.3494   20.3516 C   0  0  0  0  0  0  0  0  0  0  0  0
    7.1156   -7.5454   16.8218 C   0  0  0  0  0  0  0  0  0  0  0  0
   10.3885   -4.4388   19.2773 C   0  0  0  0  0  0  0  0  0  0  0  0
    4.5160   -9.3822   15.0841 C   0  0  0  0  0  0  0  0  0  0  0  0
  1  3  4  0
  1 24  4  0
  2  6  4  0
  2 15  4  0
  3  5  4  0
  3  6  4  0
  4 21  4  0
  4 29  4  0
  5 15  4  0
  5 28  1  0
  6 16  4  0
  7 18  4  0
  7 26  4  0
  8 18  1  0
  8 19  4  0
  8 22  4  0
  9 12  4  0
  9 19  4  0
 10 12  4  0
 10 22  4  0
 11 20  4  0
 11 21  4  0
 12 23  1  0
 13 20  4  0
 13 29  4  0
 14 17  4  0
 14 28  4  0
 15 25  2  0
 16 27  4  0
 17 18  4  0
 20 27  1  0
 24 27  4  0
 26 28  4  0
M  END
$$$$

 Created by Python create_sdf_string function

 29 33  0  0  0  0  0  0  0  0999 V2000
    8.8270   -7.0288   18.4251 C   0  0  0  0  0  0  0  0  0  0  0  0
    9.1576   -4.6236   15.8860 O   0  0  0  0  0  0  0  0  0  0  0  0
    9.1509   -5.9108   17.7177 C   0  0  0  0  0  0  0  0  0  0  0  0
    3.6373   -9.5349   16.0582 N   0  0  0  0  0  0  0  0  0  0  0  0
    9.9275   -4.8001   18.0438 N   0  0  0  0  0  0  0  0  0  0  0  0
    8.5908   -5.7425   16.4412 C   0  0  0  0  0  0  0  0  0  0  0  0
   10.5993   -4.8981   21.6068 C   0  0  0  0  0  0  0  0  0  0  0  0
   10.4258   -3.0106   23.0998 C   0  0  0  0  0  0  0  0  0  0  0  0
   10.2148   -3.4364   25.4200 C   0  0  0  0  0  0  0  0  0  0  0  0
    9.7853   -1.1840   24.4927 C   0  0  0  0  0  0  0  0  0  0  0  0
    5.0276   -8.5227   17.5352 C   0  0  0  0  0  0  0  0  0  0  0  0
    9.8187   -2.0895   25.5800 C   0  0  0  0  0  0  0  0  0  0  0  0
    5.6473   -8.7216   15.3158 C   0  0  0  0  0  0  0  0  0  0  0  0
   10.7581   -3.1233   19.4720 N   0  0  0  0  0  0  0  0  0  0  0  0
    9.9571   -4.0573   16.8866 C   0  0  0  0  0  0  0  0  0  0  0  0
    7.6213   -6.5618   16.0087 C   0  0  0  0  0  0  0  0  0  0  0  0
   10.8583   -2.6527   20.7222 C   0  0  0  0  0  0  0  0  0  0  0  0
   10.6412   -3.5089   21.7936 C   0  0  0  0  0  0  0  0  0  0  0  0
   10.4972   -3.8968   24.1589 C   0  0  0  0  0  0  0  0  0  0  0  0
    5.9260   -8.2736   16.5517 C   0  0  0  0  0  0  0  0  0  0  0  0
    3.8816   -9.1166   17.2493 C   0  0  0  0  0  0  0  0  0  0  0  0
   10.1297   -1.6575   23.2324 C   0  0  0  0  0  0  0  0  0  0  0  0
    9.4684   -1.6929   26.7263 F   0  0  0  0  0  0  0  0  0  0  0  0
    7.7963   -7.7906   17.9837 C   0  0  0  0  0  0  0  0  0  0  0  0
   10.5884   -3.0725   16.7902 O   0  0  0  0  0  0  0  0  0  0  0  0
   10.4323   -5.3494   20.3516 C   0  0  0  0  0  0  0  0  0  0  0  0
    7.1156   -7.5454   16.8218 C   0  0  0  0  0  0  0  0  0  0  0  0
   10.3885   -4.4388   19.2773 C   0  0  0  0  0  0  0  0  0  0  0  0
    4.5160   -9.3822   15.0841 C   0  0  0  0  0  0  0  0  0  0  0  0
  1  3  4  0
  1 24  4  0
  2  6  4  0
  2 15  4  0
  3  5  4  0
  3  6  4  0
  4 21  4  0
  4 29  4  0
  5 15  4  0
  5 28  1  0
  6 16  4  0
  7 18  4  0
  7 26  4  0
  8 18  1  0
  8 19  4  0
  8 22  4  0
  9 12  4  0
  9 19  4  0
 10 12  4  0
 10 22  4  0
 11 20  4  0
 11 21  4  0
 12 23  1  0
 13 20  4  0
 13 29  4  0
 14 17  4  0
 14 28  4  0
 15 25  2  0
 16 27  4  0
 17 18  4  0
 20 27  1  0
 24 27  4  0
 26 28  4  0
M  END
$$$$

 Created by Python create_sdf_string function

 29 33  0  0  0  0  0  0  0  0999 V2000
    8.8270   -7.0288   18.4251 C   0  0  0  0  0  0  0  0  0  0  0  0
    9.1576   -4.6236   15.8860 O   0  0  0  0  0  0  0  0  0  0  0  0
    9.1509   -5.9108   17.7177 C   0  0  0  0  0  0  0  0  0  0  0  0
    3.6373   -9.5349   16.0582 N   0  0  0  0  0  0  0  0  0  0  0  0
    9.9275   -4.8001   18.0438 N   0  0  0  0  0  0  0  0  0  0  0  0
    8.5908   -5.7425   16.4412 C   0  0  0  0  0  0  0  0  0  0  0  0
   10.5993   -4.8981   21.6068 C   0  0  0  0  0  0  0  0  0  0  0  0
   10.4258   -3.0106   23.0998 C   0  0  0  0  0  0  0  0  0  0  0  0
   10.2148   -3.4364   25.4200 C   0  0  0  0  0  0  0  0  0  0  0  0
    9.7853   -1.1840   24.4927 C   0  0  0  0  0  0  0  0  0  0  0  0
    5.0276   -8.5227   17.5352 C   0  0  0  0  0  0  0  0  0  0  0  0
    9.8187   -2.0895   25.5800 C   0  0  0  0  0  0  0  0  0  0  0  0
    5.6473   -8.7216   15.3158 C   0  0  0  0  0  0  0  0  0  0  0  0
   10.7581   -3.1233   19.4720 N   0  0  0  0  0  0  0  0  0  0  0  0
    9.9571   -4.0573   16.8866 C   0  0  0  0  0  0  0  0  0  0  0  0
    7.6213   -6.5618   16.0087 C   0  0  0  0  0  0  0  0  0  0  0  0
   10.8583   -2.6527   20.7222 C   0  0  0  0  0  0  0  0  0  0  0  0
   10.6412   -3.5089   21.7936 C   0  0  0  0  0  0  0  0  0  0  0  0
   10.4972   -3.8968   24.1589 C   0  0  0  0  0  0  0  0  0  0  0  0
    5.9260   -8.2736   16.5517 C   0  0  0  0  0  0  0  0  0  0  0  0
    3.8816   -9.1166   17.2493 C   0  0  0  0  0  0  0  0  0  0  0  0
   10.1297   -1.6575   23.2324 C   0  0  0  0  0  0  0  0  0  0  0  0
    9.4684   -1.6929   26.7263 F   0  0  0  0  0  0  0  0  0  0  0  0
    7.7963   -7.7906   17.9837 C   0  0  0  0  0  0  0  0  0  0  0  0
   10.5884   -3.0725   16.7902 O   0  0  0  0  0  0  0  0  0  0  0  0
   10.4323   -5.3494   20.3516 C   0  0  0  0  0  0  0  0  0  0  0  0
    7.1156   -7.5454   16.8218 C   0  0  0  0  0  0  0  0  0  0  0  0
   10.3885   -4.4388   19.2773 C   0  0  0  0  0  0  0  0  0  0  0  0
    4.5160   -9.3822   15.0841 C   0  0  0  0  0  0  0  0  0  0  0  0
  1  3  4  0
  1 24  4  0
  2  6  4  0
  2 15  4  0
  3  5  4  0
  3  6  4  0
  4 21  4  0
  4 29  4  0
  5 15  4  0
  5 28  1  0
  6 16  4  0
  7 18  4  0
  7 26  4  0
  8 18  1  0
  8 19  4  0
  8 22  4  0
  9 12  4  0
  9 19  4  0
 10 12  4  0
 10 22  4  0
 11 20  4  0
 11 21  4  0
 12 23  1  0
 13 20  4  0
 13 29  4  0
 14 17  4  0
 14 28  4  0
 15 25  2  0
 16 27  4  0
 17 18  4  0
 20 27  1  0
 24 27  4  0
 26 28  4  0
M  END
$$$$

 Created by Python create_sdf_string function

 29 33  0  0  0  0  0  0  0  0999 V2000
    8.8270   -7.0288   18.4251 C   0  0  0  0  0  0  0  0  0  0  0  0
    9.1576   -4.6236   15.8860 O   0  0  0  0  0  0  0  0  0  0  0  0
    9.1509   -5.9108   17.7177 C   0  0  0  0  0  0  0  0  0  0  0  0
    3.6373   -9.5349   16.0582 N   0  0  0  0  0  0  0  0  0  0  0  0
    9.9275   -4.8001   18.0438 N   0  0  0  0  0  0  0  0  0  0  0  0
    8.5908   -5.7425   16.4412 C   0  0  0  0  0  0  0  0  0  0  0  0
   10.5993   -4.8981   21.6068 C   0  0  0  0  0  0  0  0  0  0  0  0
   10.4258   -3.0106   23.0998 C   0  0  0  0  0  0  0  0  0  0  0  0
   10.2148   -3.4364   25.4200 C   0  0  0  0  0  0  0  0  0  0  0  0
    9.7853   -1.1840   24.4927 C   0  0  0  0  0  0  0  0  0  0  0  0
    5.0276   -8.5227   17.5352 C   0  0  0  0  0  0  0  0  0  0  0  0
    9.8187   -2.0895   25.5800 C   0  0  0  0  0  0  0  0  0  0  0  0
    5.6473   -8.7216   15.3158 C   0  0  0  0  0  0  0  0  0  0  0  0
   10.7581   -3.1233   19.4720 N   0  0  0  0  0  0  0  0  0  0  0  0
    9.9571   -4.0573   16.8866 C   0  0  0  0  0  0  0  0  0  0  0  0
    7.6213   -6.5618   16.0087 C   0  0  0  0  0  0  0  0  0  0  0  0
   10.8583   -2.6527   20.7222 C   0  0  0  0  0  0  0  0  0  0  0  0
   10.6412   -3.5089   21.7936 C   0  0  0  0  0  0  0  0  0  0  0  0
   10.4972   -3.8968   24.1589 C   0  0  0  0  0  0  0  0  0  0  0  0
    5.9260   -8.2736   16.5517 C   0  0  0  0  0  0  0  0  0  0  0  0
    3.8816   -9.1166   17.2493 C   0  0  0  0  0  0  0  0  0  0  0  0
   10.1297   -1.6575   23.2324 C   0  0  0  0  0  0  0  0  0  0  0  0
    9.4684   -1.6929   26.7263 F   0  0  0  0  0  0  0  0  0  0  0  0
    7.7963   -7.7906   17.9837 C   0  0  0  0  0  0  0  0  0  0  0  0
   10.5884   -3.0725   16.7902 O   0  0  0  0  0  0  0  0  0  0  0  0
   10.4323   -5.3494   20.3516 C   0  0  0  0  0  0  0  0  0  0  0  0
    7.1156   -7.5454   16.8218 C   0  0  0  0  0  0  0  0  0  0  0  0
   10.3885   -4.4388   19.2773 C   0  0  0  0  0  0  0  0  0  0  0  0
    4.5160   -9.3822   15.0841 C   0  0  0  0  0  0  0  0  0  0  0  0
  1  3  4  0
  1 24  4  0
  2  6  4  0
  2 15  4  0
  3  5  4  0
  3  6  4  0
  4 21  4  0
  4 29  4  0
  5 15  4  0
  5 28  1  0
  6 16  4  0
  7 18  4  0
  7 26  4  0
  8 18  1  0
  8 19  4  0
  8 22  4  0
  9 12  4  0
  9 19  4  0
 10 12  4  0
 10 22  4  0
 11 20  4  0
 11 21  4  0
 12 23  1  0
 13 20  4  0
 13 29  4  0
 14 17  4  0
 14 28  4  0
 15 25  2  0
 16 27  4  0
 17 18  4  0
 20 27  1  0
 24 27  4  0
 26 28  4  0
M  END
$$$$

 Created by Python create_sdf_string function

 29 33  0  0  0  0  0  0  0  0999 V2000
    8.8270   -7.0288   18.4251 C   0  0  0  0  0  0  0  0  0  0  0  0
    9.1576   -4.6236   15.8860 O   0  0  0  0  0  0  0  0  0  0  0  0
    9.1509   -5.9108   17.7177 C   0  0  0  0  0  0  0  0  0  0  0  0
    3.6373   -9.5349   16.0582 N   0  0  0  0  0  0  0  0  0  0  0  0
    9.9275   -4.8001   18.0438 N   0  0  0  0  0  0  0  0  0  0  0  0
    8.5908   -5.7425   16.4412 C   0  0  0  0  0  0  0  0  0  0  0  0
   10.5993   -4.8981   21.6068 C   0  0  0  0  0  0  0  0  0  0  0  0
   10.4258   -3.0106   23.0998 C   0  0  0  0  0  0  0  0  0  0  0  0
   10.2148   -3.4364   25.4200 C   0  0  0  0  0  0  0  0  0  0  0  0
    9.7853   -1.1840   24.4927 C   0  0  0  0  0  0  0  0  0  0  0  0
    5.0276   -8.5227   17.5352 C   0  0  0  0  0  0  0  0  0  0  0  0
    9.8187   -2.0895   25.5800 C   0  0  0  0  0  0  0  0  0  0  0  0
    5.6473   -8.7216   15.3158 C   0  0  0  0  0  0  0  0  0  0  0  0
   10.7581   -3.1233   19.4720 N   0  0  0  0  0  0  0  0  0  0  0  0
    9.9571   -4.0573   16.8866 C   0  0  0  0  0  0  0  0  0  0  0  0
    7.6213   -6.5618   16.0087 C   0  0  0  0  0  0  0  0  0  0  0  0
   10.8583   -2.6527   20.7222 C   0  0  0  0  0  0  0  0  0  0  0  0
   10.6412   -3.5089   21.7936 C   0  0  0  0  0  0  0  0  0  0  0  0
   10.4972   -3.8968   24.1589 C   0  0  0  0  0  0  0  0  0  0  0  0
    5.9260   -8.2736   16.5517 C   0  0  0  0  0  0  0  0  0  0  0  0
    3.8816   -9.1166   17.2493 C   0  0  0  0  0  0  0  0  0  0  0  0
   10.1297   -1.6575   23.2324 C   0  0  0  0  0  0  0  0  0  0  0  0
    9.4684   -1.6929   26.7263 F   0  0  0  0  0  0  0  0  0  0  0  0
    7.7963   -7.7906   17.9837 C   0  0  0  0  0  0  0  0  0  0  0  0
   10.5884   -3.0725   16.7902 O   0  0  0  0  0  0  0  0  0  0  0  0
   10.4323   -5.3494   20.3516 C   0  0  0  0  0  0  0  0  0  0  0  0
    7.1156   -7.5454   16.8218 C   0  0  0  0  0  0  0  0  0  0  0  0
   10.3885   -4.4388   19.2773 C   0  0  0  0  0  0  0  0  0  0  0  0
    4.5160   -9.3822   15.0841 C   0  0  0  0  0  0  0  0  0  0  0  0
  1  3  4  0
  1 24  4  0
  2  6  4  0
  2 15  4  0
  3  5  4  0
  3  6  4  0
  4 21  4  0
  4 29  4  0
  5 15  4  0
  5 28  1  0
  6 16  4  0
  7 18  4  0
  7 26  4  0
  8 18  1  0
  8 19  4  0
  8 22  4  0
  9 12  4  0
  9 19  4  0
 10 12  4  0
 10 22  4  0
 11 20  4  0
 11 21  4  0
 12 23  1  0
 13 20  4  0
 13 29  4  0
 14 17  4  0
 14 28  4  0
 15 25  2  0
 16 27  4  0
 17 18  4  0
 20 27  1  0
 24 27  4  0
 26 28  4  0
M  END
$$$$

 Created by Python create_sdf_string function

 29 33  0  0  0  0  0  0  0  0999 V2000
    8.8270   -7.0288   18.4251 C   0  0  0  0  0  0  0  0  0  0  0  0
    9.1576   -4.6236   15.8860 O   0  0  0  0  0  0  0  0  0  0  0  0
    9.1509   -5.9108   17.7177 C   0  0  0  0  0  0  0  0  0  0  0  0
    3.6373   -9.5349   16.0582 N   0  0  0  0  0  0  0  0  0  0  0  0
    9.9275   -4.8001   18.0438 N   0  0  0  0  0  0  0  0  0  0  0  0
    8.5908   -5.7425   16.4412 C   0  0  0  0  0  0  0  0  0  0  0  0
   10.5993   -4.8981   21.6068 C   0  0  0  0  0  0  0  0  0  0  0  0
   10.4258   -3.0106   23.0998 C   0  0  0  0  0  0  0  0  0  0  0  0
   10.2148   -3.4364   25.4200 C   0  0  0  0  0  0  0  0  0  0  0  0
    9.7853   -1.1840   24.4927 C   0  0  0  0  0  0  0  0  0  0  0  0
    5.0276   -8.5227   17.5352 C   0  0  0  0  0  0  0  0  0  0  0  0
    9.8187   -2.0895   25.5800 C   0  0  0  0  0  0  0  0  0  0  0  0
    5.6473   -8.7216   15.3158 C   0  0  0  0  0  0  0  0  0  0  0  0
   10.7581   -3.1233   19.4720 N   0  0  0  0  0  0  0  0  0  0  0  0
    9.9571   -4.0573   16.8866 C   0  0  0  0  0  0  0  0  0  0  0  0
    7.6213   -6.5618   16.0087 C   0  0  0  0  0  0  0  0  0  0  0  0
   10.8583   -2.6527   20.7222 C   0  0  0  0  0  0  0  0  0  0  0  0
   10.6412   -3.5089   21.7936 C   0  0  0  0  0  0  0  0  0  0  0  0
   10.4972   -3.8968   24.1589 C   0  0  0  0  0  0  0  0  0  0  0  0
    5.9260   -8.2736   16.5517 C   0  0  0  0  0  0  0  0  0  0  0  0
    3.8816   -9.1166   17.2493 C   0  0  0  0  0  0  0  0  0  0  0  0
   10.1297   -1.6575   23.2324 C   0  0  0  0  0  0  0  0  0  0  0  0
    9.4684   -1.6929   26.7263 F   0  0  0  0  0  0  0  0  0  0  0  0
    7.7963   -7.7906   17.9837 C   0  0  0  0  0  0  0  0  0  0  0  0
   10.5884   -3.0725   16.7902 O   0  0  0  0  0  0  0  0  0  0  0  0
   10.4323   -5.3494   20.3516 C   0  0  0  0  0  0  0  0  0  0  0  0
    7.1156   -7.5454   16.8218 C   0  0  0  0  0  0  0  0  0  0  0  0
   10.3885   -4.4388   19.2773 C   0  0  0  0  0  0  0  0  0  0  0  0
    4.5160   -9.3822   15.0841 C   0  0  0  0  0  0  0  0  0  0  0  0
  1  3  4  0
  1 24  4  0
  2  6  4  0
  2 15  4  0
  3  5  4  0
  3  6  4  0
  4 21  4  0
  4 29  4  0
  5 15  4  0
  5 28  1  0
  6 16  4  0
  7 18  4  0
  7 26  4  0
  8 18  1  0
  8 19  4  0
  8 22  4  0
  9 12  4  0
  9 19  4  0
 10 12  4  0
 10 22  4  0
 11 20  4  0
 11 21  4  0
 12 23  1  0
 13 20  4  0
 13 29  4  0
 14 17  4  0
 14 28  4  0
 15 25  2  0
 16 27  4  0
 17 18  4  0
 20 27  1  0
 24 27  4  0
 26 28  4  0
M  END
$$$$

 Created by Python create_sdf_string function

 29 33  0  0  0  0  0  0  0  0999 V2000
    8.8270   -7.0288   18.4251 C   0  0  0  0  0  0  0  0  0  0  0  0
    9.1576   -4.6236   15.8860 O   0  0  0  0  0  0  0  0  0  0  0  0
    9.1509   -5.9108   17.7177 C   0  0  0  0  0  0  0  0  0  0  0  0
    3.6373   -9.5349   16.0582 N   0  0  0  0  0  0  0  0  0  0  0  0
    9.9275   -4.8001   18.0438 N   0  0  0  0  0  0  0  0  0  0  0  0
    8.5908   -5.7425   16.4412 C   0  0  0  0  0  0  0  0  0  0  0  0
   10.5993   -4.8981   21.6068 C   0  0  0  0  0  0  0  0  0  0  0  0
   10.4258   -3.0106   23.0998 C   0  0  0  0  0  0  0  0  0  0  0  0
   10.2148   -3.4364   25.4200 C   0  0  0  0  0  0  0  0  0  0  0  0
    9.7853   -1.1840   24.4927 C   0  0  0  0  0  0  0  0  0  0  0  0
    5.0276   -8.5227   17.5352 C   0  0  0  0  0  0  0  0  0  0  0  0
    9.8187   -2.0895   25.5800 C   0  0  0  0  0  0  0  0  0  0  0  0
    5.6473   -8.7216   15.3158 C   0  0  0  0  0  0  0  0  0  0  0  0
   10.7581   -3.1233   19.4720 N   0  0  0  0  0  0  0  0  0  0  0  0
    9.9571   -4.0573   16.8866 C   0  0  0  0  0  0  0  0  0  0  0  0
    7.6213   -6.5618   16.0087 C   0  0  0  0  0  0  0  0  0  0  0  0
   10.8583   -2.6527   20.7222 C   0  0  0  0  0  0  0  0  0  0  0  0
   10.6412   -3.5089   21.7936 C   0  0  0  0  0  0  0  0  0  0  0  0
   10.4972   -3.8968   24.1589 C   0  0  0  0  0  0  0  0  0  0  0  0
    5.9260   -8.2736   16.5517 C   0  0  0  0  0  0  0  0  0  0  0  0
    3.8816   -9.1166   17.2493 C   0  0  0  0  0  0  0  0  0  0  0  0
   10.1297   -1.6575   23.2324 C   0  0  0  0  0  0  0  0  0  0  0  0
    9.4684   -1.6929   26.7263 F   0  0  0  0  0  0  0  0  0  0  0  0
    7.7963   -7.7906   17.9837 C   0  0  0  0  0  0  0  0  0  0  0  0
   10.5884   -3.0725   16.7902 O   0  0  0  0  0  0  0  0  0  0  0  0
   10.4323   -5.3494   20.3516 C   0  0  0  0  0  0  0  0  0  0  0  0
    7.1156   -7.5454   16.8218 C   0  0  0  0  0  0  0  0  0  0  0  0
   10.3885   -4.4388   19.2773 C   0  0  0  0  0  0  0  0  0  0  0  0
    4.5160   -9.3822   15.0841 C   0  0  0  0  0  0  0  0  0  0  0  0
  1  3  4  0
  1 24  4  0
  2  6  4  0
  2 15  4  0
  3  5  4  0
  3  6  4  0
  4 21  4  0
  4 29  4  0
  5 15  4  0
  5 28  1  0
  6 16  4  0
  7 18  4  0
  7 26  4  0
  8 18  1  0
  8 19  4  0
  8 22  4  0
  9 12  4  0
  9 19  4  0
 10 12  4  0
 10 22  4  0
 11 20  4  0
 11 21  4  0
 12 23  1  0
 13 20  4  0
 13 29  4  0
 14 17  4  0
 14 28  4  0
 15 25  2  0
 16 27  4  0
 17 18  4  0
 20 27  1  0
 24 27  4  0
 26 28  4  0
M  END
$$$$

 Created by Python create_sdf_string function

 29 33  0  0  0  0  0  0  0  0999 V2000
    8.8270   -7.0288   18.4251 C   0  0  0  0  0  0  0  0  0  0  0  0
    9.1576   -4.6236   15.8860 O   0  0  0  0  0  0  0  0  0  0  0  0
    9.1509   -5.9108   17.7177 C   0  0  0  0  0  0  0  0  0  0  0  0
    3.6373   -9.5349   16.0582 N   0  0  0  0  0  0  0  0  0  0  0  0
    9.9275   -4.8001   18.0438 N   0  0  0  0  0  0  0  0  0  0  0  0
    8.5908   -5.7425   16.4412 C   0  0  0  0  0  0  0  0  0  0  0  0
   10.5993   -4.8981   21.6068 C   0  0  0  0  0  0  0  0  0  0  0  0
   10.4258   -3.0106   23.0998 C   0  0  0  0  0  0  0  0  0  0  0  0
   10.2148   -3.4364   25.4200 C   0  0  0  0  0  0  0  0  0  0  0  0
    9.7853   -1.1840   24.4927 C   0  0  0  0  0  0  0  0  0  0  0  0
    5.0276   -8.5227   17.5352 C   0  0  0  0  0  0  0  0  0  0  0  0
    9.8187   -2.0895   25.5800 C   0  0  0  0  0  0  0  0  0  0  0  0
    5.6473   -8.7216   15.3158 C   0  0  0  0  0  0  0  0  0  0  0  0
   10.7581   -3.1233   19.4720 N   0  0  0  0  0  0  0  0  0  0  0  0
    9.9571   -4.0573   16.8866 C   0  0  0  0  0  0  0  0  0  0  0  0
    7.6213   -6.5618   16.0087 C   0  0  0  0  0  0  0  0  0  0  0  0
   10.8583   -2.6527   20.7222 C   0  0  0  0  0  0  0  0  0  0  0  0
   10.6412   -3.5089   21.7936 C   0  0  0  0  0  0  0  0  0  0  0  0
   10.4972   -3.8968   24.1589 C   0  0  0  0  0  0  0  0  0  0  0  0
    5.9260   -8.2736   16.5517 C   0  0  0  0  0  0  0  0  0  0  0  0
    3.8816   -9.1166   17.2493 C   0  0  0  0  0  0  0  0  0  0  0  0
   10.1297   -1.6575   23.2324 C   0  0  0  0  0  0  0  0  0  0  0  0
    9.4684   -1.6929   26.7263 F   0  0  0  0  0  0  0  0  0  0  0  0
    7.7963   -7.7906   17.9837 C   0  0  0  0  0  0  0  0  0  0  0  0
   10.5884   -3.0725   16.7902 O   0  0  0  0  0  0  0  0  0  0  0  0
   10.4323   -5.3494   20.3516 C   0  0  0  0  0  0  0  0  0  0  0  0
    7.1156   -7.5454   16.8218 C   0  0  0  0  0  0  0  0  0  0  0  0
   10.3885   -4.4388   19.2773 C   0  0  0  0  0  0  0  0  0  0  0  0
    4.5160   -9.3822   15.0841 C   0  0  0  0  0  0  0  0  0  0  0  0
  1  3  4  0
  1 24  4  0
  2  6  4  0
  2 15  4  0
  3  5  4  0
  3  6  4  0
  4 21  4  0
  4 29  4  0
  5 15  4  0
  5 28  1  0
  6 16  4  0
  7 18  4  0
  7 26  4  0
  8 18  1  0
  8 19  4  0
  8 22  4  0
  9 12  4  0
  9 19  4  0
 10 12  4  0
 10 22  4  0
 11 20  4  0
 11 21  4  0
 12 23  1  0
 13 20  4  0
 13 29  4  0
 14 17  4  0
 14 28  4  0
 15 25  2  0
 16 27  4  0
 17 18  4  0
 20 27  1  0
 24 27  4  0
 26 28  4  0
M  END
$$$$

 Created by Python create_sdf_string function

 29 33  0  0  0  0  0  0  0  0999 V2000
    8.8270   -7.0288   18.4251 C   0  0  0  0  0  0  0  0  0  0  0  0
    9.1576   -4.6236   15.8860 O   0  0  0  0  0  0  0  0  0  0  0  0
    9.1509   -5.9108   17.7177 C   0  0  0  0  0  0  0  0  0  0  0  0
    3.6373   -9.5349   16.0582 N   0  0  0  0  0  0  0  0  0  0  0  0
    9.9275   -4.8001   18.0438 N   0  0  0  0  0  0  0  0  0  0  0  0
    8.5908   -5.7425   16.4412 C   0  0  0  0  0  0  0  0  0  0  0  0
   10.5993   -4.8981   21.6068 C   0  0  0  0  0  0  0  0  0  0  0  0
   10.4258   -3.0106   23.0998 C   0  0  0  0  0  0  0  0  0  0  0  0
   10.2148   -3.4364   25.4200 C   0  0  0  0  0  0  0  0  0  0  0  0
    9.7853   -1.1840   24.4927 C   0  0  0  0  0  0  0  0  0  0  0  0
    5.0276   -8.5227   17.5352 C   0  0  0  0  0  0  0  0  0  0  0  0
    9.8187   -2.0895   25.5800 C   0  0  0  0  0  0  0  0  0  0  0  0
    5.6473   -8.7216   15.3158 C   0  0  0  0  0  0  0  0  0  0  0  0
   10.7581   -3.1233   19.4720 N   0  0  0  0  0  0  0  0  0  0  0  0
    9.9571   -4.0573   16.8866 C   0  0  0  0  0  0  0  0  0  0  0  0
    7.6213   -6.5618   16.0087 C   0  0  0  0  0  0  0  0  0  0  0  0
   10.8583   -2.6527   20.7222 C   0  0  0  0  0  0  0  0  0  0  0  0
   10.6412   -3.5089   21.7936 C   0  0  0  0  0  0  0  0  0  0  0  0
   10.4972   -3.8968   24.1589 C   0  0  0  0  0  0  0  0  0  0  0  0
    5.9260   -8.2736   16.5517 C   0  0  0  0  0  0  0  0  0  0  0  0
    3.8816   -9.1166   17.2493 C   0  0  0  0  0  0  0  0  0  0  0  0
   10.1297   -1.6575   23.2324 C   0  0  0  0  0  0  0  0  0  0  0  0
    9.4684   -1.6929   26.7263 F   0  0  0  0  0  0  0  0  0  0  0  0
    7.7963   -7.7906   17.9837 C   0  0  0  0  0  0  0  0  0  0  0  0
   10.5884   -3.0725   16.7902 O   0  0  0  0  0  0  0  0  0  0  0  0
   10.4323   -5.3494   20.3516 C   0  0  0  0  0  0  0  0  0  0  0  0
    7.1156   -7.5454   16.8218 C   0  0  0  0  0  0  0  0  0  0  0  0
   10.3885   -4.4388   19.2773 C   0  0  0  0  0  0  0  0  0  0  0  0
    4.5160   -9.3822   15.0841 C   0  0  0  0  0  0  0  0  0  0  0  0
  1  3  4  0
  1 24  4  0
  2  6  4  0
  2 15  4  0
  3  5  4  0
  3  6  4  0
  4 21  4  0
  4 29  4  0
  5 15  4  0
  5 28  1  0
  6 16  4  0
  7 18  4  0
  7 26  4  0
  8 18  1  0
  8 19  4  0
  8 22  4  0
  9 12  4  0
  9 19  4  0
 10 12  4  0
 10 22  4  0
 11 20  4  0
 11 21  4  0
 12 23  1  0
 13 20  4  0
 13 29  4  0
 14 17  4  0
 14 28  4  0
 15 25  2  0
 16 27  4  0
 17 18  4  0
 20 27  1  0
 24 27  4  0
 26 28  4  0
M  END
$$$$

 Created by Python create_sdf_string function

 29 33  0  0  0  0  0  0  0  0999 V2000
    8.8270   -7.0288   18.4251 C   0  0  0  0  0  0  0  0  0  0  0  0
    9.1576   -4.6236   15.8860 O   0  0  0  0  0  0  0  0  0  0  0  0
    9.1509   -5.9108   17.7177 C   0  0  0  0  0  0  0  0  0  0  0  0
    3.6373   -9.5349   16.0582 N   0  0  0  0  0  0  0  0  0  0  0  0
    9.9275   -4.8001   18.0438 N   0  0  0  0  0  0  0  0  0  0  0  0
    8.5908   -5.7425   16.4412 C   0  0  0  0  0  0  0  0  0  0  0  0
   10.5993   -4.8981   21.6068 C   0  0  0  0  0  0  0  0  0  0  0  0
   10.4258   -3.0106   23.0998 C   0  0  0  0  0  0  0  0  0  0  0  0
   10.2148   -3.4364   25.4200 C   0  0  0  0  0  0  0  0  0  0  0  0
    9.7853   -1.1840   24.4927 C   0  0  0  0  0  0  0  0  0  0  0  0
    5.0276   -8.5227   17.5352 C   0  0  0  0  0  0  0  0  0  0  0  0
    9.8187   -2.0895   25.5800 C   0  0  0  0  0  0  0  0  0  0  0  0
    5.6473   -8.7216   15.3158 C   0  0  0  0  0  0  0  0  0  0  0  0
   10.7581   -3.1233   19.4720 N   0  0  0  0  0  0  0  0  0  0  0  0
    9.9571   -4.0573   16.8866 C   0  0  0  0  0  0  0  0  0  0  0  0
    7.6213   -6.5618   16.0087 C   0  0  0  0  0  0  0  0  0  0  0  0
   10.8583   -2.6527   20.7222 C   0  0  0  0  0  0  0  0  0  0  0  0
   10.6412   -3.5089   21.7936 C   0  0  0  0  0  0  0  0  0  0  0  0
   10.4972   -3.8968   24.1589 C   0  0  0  0  0  0  0  0  0  0  0  0
    5.9260   -8.2736   16.5517 C   0  0  0  0  0  0  0  0  0  0  0  0
    3.8816   -9.1166   17.2493 C   0  0  0  0  0  0  0  0  0  0  0  0
   10.1297   -1.6575   23.2324 C   0  0  0  0  0  0  0  0  0  0  0  0
    9.4684   -1.6929   26.7263 F   0  0  0  0  0  0  0  0  0  0  0  0
    7.7963   -7.7906   17.9837 C   0  0  0  0  0  0  0  0  0  0  0  0
   10.5884   -3.0725   16.7902 O   0  0  0  0  0  0  0  0  0  0  0  0
   10.4323   -5.3494   20.3516 C   0  0  0  0  0  0  0  0  0  0  0  0
    7.1156   -7.5454   16.8218 C   0  0  0  0  0  0  0  0  0  0  0  0
   10.3885   -4.4388   19.2773 C   0  0  0  0  0  0  0  0  0  0  0  0
    4.5160   -9.3822   15.0841 C   0  0  0  0  0  0  0  0  0  0  0  0
  1  3  4  0
  1 24  4  0
  2  6  4  0
  2 15  4  0
  3  5  4  0
  3  6  4  0
  4 21  4  0
  4 29  4  0
  5 15  4  0
  5 28  1  0
  6 16  4  0
  7 18  4  0
  7 26  4  0
  8 18  1  0
  8 19  4  0
  8 22  4  0
  9 12  4  0
  9 19  4  0
 10 12  4  0
 10 22  4  0
 11 20  4  0
 11 21  4  0
 12 23  1  0
 13 20  4  0
 13 29  4  0
 14 17  4  0
 14 28  4  0
 15 25  2  0
 16 27  4  0
 17 18  4  0
 20 27  1  0
 24 27  4  0
 26 28  4  0
M  END
$$$$

 Created by Python create_sdf_string function

 29 33  0  0  0  0  0  0  0  0999 V2000
    8.8270   -7.0288   18.4251 C   0  0  0  0  0  0  0  0  0  0  0  0
    9.1576   -4.6236   15.8860 O   0  0  0  0  0  0  0  0  0  0  0  0
    9.1509   -5.9108   17.7177 C   0  0  0  0  0  0  0  0  0  0  0  0
    3.6373   -9.5349   16.0582 N   0  0  0  0  0  0  0  0  0  0  0  0
    9.9275   -4.8001   18.0438 N   0  0  0  0  0  0  0  0  0  0  0  0
    8.5908   -5.7425   16.4412 C   0  0  0  0  0  0  0  0  0  0  0  0
   10.5993   -4.8981   21.6068 C   0  0  0  0  0  0  0  0  0  0  0  0
   10.4258   -3.0106   23.0998 C   0  0  0  0  0  0  0  0  0  0  0  0
   10.2148   -3.4364   25.4200 C   0  0  0  0  0  0  0  0  0  0  0  0
    9.7853   -1.1840   24.4927 C   0  0  0  0  0  0  0  0  0  0  0  0
    5.0276   -8.5227   17.5352 C   0  0  0  0  0  0  0  0  0  0  0  0
    9.8187   -2.0895   25.5800 C   0  0  0  0  0  0  0  0  0  0  0  0
    5.6473   -8.7216   15.3158 C   0  0  0  0  0  0  0  0  0  0  0  0
   10.7581   -3.1233   19.4720 N   0  0  0  0  0  0  0  0  0  0  0  0
    9.9571   -4.0573   16.8866 C   0  0  0  0  0  0  0  0  0  0  0  0
    7.6213   -6.5618   16.0087 C   0  0  0  0  0  0  0  0  0  0  0  0
   10.8583   -2.6527   20.7222 C   0  0  0  0  0  0  0  0  0  0  0  0
   10.6412   -3.5089   21.7936 C   0  0  0  0  0  0  0  0  0  0  0  0
   10.4972   -3.8968   24.1589 C   0  0  0  0  0  0  0  0  0  0  0  0
    5.9260   -8.2736   16.5517 C   0  0  0  0  0  0  0  0  0  0  0  0
    3.8816   -9.1166   17.2493 C   0  0  0  0  0  0  0  0  0  0  0  0
   10.1297   -1.6575   23.2324 C   0  0  0  0  0  0  0  0  0  0  0  0
    9.4684   -1.6929   26.7263 F   0  0  0  0  0  0  0  0  0  0  0  0
    7.7963   -7.7906   17.9837 C   0  0  0  0  0  0  0  0  0  0  0  0
   10.5884   -3.0725   16.7902 O   0  0  0  0  0  0  0  0  0  0  0  0
   10.4323   -5.3494   20.3516 C   0  0  0  0  0  0  0  0  0  0  0  0
    7.1156   -7.5454   16.8218 C   0  0  0  0  0  0  0  0  0  0  0  0
   10.3885   -4.4388   19.2773 C   0  0  0  0  0  0  0  0  0  0  0  0
    4.5160   -9.3822   15.0841 C   0  0  0  0  0  0  0  0  0  0  0  0
  1  3  4  0
  1 24  4  0
  2  6  4  0
  2 15  4  0
  3  5  4  0
  3  6  4  0
  4 21  4  0
  4 29  4  0
  5 15  4  0
  5 28  1  0
  6 16  4  0
  7 18  4  0
  7 26  4  0
  8 18  1  0
  8 19  4  0
  8 22  4  0
  9 12  4  0
  9 19  4  0
 10 12  4  0
 10 22  4  0
 11 20  4  0
 11 21  4  0
 12 23  1  0
 13 20  4  0
 13 29  4  0
 14 17  4  0
 14 28  4  0
 15 25  2  0
 16 27  4  0
 17 18  4  0
 20 27  1  0
 24 27  4  0
 26 28  4  0
M  END
$$$$

 Created by Python create_sdf_string function

 29 33  0  0  0  0  0  0  0  0999 V2000
    8.8270   -7.0288   18.4251 C   0  0  0  0  0  0  0  0  0  0  0  0
    9.1576   -4.6236   15.8860 O   0  0  0  0  0  0  0  0  0  0  0  0
    9.1509   -5.9108   17.7177 C   0  0  0  0  0  0  0  0  0  0  0  0
    3.6373   -9.5349   16.0582 N   0  0  0  0  0  0  0  0  0  0  0  0
    9.9275   -4.8001   18.0438 N   0  0  0  0  0  0  0  0  0  0  0  0
    8.5908   -5.7425   16.4412 C   0  0  0  0  0  0  0  0  0  0  0  0
   10.5993   -4.8981   21.6068 C   0  0  0  0  0  0  0  0  0  0  0  0
   10.4258   -3.0106   23.0998 C   0  0  0  0  0  0  0  0  0  0  0  0
   10.2148   -3.4364   25.4200 C   0  0  0  0  0  0  0  0  0  0  0  0
    9.7853   -1.1840   24.4927 C   0  0  0  0  0  0  0  0  0  0  0  0
    5.0276   -8.5227   17.5352 C   0  0  0  0  0  0  0  0  0  0  0  0
    9.8187   -2.0895   25.5800 C   0  0  0  0  0  0  0  0  0  0  0  0
    5.6473   -8.7216   15.3158 C   0  0  0  0  0  0  0  0  0  0  0  0
   10.7581   -3.1233   19.4720 N   0  0  0  0  0  0  0  0  0  0  0  0
    9.9571   -4.0573   16.8866 C   0  0  0  0  0  0  0  0  0  0  0  0
    7.6213   -6.5618   16.0087 C   0  0  0  0  0  0  0  0  0  0  0  0
   10.8583   -2.6527   20.7222 C   0  0  0  0  0  0  0  0  0  0  0  0
   10.6412   -3.5089   21.7936 C   0  0  0  0  0  0  0  0  0  0  0  0
   10.4972   -3.8968   24.1589 C   0  0  0  0  0  0  0  0  0  0  0  0
    5.9260   -8.2736   16.5517 C   0  0  0  0  0  0  0  0  0  0  0  0
    3.8816   -9.1166   17.2493 C   0  0  0  0  0  0  0  0  0  0  0  0
   10.1297   -1.6575   23.2324 C   0  0  0  0  0  0  0  0  0  0  0  0
    9.4684   -1.6929   26.7263 F   0  0  0  0  0  0  0  0  0  0  0  0
    7.7963   -7.7906   17.9837 C   0  0  0  0  0  0  0  0  0  0  0  0
   10.5884   -3.0725   16.7902 O   0  0  0  0  0  0  0  0  0  0  0  0
   10.4323   -5.3494   20.3516 C   0  0  0  0  0  0  0  0  0  0  0  0
    7.1156   -7.5454   16.8218 C   0  0  0  0  0  0  0  0  0  0  0  0
   10.3885   -4.4388   19.2773 C   0  0  0  0  0  0  0  0  0  0  0  0
    4.5160   -9.3822   15.0841 C   0  0  0  0  0  0  0  0  0  0  0  0
  1  3  4  0
  1 24  4  0
  2  6  4  0
  2 15  4  0
  3  5  4  0
  3  6  4  0
  4 21  4  0
  4 29  4  0
  5 15  4  0
  5 28  1  0
  6 16  4  0
  7 18  4  0
  7 26  4  0
  8 18  1  0
  8 19  4  0
  8 22  4  0
  9 12  4  0
  9 19  4  0
 10 12  4  0
 10 22  4  0
 11 20  4  0
 11 21  4  0
 12 23  1  0
 13 20  4  0
 13 29  4  0
 14 17  4  0
 14 28  4  0
 15 25  2  0
 16 27  4  0
 17 18  4  0
 20 27  1  0
 24 27  4  0
 26 28  4  0
M  END
$$$$

 Created by Python create_sdf_string function

 29 33  0  0  0  0  0  0  0  0999 V2000
    8.8270   -7.0288   18.4251 C   0  0  0  0  0  0  0  0  0  0  0  0
    9.1576   -4.6236   15.8860 O   0  0  0  0  0  0  0  0  0  0  0  0
    9.1509   -5.9108   17.7177 C   0  0  0  0  0  0  0  0  0  0  0  0
    3.6373   -9.5349   16.0582 N   0  0  0  0  0  0  0  0  0  0  0  0
    9.9275   -4.8001   18.0438 N   0  0  0  0  0  0  0  0  0  0  0  0
    8.5908   -5.7425   16.4412 C   0  0  0  0  0  0  0  0  0  0  0  0
   10.5993   -4.8981   21.6068 C   0  0  0  0  0  0  0  0  0  0  0  0
   10.4258   -3.0106   23.0998 C   0  0  0  0  0  0  0  0  0  0  0  0
   10.2148   -3.4364   25.4200 C   0  0  0  0  0  0  0  0  0  0  0  0
    9.7853   -1.1840   24.4927 C   0  0  0  0  0  0  0  0  0  0  0  0
    5.0276   -8.5227   17.5352 C   0  0  0  0  0  0  0  0  0  0  0  0
    9.8187   -2.0895   25.5800 C   0  0  0  0  0  0  0  0  0  0  0  0
    5.6473   -8.7216   15.3158 C   0  0  0  0  0  0  0  0  0  0  0  0
   10.7581   -3.1233   19.4720 N   0  0  0  0  0  0  0  0  0  0  0  0
    9.9571   -4.0573   16.8866 C   0  0  0  0  0  0  0  0  0  0  0  0
    7.6213   -6.5618   16.0087 C   0  0  0  0  0  0  0  0  0  0  0  0
   10.8583   -2.6527   20.7222 C   0  0  0  0  0  0  0  0  0  0  0  0
   10.6412   -3.5089   21.7936 C   0  0  0  0  0  0  0  0  0  0  0  0
   10.4972   -3.8968   24.1589 C   0  0  0  0  0  0  0  0  0  0  0  0
    5.9260   -8.2736   16.5517 C   0  0  0  0  0  0  0  0  0  0  0  0
    3.8816   -9.1166   17.2493 C   0  0  0  0  0  0  0  0  0  0  0  0
   10.1297   -1.6575   23.2324 C   0  0  0  0  0  0  0  0  0  0  0  0
    9.4684   -1.6929   26.7263 F   0  0  0  0  0  0  0  0  0  0  0  0
    7.7963   -7.7906   17.9837 C   0  0  0  0  0  0  0  0  0  0  0  0
   10.5884   -3.0725   16.7902 O   0  0  0  0  0  0  0  0  0  0  0  0
   10.4323   -5.3494   20.3516 C   0  0  0  0  0  0  0  0  0  0  0  0
    7.1156   -7.5454   16.8218 C   0  0  0  0  0  0  0  0  0  0  0  0
   10.3885   -4.4388   19.2773 C   0  0  0  0  0  0  0  0  0  0  0  0
    4.5160   -9.3822   15.0841 C   0  0  0  0  0  0  0  0  0  0  0  0
  1  3  4  0
  1 24  4  0
  2  6  4  0
  2 15  4  0
  3  5  4  0
  3  6  4  0
  4 21  4  0
  4 29  4  0
  5 15  4  0
  5 28  1  0
  6 16  4  0
  7 18  4  0
  7 26  4  0
  8 18  1  0
  8 19  4  0
  8 22  4  0
  9 12  4  0
  9 19  4  0
 10 12  4  0
 10 22  4  0
 11 20  4  0
 11 21  4  0
 12 23  1  0
 13 20  4  0
 13 29  4  0
 14 17  4  0
 14 28  4  0
 15 25  2  0
 16 27  4  0
 17 18  4  0
 20 27  1  0
 24 27  4  0
 26 28  4  0
M  END
$$$$

 Created by Python create_sdf_string function

 29 33  0  0  0  0  0  0  0  0999 V2000
    8.8270   -7.0288   18.4251 C   0  0  0  0  0  0  0  0  0  0  0  0
    9.1576   -4.6236   15.8860 O   0  0  0  0  0  0  0  0  0  0  0  0
    9.1509   -5.9108   17.7177 C   0  0  0  0  0  0  0  0  0  0  0  0
    3.6373   -9.5349   16.0582 N   0  0  0  0  0  0  0  0  0  0  0  0
    9.9275   -4.8001   18.0438 N   0  0  0  0  0  0  0  0  0  0  0  0
    8.5908   -5.7425   16.4412 C   0  0  0  0  0  0  0  0  0  0  0  0
   10.5993   -4.8981   21.6068 C   0  0  0  0  0  0  0  0  0  0  0  0
   10.4258   -3.0106   23.0998 C   0  0  0  0  0  0  0  0  0  0  0  0
   10.2148   -3.4364   25.4200 C   0  0  0  0  0  0  0  0  0  0  0  0
    9.7853   -1.1840   24.4927 C   0  0  0  0  0  0  0  0  0  0  0  0
    5.0276   -8.5227   17.5352 C   0  0  0  0  0  0  0  0  0  0  0  0
    9.8187   -2.0895   25.5800 C   0  0  0  0  0  0  0  0  0  0  0  0
    5.6473   -8.7216   15.3158 C   0  0  0  0  0  0  0  0  0  0  0  0
   10.7581   -3.1233   19.4720 N   0  0  0  0  0  0  0  0  0  0  0  0
    9.9571   -4.0573   16.8866 C   0  0  0  0  0  0  0  0  0  0  0  0
    7.6213   -6.5618   16.0087 C   0  0  0  0  0  0  0  0  0  0  0  0
   10.8583   -2.6527   20.7222 C   0  0  0  0  0  0  0  0  0  0  0  0
   10.6412   -3.5089   21.7936 C   0  0  0  0  0  0  0  0  0  0  0  0
   10.4972   -3.8968   24.1589 C   0  0  0  0  0  0  0  0  0  0  0  0
    5.9260   -8.2736   16.5517 C   0  0  0  0  0  0  0  0  0  0  0  0
    3.8816   -9.1166   17.2493 C   0  0  0  0  0  0  0  0  0  0  0  0
   10.1297   -1.6575   23.2324 C   0  0  0  0  0  0  0  0  0  0  0  0
    9.4684   -1.6929   26.7263 F   0  0  0  0  0  0  0  0  0  0  0  0
    7.7963   -7.7906   17.9837 C   0  0  0  0  0  0  0  0  0  0  0  0
   10.5884   -3.0725   16.7902 O   0  0  0  0  0  0  0  0  0  0  0  0
   10.4323   -5.3494   20.3516 C   0  0  0  0  0  0  0  0  0  0  0  0
    7.1156   -7.5454   16.8218 C   0  0  0  0  0  0  0  0  0  0  0  0
   10.3885   -4.4388   19.2773 C   0  0  0  0  0  0  0  0  0  0  0  0
    4.5160   -9.3822   15.0841 C   0  0  0  0  0  0  0  0  0  0  0  0
  1  3  4  0
  1 24  4  0
  2  6  4  0
  2 15  4  0
  3  5  4  0
  3  6  4  0
  4 21  4  0
  4 29  4  0
  5 15  4  0
  5 28  1  0
  6 16  4  0
  7 18  4  0
  7 26  4  0
  8 18  1  0
  8 19  4  0
  8 22  4  0
  9 12  4  0
  9 19  4  0
 10 12  4  0
 10 22  4  0
 11 20  4  0
 11 21  4  0
 12 23  1  0
 13 20  4  0
 13 29  4  0
 14 17  4  0
 14 28  4  0
 15 25  2  0
 16 27  4  0
 17 18  4  0
 20 27  1  0
 24 27  4  0
 26 28  4  0
M  END
$$$$

 Created by Python create_sdf_string function

 29 33  0  0  0  0  0  0  0  0999 V2000
    8.8270   -7.0288   18.4251 C   0  0  0  0  0  0  0  0  0  0  0  0
    9.1576   -4.6236   15.8860 O   0  0  0  0  0  0  0  0  0  0  0  0
    9.1509   -5.9108   17.7177 C   0  0  0  0  0  0  0  0  0  0  0  0
    3.6373   -9.5349   16.0582 N   0  0  0  0  0  0  0  0  0  0  0  0
    9.9275   -4.8001   18.0438 N   0  0  0  0  0  0  0  0  0  0  0  0
    8.5908   -5.7425   16.4412 C   0  0  0  0  0  0  0  0  0  0  0  0
   10.5993   -4.8981   21.6068 C   0  0  0  0  0  0  0  0  0  0  0  0
   10.4258   -3.0106   23.0998 C   0  0  0  0  0  0  0  0  0  0  0  0
   10.2148   -3.4364   25.4200 C   0  0  0  0  0  0  0  0  0  0  0  0
    9.7853   -1.1840   24.4927 C   0  0  0  0  0  0  0  0  0  0  0  0
    5.0276   -8.5227   17.5352 C   0  0  0  0  0  0  0  0  0  0  0  0
    9.8187   -2.0895   25.5800 C   0  0  0  0  0  0  0  0  0  0  0  0
    5.6473   -8.7216   15.3158 C   0  0  0  0  0  0  0  0  0  0  0  0
   10.7581   -3.1233   19.4720 N   0  0  0  0  0  0  0  0  0  0  0  0
    9.9571   -4.0573   16.8866 C   0  0  0  0  0  0  0  0  0  0  0  0
    7.6213   -6.5618   16.0087 C   0  0  0  0  0  0  0  0  0  0  0  0
   10.8583   -2.6527   20.7222 C   0  0  0  0  0  0  0  0  0  0  0  0
   10.6412   -3.5089   21.7936 C   0  0  0  0  0  0  0  0  0  0  0  0
   10.4972   -3.8968   24.1589 C   0  0  0  0  0  0  0  0  0  0  0  0
    5.9260   -8.2736   16.5517 C   0  0  0  0  0  0  0  0  0  0  0  0
    3.8816   -9.1166   17.2493 C   0  0  0  0  0  0  0  0  0  0  0  0
   10.1297   -1.6575   23.2324 C   0  0  0  0  0  0  0  0  0  0  0  0
    9.4684   -1.6929   26.7263 F   0  0  0  0  0  0  0  0  0  0  0  0
    7.7963   -7.7906   17.9837 C   0  0  0  0  0  0  0  0  0  0  0  0
   10.5884   -3.0725   16.7902 O   0  0  0  0  0  0  0  0  0  0  0  0
   10.4323   -5.3494   20.3516 C   0  0  0  0  0  0  0  0  0  0  0  0
    7.1156   -7.5454   16.8218 C   0  0  0  0  0  0  0  0  0  0  0  0
   10.3885   -4.4388   19.2773 C   0  0  0  0  0  0  0  0  0  0  0  0
    4.5160   -9.3822   15.0841 C   0  0  0  0  0  0  0  0  0  0  0  0
  1  3  4  0
  1 24  4  0
  2  6  4  0
  2 15  4  0
  3  5  4  0
  3  6  4  0
  4 21  4  0
  4 29  4  0
  5 15  4  0
  5 28  1  0
  6 16  4  0
  7 18  4  0
  7 26  4  0
  8 18  1  0
  8 19  4  0
  8 22  4  0
  9 12  4  0
  9 19  4  0
 10 12  4  0
 10 22  4  0
 11 20  4  0
 11 21  4  0
 12 23  1  0
 13 20  4  0
 13 29  4  0
 14 17  4  0
 14 28  4  0
 15 25  2  0
 16 27  4  0
 17 18  4  0
 20 27  1  0
 24 27  4  0
 26 28  4  0
M  END
$$$$

 Created by Python create_sdf_string function

 29 33  0  0  0  0  0  0  0  0999 V2000
    8.8270   -7.0288   18.4251 C   0  0  0  0  0  0  0  0  0  0  0  0
    9.1576   -4.6236   15.8860 O   0  0  0  0  0  0  0  0  0  0  0  0
    9.1509   -5.9108   17.7177 C   0  0  0  0  0  0  0  0  0  0  0  0
    3.6373   -9.5349   16.0582 N   0  0  0  0  0  0  0  0  0  0  0  0
    9.9275   -4.8001   18.0438 N   0  0  0  0  0  0  0  0  0  0  0  0
    8.5908   -5.7425   16.4412 C   0  0  0  0  0  0  0  0  0  0  0  0
   10.5993   -4.8981   21.6068 C   0  0  0  0  0  0  0  0  0  0  0  0
   10.4258   -3.0106   23.0998 C   0  0  0  0  0  0  0  0  0  0  0  0
   10.2148   -3.4364   25.4200 C   0  0  0  0  0  0  0  0  0  0  0  0
    9.7853   -1.1840   24.4927 C   0  0  0  0  0  0  0  0  0  0  0  0
    5.0276   -8.5227   17.5352 C   0  0  0  0  0  0  0  0  0  0  0  0
    9.8187   -2.0895   25.5800 C   0  0  0  0  0  0  0  0  0  0  0  0
    5.6473   -8.7216   15.3158 C   0  0  0  0  0  0  0  0  0  0  0  0
   10.7581   -3.1233   19.4720 N   0  0  0  0  0  0  0  0  0  0  0  0
    9.9571   -4.0573   16.8866 C   0  0  0  0  0  0  0  0  0  0  0  0
    7.6213   -6.5618   16.0087 C   0  0  0  0  0  0  0  0  0  0  0  0
   10.8583   -2.6527   20.7222 C   0  0  0  0  0  0  0  0  0  0  0  0
   10.6412   -3.5089   21.7936 C   0  0  0  0  0  0  0  0  0  0  0  0
   10.4972   -3.8968   24.1589 C   0  0  0  0  0  0  0  0  0  0  0  0
    5.9260   -8.2736   16.5517 C   0  0  0  0  0  0  0  0  0  0  0  0
    3.8816   -9.1166   17.2493 C   0  0  0  0  0  0  0  0  0  0  0  0
   10.1297   -1.6575   23.2324 C   0  0  0  0  0  0  0  0  0  0  0  0
    9.4684   -1.6929   26.7263 F   0  0  0  0  0  0  0  0  0  0  0  0
    7.7963   -7.7906   17.9837 C   0  0  0  0  0  0  0  0  0  0  0  0
   10.5884   -3.0725   16.7902 O   0  0  0  0  0  0  0  0  0  0  0  0
   10.4323   -5.3494   20.3516 C   0  0  0  0  0  0  0  0  0  0  0  0
    7.1156   -7.5454   16.8218 C   0  0  0  0  0  0  0  0  0  0  0  0
   10.3885   -4.4388   19.2773 C   0  0  0  0  0  0  0  0  0  0  0  0
    4.5160   -9.3822   15.0841 C   0  0  0  0  0  0  0  0  0  0  0  0
  1  3  4  0
  1 24  4  0
  2  6  4  0
  2 15  4  0
  3  5  4  0
  3  6  4  0
  4 21  4  0
  4 29  4  0
  5 15  4  0
  5 28  1  0
  6 16  4  0
  7 18  4  0
  7 26  4  0
  8 18  1  0
  8 19  4  0
  8 22  4  0
  9 12  4  0
  9 19  4  0
 10 12  4  0
 10 22  4  0
 11 20  4  0
 11 21  4  0
 12 23  1  0
 13 20  4  0
 13 29  4  0
 14 17  4  0
 14 28  4  0
 15 25  2  0
 16 27  4  0
 17 18  4  0
 20 27  1  0
 24 27  4  0
 26 28  4  0
M  END
$$$$

 Created by Python create_sdf_string function

 29 33  0  0  0  0  0  0  0  0999 V2000
    8.8270   -7.0288   18.4251 C   0  0  0  0  0  0  0  0  0  0  0  0
    9.1576   -4.6236   15.8860 O   0  0  0  0  0  0  0  0  0  0  0  0
    9.1509   -5.9108   17.7177 C   0  0  0  0  0  0  0  0  0  0  0  0
    3.6373   -9.5349   16.0582 N   0  0  0  0  0  0  0  0  0  0  0  0
    9.9275   -4.8001   18.0438 N   0  0  0  0  0  0  0  0  0  0  0  0
    8.5908   -5.7425   16.4412 C   0  0  0  0  0  0  0  0  0  0  0  0
   10.5993   -4.8981   21.6068 C   0  0  0  0  0  0  0  0  0  0  0  0
   10.4258   -3.0106   23.0998 C   0  0  0  0  0  0  0  0  0  0  0  0
   10.2148   -3.4364   25.4200 C   0  0  0  0  0  0  0  0  0  0  0  0
    9.7853   -1.1840   24.4927 C   0  0  0  0  0  0  0  0  0  0  0  0
    5.0276   -8.5227   17.5352 C   0  0  0  0  0  0  0  0  0  0  0  0
    9.8187   -2.0895   25.5800 C   0  0  0  0  0  0  0  0  0  0  0  0
    5.6473   -8.7216   15.3158 C   0  0  0  0  0  0  0  0  0  0  0  0
   10.7581   -3.1233   19.4720 N   0  0  0  0  0  0  0  0  0  0  0  0
    9.9571   -4.0573   16.8866 C   0  0  0  0  0  0  0  0  0  0  0  0
    7.6213   -6.5618   16.0087 C   0  0  0  0  0  0  0  0  0  0  0  0
   10.8583   -2.6527   20.7222 C   0  0  0  0  0  0  0  0  0  0  0  0
   10.6412   -3.5089   21.7936 C   0  0  0  0  0  0  0  0  0  0  0  0
   10.4972   -3.8968   24.1589 C   0  0  0  0  0  0  0  0  0  0  0  0
    5.9260   -8.2736   16.5517 C   0  0  0  0  0  0  0  0  0  0  0  0
    3.8816   -9.1166   17.2493 C   0  0  0  0  0  0  0  0  0  0  0  0
   10.1297   -1.6575   23.2324 C   0  0  0  0  0  0  0  0  0  0  0  0
    9.4684   -1.6929   26.7263 F   0  0  0  0  0  0  0  0  0  0  0  0
    7.7963   -7.7906   17.9837 C   0  0  0  0  0  0  0  0  0  0  0  0
   10.5884   -3.0725   16.7902 O   0  0  0  0  0  0  0  0  0  0  0  0
   10.4323   -5.3494   20.3516 C   0  0  0  0  0  0  0  0  0  0  0  0
    7.1156   -7.5454   16.8218 C   0  0  0  0  0  0  0  0  0  0  0  0
   10.3885   -4.4388   19.2773 C   0  0  0  0  0  0  0  0  0  0  0  0
    4.5160   -9.3822   15.0841 C   0  0  0  0  0  0  0  0  0  0  0  0
  1  3  4  0
  1 24  4  0
  2  6  4  0
  2 15  4  0
  3  5  4  0
  3  6  4  0
  4 21  4  0
  4 29  4  0
  5 15  4  0
  5 28  1  0
  6 16  4  0
  7 18  4  0
  7 26  4  0
  8 18  1  0
  8 19  4  0
  8 22  4  0
  9 12  4  0
  9 19  4  0
 10 12  4  0
 10 22  4  0
 11 20  4  0
 11 21  4  0
 12 23  1  0
 13 20  4  0
 13 29  4  0
 14 17  4  0
 14 28  4  0
 15 25  2  0
 16 27  4  0
 17 18  4  0
 20 27  1  0
 24 27  4  0
 26 28  4  0
M  END
$$$$

 Created by Python create_sdf_string function

 29 33  0  0  0  0  0  0  0  0999 V2000
    8.8270   -7.0288   18.4251 C   0  0  0  0  0  0  0  0  0  0  0  0
    9.1576   -4.6236   15.8860 O   0  0  0  0  0  0  0  0  0  0  0  0
    9.1509   -5.9108   17.7177 C   0  0  0  0  0  0  0  0  0  0  0  0
    3.6373   -9.5349   16.0582 N   0  0  0  0  0  0  0  0  0  0  0  0
    9.9275   -4.8001   18.0438 N   0  0  0  0  0  0  0  0  0  0  0  0
    8.5908   -5.7425   16.4412 C   0  0  0  0  0  0  0  0  0  0  0  0
   10.5993   -4.8981   21.6068 C   0  0  0  0  0  0  0  0  0  0  0  0
   10.4258   -3.0106   23.0998 C   0  0  0  0  0  0  0  0  0  0  0  0
   10.2148   -3.4364   25.4200 C   0  0  0  0  0  0  0  0  0  0  0  0
    9.7853   -1.1840   24.4927 C   0  0  0  0  0  0  0  0  0  0  0  0
    5.0276   -8.5227   17.5352 C   0  0  0  0  0  0  0  0  0  0  0  0
    9.8187   -2.0895   25.5800 C   0  0  0  0  0  0  0  0  0  0  0  0
    5.6473   -8.7216   15.3158 C   0  0  0  0  0  0  0  0  0  0  0  0
   10.7581   -3.1233   19.4720 N   0  0  0  0  0  0  0  0  0  0  0  0
    9.9571   -4.0573   16.8866 C   0  0  0  0  0  0  0  0  0  0  0  0
    7.6213   -6.5618   16.0087 C   0  0  0  0  0  0  0  0  0  0  0  0
   10.8583   -2.6527   20.7222 C   0  0  0  0  0  0  0  0  0  0  0  0
   10.6412   -3.5089   21.7936 C   0  0  0  0  0  0  0  0  0  0  0  0
   10.4972   -3.8968   24.1589 C   0  0  0  0  0  0  0  0  0  0  0  0
    5.9260   -8.2736   16.5517 C   0  0  0  0  0  0  0  0  0  0  0  0
    3.8816   -9.1166   17.2493 C   0  0  0  0  0  0  0  0  0  0  0  0
   10.1297   -1.6575   23.2324 C   0  0  0  0  0  0  0  0  0  0  0  0
    9.4684   -1.6929   26.7263 F   0  0  0  0  0  0  0  0  0  0  0  0
    7.7963   -7.7906   17.9837 C   0  0  0  0  0  0  0  0  0  0  0  0
   10.5884   -3.0725   16.7902 O   0  0  0  0  0  0  0  0  0  0  0  0
   10.4323   -5.3494   20.3516 C   0  0  0  0  0  0  0  0  0  0  0  0
    7.1156   -7.5454   16.8218 C   0  0  0  0  0  0  0  0  0  0  0  0
   10.3885   -4.4388   19.2773 C   0  0  0  0  0  0  0  0  0  0  0  0
    4.5160   -9.3822   15.0841 C   0  0  0  0  0  0  0  0  0  0  0  0
  1  3  4  0
  1 24  4  0
  2  6  4  0
  2 15  4  0
  3  5  4  0
  3  6  4  0
  4 21  4  0
  4 29  4  0
  5 15  4  0
  5 28  1  0
  6 16  4  0
  7 18  4  0
  7 26  4  0
  8 18  1  0
  8 19  4  0
  8 22  4  0
  9 12  4  0
  9 19  4  0
 10 12  4  0
 10 22  4  0
 11 20  4  0
 11 21  4  0
 12 23  1  0
 13 20  4  0
 13 29  4  0
 14 17  4  0
 14 28  4  0
 15 25  2  0
 16 27  4  0
 17 18  4  0
 20 27  1  0
 24 27  4  0
 26 28  4  0
M  END
$$$$

 Created by Python create_sdf_string function

 29 33  0  0  0  0  0  0  0  0999 V2000
    8.8270   -7.0288   18.4251 C   0  0  0  0  0  0  0  0  0  0  0  0
    9.1576   -4.6236   15.8860 O   0  0  0  0  0  0  0  0  0  0  0  0
    9.1509   -5.9108   17.7177 C   0  0  0  0  0  0  0  0  0  0  0  0
    3.6373   -9.5349   16.0582 N   0  0  0  0  0  0  0  0  0  0  0  0
    9.9275   -4.8001   18.0438 N   0  0  0  0  0  0  0  0  0  0  0  0
    8.5908   -5.7425   16.4412 C   0  0  0  0  0  0  0  0  0  0  0  0
   10.5993   -4.8981   21.6068 C   0  0  0  0  0  0  0  0  0  0  0  0
   10.4258   -3.0106   23.0998 C   0  0  0  0  0  0  0  0  0  0  0  0
   10.2148   -3.4364   25.4200 C   0  0  0  0  0  0  0  0  0  0  0  0
    9.7853   -1.1840   24.4927 C   0  0  0  0  0  0  0  0  0  0  0  0
    5.0276   -8.5227   17.5352 C   0  0  0  0  0  0  0  0  0  0  0  0
    9.8187   -2.0895   25.5800 C   0  0  0  0  0  0  0  0  0  0  0  0
    5.6473   -8.7216   15.3158 C   0  0  0  0  0  0  0  0  0  0  0  0
   10.7581   -3.1233   19.4720 N   0  0  0  0  0  0  0  0  0  0  0  0
    9.9571   -4.0573   16.8866 C   0  0  0  0  0  0  0  0  0  0  0  0
    7.6213   -6.5618   16.0087 C   0  0  0  0  0  0  0  0  0  0  0  0
   10.8583   -2.6527   20.7222 C   0  0  0  0  0  0  0  0  0  0  0  0
   10.6412   -3.5089   21.7936 C   0  0  0  0  0  0  0  0  0  0  0  0
   10.4972   -3.8968   24.1589 C   0  0  0  0  0  0  0  0  0  0  0  0
    5.9260   -8.2736   16.5517 C   0  0  0  0  0  0  0  0  0  0  0  0
    3.8816   -9.1166   17.2493 C   0  0  0  0  0  0  0  0  0  0  0  0
   10.1297   -1.6575   23.2324 C   0  0  0  0  0  0  0  0  0  0  0  0
    9.4684   -1.6929   26.7263 F   0  0  0  0  0  0  0  0  0  0  0  0
    7.7963   -7.7906   17.9837 C   0  0  0  0  0  0  0  0  0  0  0  0
   10.5884   -3.0725   16.7902 O   0  0  0  0  0  0  0  0  0  0  0  0
   10.4323   -5.3494   20.3516 C   0  0  0  0  0  0  0  0  0  0  0  0
    7.1156   -7.5454   16.8218 C   0  0  0  0  0  0  0  0  0  0  0  0
   10.3885   -4.4388   19.2773 C   0  0  0  0  0  0  0  0  0  0  0  0
    4.5160   -9.3822   15.0841 C   0  0  0  0  0  0  0  0  0  0  0  0
  1  3  4  0
  1 24  4  0
  2  6  4  0
  2 15  4  0
  3  5  4  0
  3  6  4  0
  4 21  4  0
  4 29  4  0
  5 15  4  0
  5 28  1  0
  6 16  4  0
  7 18  4  0
  7 26  4  0
  8 18  1  0
  8 19  4  0
  8 22  4  0
  9 12  4  0
  9 19  4  0
 10 12  4  0
 10 22  4  0
 11 20  4  0
 11 21  4  0
 12 23  1  0
 13 20  4  0
 13 29  4  0
 14 17  4  0
 14 28  4  0
 15 25  2  0
 16 27  4  0
 17 18  4  0
 20 27  1  0
 24 27  4  0
 26 28  4  0
M  END
$$$$

 Created by Python create_sdf_string function

 29 33  0  0  0  0  0  0  0  0999 V2000
    8.8270   -7.0288   18.4251 C   0  0  0  0  0  0  0  0  0  0  0  0
    9.1576   -4.6236   15.8860 O   0  0  0  0  0  0  0  0  0  0  0  0
    9.1509   -5.9108   17.7177 C   0  0  0  0  0  0  0  0  0  0  0  0
    3.6373   -9.5349   16.0582 N   0  0  0  0  0  0  0  0  0  0  0  0
    9.9275   -4.8001   18.0438 N   0  0  0  0  0  0  0  0  0  0  0  0
    8.5908   -5.7425   16.4412 C   0  0  0  0  0  0  0  0  0  0  0  0
   10.5993   -4.8981   21.6068 C   0  0  0  0  0  0  0  0  0  0  0  0
   10.4258   -3.0106   23.0998 C   0  0  0  0  0  0  0  0  0  0  0  0
   10.2148   -3.4364   25.4200 C   0  0  0  0  0  0  0  0  0  0  0  0
    9.7853   -1.1840   24.4927 C   0  0  0  0  0  0  0  0  0  0  0  0
    5.0276   -8.5227   17.5352 C   0  0  0  0  0  0  0  0  0  0  0  0
    9.8187   -2.0895   25.5800 C   0  0  0  0  0  0  0  0  0  0  0  0
    5.6473   -8.7216   15.3158 C   0  0  0  0  0  0  0  0  0  0  0  0
   10.7581   -3.1233   19.4720 N   0  0  0  0  0  0  0  0  0  0  0  0
    9.9571   -4.0573   16.8866 C   0  0  0  0  0  0  0  0  0  0  0  0
    7.6213   -6.5618   16.0087 C   0  0  0  0  0  0  0  0  0  0  0  0
   10.8583   -2.6527   20.7222 C   0  0  0  0  0  0  0  0  0  0  0  0
   10.6412   -3.5089   21.7936 C   0  0  0  0  0  0  0  0  0  0  0  0
   10.4972   -3.8968   24.1589 C   0  0  0  0  0  0  0  0  0  0  0  0
    5.9260   -8.2736   16.5517 C   0  0  0  0  0  0  0  0  0  0  0  0
    3.8816   -9.1166   17.2493 C   0  0  0  0  0  0  0  0  0  0  0  0
   10.1297   -1.6575   23.2324 C   0  0  0  0  0  0  0  0  0  0  0  0
    9.4684   -1.6929   26.7263 F   0  0  0  0  0  0  0  0  0  0  0  0
    7.7963   -7.7906   17.9837 C   0  0  0  0  0  0  0  0  0  0  0  0
   10.5884   -3.0725   16.7902 O   0  0  0  0  0  0  0  0  0  0  0  0
   10.4323   -5.3494   20.3516 C   0  0  0  0  0  0  0  0  0  0  0  0
    7.1156   -7.5454   16.8218 C   0  0  0  0  0  0  0  0  0  0  0  0
   10.3885   -4.4388   19.2773 C   0  0  0  0  0  0  0  0  0  0  0  0
    4.5160   -9.3822   15.0841 C   0  0  0  0  0  0  0  0  0  0  0  0
  1  3  4  0
  1 24  4  0
  2  6  4  0
  2 15  4  0
  3  5  4  0
  3  6  4  0
  4 21  4  0
  4 29  4  0
  5 15  4  0
  5 28  1  0
  6 16  4  0
  7 18  4  0
  7 26  4  0
  8 18  1  0
  8 19  4  0
  8 22  4  0
  9 12  4  0
  9 19  4  0
 10 12  4  0
 10 22  4  0
 11 20  4  0
 11 21  4  0
 12 23  1  0
 13 20  4  0
 13 29  4  0
 14 17  4  0
 14 28  4  0
 15 25  2  0
 16 27  4  0
 17 18  4  0
 20 27  1  0
 24 27  4  0
 26 28  4  0
M  END
$$$$

 Created by Python create_sdf_string function

 29 33  0  0  0  0  0  0  0  0999 V2000
    8.8270   -7.0288   18.4251 C   0  0  0  0  0  0  0  0  0  0  0  0
    9.1576   -4.6236   15.8860 O   0  0  0  0  0  0  0  0  0  0  0  0
    9.1509   -5.9108   17.7177 C   0  0  0  0  0  0  0  0  0  0  0  0
    3.6373   -9.5349   16.0582 N   0  0  0  0  0  0  0  0  0  0  0  0
    9.9275   -4.8001   18.0438 N   0  0  0  0  0  0  0  0  0  0  0  0
    8.5908   -5.7425   16.4412 C   0  0  0  0  0  0  0  0  0  0  0  0
   10.5993   -4.8981   21.6068 C   0  0  0  0  0  0  0  0  0  0  0  0
   10.4258   -3.0106   23.0998 C   0  0  0  0  0  0  0  0  0  0  0  0
   10.2148   -3.4364   25.4200 C   0  0  0  0  0  0  0  0  0  0  0  0
    9.7853   -1.1840   24.4927 C   0  0  0  0  0  0  0  0  0  0  0  0
    5.0276   -8.5227   17.5352 C   0  0  0  0  0  0  0  0  0  0  0  0
    9.8187   -2.0895   25.5800 C   0  0  0  0  0  0  0  0  0  0  0  0
    5.6473   -8.7216   15.3158 C   0  0  0  0  0  0  0  0  0  0  0  0
   10.7581   -3.1233   19.4720 N   0  0  0  0  0  0  0  0  0  0  0  0
    9.9571   -4.0573   16.8866 C   0  0  0  0  0  0  0  0  0  0  0  0
    7.6213   -6.5618   16.0087 C   0  0  0  0  0  0  0  0  0  0  0  0
   10.8583   -2.6527   20.7222 C   0  0  0  0  0  0  0  0  0  0  0  0
   10.6412   -3.5089   21.7936 C   0  0  0  0  0  0  0  0  0  0  0  0
   10.4972   -3.8968   24.1589 C   0  0  0  0  0  0  0  0  0  0  0  0
    5.9260   -8.2736   16.5517 C   0  0  0  0  0  0  0  0  0  0  0  0
    3.8816   -9.1166   17.2493 C   0  0  0  0  0  0  0  0  0  0  0  0
   10.1297   -1.6575   23.2324 C   0  0  0  0  0  0  0  0  0  0  0  0
    9.4684   -1.6929   26.7263 F   0  0  0  0  0  0  0  0  0  0  0  0
    7.7963   -7.7906   17.9837 C   0  0  0  0  0  0  0  0  0  0  0  0
   10.5884   -3.0725   16.7902 O   0  0  0  0  0  0  0  0  0  0  0  0
   10.4323   -5.3494   20.3516 C   0  0  0  0  0  0  0  0  0  0  0  0
    7.1156   -7.5454   16.8218 C   0  0  0  0  0  0  0  0  0  0  0  0
   10.3885   -4.4388   19.2773 C   0  0  0  0  0  0  0  0  0  0  0  0
    4.5160   -9.3822   15.0841 C   0  0  0  0  0  0  0  0  0  0  0  0
  1  3  4  0
  1 24  4  0
  2  6  4  0
  2 15  4  0
  3  5  4  0
  3  6  4  0
  4 21  4  0
  4 29  4  0
  5 15  4  0
  5 28  1  0
  6 16  4  0
  7 18  4  0
  7 26  4  0
  8 18  1  0
  8 19  4  0
  8 22  4  0
  9 12  4  0
  9 19  4  0
 10 12  4  0
 10 22  4  0
 11 20  4  0
 11 21  4  0
 12 23  1  0
 13 20  4  0
 13 29  4  0
 14 17  4  0
 14 28  4  0
 15 25  2  0
 16 27  4  0
 17 18  4  0
 20 27  1  0
 24 27  4  0
 26 28  4  0
M  END
$$$$

 Created by Python create_sdf_string function

 29 33  0  0  0  0  0  0  0  0999 V2000
    8.8270   -7.0288   18.4251 C   0  0  0  0  0  0  0  0  0  0  0  0
    9.1576   -4.6236   15.8860 O   0  0  0  0  0  0  0  0  0  0  0  0
    9.1509   -5.9108   17.7177 C   0  0  0  0  0  0  0  0  0  0  0  0
    3.6373   -9.5349   16.0582 N   0  0  0  0  0  0  0  0  0  0  0  0
    9.9275   -4.8001   18.0438 N   0  0  0  0  0  0  0  0  0  0  0  0
    8.5908   -5.7425   16.4412 C   0  0  0  0  0  0  0  0  0  0  0  0
   10.5993   -4.8981   21.6068 C   0  0  0  0  0  0  0  0  0  0  0  0
   10.4258   -3.0106   23.0998 C   0  0  0  0  0  0  0  0  0  0  0  0
   10.2148   -3.4364   25.4200 C   0  0  0  0  0  0  0  0  0  0  0  0
    9.7853   -1.1840   24.4927 C   0  0  0  0  0  0  0  0  0  0  0  0
    5.0276   -8.5227   17.5352 C   0  0  0  0  0  0  0  0  0  0  0  0
    9.8187   -2.0895   25.5800 C   0  0  0  0  0  0  0  0  0  0  0  0
    5.6473   -8.7216   15.3158 C   0  0  0  0  0  0  0  0  0  0  0  0
   10.7581   -3.1233   19.4720 N   0  0  0  0  0  0  0  0  0  0  0  0
    9.9571   -4.0573   16.8866 C   0  0  0  0  0  0  0  0  0  0  0  0
    7.6213   -6.5618   16.0087 C   0  0  0  0  0  0  0  0  0  0  0  0
   10.8583   -2.6527   20.7222 C   0  0  0  0  0  0  0  0  0  0  0  0
   10.6412   -3.5089   21.7936 C   0  0  0  0  0  0  0  0  0  0  0  0
   10.4972   -3.8968   24.1589 C   0  0  0  0  0  0  0  0  0  0  0  0
    5.9260   -8.2736   16.5517 C   0  0  0  0  0  0  0  0  0  0  0  0
    3.8816   -9.1166   17.2493 C   0  0  0  0  0  0  0  0  0  0  0  0
   10.1297   -1.6575   23.2324 C   0  0  0  0  0  0  0  0  0  0  0  0
    9.4684   -1.6929   26.7263 F   0  0  0  0  0  0  0  0  0  0  0  0
    7.7963   -7.7906   17.9837 C   0  0  0  0  0  0  0  0  0  0  0  0
   10.5884   -3.0725   16.7902 O   0  0  0  0  0  0  0  0  0  0  0  0
   10.4323   -5.3494   20.3516 C   0  0  0  0  0  0  0  0  0  0  0  0
    7.1156   -7.5454   16.8218 C   0  0  0  0  0  0  0  0  0  0  0  0
   10.3885   -4.4388   19.2773 C   0  0  0  0  0  0  0  0  0  0  0  0
    4.5160   -9.3822   15.0841 C   0  0  0  0  0  0  0  0  0  0  0  0
  1  3  4  0
  1 24  4  0
  2  6  4  0
  2 15  4  0
  3  5  4  0
  3  6  4  0
  4 21  4  0
  4 29  4  0
  5 15  4  0
  5 28  1  0
  6 16  4  0
  7 18  4  0
  7 26  4  0
  8 18  1  0
  8 19  4  0
  8 22  4  0
  9 12  4  0
  9 19  4  0
 10 12  4  0
 10 22  4  0
 11 20  4  0
 11 21  4  0
 12 23  1  0
 13 20  4  0
 13 29  4  0
 14 17  4  0
 14 28  4  0
 15 25  2  0
 16 27  4  0
 17 18  4  0
 20 27  1  0
 24 27  4  0
 26 28  4  0
M  END
$$$$

 Created by Python create_sdf_string function

 29 33  0  0  0  0  0  0  0  0999 V2000
    8.8270   -7.0288   18.4251 C   0  0  0  0  0  0  0  0  0  0  0  0
    9.1576   -4.6236   15.8860 O   0  0  0  0  0  0  0  0  0  0  0  0
    9.1509   -5.9108   17.7177 C   0  0  0  0  0  0  0  0  0  0  0  0
    3.6373   -9.5349   16.0582 N   0  0  0  0  0  0  0  0  0  0  0  0
    9.9275   -4.8001   18.0438 N   0  0  0  0  0  0  0  0  0  0  0  0
    8.5908   -5.7425   16.4412 C   0  0  0  0  0  0  0  0  0  0  0  0
   10.5993   -4.8981   21.6068 C   0  0  0  0  0  0  0  0  0  0  0  0
   10.4258   -3.0106   23.0998 C   0  0  0  0  0  0  0  0  0  0  0  0
   10.2148   -3.4364   25.4200 C   0  0  0  0  0  0  0  0  0  0  0  0
    9.7853   -1.1840   24.4927 C   0  0  0  0  0  0  0  0  0  0  0  0
    5.0276   -8.5227   17.5352 C   0  0  0  0  0  0  0  0  0  0  0  0
    9.8187   -2.0895   25.5800 C   0  0  0  0  0  0  0  0  0  0  0  0
    5.6473   -8.7216   15.3158 C   0  0  0  0  0  0  0  0  0  0  0  0
   10.7581   -3.1233   19.4720 N   0  0  0  0  0  0  0  0  0  0  0  0
    9.9571   -4.0573   16.8866 C   0  0  0  0  0  0  0  0  0  0  0  0
    7.6213   -6.5618   16.0087 C   0  0  0  0  0  0  0  0  0  0  0  0
   10.8583   -2.6527   20.7222 C   0  0  0  0  0  0  0  0  0  0  0  0
   10.6412   -3.5089   21.7936 C   0  0  0  0  0  0  0  0  0  0  0  0
   10.4972   -3.8968   24.1589 C   0  0  0  0  0  0  0  0  0  0  0  0
    5.9260   -8.2736   16.5517 C   0  0  0  0  0  0  0  0  0  0  0  0
    3.8816   -9.1166   17.2493 C   0  0  0  0  0  0  0  0  0  0  0  0
   10.1297   -1.6575   23.2324 C   0  0  0  0  0  0  0  0  0  0  0  0
    9.4684   -1.6929   26.7263 F   0  0  0  0  0  0  0  0  0  0  0  0
    7.7963   -7.7906   17.9837 C   0  0  0  0  0  0  0  0  0  0  0  0
   10.5884   -3.0725   16.7902 O   0  0  0  0  0  0  0  0  0  0  0  0
   10.4323   -5.3494   20.3516 C   0  0  0  0  0  0  0  0  0  0  0  0
    7.1156   -7.5454   16.8218 C   0  0  0  0  0  0  0  0  0  0  0  0
   10.3885   -4.4388   19.2773 C   0  0  0  0  0  0  0  0  0  0  0  0
    4.5160   -9.3822   15.0841 C   0  0  0  0  0  0  0  0  0  0  0  0
  1  3  4  0
  1 24  4  0
  2  6  4  0
  2 15  4  0
  3  5  4  0
  3  6  4  0
  4 21  4  0
  4 29  4  0
  5 15  4  0
  5 28  1  0
  6 16  4  0
  7 18  4  0
  7 26  4  0
  8 18  1  0
  8 19  4  0
  8 22  4  0
  9 12  4  0
  9 19  4  0
 10 12  4  0
 10 22  4  0
 11 20  4  0
 11 21  4  0
 12 23  1  0
 13 20  4  0
 13 29  4  0
 14 17  4  0
 14 28  4  0
 15 25  2  0
 16 27  4  0
 17 18  4  0
 20 27  1  0
 24 27  4  0
 26 28  4  0
M  END
$$$$

 Created by Python create_sdf_string function

 29 33  0  0  0  0  0  0  0  0999 V2000
    8.8270   -7.0288   18.4251 C   0  0  0  0  0  0  0  0  0  0  0  0
    9.1576   -4.6236   15.8860 O   0  0  0  0  0  0  0  0  0  0  0  0
    9.1509   -5.9108   17.7177 C   0  0  0  0  0  0  0  0  0  0  0  0
    3.6373   -9.5349   16.0582 N   0  0  0  0  0  0  0  0  0  0  0  0
    9.9275   -4.8001   18.0438 N   0  0  0  0  0  0  0  0  0  0  0  0
    8.5908   -5.7425   16.4412 C   0  0  0  0  0  0  0  0  0  0  0  0
   10.5993   -4.8981   21.6068 C   0  0  0  0  0  0  0  0  0  0  0  0
   10.4258   -3.0106   23.0998 C   0  0  0  0  0  0  0  0  0  0  0  0
   10.2148   -3.4364   25.4200 C   0  0  0  0  0  0  0  0  0  0  0  0
    9.7853   -1.1840   24.4927 C   0  0  0  0  0  0  0  0  0  0  0  0
    5.0276   -8.5227   17.5352 C   0  0  0  0  0  0  0  0  0  0  0  0
    9.8187   -2.0895   25.5800 C   0  0  0  0  0  0  0  0  0  0  0  0
    5.6473   -8.7216   15.3158 C   0  0  0  0  0  0  0  0  0  0  0  0
   10.7581   -3.1233   19.4720 N   0  0  0  0  0  0  0  0  0  0  0  0
    9.9571   -4.0573   16.8866 C   0  0  0  0  0  0  0  0  0  0  0  0
    7.6213   -6.5618   16.0087 C   0  0  0  0  0  0  0  0  0  0  0  0
   10.8583   -2.6527   20.7222 C   0  0  0  0  0  0  0  0  0  0  0  0
   10.6412   -3.5089   21.7936 C   0  0  0  0  0  0  0  0  0  0  0  0
   10.4972   -3.8968   24.1589 C   0  0  0  0  0  0  0  0  0  0  0  0
    5.9260   -8.2736   16.5517 C   0  0  0  0  0  0  0  0  0  0  0  0
    3.8816   -9.1166   17.2493 C   0  0  0  0  0  0  0  0  0  0  0  0
   10.1297   -1.6575   23.2324 C   0  0  0  0  0  0  0  0  0  0  0  0
    9.4684   -1.6929   26.7263 F   0  0  0  0  0  0  0  0  0  0  0  0
    7.7963   -7.7906   17.9837 C   0  0  0  0  0  0  0  0  0  0  0  0
   10.5884   -3.0725   16.7902 O   0  0  0  0  0  0  0  0  0  0  0  0
   10.4323   -5.3494   20.3516 C   0  0  0  0  0  0  0  0  0  0  0  0
    7.1156   -7.5454   16.8218 C   0  0  0  0  0  0  0  0  0  0  0  0
   10.3885   -4.4388   19.2773 C   0  0  0  0  0  0  0  0  0  0  0  0
    4.5160   -9.3822   15.0841 C   0  0  0  0  0  0  0  0  0  0  0  0
  1  3  4  0
  1 24  4  0
  2  6  4  0
  2 15  4  0
  3  5  4  0
  3  6  4  0
  4 21  4  0
  4 29  4  0
  5 15  4  0
  5 28  1  0
  6 16  4  0
  7 18  4  0
  7 26  4  0
  8 18  1  0
  8 19  4  0
  8 22  4  0
  9 12  4  0
  9 19  4  0
 10 12  4  0
 10 22  4  0
 11 20  4  0
 11 21  4  0
 12 23  1  0
 13 20  4  0
 13 29  4  0
 14 17  4  0
 14 28  4  0
 15 25  2  0
 16 27  4  0
 17 18  4  0
 20 27  1  0
 24 27  4  0
 26 28  4  0
M  END
$$$$

 Created by Python create_sdf_string function

 29 33  0  0  0  0  0  0  0  0999 V2000
    8.8270   -7.0288   18.4251 C   0  0  0  0  0  0  0  0  0  0  0  0
    9.1576   -4.6236   15.8860 O   0  0  0  0  0  0  0  0  0  0  0  0
    9.1509   -5.9108   17.7177 C   0  0  0  0  0  0  0  0  0  0  0  0
    3.6373   -9.5349   16.0582 N   0  0  0  0  0  0  0  0  0  0  0  0
    9.9275   -4.8001   18.0438 N   0  0  0  0  0  0  0  0  0  0  0  0
    8.5908   -5.7425   16.4412 C   0  0  0  0  0  0  0  0  0  0  0  0
   10.5993   -4.8981   21.6068 C   0  0  0  0  0  0  0  0  0  0  0  0
   10.4258   -3.0106   23.0998 C   0  0  0  0  0  0  0  0  0  0  0  0
   10.2148   -3.4364   25.4200 C   0  0  0  0  0  0  0  0  0  0  0  0
    9.7853   -1.1840   24.4927 C   0  0  0  0  0  0  0  0  0  0  0  0
    5.0276   -8.5227   17.5352 C   0  0  0  0  0  0  0  0  0  0  0  0
    9.8187   -2.0895   25.5800 C   0  0  0  0  0  0  0  0  0  0  0  0
    5.6473   -8.7216   15.3158 C   0  0  0  0  0  0  0  0  0  0  0  0
   10.7581   -3.1233   19.4720 N   0  0  0  0  0  0  0  0  0  0  0  0
    9.9571   -4.0573   16.8866 C   0  0  0  0  0  0  0  0  0  0  0  0
    7.6213   -6.5618   16.0087 C   0  0  0  0  0  0  0  0  0  0  0  0
   10.8583   -2.6527   20.7222 C   0  0  0  0  0  0  0  0  0  0  0  0
   10.6412   -3.5089   21.7936 C   0  0  0  0  0  0  0  0  0  0  0  0
   10.4972   -3.8968   24.1589 C   0  0  0  0  0  0  0  0  0  0  0  0
    5.9260   -8.2736   16.5517 C   0  0  0  0  0  0  0  0  0  0  0  0
    3.8816   -9.1166   17.2493 C   0  0  0  0  0  0  0  0  0  0  0  0
   10.1297   -1.6575   23.2324 C   0  0  0  0  0  0  0  0  0  0  0  0
    9.4684   -1.6929   26.7263 F   0  0  0  0  0  0  0  0  0  0  0  0
    7.7963   -7.7906   17.9837 C   0  0  0  0  0  0  0  0  0  0  0  0
   10.5884   -3.0725   16.7902 O   0  0  0  0  0  0  0  0  0  0  0  0
   10.4323   -5.3494   20.3516 C   0  0  0  0  0  0  0  0  0  0  0  0
    7.1156   -7.5454   16.8218 C   0  0  0  0  0  0  0  0  0  0  0  0
   10.3885   -4.4388   19.2773 C   0  0  0  0  0  0  0  0  0  0  0  0
    4.5160   -9.3822   15.0841 C   0  0  0  0  0  0  0  0  0  0  0  0
  1  3  4  0
  1 24  4  0
  2  6  4  0
  2 15  4  0
  3  5  4  0
  3  6  4  0
  4 21  4  0
  4 29  4  0
  5 15  4  0
  5 28  1  0
  6 16  4  0
  7 18  4  0
  7 26  4  0
  8 18  1  0
  8 19  4  0
  8 22  4  0
  9 12  4  0
  9 19  4  0
 10 12  4  0
 10 22  4  0
 11 20  4  0
 11 21  4  0
 12 23  1  0
 13 20  4  0
 13 29  4  0
 14 17  4  0
 14 28  4  0
 15 25  2  0
 16 27  4  0
 17 18  4  0
 20 27  1  0
 24 27  4  0
 26 28  4  0
M  END
$$$$

 Created by Python create_sdf_string function

 29 33  0  0  0  0  0  0  0  0999 V2000
    8.8270   -7.0288   18.4251 C   0  0  0  0  0  0  0  0  0  0  0  0
    9.1576   -4.6236   15.8860 O   0  0  0  0  0  0  0  0  0  0  0  0
    9.1509   -5.9108   17.7177 C   0  0  0  0  0  0  0  0  0  0  0  0
    3.6373   -9.5349   16.0582 N   0  0  0  0  0  0  0  0  0  0  0  0
    9.9275   -4.8001   18.0438 N   0  0  0  0  0  0  0  0  0  0  0  0
    8.5908   -5.7425   16.4412 C   0  0  0  0  0  0  0  0  0  0  0  0
   10.5993   -4.8981   21.6068 C   0  0  0  0  0  0  0  0  0  0  0  0
   10.4258   -3.0106   23.0998 C   0  0  0  0  0  0  0  0  0  0  0  0
   10.2148   -3.4364   25.4200 C   0  0  0  0  0  0  0  0  0  0  0  0
    9.7853   -1.1840   24.4927 C   0  0  0  0  0  0  0  0  0  0  0  0
    5.0276   -8.5227   17.5352 C   0  0  0  0  0  0  0  0  0  0  0  0
    9.8187   -2.0895   25.5800 C   0  0  0  0  0  0  0  0  0  0  0  0
    5.6473   -8.7216   15.3158 C   0  0  0  0  0  0  0  0  0  0  0  0
   10.7581   -3.1233   19.4720 N   0  0  0  0  0  0  0  0  0  0  0  0
    9.9571   -4.0573   16.8866 C   0  0  0  0  0  0  0  0  0  0  0  0
    7.6213   -6.5618   16.0087 C   0  0  0  0  0  0  0  0  0  0  0  0
   10.8583   -2.6527   20.7222 C   0  0  0  0  0  0  0  0  0  0  0  0
   10.6412   -3.5089   21.7936 C   0  0  0  0  0  0  0  0  0  0  0  0
   10.4972   -3.8968   24.1589 C   0  0  0  0  0  0  0  0  0  0  0  0
    5.9260   -8.2736   16.5517 C   0  0  0  0  0  0  0  0  0  0  0  0
    3.8816   -9.1166   17.2493 C   0  0  0  0  0  0  0  0  0  0  0  0
   10.1297   -1.6575   23.2324 C   0  0  0  0  0  0  0  0  0  0  0  0
    9.4684   -1.6929   26.7263 F   0  0  0  0  0  0  0  0  0  0  0  0
    7.7963   -7.7906   17.9837 C   0  0  0  0  0  0  0  0  0  0  0  0
   10.5884   -3.0725   16.7902 O   0  0  0  0  0  0  0  0  0  0  0  0
   10.4323   -5.3494   20.3516 C   0  0  0  0  0  0  0  0  0  0  0  0
    7.1156   -7.5454   16.8218 C   0  0  0  0  0  0  0  0  0  0  0  0
   10.3885   -4.4388   19.2773 C   0  0  0  0  0  0  0  0  0  0  0  0
    4.5160   -9.3822   15.0841 C   0  0  0  0  0  0  0  0  0  0  0  0
  1  3  4  0
  1 24  4  0
  2  6  4  0
  2 15  4  0
  3  5  4  0
  3  6  4  0
  4 21  4  0
  4 29  4  0
  5 15  4  0
  5 28  1  0
  6 16  4  0
  7 18  4  0
  7 26  4  0
  8 18  1  0
  8 19  4  0
  8 22  4  0
  9 12  4  0
  9 19  4  0
 10 12  4  0
 10 22  4  0
 11 20  4  0
 11 21  4  0
 12 23  1  0
 13 20  4  0
 13 29  4  0
 14 17  4  0
 14 28  4  0
 15 25  2  0
 16 27  4  0
 17 18  4  0
 20 27  1  0
 24 27  4  0
 26 28  4  0
M  END
$$$$

 Created by Python create_sdf_string function

 29 33  0  0  0  0  0  0  0  0999 V2000
    8.8270   -7.0288   18.4251 C   0  0  0  0  0  0  0  0  0  0  0  0
    9.1576   -4.6236   15.8860 O   0  0  0  0  0  0  0  0  0  0  0  0
    9.1509   -5.9108   17.7177 C   0  0  0  0  0  0  0  0  0  0  0  0
    3.6373   -9.5349   16.0582 N   0  0  0  0  0  0  0  0  0  0  0  0
    9.9275   -4.8001   18.0438 N   0  0  0  0  0  0  0  0  0  0  0  0
    8.5908   -5.7425   16.4412 C   0  0  0  0  0  0  0  0  0  0  0  0
   10.5993   -4.8981   21.6068 C   0  0  0  0  0  0  0  0  0  0  0  0
   10.4258   -3.0106   23.0998 C   0  0  0  0  0  0  0  0  0  0  0  0
   10.2148   -3.4364   25.4200 C   0  0  0  0  0  0  0  0  0  0  0  0
    9.7853   -1.1840   24.4927 C   0  0  0  0  0  0  0  0  0  0  0  0
    5.0276   -8.5227   17.5352 C   0  0  0  0  0  0  0  0  0  0  0  0
    9.8187   -2.0895   25.5800 C   0  0  0  0  0  0  0  0  0  0  0  0
    5.6473   -8.7216   15.3158 C   0  0  0  0  0  0  0  0  0  0  0  0
   10.7581   -3.1233   19.4720 N   0  0  0  0  0  0  0  0  0  0  0  0
    9.9571   -4.0573   16.8866 C   0  0  0  0  0  0  0  0  0  0  0  0
    7.6213   -6.5618   16.0087 C   0  0  0  0  0  0  0  0  0  0  0  0
   10.8583   -2.6527   20.7222 C   0  0  0  0  0  0  0  0  0  0  0  0
   10.6412   -3.5089   21.7936 C   0  0  0  0  0  0  0  0  0  0  0  0
   10.4972   -3.8968   24.1589 C   0  0  0  0  0  0  0  0  0  0  0  0
    5.9260   -8.2736   16.5517 C   0  0  0  0  0  0  0  0  0  0  0  0
    3.8816   -9.1166   17.2493 C   0  0  0  0  0  0  0  0  0  0  0  0
   10.1297   -1.6575   23.2324 C   0  0  0  0  0  0  0  0  0  0  0  0
    9.4684   -1.6929   26.7263 F   0  0  0  0  0  0  0  0  0  0  0  0
    7.7963   -7.7906   17.9837 C   0  0  0  0  0  0  0  0  0  0  0  0
   10.5884   -3.0725   16.7902 O   0  0  0  0  0  0  0  0  0  0  0  0
   10.4323   -5.3494   20.3516 C   0  0  0  0  0  0  0  0  0  0  0  0
    7.1156   -7.5454   16.8218 C   0  0  0  0  0  0  0  0  0  0  0  0
   10.3885   -4.4388   19.2773 C   0  0  0  0  0  0  0  0  0  0  0  0
    4.5160   -9.3822   15.0841 C   0  0  0  0  0  0  0  0  0  0  0  0
  1  3  4  0
  1 24  4  0
  2  6  4  0
  2 15  4  0
  3  5  4  0
  3  6  4  0
  4 21  4  0
  4 29  4  0
  5 15  4  0
  5 28  1  0
  6 16  4  0
  7 18  4  0
  7 26  4  0
  8 18  1  0
  8 19  4  0
  8 22  4  0
  9 12  4  0
  9 19  4  0
 10 12  4  0
 10 22  4  0
 11 20  4  0
 11 21  4  0
 12 23  1  0
 13 20  4  0
 13 29  4  0
 14 17  4  0
 14 28  4  0
 15 25  2  0
 16 27  4  0
 17 18  4  0
 20 27  1  0
 24 27  4  0
 26 28  4  0
M  END
$$$$

 Created by Python create_sdf_string function

 29 33  0  0  0  0  0  0  0  0999 V2000
    8.8270   -7.0288   18.4251 C   0  0  0  0  0  0  0  0  0  0  0  0
    9.1576   -4.6236   15.8860 O   0  0  0  0  0  0  0  0  0  0  0  0
    9.1509   -5.9108   17.7177 C   0  0  0  0  0  0  0  0  0  0  0  0
    3.6373   -9.5349   16.0582 N   0  0  0  0  0  0  0  0  0  0  0  0
    9.9275   -4.8001   18.0438 N   0  0  0  0  0  0  0  0  0  0  0  0
    8.5908   -5.7425   16.4412 C   0  0  0  0  0  0  0  0  0  0  0  0
   10.5993   -4.8981   21.6068 C   0  0  0  0  0  0  0  0  0  0  0  0
   10.4258   -3.0106   23.0998 C   0  0  0  0  0  0  0  0  0  0  0  0
   10.2148   -3.4364   25.4200 C   0  0  0  0  0  0  0  0  0  0  0  0
    9.7853   -1.1840   24.4927 C   0  0  0  0  0  0  0  0  0  0  0  0
    5.0276   -8.5227   17.5352 C   0  0  0  0  0  0  0  0  0  0  0  0
    9.8187   -2.0895   25.5800 C   0  0  0  0  0  0  0  0  0  0  0  0
    5.6473   -8.7216   15.3158 C   0  0  0  0  0  0  0  0  0  0  0  0
   10.7581   -3.1233   19.4720 N   0  0  0  0  0  0  0  0  0  0  0  0
    9.9571   -4.0573   16.8866 C   0  0  0  0  0  0  0  0  0  0  0  0
    7.6213   -6.5618   16.0087 C   0  0  0  0  0  0  0  0  0  0  0  0
   10.8583   -2.6527   20.7222 C   0  0  0  0  0  0  0  0  0  0  0  0
   10.6412   -3.5089   21.7936 C   0  0  0  0  0  0  0  0  0  0  0  0
   10.4972   -3.8968   24.1589 C   0  0  0  0  0  0  0  0  0  0  0  0
    5.9260   -8.2736   16.5517 C   0  0  0  0  0  0  0  0  0  0  0  0
    3.8816   -9.1166   17.2493 C   0  0  0  0  0  0  0  0  0  0  0  0
   10.1297   -1.6575   23.2324 C   0  0  0  0  0  0  0  0  0  0  0  0
    9.4684   -1.6929   26.7263 F   0  0  0  0  0  0  0  0  0  0  0  0
    7.7963   -7.7906   17.9837 C   0  0  0  0  0  0  0  0  0  0  0  0
   10.5884   -3.0725   16.7902 O   0  0  0  0  0  0  0  0  0  0  0  0
   10.4323   -5.3494   20.3516 C   0  0  0  0  0  0  0  0  0  0  0  0
    7.1156   -7.5454   16.8218 C   0  0  0  0  0  0  0  0  0  0  0  0
   10.3885   -4.4388   19.2773 C   0  0  0  0  0  0  0  0  0  0  0  0
    4.5160   -9.3822   15.0841 C   0  0  0  0  0  0  0  0  0  0  0  0
  1  3  4  0
  1 24  4  0
  2  6  4  0
  2 15  4  0
  3  5  4  0
  3  6  4  0
  4 21  4  0
  4 29  4  0
  5 15  4  0
  5 28  1  0
  6 16  4  0
  7 18  4  0
  7 26  4  0
  8 18  1  0
  8 19  4  0
  8 22  4  0
  9 12  4  0
  9 19  4  0
 10 12  4  0
 10 22  4  0
 11 20  4  0
 11 21  4  0
 12 23  1  0
 13 20  4  0
 13 29  4  0
 14 17  4  0
 14 28  4  0
 15 25  2  0
 16 27  4  0
 17 18  4  0
 20 27  1  0
 24 27  4  0
 26 28  4  0
M  END
$$$$

 Created by Python create_sdf_string function

 29 33  0  0  0  0  0  0  0  0999 V2000
    8.8270   -7.0288   18.4251 C   0  0  0  0  0  0  0  0  0  0  0  0
    9.1576   -4.6236   15.8860 O   0  0  0  0  0  0  0  0  0  0  0  0
    9.1509   -5.9108   17.7177 C   0  0  0  0  0  0  0  0  0  0  0  0
    3.6373   -9.5349   16.0582 N   0  0  0  0  0  0  0  0  0  0  0  0
    9.9275   -4.8001   18.0438 N   0  0  0  0  0  0  0  0  0  0  0  0
    8.5908   -5.7425   16.4412 C   0  0  0  0  0  0  0  0  0  0  0  0
   10.5993   -4.8981   21.6068 C   0  0  0  0  0  0  0  0  0  0  0  0
   10.4258   -3.0106   23.0998 C   0  0  0  0  0  0  0  0  0  0  0  0
   10.2148   -3.4364   25.4200 C   0  0  0  0  0  0  0  0  0  0  0  0
    9.7853   -1.1840   24.4927 C   0  0  0  0  0  0  0  0  0  0  0  0
    5.0276   -8.5227   17.5352 C   0  0  0  0  0  0  0  0  0  0  0  0
    9.8187   -2.0895   25.5800 C   0  0  0  0  0  0  0  0  0  0  0  0
    5.6473   -8.7216   15.3158 C   0  0  0  0  0  0  0  0  0  0  0  0
   10.7581   -3.1233   19.4720 N   0  0  0  0  0  0  0  0  0  0  0  0
    9.9571   -4.0573   16.8866 C   0  0  0  0  0  0  0  0  0  0  0  0
    7.6213   -6.5618   16.0087 C   0  0  0  0  0  0  0  0  0  0  0  0
   10.8583   -2.6527   20.7222 C   0  0  0  0  0  0  0  0  0  0  0  0
   10.6412   -3.5089   21.7936 C   0  0  0  0  0  0  0  0  0  0  0  0
   10.4972   -3.8968   24.1589 C   0  0  0  0  0  0  0  0  0  0  0  0
    5.9260   -8.2736   16.5517 C   0  0  0  0  0  0  0  0  0  0  0  0
    3.8816   -9.1166   17.2493 C   0  0  0  0  0  0  0  0  0  0  0  0
   10.1297   -1.6575   23.2324 C   0  0  0  0  0  0  0  0  0  0  0  0
    9.4684   -1.6929   26.7263 F   0  0  0  0  0  0  0  0  0  0  0  0
    7.7963   -7.7906   17.9837 C   0  0  0  0  0  0  0  0  0  0  0  0
   10.5884   -3.0725   16.7902 O   0  0  0  0  0  0  0  0  0  0  0  0
   10.4323   -5.3494   20.3516 C   0  0  0  0  0  0  0  0  0  0  0  0
    7.1156   -7.5454   16.8218 C   0  0  0  0  0  0  0  0  0  0  0  0
   10.3885   -4.4388   19.2773 C   0  0  0  0  0  0  0  0  0  0  0  0
    4.5160   -9.3822   15.0841 C   0  0  0  0  0  0  0  0  0  0  0  0
  1  3  4  0
  1 24  4  0
  2  6  4  0
  2 15  4  0
  3  5  4  0
  3  6  4  0
  4 21  4  0
  4 29  4  0
  5 15  4  0
  5 28  1  0
  6 16  4  0
  7 18  4  0
  7 26  4  0
  8 18  1  0
  8 19  4  0
  8 22  4  0
  9 12  4  0
  9 19  4  0
 10 12  4  0
 10 22  4  0
 11 20  4  0
 11 21  4  0
 12 23  1  0
 13 20  4  0
 13 29  4  0
 14 17  4  0
 14 28  4  0
 15 25  2  0
 16 27  4  0
 17 18  4  0
 20 27  1  0
 24 27  4  0
 26 28  4  0
M  END
$$$$

 Created by Python create_sdf_string function

 29 33  0  0  0  0  0  0  0  0999 V2000
    8.8270   -7.0288   18.4251 C   0  0  0  0  0  0  0  0  0  0  0  0
    9.1576   -4.6236   15.8860 O   0  0  0  0  0  0  0  0  0  0  0  0
    9.1509   -5.9108   17.7177 C   0  0  0  0  0  0  0  0  0  0  0  0
    3.6373   -9.5349   16.0582 N   0  0  0  0  0  0  0  0  0  0  0  0
    9.9275   -4.8001   18.0438 N   0  0  0  0  0  0  0  0  0  0  0  0
    8.5908   -5.7425   16.4412 C   0  0  0  0  0  0  0  0  0  0  0  0
   10.5993   -4.8981   21.6068 C   0  0  0  0  0  0  0  0  0  0  0  0
   10.4258   -3.0106   23.0998 C   0  0  0  0  0  0  0  0  0  0  0  0
   10.2148   -3.4364   25.4200 C   0  0  0  0  0  0  0  0  0  0  0  0
    9.7853   -1.1840   24.4927 C   0  0  0  0  0  0  0  0  0  0  0  0
    5.0276   -8.5227   17.5352 C   0  0  0  0  0  0  0  0  0  0  0  0
    9.8187   -2.0895   25.5800 C   0  0  0  0  0  0  0  0  0  0  0  0
    5.6473   -8.7216   15.3158 C   0  0  0  0  0  0  0  0  0  0  0  0
   10.7581   -3.1233   19.4720 N   0  0  0  0  0  0  0  0  0  0  0  0
    9.9571   -4.0573   16.8866 C   0  0  0  0  0  0  0  0  0  0  0  0
    7.6213   -6.5618   16.0087 C   0  0  0  0  0  0  0  0  0  0  0  0
   10.8583   -2.6527   20.7222 C   0  0  0  0  0  0  0  0  0  0  0  0
   10.6412   -3.5089   21.7936 C   0  0  0  0  0  0  0  0  0  0  0  0
   10.4972   -3.8968   24.1589 C   0  0  0  0  0  0  0  0  0  0  0  0
    5.9260   -8.2736   16.5517 C   0  0  0  0  0  0  0  0  0  0  0  0
    3.8816   -9.1166   17.2493 C   0  0  0  0  0  0  0  0  0  0  0  0
   10.1297   -1.6575   23.2324 C   0  0  0  0  0  0  0  0  0  0  0  0
    9.4684   -1.6929   26.7263 F   0  0  0  0  0  0  0  0  0  0  0  0
    7.7963   -7.7906   17.9837 C   0  0  0  0  0  0  0  0  0  0  0  0
   10.5884   -3.0725   16.7902 O   0  0  0  0  0  0  0  0  0  0  0  0
   10.4323   -5.3494   20.3516 C   0  0  0  0  0  0  0  0  0  0  0  0
    7.1156   -7.5454   16.8218 C   0  0  0  0  0  0  0  0  0  0  0  0
   10.3885   -4.4388   19.2773 C   0  0  0  0  0  0  0  0  0  0  0  0
    4.5160   -9.3822   15.0841 C   0  0  0  0  0  0  0  0  0  0  0  0
  1  3  4  0
  1 24  4  0
  2  6  4  0
  2 15  4  0
  3  5  4  0
  3  6  4  0
  4 21  4  0
  4 29  4  0
  5 15  4  0
  5 28  1  0
  6 16  4  0
  7 18  4  0
  7 26  4  0
  8 18  1  0
  8 19  4  0
  8 22  4  0
  9 12  4  0
  9 19  4  0
 10 12  4  0
 10 22  4  0
 11 20  4  0
 11 21  4  0
 12 23  1  0
 13 20  4  0
 13 29  4  0
 14 17  4  0
 14 28  4  0
 15 25  2  0
 16 27  4  0
 17 18  4  0
 20 27  1  0
 24 27  4  0
 26 28  4  0
M  END
$$$$

 Created by Python create_sdf_string function

 29 33  0  0  0  0  0  0  0  0999 V2000
    8.8270   -7.0288   18.4251 C   0  0  0  0  0  0  0  0  0  0  0  0
    9.1576   -4.6236   15.8860 O   0  0  0  0  0  0  0  0  0  0  0  0
    9.1509   -5.9108   17.7177 C   0  0  0  0  0  0  0  0  0  0  0  0
    3.6373   -9.5349   16.0582 N   0  0  0  0  0  0  0  0  0  0  0  0
    9.9275   -4.8001   18.0438 N   0  0  0  0  0  0  0  0  0  0  0  0
    8.5908   -5.7425   16.4412 C   0  0  0  0  0  0  0  0  0  0  0  0
   10.5993   -4.8981   21.6068 C   0  0  0  0  0  0  0  0  0  0  0  0
   10.4258   -3.0106   23.0998 C   0  0  0  0  0  0  0  0  0  0  0  0
   10.2148   -3.4364   25.4200 C   0  0  0  0  0  0  0  0  0  0  0  0
    9.7853   -1.1840   24.4927 C   0  0  0  0  0  0  0  0  0  0  0  0
    5.0276   -8.5227   17.5352 C   0  0  0  0  0  0  0  0  0  0  0  0
    9.8187   -2.0895   25.5800 C   0  0  0  0  0  0  0  0  0  0  0  0
    5.6473   -8.7216   15.3158 C   0  0  0  0  0  0  0  0  0  0  0  0
   10.7581   -3.1233   19.4720 N   0  0  0  0  0  0  0  0  0  0  0  0
    9.9571   -4.0573   16.8866 C   0  0  0  0  0  0  0  0  0  0  0  0
    7.6213   -6.5618   16.0087 C   0  0  0  0  0  0  0  0  0  0  0  0
   10.8583   -2.6527   20.7222 C   0  0  0  0  0  0  0  0  0  0  0  0
   10.6412   -3.5089   21.7936 C   0  0  0  0  0  0  0  0  0  0  0  0
   10.4972   -3.8968   24.1589 C   0  0  0  0  0  0  0  0  0  0  0  0
    5.9260   -8.2736   16.5517 C   0  0  0  0  0  0  0  0  0  0  0  0
    3.8816   -9.1166   17.2493 C   0  0  0  0  0  0  0  0  0  0  0  0
   10.1297   -1.6575   23.2324 C   0  0  0  0  0  0  0  0  0  0  0  0
    9.4684   -1.6929   26.7263 F   0  0  0  0  0  0  0  0  0  0  0  0
    7.7963   -7.7906   17.9837 C   0  0  0  0  0  0  0  0  0  0  0  0
   10.5884   -3.0725   16.7902 O   0  0  0  0  0  0  0  0  0  0  0  0
   10.4323   -5.3494   20.3516 C   0  0  0  0  0  0  0  0  0  0  0  0
    7.1156   -7.5454   16.8218 C   0  0  0  0  0  0  0  0  0  0  0  0
   10.3885   -4.4388   19.2773 C   0  0  0  0  0  0  0  0  0  0  0  0
    4.5160   -9.3822   15.0841 C   0  0  0  0  0  0  0  0  0  0  0  0
  1  3  4  0
  1 24  4  0
  2  6  4  0
  2 15  4  0
  3  5  4  0
  3  6  4  0
  4 21  4  0
  4 29  4  0
  5 15  4  0
  5 28  1  0
  6 16  4  0
  7 18  4  0
  7 26  4  0
  8 18  1  0
  8 19  4  0
  8 22  4  0
  9 12  4  0
  9 19  4  0
 10 12  4  0
 10 22  4  0
 11 20  4  0
 11 21  4  0
 12 23  1  0
 13 20  4  0
 13 29  4  0
 14 17  4  0
 14 28  4  0
 15 25  2  0
 16 27  4  0
 17 18  4  0
 20 27  1  0
 24 27  4  0
 26 28  4  0
M  END
$$$$

 Created by Python create_sdf_string function

 29 33  0  0  0  0  0  0  0  0999 V2000
    8.8270   -7.0288   18.4251 C   0  0  0  0  0  0  0  0  0  0  0  0
    9.1576   -4.6236   15.8860 O   0  0  0  0  0  0  0  0  0  0  0  0
    9.1509   -5.9108   17.7177 C   0  0  0  0  0  0  0  0  0  0  0  0
    3.6373   -9.5349   16.0582 N   0  0  0  0  0  0  0  0  0  0  0  0
    9.9275   -4.8001   18.0438 N   0  0  0  0  0  0  0  0  0  0  0  0
    8.5908   -5.7425   16.4412 C   0  0  0  0  0  0  0  0  0  0  0  0
   10.5993   -4.8981   21.6068 C   0  0  0  0  0  0  0  0  0  0  0  0
   10.4258   -3.0106   23.0998 C   0  0  0  0  0  0  0  0  0  0  0  0
   10.2148   -3.4364   25.4200 C   0  0  0  0  0  0  0  0  0  0  0  0
    9.7853   -1.1840   24.4927 C   0  0  0  0  0  0  0  0  0  0  0  0
    5.0276   -8.5227   17.5352 C   0  0  0  0  0  0  0  0  0  0  0  0
    9.8187   -2.0895   25.5800 C   0  0  0  0  0  0  0  0  0  0  0  0
    5.6473   -8.7216   15.3158 C   0  0  0  0  0  0  0  0  0  0  0  0
   10.7581   -3.1233   19.4720 N   0  0  0  0  0  0  0  0  0  0  0  0
    9.9571   -4.0573   16.8866 C   0  0  0  0  0  0  0  0  0  0  0  0
    7.6213   -6.5618   16.0087 C   0  0  0  0  0  0  0  0  0  0  0  0
   10.8583   -2.6527   20.7222 C   0  0  0  0  0  0  0  0  0  0  0  0
   10.6412   -3.5089   21.7936 C   0  0  0  0  0  0  0  0  0  0  0  0
   10.4972   -3.8968   24.1589 C   0  0  0  0  0  0  0  0  0  0  0  0
    5.9260   -8.2736   16.5517 C   0  0  0  0  0  0  0  0  0  0  0  0
    3.8816   -9.1166   17.2493 C   0  0  0  0  0  0  0  0  0  0  0  0
   10.1297   -1.6575   23.2324 C   0  0  0  0  0  0  0  0  0  0  0  0
    9.4684   -1.6929   26.7263 F   0  0  0  0  0  0  0  0  0  0  0  0
    7.7963   -7.7906   17.9837 C   0  0  0  0  0  0  0  0  0  0  0  0
   10.5884   -3.0725   16.7902 O   0  0  0  0  0  0  0  0  0  0  0  0
   10.4323   -5.3494   20.3516 C   0  0  0  0  0  0  0  0  0  0  0  0
    7.1156   -7.5454   16.8218 C   0  0  0  0  0  0  0  0  0  0  0  0
   10.3885   -4.4388   19.2773 C   0  0  0  0  0  0  0  0  0  0  0  0
    4.5160   -9.3822   15.0841 C   0  0  0  0  0  0  0  0  0  0  0  0
  1  3  4  0
  1 24  4  0
  2  6  4  0
  2 15  4  0
  3  5  4  0
  3  6  4  0
  4 21  4  0
  4 29  4  0
  5 15  4  0
  5 28  1  0
  6 16  4  0
  7 18  4  0
  7 26  4  0
  8 18  1  0
  8 19  4  0
  8 22  4  0
  9 12  4  0
  9 19  4  0
 10 12  4  0
 10 22  4  0
 11 20  4  0
 11 21  4  0
 12 23  1  0
 13 20  4  0
 13 29  4  0
 14 17  4  0
 14 28  4  0
 15 25  2  0
 16 27  4  0
 17 18  4  0
 20 27  1  0
 24 27  4  0
 26 28  4  0
M  END
$$$$

 Created by Python create_sdf_string function

 29 33  0  0  0  0  0  0  0  0999 V2000
    8.8270   -7.0288   18.4251 C   0  0  0  0  0  0  0  0  0  0  0  0
    9.1576   -4.6236   15.8860 O   0  0  0  0  0  0  0  0  0  0  0  0
    9.1509   -5.9108   17.7177 C   0  0  0  0  0  0  0  0  0  0  0  0
    3.6373   -9.5349   16.0582 N   0  0  0  0  0  0  0  0  0  0  0  0
    9.9275   -4.8001   18.0438 N   0  0  0  0  0  0  0  0  0  0  0  0
    8.5908   -5.7425   16.4412 C   0  0  0  0  0  0  0  0  0  0  0  0
   10.5993   -4.8981   21.6068 C   0  0  0  0  0  0  0  0  0  0  0  0
   10.4258   -3.0106   23.0998 C   0  0  0  0  0  0  0  0  0  0  0  0
   10.2148   -3.4364   25.4200 C   0  0  0  0  0  0  0  0  0  0  0  0
    9.7853   -1.1840   24.4927 C   0  0  0  0  0  0  0  0  0  0  0  0
    5.0276   -8.5227   17.5352 C   0  0  0  0  0  0  0  0  0  0  0  0
    9.8187   -2.0895   25.5800 C   0  0  0  0  0  0  0  0  0  0  0  0
    5.6473   -8.7216   15.3158 C   0  0  0  0  0  0  0  0  0  0  0  0
   10.7581   -3.1233   19.4720 N   0  0  0  0  0  0  0  0  0  0  0  0
    9.9571   -4.0573   16.8866 C   0  0  0  0  0  0  0  0  0  0  0  0
    7.6213   -6.5618   16.0087 C   0  0  0  0  0  0  0  0  0  0  0  0
   10.8583   -2.6527   20.7222 C   0  0  0  0  0  0  0  0  0  0  0  0
   10.6412   -3.5089   21.7936 C   0  0  0  0  0  0  0  0  0  0  0  0
   10.4972   -3.8968   24.1589 C   0  0  0  0  0  0  0  0  0  0  0  0
    5.9260   -8.2736   16.5517 C   0  0  0  0  0  0  0  0  0  0  0  0
    3.8816   -9.1166   17.2493 C   0  0  0  0  0  0  0  0  0  0  0  0
   10.1297   -1.6575   23.2324 C   0  0  0  0  0  0  0  0  0  0  0  0
    9.4684   -1.6929   26.7263 F   0  0  0  0  0  0  0  0  0  0  0  0
    7.7963   -7.7906   17.9837 C   0  0  0  0  0  0  0  0  0  0  0  0
   10.5884   -3.0725   16.7902 O   0  0  0  0  0  0  0  0  0  0  0  0
   10.4323   -5.3494   20.3516 C   0  0  0  0  0  0  0  0  0  0  0  0
    7.1156   -7.5454   16.8218 C   0  0  0  0  0  0  0  0  0  0  0  0
   10.3885   -4.4388   19.2773 C   0  0  0  0  0  0  0  0  0  0  0  0
    4.5160   -9.3822   15.0841 C   0  0  0  0  0  0  0  0  0  0  0  0
  1  3  4  0
  1 24  4  0
  2  6  4  0
  2 15  4  0
  3  5  4  0
  3  6  4  0
  4 21  4  0
  4 29  4  0
  5 15  4  0
  5 28  1  0
  6 16  4  0
  7 18  4  0
  7 26  4  0
  8 18  1  0
  8 19  4  0
  8 22  4  0
  9 12  4  0
  9 19  4  0
 10 12  4  0
 10 22  4  0
 11 20  4  0
 11 21  4  0
 12 23  1  0
 13 20  4  0
 13 29  4  0
 14 17  4  0
 14 28  4  0
 15 25  2  0
 16 27  4  0
 17 18  4  0
 20 27  1  0
 24 27  4  0
 26 28  4  0
M  END
$$$$

 Created by Python create_sdf_string function

 29 33  0  0  0  0  0  0  0  0999 V2000
    8.8270   -7.0288   18.4251 C   0  0  0  0  0  0  0  0  0  0  0  0
    9.1576   -4.6236   15.8860 O   0  0  0  0  0  0  0  0  0  0  0  0
    9.1509   -5.9108   17.7177 C   0  0  0  0  0  0  0  0  0  0  0  0
    3.6373   -9.5349   16.0582 N   0  0  0  0  0  0  0  0  0  0  0  0
    9.9275   -4.8001   18.0438 N   0  0  0  0  0  0  0  0  0  0  0  0
    8.5908   -5.7425   16.4412 C   0  0  0  0  0  0  0  0  0  0  0  0
   10.5993   -4.8981   21.6068 C   0  0  0  0  0  0  0  0  0  0  0  0
   10.4258   -3.0106   23.0998 C   0  0  0  0  0  0  0  0  0  0  0  0
   10.2148   -3.4364   25.4200 C   0  0  0  0  0  0  0  0  0  0  0  0
    9.7853   -1.1840   24.4927 C   0  0  0  0  0  0  0  0  0  0  0  0
    5.0276   -8.5227   17.5352 C   0  0  0  0  0  0  0  0  0  0  0  0
    9.8187   -2.0895   25.5800 C   0  0  0  0  0  0  0  0  0  0  0  0
    5.6473   -8.7216   15.3158 C   0  0  0  0  0  0  0  0  0  0  0  0
   10.7581   -3.1233   19.4720 N   0  0  0  0  0  0  0  0  0  0  0  0
    9.9571   -4.0573   16.8866 C   0  0  0  0  0  0  0  0  0  0  0  0
    7.6213   -6.5618   16.0087 C   0  0  0  0  0  0  0  0  0  0  0  0
   10.8583   -2.6527   20.7222 C   0  0  0  0  0  0  0  0  0  0  0  0
   10.6412   -3.5089   21.7936 C   0  0  0  0  0  0  0  0  0  0  0  0
   10.4972   -3.8968   24.1589 C   0  0  0  0  0  0  0  0  0  0  0  0
    5.9260   -8.2736   16.5517 C   0  0  0  0  0  0  0  0  0  0  0  0
    3.8816   -9.1166   17.2493 C   0  0  0  0  0  0  0  0  0  0  0  0
   10.1297   -1.6575   23.2324 C   0  0  0  0  0  0  0  0  0  0  0  0
    9.4684   -1.6929   26.7263 F   0  0  0  0  0  0  0  0  0  0  0  0
    7.7963   -7.7906   17.9837 C   0  0  0  0  0  0  0  0  0  0  0  0
   10.5884   -3.0725   16.7902 O   0  0  0  0  0  0  0  0  0  0  0  0
   10.4323   -5.3494   20.3516 C   0  0  0  0  0  0  0  0  0  0  0  0
    7.1156   -7.5454   16.8218 C   0  0  0  0  0  0  0  0  0  0  0  0
   10.3885   -4.4388   19.2773 C   0  0  0  0  0  0  0  0  0  0  0  0
    4.5160   -9.3822   15.0841 C   0  0  0  0  0  0  0  0  0  0  0  0
  1  3  4  0
  1 24  4  0
  2  6  4  0
  2 15  4  0
  3  5  4  0
  3  6  4  0
  4 21  4  0
  4 29  4  0
  5 15  4  0
  5 28  1  0
  6 16  4  0
  7 18  4  0
  7 26  4  0
  8 18  1  0
  8 19  4  0
  8 22  4  0
  9 12  4  0
  9 19  4  0
 10 12  4  0
 10 22  4  0
 11 20  4  0
 11 21  4  0
 12 23  1  0
 13 20  4  0
 13 29  4  0
 14 17  4  0
 14 28  4  0
 15 25  2  0
 16 27  4  0
 17 18  4  0
 20 27  1  0
 24 27  4  0
 26 28  4  0
M  END
$$$$

 Created by Python create_sdf_string function

 29 33  0  0  0  0  0  0  0  0999 V2000
    8.8270   -7.0288   18.4251 C   0  0  0  0  0  0  0  0  0  0  0  0
    9.1576   -4.6236   15.8860 O   0  0  0  0  0  0  0  0  0  0  0  0
    9.1509   -5.9108   17.7177 C   0  0  0  0  0  0  0  0  0  0  0  0
    3.6373   -9.5349   16.0582 N   0  0  0  0  0  0  0  0  0  0  0  0
    9.9275   -4.8001   18.0438 N   0  0  0  0  0  0  0  0  0  0  0  0
    8.5908   -5.7425   16.4412 C   0  0  0  0  0  0  0  0  0  0  0  0
   10.5993   -4.8981   21.6068 C   0  0  0  0  0  0  0  0  0  0  0  0
   10.4258   -3.0106   23.0998 C   0  0  0  0  0  0  0  0  0  0  0  0
   10.2148   -3.4364   25.4200 C   0  0  0  0  0  0  0  0  0  0  0  0
    9.7853   -1.1840   24.4927 C   0  0  0  0  0  0  0  0  0  0  0  0
    5.0276   -8.5227   17.5352 C   0  0  0  0  0  0  0  0  0  0  0  0
    9.8187   -2.0895   25.5800 C   0  0  0  0  0  0  0  0  0  0  0  0
    5.6473   -8.7216   15.3158 C   0  0  0  0  0  0  0  0  0  0  0  0
   10.7581   -3.1233   19.4720 N   0  0  0  0  0  0  0  0  0  0  0  0
    9.9571   -4.0573   16.8866 C   0  0  0  0  0  0  0  0  0  0  0  0
    7.6213   -6.5618   16.0087 C   0  0  0  0  0  0  0  0  0  0  0  0
   10.8583   -2.6527   20.7222 C   0  0  0  0  0  0  0  0  0  0  0  0
   10.6412   -3.5089   21.7936 C   0  0  0  0  0  0  0  0  0  0  0  0
   10.4972   -3.8968   24.1589 C   0  0  0  0  0  0  0  0  0  0  0  0
    5.9260   -8.2736   16.5517 C   0  0  0  0  0  0  0  0  0  0  0  0
    3.8816   -9.1166   17.2493 C   0  0  0  0  0  0  0  0  0  0  0  0
   10.1297   -1.6575   23.2324 C   0  0  0  0  0  0  0  0  0  0  0  0
    9.4684   -1.6929   26.7263 F   0  0  0  0  0  0  0  0  0  0  0  0
    7.7963   -7.7906   17.9837 C   0  0  0  0  0  0  0  0  0  0  0  0
   10.5884   -3.0725   16.7902 O   0  0  0  0  0  0  0  0  0  0  0  0
   10.4323   -5.3494   20.3516 C   0  0  0  0  0  0  0  0  0  0  0  0
    7.1156   -7.5454   16.8218 C   0  0  0  0  0  0  0  0  0  0  0  0
   10.3885   -4.4388   19.2773 C   0  0  0  0  0  0  0  0  0  0  0  0
    4.5160   -9.3822   15.0841 C   0  0  0  0  0  0  0  0  0  0  0  0
  1  3  4  0
  1 24  4  0
  2  6  4  0
  2 15  4  0
  3  5  4  0
  3  6  4  0
  4 21  4  0
  4 29  4  0
  5 15  4  0
  5 28  1  0
  6 16  4  0
  7 18  4  0
  7 26  4  0
  8 18  1  0
  8 19  4  0
  8 22  4  0
  9 12  4  0
  9 19  4  0
 10 12  4  0
 10 22  4  0
 11 20  4  0
 11 21  4  0
 12 23  1  0
 13 20  4  0
 13 29  4  0
 14 17  4  0
 14 28  4  0
 15 25  2  0
 16 27  4  0
 17 18  4  0
 20 27  1  0
 24 27  4  0
 26 28  4  0
M  END
$$$$

 Created by Python create_sdf_string function

 29 33  0  0  0  0  0  0  0  0999 V2000
    8.8270   -7.0288   18.4251 C   0  0  0  0  0  0  0  0  0  0  0  0
    9.1576   -4.6236   15.8860 O   0  0  0  0  0  0  0  0  0  0  0  0
    9.1509   -5.9108   17.7177 C   0  0  0  0  0  0  0  0  0  0  0  0
    3.6373   -9.5349   16.0582 N   0  0  0  0  0  0  0  0  0  0  0  0
    9.9275   -4.8001   18.0438 N   0  0  0  0  0  0  0  0  0  0  0  0
    8.5908   -5.7425   16.4412 C   0  0  0  0  0  0  0  0  0  0  0  0
   10.5993   -4.8981   21.6068 C   0  0  0  0  0  0  0  0  0  0  0  0
   10.4258   -3.0106   23.0998 C   0  0  0  0  0  0  0  0  0  0  0  0
   10.2148   -3.4364   25.4200 C   0  0  0  0  0  0  0  0  0  0  0  0
    9.7853   -1.1840   24.4927 C   0  0  0  0  0  0  0  0  0  0  0  0
    5.0276   -8.5227   17.5352 C   0  0  0  0  0  0  0  0  0  0  0  0
    9.8187   -2.0895   25.5800 C   0  0  0  0  0  0  0  0  0  0  0  0
    5.6473   -8.7216   15.3158 C   0  0  0  0  0  0  0  0  0  0  0  0
   10.7581   -3.1233   19.4720 N   0  0  0  0  0  0  0  0  0  0  0  0
    9.9571   -4.0573   16.8866 C   0  0  0  0  0  0  0  0  0  0  0  0
    7.6213   -6.5618   16.0087 C   0  0  0  0  0  0  0  0  0  0  0  0
   10.8583   -2.6527   20.7222 C   0  0  0  0  0  0  0  0  0  0  0  0
   10.6412   -3.5089   21.7936 C   0  0  0  0  0  0  0  0  0  0  0  0
   10.4972   -3.8968   24.1589 C   0  0  0  0  0  0  0  0  0  0  0  0
    5.9260   -8.2736   16.5517 C   0  0  0  0  0  0  0  0  0  0  0  0
    3.8816   -9.1166   17.2493 C   0  0  0  0  0  0  0  0  0  0  0  0
   10.1297   -1.6575   23.2324 C   0  0  0  0  0  0  0  0  0  0  0  0
    9.4684   -1.6929   26.7263 F   0  0  0  0  0  0  0  0  0  0  0  0
    7.7963   -7.7906   17.9837 C   0  0  0  0  0  0  0  0  0  0  0  0
   10.5884   -3.0725   16.7902 O   0  0  0  0  0  0  0  0  0  0  0  0
   10.4323   -5.3494   20.3516 C   0  0  0  0  0  0  0  0  0  0  0  0
    7.1156   -7.5454   16.8218 C   0  0  0  0  0  0  0  0  0  0  0  0
   10.3885   -4.4388   19.2773 C   0  0  0  0  0  0  0  0  0  0  0  0
    4.5160   -9.3822   15.0841 C   0  0  0  0  0  0  0  0  0  0  0  0
  1  3  4  0
  1 24  4  0
  2  6  4  0
  2 15  4  0
  3  5  4  0
  3  6  4  0
  4 21  4  0
  4 29  4  0
  5 15  4  0
  5 28  1  0
  6 16  4  0
  7 18  4  0
  7 26  4  0
  8 18  1  0
  8 19  4  0
  8 22  4  0
  9 12  4  0
  9 19  4  0
 10 12  4  0
 10 22  4  0
 11 20  4  0
 11 21  4  0
 12 23  1  0
 13 20  4  0
 13 29  4  0
 14 17  4  0
 14 28  4  0
 15 25  2  0
 16 27  4  0
 17 18  4  0
 20 27  1  0
 24 27  4  0
 26 28  4  0
M  END
$$$$

 Created by Python create_sdf_string function

 29 33  0  0  0  0  0  0  0  0999 V2000
    8.8270   -7.0288   18.4251 C   0  0  0  0  0  0  0  0  0  0  0  0
    9.1576   -4.6236   15.8860 O   0  0  0  0  0  0  0  0  0  0  0  0
    9.1509   -5.9108   17.7177 C   0  0  0  0  0  0  0  0  0  0  0  0
    3.6373   -9.5349   16.0582 N   0  0  0  0  0  0  0  0  0  0  0  0
    9.9275   -4.8001   18.0438 N   0  0  0  0  0  0  0  0  0  0  0  0
    8.5908   -5.7425   16.4412 C   0  0  0  0  0  0  0  0  0  0  0  0
   10.5993   -4.8981   21.6068 C   0  0  0  0  0  0  0  0  0  0  0  0
   10.4258   -3.0106   23.0998 C   0  0  0  0  0  0  0  0  0  0  0  0
   10.2148   -3.4364   25.4200 C   0  0  0  0  0  0  0  0  0  0  0  0
    9.7853   -1.1840   24.4927 C   0  0  0  0  0  0  0  0  0  0  0  0
    5.0276   -8.5227   17.5352 C   0  0  0  0  0  0  0  0  0  0  0  0
    9.8187   -2.0895   25.5800 C   0  0  0  0  0  0  0  0  0  0  0  0
    5.6473   -8.7216   15.3158 C   0  0  0  0  0  0  0  0  0  0  0  0
   10.7581   -3.1233   19.4720 N   0  0  0  0  0  0  0  0  0  0  0  0
    9.9571   -4.0573   16.8866 C   0  0  0  0  0  0  0  0  0  0  0  0
    7.6213   -6.5618   16.0087 C   0  0  0  0  0  0  0  0  0  0  0  0
   10.8583   -2.6527   20.7222 C   0  0  0  0  0  0  0  0  0  0  0  0
   10.6412   -3.5089   21.7936 C   0  0  0  0  0  0  0  0  0  0  0  0
   10.4972   -3.8968   24.1589 C   0  0  0  0  0  0  0  0  0  0  0  0
    5.9260   -8.2736   16.5517 C   0  0  0  0  0  0  0  0  0  0  0  0
    3.8816   -9.1166   17.2493 C   0  0  0  0  0  0  0  0  0  0  0  0
   10.1297   -1.6575   23.2324 C   0  0  0  0  0  0  0  0  0  0  0  0
    9.4684   -1.6929   26.7263 F   0  0  0  0  0  0  0  0  0  0  0  0
    7.7963   -7.7906   17.9837 C   0  0  0  0  0  0  0  0  0  0  0  0
   10.5884   -3.0725   16.7902 O   0  0  0  0  0  0  0  0  0  0  0  0
   10.4323   -5.3494   20.3516 C   0  0  0  0  0  0  0  0  0  0  0  0
    7.1156   -7.5454   16.8218 C   0  0  0  0  0  0  0  0  0  0  0  0
   10.3885   -4.4388   19.2773 C   0  0  0  0  0  0  0  0  0  0  0  0
    4.5160   -9.3822   15.0841 C   0  0  0  0  0  0  0  0  0  0  0  0
  1  3  4  0
  1 24  4  0
  2  6  4  0
  2 15  4  0
  3  5  4  0
  3  6  4  0
  4 21  4  0
  4 29  4  0
  5 15  4  0
  5 28  1  0
  6 16  4  0
  7 18  4  0
  7 26  4  0
  8 18  1  0
  8 19  4  0
  8 22  4  0
  9 12  4  0
  9 19  4  0
 10 12  4  0
 10 22  4  0
 11 20  4  0
 11 21  4  0
 12 23  1  0
 13 20  4  0
 13 29  4  0
 14 17  4  0
 14 28  4  0
 15 25  2  0
 16 27  4  0
 17 18  4  0
 20 27  1  0
 24 27  4  0
 26 28  4  0
M  END
$$$$

 Created by Python create_sdf_string function

 29 33  0  0  0  0  0  0  0  0999 V2000
    8.8270   -7.0288   18.4251 C   0  0  0  0  0  0  0  0  0  0  0  0
    9.1576   -4.6236   15.8860 O   0  0  0  0  0  0  0  0  0  0  0  0
    9.1509   -5.9108   17.7177 C   0  0  0  0  0  0  0  0  0  0  0  0
    3.6373   -9.5349   16.0582 N   0  0  0  0  0  0  0  0  0  0  0  0
    9.9275   -4.8001   18.0438 N   0  0  0  0  0  0  0  0  0  0  0  0
    8.5908   -5.7425   16.4412 C   0  0  0  0  0  0  0  0  0  0  0  0
   10.5993   -4.8981   21.6068 C   0  0  0  0  0  0  0  0  0  0  0  0
   10.4258   -3.0106   23.0998 C   0  0  0  0  0  0  0  0  0  0  0  0
   10.2148   -3.4364   25.4200 C   0  0  0  0  0  0  0  0  0  0  0  0
    9.7853   -1.1840   24.4927 C   0  0  0  0  0  0  0  0  0  0  0  0
    5.0276   -8.5227   17.5352 C   0  0  0  0  0  0  0  0  0  0  0  0
    9.8187   -2.0895   25.5800 C   0  0  0  0  0  0  0  0  0  0  0  0
    5.6473   -8.7216   15.3158 C   0  0  0  0  0  0  0  0  0  0  0  0
   10.7581   -3.1233   19.4720 N   0  0  0  0  0  0  0  0  0  0  0  0
    9.9571   -4.0573   16.8866 C   0  0  0  0  0  0  0  0  0  0  0  0
    7.6213   -6.5618   16.0087 C   0  0  0  0  0  0  0  0  0  0  0  0
   10.8583   -2.6527   20.7222 C   0  0  0  0  0  0  0  0  0  0  0  0
   10.6412   -3.5089   21.7936 C   0  0  0  0  0  0  0  0  0  0  0  0
   10.4972   -3.8968   24.1589 C   0  0  0  0  0  0  0  0  0  0  0  0
    5.9260   -8.2736   16.5517 C   0  0  0  0  0  0  0  0  0  0  0  0
    3.8816   -9.1166   17.2493 C   0  0  0  0  0  0  0  0  0  0  0  0
   10.1297   -1.6575   23.2324 C   0  0  0  0  0  0  0  0  0  0  0  0
    9.4684   -1.6929   26.7263 F   0  0  0  0  0  0  0  0  0  0  0  0
    7.7963   -7.7906   17.9837 C   0  0  0  0  0  0  0  0  0  0  0  0
   10.5884   -3.0725   16.7902 O   0  0  0  0  0  0  0  0  0  0  0  0
   10.4323   -5.3494   20.3516 C   0  0  0  0  0  0  0  0  0  0  0  0
    7.1156   -7.5454   16.8218 C   0  0  0  0  0  0  0  0  0  0  0  0
   10.3885   -4.4388   19.2773 C   0  0  0  0  0  0  0  0  0  0  0  0
    4.5160   -9.3822   15.0841 C   0  0  0  0  0  0  0  0  0  0  0  0
  1  3  4  0
  1 24  4  0
  2  6  4  0
  2 15  4  0
  3  5  4  0
  3  6  4  0
  4 21  4  0
  4 29  4  0
  5 15  4  0
  5 28  1  0
  6 16  4  0
  7 18  4  0
  7 26  4  0
  8 18  1  0
  8 19  4  0
  8 22  4  0
  9 12  4  0
  9 19  4  0
 10 12  4  0
 10 22  4  0
 11 20  4  0
 11 21  4  0
 12 23  1  0
 13 20  4  0
 13 29  4  0
 14 17  4  0
 14 28  4  0
 15 25  2  0
 16 27  4  0
 17 18  4  0
 20 27  1  0
 24 27  4  0
 26 28  4  0
M  END
$$$$

 Created by Python create_sdf_string function

 29 33  0  0  0  0  0  0  0  0999 V2000
    8.8270   -7.0288   18.4251 C   0  0  0  0  0  0  0  0  0  0  0  0
    9.1576   -4.6236   15.8860 O   0  0  0  0  0  0  0  0  0  0  0  0
    9.1509   -5.9108   17.7177 C   0  0  0  0  0  0  0  0  0  0  0  0
    3.6373   -9.5349   16.0582 N   0  0  0  0  0  0  0  0  0  0  0  0
    9.9275   -4.8001   18.0438 N   0  0  0  0  0  0  0  0  0  0  0  0
    8.5908   -5.7425   16.4412 C   0  0  0  0  0  0  0  0  0  0  0  0
   10.5993   -4.8981   21.6068 C   0  0  0  0  0  0  0  0  0  0  0  0
   10.4258   -3.0106   23.0998 C   0  0  0  0  0  0  0  0  0  0  0  0
   10.2148   -3.4364   25.4200 C   0  0  0  0  0  0  0  0  0  0  0  0
    9.7853   -1.1840   24.4927 C   0  0  0  0  0  0  0  0  0  0  0  0
    5.0276   -8.5227   17.5352 C   0  0  0  0  0  0  0  0  0  0  0  0
    9.8187   -2.0895   25.5800 C   0  0  0  0  0  0  0  0  0  0  0  0
    5.6473   -8.7216   15.3158 C   0  0  0  0  0  0  0  0  0  0  0  0
   10.7581   -3.1233   19.4720 N   0  0  0  0  0  0  0  0  0  0  0  0
    9.9571   -4.0573   16.8866 C   0  0  0  0  0  0  0  0  0  0  0  0
    7.6213   -6.5618   16.0087 C   0  0  0  0  0  0  0  0  0  0  0  0
   10.8583   -2.6527   20.7222 C   0  0  0  0  0  0  0  0  0  0  0  0
   10.6412   -3.5089   21.7936 C   0  0  0  0  0  0  0  0  0  0  0  0
   10.4972   -3.8968   24.1589 C   0  0  0  0  0  0  0  0  0  0  0  0
    5.9260   -8.2736   16.5517 C   0  0  0  0  0  0  0  0  0  0  0  0
    3.8816   -9.1166   17.2493 C   0  0  0  0  0  0  0  0  0  0  0  0
   10.1297   -1.6575   23.2324 C   0  0  0  0  0  0  0  0  0  0  0  0
    9.4684   -1.6929   26.7263 F   0  0  0  0  0  0  0  0  0  0  0  0
    7.7963   -7.7906   17.9837 C   0  0  0  0  0  0  0  0  0  0  0  0
   10.5884   -3.0725   16.7902 O   0  0  0  0  0  0  0  0  0  0  0  0
   10.4323   -5.3494   20.3516 C   0  0  0  0  0  0  0  0  0  0  0  0
    7.1156   -7.5454   16.8218 C   0  0  0  0  0  0  0  0  0  0  0  0
   10.3885   -4.4388   19.2773 C   0  0  0  0  0  0  0  0  0  0  0  0
    4.5160   -9.3822   15.0841 C   0  0  0  0  0  0  0  0  0  0  0  0
  1  3  4  0
  1 24  4  0
  2  6  4  0
  2 15  4  0
  3  5  4  0
  3  6  4  0
  4 21  4  0
  4 29  4  0
  5 15  4  0
  5 28  1  0
  6 16  4  0
  7 18  4  0
  7 26  4  0
  8 18  1  0
  8 19  4  0
  8 22  4  0
  9 12  4  0
  9 19  4  0
 10 12  4  0
 10 22  4  0
 11 20  4  0
 11 21  4  0
 12 23  1  0
 13 20  4  0
 13 29  4  0
 14 17  4  0
 14 28  4  0
 15 25  2  0
 16 27  4  0
 17 18  4  0
 20 27  1  0
 24 27  4  0
 26 28  4  0
M  END
$$$$

 Created by Python create_sdf_string function

 29 33  0  0  0  0  0  0  0  0999 V2000
    8.8270   -7.0288   18.4251 C   0  0  0  0  0  0  0  0  0  0  0  0
    9.1576   -4.6236   15.8860 O   0  0  0  0  0  0  0  0  0  0  0  0
    9.1509   -5.9108   17.7177 C   0  0  0  0  0  0  0  0  0  0  0  0
    3.6373   -9.5349   16.0582 N   0  0  0  0  0  0  0  0  0  0  0  0
    9.9275   -4.8001   18.0438 N   0  0  0  0  0  0  0  0  0  0  0  0
    8.5908   -5.7425   16.4412 C   0  0  0  0  0  0  0  0  0  0  0  0
   10.5993   -4.8981   21.6068 C   0  0  0  0  0  0  0  0  0  0  0  0
   10.4258   -3.0106   23.0998 C   0  0  0  0  0  0  0  0  0  0  0  0
   10.2148   -3.4364   25.4200 C   0  0  0  0  0  0  0  0  0  0  0  0
    9.7853   -1.1840   24.4927 C   0  0  0  0  0  0  0  0  0  0  0  0
    5.0276   -8.5227   17.5352 C   0  0  0  0  0  0  0  0  0  0  0  0
    9.8187   -2.0895   25.5800 C   0  0  0  0  0  0  0  0  0  0  0  0
    5.6473   -8.7216   15.3158 C   0  0  0  0  0  0  0  0  0  0  0  0
   10.7581   -3.1233   19.4720 N   0  0  0  0  0  0  0  0  0  0  0  0
    9.9571   -4.0573   16.8866 C   0  0  0  0  0  0  0  0  0  0  0  0
    7.6213   -6.5618   16.0087 C   0  0  0  0  0  0  0  0  0  0  0  0
   10.8583   -2.6527   20.7222 C   0  0  0  0  0  0  0  0  0  0  0  0
   10.6412   -3.5089   21.7936 C   0  0  0  0  0  0  0  0  0  0  0  0
   10.4972   -3.8968   24.1589 C   0  0  0  0  0  0  0  0  0  0  0  0
    5.9260   -8.2736   16.5517 C   0  0  0  0  0  0  0  0  0  0  0  0
    3.8816   -9.1166   17.2493 C   0  0  0  0  0  0  0  0  0  0  0  0
   10.1297   -1.6575   23.2324 C   0  0  0  0  0  0  0  0  0  0  0  0
    9.4684   -1.6929   26.7263 F   0  0  0  0  0  0  0  0  0  0  0  0
    7.7963   -7.7906   17.9837 C   0  0  0  0  0  0  0  0  0  0  0  0
   10.5884   -3.0725   16.7902 O   0  0  0  0  0  0  0  0  0  0  0  0
   10.4323   -5.3494   20.3516 C   0  0  0  0  0  0  0  0  0  0  0  0
    7.1156   -7.5454   16.8218 C   0  0  0  0  0  0  0  0  0  0  0  0
   10.3885   -4.4388   19.2773 C   0  0  0  0  0  0  0  0  0  0  0  0
    4.5160   -9.3822   15.0841 C   0  0  0  0  0  0  0  0  0  0  0  0
  1  3  4  0
  1 24  4  0
  2  6  4  0
  2 15  4  0
  3  5  4  0
  3  6  4  0
  4 21  4  0
  4 29  4  0
  5 15  4  0
  5 28  1  0
  6 16  4  0
  7 18  4  0
  7 26  4  0
  8 18  1  0
  8 19  4  0
  8 22  4  0
  9 12  4  0
  9 19  4  0
 10 12  4  0
 10 22  4  0
 11 20  4  0
 11 21  4  0
 12 23  1  0
 13 20  4  0
 13 29  4  0
 14 17  4  0
 14 28  4  0
 15 25  2  0
 16 27  4  0
 17 18  4  0
 20 27  1  0
 24 27  4  0
 26 28  4  0
M  END
$$$$

 Created by Python create_sdf_string function

 29 33  0  0  0  0  0  0  0  0999 V2000
    8.8270   -7.0288   18.4251 C   0  0  0  0  0  0  0  0  0  0  0  0
    9.1576   -4.6236   15.8860 O   0  0  0  0  0  0  0  0  0  0  0  0
    9.1509   -5.9108   17.7177 C   0  0  0  0  0  0  0  0  0  0  0  0
    3.6373   -9.5349   16.0582 N   0  0  0  0  0  0  0  0  0  0  0  0
    9.9275   -4.8001   18.0438 N   0  0  0  0  0  0  0  0  0  0  0  0
    8.5908   -5.7425   16.4412 C   0  0  0  0  0  0  0  0  0  0  0  0
   10.5993   -4.8981   21.6068 C   0  0  0  0  0  0  0  0  0  0  0  0
   10.4258   -3.0106   23.0998 C   0  0  0  0  0  0  0  0  0  0  0  0
   10.2148   -3.4364   25.4200 C   0  0  0  0  0  0  0  0  0  0  0  0
    9.7853   -1.1840   24.4927 C   0  0  0  0  0  0  0  0  0  0  0  0
    5.0276   -8.5227   17.5352 C   0  0  0  0  0  0  0  0  0  0  0  0
    9.8187   -2.0895   25.5800 C   0  0  0  0  0  0  0  0  0  0  0  0
    5.6473   -8.7216   15.3158 C   0  0  0  0  0  0  0  0  0  0  0  0
   10.7581   -3.1233   19.4720 N   0  0  0  0  0  0  0  0  0  0  0  0
    9.9571   -4.0573   16.8866 C   0  0  0  0  0  0  0  0  0  0  0  0
    7.6213   -6.5618   16.0087 C   0  0  0  0  0  0  0  0  0  0  0  0
   10.8583   -2.6527   20.7222 C   0  0  0  0  0  0  0  0  0  0  0  0
   10.6412   -3.5089   21.7936 C   0  0  0  0  0  0  0  0  0  0  0  0
   10.4972   -3.8968   24.1589 C   0  0  0  0  0  0  0  0  0  0  0  0
    5.9260   -8.2736   16.5517 C   0  0  0  0  0  0  0  0  0  0  0  0
    3.8816   -9.1166   17.2493 C   0  0  0  0  0  0  0  0  0  0  0  0
   10.1297   -1.6575   23.2324 C   0  0  0  0  0  0  0  0  0  0  0  0
    9.4684   -1.6929   26.7263 F   0  0  0  0  0  0  0  0  0  0  0  0
    7.7963   -7.7906   17.9837 C   0  0  0  0  0  0  0  0  0  0  0  0
   10.5884   -3.0725   16.7902 O   0  0  0  0  0  0  0  0  0  0  0  0
   10.4323   -5.3494   20.3516 C   0  0  0  0  0  0  0  0  0  0  0  0
    7.1156   -7.5454   16.8218 C   0  0  0  0  0  0  0  0  0  0  0  0
   10.3885   -4.4388   19.2773 C   0  0  0  0  0  0  0  0  0  0  0  0
    4.5160   -9.3822   15.0841 C   0  0  0  0  0  0  0  0  0  0  0  0
  1  3  4  0
  1 24  4  0
  2  6  4  0
  2 15  4  0
  3  5  4  0
  3  6  4  0
  4 21  4  0
  4 29  4  0
  5 15  4  0
  5 28  1  0
  6 16  4  0
  7 18  4  0
  7 26  4  0
  8 18  1  0
  8 19  4  0
  8 22  4  0
  9 12  4  0
  9 19  4  0
 10 12  4  0
 10 22  4  0
 11 20  4  0
 11 21  4  0
 12 23  1  0
 13 20  4  0
 13 29  4  0
 14 17  4  0
 14 28  4  0
 15 25  2  0
 16 27  4  0
 17 18  4  0
 20 27  1  0
 24 27  4  0
 26 28  4  0
M  END
$$$$

 Created by Python create_sdf_string function

 29 33  0  0  0  0  0  0  0  0999 V2000
    8.8270   -7.0288   18.4251 C   0  0  0  0  0  0  0  0  0  0  0  0
    9.1576   -4.6236   15.8860 O   0  0  0  0  0  0  0  0  0  0  0  0
    9.1509   -5.9108   17.7177 C   0  0  0  0  0  0  0  0  0  0  0  0
    3.6373   -9.5349   16.0582 N   0  0  0  0  0  0  0  0  0  0  0  0
    9.9275   -4.8001   18.0438 N   0  0  0  0  0  0  0  0  0  0  0  0
    8.5908   -5.7425   16.4412 C   0  0  0  0  0  0  0  0  0  0  0  0
   10.5993   -4.8981   21.6068 C   0  0  0  0  0  0  0  0  0  0  0  0
   10.4258   -3.0106   23.0998 C   0  0  0  0  0  0  0  0  0  0  0  0
   10.2148   -3.4364   25.4200 C   0  0  0  0  0  0  0  0  0  0  0  0
    9.7853   -1.1840   24.4927 C   0  0  0  0  0  0  0  0  0  0  0  0
    5.0276   -8.5227   17.5352 C   0  0  0  0  0  0  0  0  0  0  0  0
    9.8187   -2.0895   25.5800 C   0  0  0  0  0  0  0  0  0  0  0  0
    5.6473   -8.7216   15.3158 C   0  0  0  0  0  0  0  0  0  0  0  0
   10.7581   -3.1233   19.4720 N   0  0  0  0  0  0  0  0  0  0  0  0
    9.9571   -4.0573   16.8866 C   0  0  0  0  0  0  0  0  0  0  0  0
    7.6213   -6.5618   16.0087 C   0  0  0  0  0  0  0  0  0  0  0  0
   10.8583   -2.6527   20.7222 C   0  0  0  0  0  0  0  0  0  0  0  0
   10.6412   -3.5089   21.7936 C   0  0  0  0  0  0  0  0  0  0  0  0
   10.4972   -3.8968   24.1589 C   0  0  0  0  0  0  0  0  0  0  0  0
    5.9260   -8.2736   16.5517 C   0  0  0  0  0  0  0  0  0  0  0  0
    3.8816   -9.1166   17.2493 C   0  0  0  0  0  0  0  0  0  0  0  0
   10.1297   -1.6575   23.2324 C   0  0  0  0  0  0  0  0  0  0  0  0
    9.4684   -1.6929   26.7263 F   0  0  0  0  0  0  0  0  0  0  0  0
    7.7963   -7.7906   17.9837 C   0  0  0  0  0  0  0  0  0  0  0  0
   10.5884   -3.0725   16.7902 O   0  0  0  0  0  0  0  0  0  0  0  0
   10.4323   -5.3494   20.3516 C   0  0  0  0  0  0  0  0  0  0  0  0
    7.1156   -7.5454   16.8218 C   0  0  0  0  0  0  0  0  0  0  0  0
   10.3885   -4.4388   19.2773 C   0  0  0  0  0  0  0  0  0  0  0  0
    4.5160   -9.3822   15.0841 C   0  0  0  0  0  0  0  0  0  0  0  0
  1  3  4  0
  1 24  4  0
  2  6  4  0
  2 15  4  0
  3  5  4  0
  3  6  4  0
  4 21  4  0
  4 29  4  0
  5 15  4  0
  5 28  1  0
  6 16  4  0
  7 18  4  0
  7 26  4  0
  8 18  1  0
  8 19  4  0
  8 22  4  0
  9 12  4  0
  9 19  4  0
 10 12  4  0
 10 22  4  0
 11 20  4  0
 11 21  4  0
 12 23  1  0
 13 20  4  0
 13 29  4  0
 14 17  4  0
 14 28  4  0
 15 25  2  0
 16 27  4  0
 17 18  4  0
 20 27  1  0
 24 27  4  0
 26 28  4  0
M  END
$$$$

 Created by Python create_sdf_string function

 29 33  0  0  0  0  0  0  0  0999 V2000
    8.8270   -7.0288   18.4251 C   0  0  0  0  0  0  0  0  0  0  0  0
    9.1576   -4.6236   15.8860 O   0  0  0  0  0  0  0  0  0  0  0  0
    9.1509   -5.9108   17.7177 C   0  0  0  0  0  0  0  0  0  0  0  0
    3.6373   -9.5349   16.0582 N   0  0  0  0  0  0  0  0  0  0  0  0
    9.9275   -4.8001   18.0438 N   0  0  0  0  0  0  0  0  0  0  0  0
    8.5908   -5.7425   16.4412 C   0  0  0  0  0  0  0  0  0  0  0  0
   10.5993   -4.8981   21.6068 C   0  0  0  0  0  0  0  0  0  0  0  0
   10.4258   -3.0106   23.0998 C   0  0  0  0  0  0  0  0  0  0  0  0
   10.2148   -3.4364   25.4200 C   0  0  0  0  0  0  0  0  0  0  0  0
    9.7853   -1.1840   24.4927 C   0  0  0  0  0  0  0  0  0  0  0  0
    5.0276   -8.5227   17.5352 C   0  0  0  0  0  0  0  0  0  0  0  0
    9.8187   -2.0895   25.5800 C   0  0  0  0  0  0  0  0  0  0  0  0
    5.6473   -8.7216   15.3158 C   0  0  0  0  0  0  0  0  0  0  0  0
   10.7581   -3.1233   19.4720 N   0  0  0  0  0  0  0  0  0  0  0  0
    9.9571   -4.0573   16.8866 C   0  0  0  0  0  0  0  0  0  0  0  0
    7.6213   -6.5618   16.0087 C   0  0  0  0  0  0  0  0  0  0  0  0
   10.8583   -2.6527   20.7222 C   0  0  0  0  0  0  0  0  0  0  0  0
   10.6412   -3.5089   21.7936 C   0  0  0  0  0  0  0  0  0  0  0  0
   10.4972   -3.8968   24.1589 C   0  0  0  0  0  0  0  0  0  0  0  0
    5.9260   -8.2736   16.5517 C   0  0  0  0  0  0  0  0  0  0  0  0
    3.8816   -9.1166   17.2493 C   0  0  0  0  0  0  0  0  0  0  0  0
   10.1297   -1.6575   23.2324 C   0  0  0  0  0  0  0  0  0  0  0  0
    9.4684   -1.6929   26.7263 F   0  0  0  0  0  0  0  0  0  0  0  0
    7.7963   -7.7906   17.9837 C   0  0  0  0  0  0  0  0  0  0  0  0
   10.5884   -3.0725   16.7902 O   0  0  0  0  0  0  0  0  0  0  0  0
   10.4323   -5.3494   20.3516 C   0  0  0  0  0  0  0  0  0  0  0  0
    7.1156   -7.5454   16.8218 C   0  0  0  0  0  0  0  0  0  0  0  0
   10.3885   -4.4388   19.2773 C   0  0  0  0  0  0  0  0  0  0  0  0
    4.5160   -9.3822   15.0841 C   0  0  0  0  0  0  0  0  0  0  0  0
  1  3  4  0
  1 24  4  0
  2  6  4  0
  2 15  4  0
  3  5  4  0
  3  6  4  0
  4 21  4  0
  4 29  4  0
  5 15  4  0
  5 28  1  0
  6 16  4  0
  7 18  4  0
  7 26  4  0
  8 18  1  0
  8 19  4  0
  8 22  4  0
  9 12  4  0
  9 19  4  0
 10 12  4  0
 10 22  4  0
 11 20  4  0
 11 21  4  0
 12 23  1  0
 13 20  4  0
 13 29  4  0
 14 17  4  0
 14 28  4  0
 15 25  2  0
 16 27  4  0
 17 18  4  0
 20 27  1  0
 24 27  4  0
 26 28  4  0
M  END
$$$$

 Created by Python create_sdf_string function

 29 33  0  0  0  0  0  0  0  0999 V2000
    8.8270   -7.0288   18.4251 C   0  0  0  0  0  0  0  0  0  0  0  0
    9.1576   -4.6236   15.8860 O   0  0  0  0  0  0  0  0  0  0  0  0
    9.1509   -5.9108   17.7177 C   0  0  0  0  0  0  0  0  0  0  0  0
    3.6373   -9.5349   16.0582 N   0  0  0  0  0  0  0  0  0  0  0  0
    9.9275   -4.8001   18.0438 N   0  0  0  0  0  0  0  0  0  0  0  0
    8.5908   -5.7425   16.4412 C   0  0  0  0  0  0  0  0  0  0  0  0
   10.5993   -4.8981   21.6068 C   0  0  0  0  0  0  0  0  0  0  0  0
   10.4258   -3.0106   23.0998 C   0  0  0  0  0  0  0  0  0  0  0  0
   10.2148   -3.4364   25.4200 C   0  0  0  0  0  0  0  0  0  0  0  0
    9.7853   -1.1840   24.4927 C   0  0  0  0  0  0  0  0  0  0  0  0
    5.0276   -8.5227   17.5352 C   0  0  0  0  0  0  0  0  0  0  0  0
    9.8187   -2.0895   25.5800 C   0  0  0  0  0  0  0  0  0  0  0  0
    5.6473   -8.7216   15.3158 C   0  0  0  0  0  0  0  0  0  0  0  0
   10.7581   -3.1233   19.4720 N   0  0  0  0  0  0  0  0  0  0  0  0
    9.9571   -4.0573   16.8866 C   0  0  0  0  0  0  0  0  0  0  0  0
    7.6213   -6.5618   16.0087 C   0  0  0  0  0  0  0  0  0  0  0  0
   10.8583   -2.6527   20.7222 C   0  0  0  0  0  0  0  0  0  0  0  0
   10.6412   -3.5089   21.7936 C   0  0  0  0  0  0  0  0  0  0  0  0
   10.4972   -3.8968   24.1589 C   0  0  0  0  0  0  0  0  0  0  0  0
    5.9260   -8.2736   16.5517 C   0  0  0  0  0  0  0  0  0  0  0  0
    3.8816   -9.1166   17.2493 C   0  0  0  0  0  0  0  0  0  0  0  0
   10.1297   -1.6575   23.2324 C   0  0  0  0  0  0  0  0  0  0  0  0
    9.4684   -1.6929   26.7263 F   0  0  0  0  0  0  0  0  0  0  0  0
    7.7963   -7.7906   17.9837 C   0  0  0  0  0  0  0  0  0  0  0  0
   10.5884   -3.0725   16.7902 O   0  0  0  0  0  0  0  0  0  0  0  0
   10.4323   -5.3494   20.3516 C   0  0  0  0  0  0  0  0  0  0  0  0
    7.1156   -7.5454   16.8218 C   0  0  0  0  0  0  0  0  0  0  0  0
   10.3885   -4.4388   19.2773 C   0  0  0  0  0  0  0  0  0  0  0  0
    4.5160   -9.3822   15.0841 C   0  0  0  0  0  0  0  0  0  0  0  0
  1  3  4  0
  1 24  4  0
  2  6  4  0
  2 15  4  0
  3  5  4  0
  3  6  4  0
  4 21  4  0
  4 29  4  0
  5 15  4  0
  5 28  1  0
  6 16  4  0
  7 18  4  0
  7 26  4  0
  8 18  1  0
  8 19  4  0
  8 22  4  0
  9 12  4  0
  9 19  4  0
 10 12  4  0
 10 22  4  0
 11 20  4  0
 11 21  4  0
 12 23  1  0
 13 20  4  0
 13 29  4  0
 14 17  4  0
 14 28  4  0
 15 25  2  0
 16 27  4  0
 17 18  4  0
 20 27  1  0
 24 27  4  0
 26 28  4  0
M  END
$$$$

 Created by Python create_sdf_string function

 29 33  0  0  0  0  0  0  0  0999 V2000
    8.8270   -7.0288   18.4251 C   0  0  0  0  0  0  0  0  0  0  0  0
    9.1576   -4.6236   15.8860 O   0  0  0  0  0  0  0  0  0  0  0  0
    9.1509   -5.9108   17.7177 C   0  0  0  0  0  0  0  0  0  0  0  0
    3.6373   -9.5349   16.0582 N   0  0  0  0  0  0  0  0  0  0  0  0
    9.9275   -4.8001   18.0438 N   0  0  0  0  0  0  0  0  0  0  0  0
    8.5908   -5.7425   16.4412 C   0  0  0  0  0  0  0  0  0  0  0  0
   10.5993   -4.8981   21.6068 C   0  0  0  0  0  0  0  0  0  0  0  0
   10.4258   -3.0106   23.0998 C   0  0  0  0  0  0  0  0  0  0  0  0
   10.2148   -3.4364   25.4200 C   0  0  0  0  0  0  0  0  0  0  0  0
    9.7853   -1.1840   24.4927 C   0  0  0  0  0  0  0  0  0  0  0  0
    5.0276   -8.5227   17.5352 C   0  0  0  0  0  0  0  0  0  0  0  0
    9.8187   -2.0895   25.5800 C   0  0  0  0  0  0  0  0  0  0  0  0
    5.6473   -8.7216   15.3158 C   0  0  0  0  0  0  0  0  0  0  0  0
   10.7581   -3.1233   19.4720 N   0  0  0  0  0  0  0  0  0  0  0  0
    9.9571   -4.0573   16.8866 C   0  0  0  0  0  0  0  0  0  0  0  0
    7.6213   -6.5618   16.0087 C   0  0  0  0  0  0  0  0  0  0  0  0
   10.8583   -2.6527   20.7222 C   0  0  0  0  0  0  0  0  0  0  0  0
   10.6412   -3.5089   21.7936 C   0  0  0  0  0  0  0  0  0  0  0  0
   10.4972   -3.8968   24.1589 C   0  0  0  0  0  0  0  0  0  0  0  0
    5.9260   -8.2736   16.5517 C   0  0  0  0  0  0  0  0  0  0  0  0
    3.8816   -9.1166   17.2493 C   0  0  0  0  0  0  0  0  0  0  0  0
   10.1297   -1.6575   23.2324 C   0  0  0  0  0  0  0  0  0  0  0  0
    9.4684   -1.6929   26.7263 F   0  0  0  0  0  0  0  0  0  0  0  0
    7.7963   -7.7906   17.9837 C   0  0  0  0  0  0  0  0  0  0  0  0
   10.5884   -3.0725   16.7902 O   0  0  0  0  0  0  0  0  0  0  0  0
   10.4323   -5.3494   20.3516 C   0  0  0  0  0  0  0  0  0  0  0  0
    7.1156   -7.5454   16.8218 C   0  0  0  0  0  0  0  0  0  0  0  0
   10.3885   -4.4388   19.2773 C   0  0  0  0  0  0  0  0  0  0  0  0
    4.5160   -9.3822   15.0841 C   0  0  0  0  0  0  0  0  0  0  0  0
  1  3  4  0
  1 24  4  0
  2  6  4  0
  2 15  4  0
  3  5  4  0
  3  6  4  0
  4 21  4  0
  4 29  4  0
  5 15  4  0
  5 28  1  0
  6 16  4  0
  7 18  4  0
  7 26  4  0
  8 18  1  0
  8 19  4  0
  8 22  4  0
  9 12  4  0
  9 19  4  0
 10 12  4  0
 10 22  4  0
 11 20  4  0
 11 21  4  0
 12 23  1  0
 13 20  4  0
 13 29  4  0
 14 17  4  0
 14 28  4  0
 15 25  2  0
 16 27  4  0
 17 18  4  0
 20 27  1  0
 24 27  4  0
 26 28  4  0
M  END
$$$$

 Created by Python create_sdf_string function

 29 33  0  0  0  0  0  0  0  0999 V2000
    8.8270   -7.0288   18.4251 C   0  0  0  0  0  0  0  0  0  0  0  0
    9.1576   -4.6236   15.8860 O   0  0  0  0  0  0  0  0  0  0  0  0
    9.1509   -5.9108   17.7177 C   0  0  0  0  0  0  0  0  0  0  0  0
    3.6373   -9.5349   16.0582 N   0  0  0  0  0  0  0  0  0  0  0  0
    9.9275   -4.8001   18.0438 N   0  0  0  0  0  0  0  0  0  0  0  0
    8.5908   -5.7425   16.4412 C   0  0  0  0  0  0  0  0  0  0  0  0
   10.5993   -4.8981   21.6068 C   0  0  0  0  0  0  0  0  0  0  0  0
   10.4258   -3.0106   23.0998 C   0  0  0  0  0  0  0  0  0  0  0  0
   10.2148   -3.4364   25.4200 C   0  0  0  0  0  0  0  0  0  0  0  0
    9.7853   -1.1840   24.4927 C   0  0  0  0  0  0  0  0  0  0  0  0
    5.0276   -8.5227   17.5352 C   0  0  0  0  0  0  0  0  0  0  0  0
    9.8187   -2.0895   25.5800 C   0  0  0  0  0  0  0  0  0  0  0  0
    5.6473   -8.7216   15.3158 C   0  0  0  0  0  0  0  0  0  0  0  0
   10.7581   -3.1233   19.4720 N   0  0  0  0  0  0  0  0  0  0  0  0
    9.9571   -4.0573   16.8866 C   0  0  0  0  0  0  0  0  0  0  0  0
    7.6213   -6.5618   16.0087 C   0  0  0  0  0  0  0  0  0  0  0  0
   10.8583   -2.6527   20.7222 C   0  0  0  0  0  0  0  0  0  0  0  0
   10.6412   -3.5089   21.7936 C   0  0  0  0  0  0  0  0  0  0  0  0
   10.4972   -3.8968   24.1589 C   0  0  0  0  0  0  0  0  0  0  0  0
    5.9260   -8.2736   16.5517 C   0  0  0  0  0  0  0  0  0  0  0  0
    3.8816   -9.1166   17.2493 C   0  0  0  0  0  0  0  0  0  0  0  0
   10.1297   -1.6575   23.2324 C   0  0  0  0  0  0  0  0  0  0  0  0
    9.4684   -1.6929   26.7263 F   0  0  0  0  0  0  0  0  0  0  0  0
    7.7963   -7.7906   17.9837 C   0  0  0  0  0  0  0  0  0  0  0  0
   10.5884   -3.0725   16.7902 O   0  0  0  0  0  0  0  0  0  0  0  0
   10.4323   -5.3494   20.3516 C   0  0  0  0  0  0  0  0  0  0  0  0
    7.1156   -7.5454   16.8218 C   0  0  0  0  0  0  0  0  0  0  0  0
   10.3885   -4.4388   19.2773 C   0  0  0  0  0  0  0  0  0  0  0  0
    4.5160   -9.3822   15.0841 C   0  0  0  0  0  0  0  0  0  0  0  0
  1  3  4  0
  1 24  4  0
  2  6  4  0
  2 15  4  0
  3  5  4  0
  3  6  4  0
  4 21  4  0
  4 29  4  0
  5 15  4  0
  5 28  1  0
  6 16  4  0
  7 18  4  0
  7 26  4  0
  8 18  1  0
  8 19  4  0
  8 22  4  0
  9 12  4  0
  9 19  4  0
 10 12  4  0
 10 22  4  0
 11 20  4  0
 11 21  4  0
 12 23  1  0
 13 20  4  0
 13 29  4  0
 14 17  4  0
 14 28  4  0
 15 25  2  0
 16 27  4  0
 17 18  4  0
 20 27  1  0
 24 27  4  0
 26 28  4  0
M  END
$$$$

 Created by Python create_sdf_string function

 29 33  0  0  0  0  0  0  0  0999 V2000
    8.8270   -7.0288   18.4251 C   0  0  0  0  0  0  0  0  0  0  0  0
    9.1576   -4.6236   15.8860 O   0  0  0  0  0  0  0  0  0  0  0  0
    9.1509   -5.9108   17.7177 C   0  0  0  0  0  0  0  0  0  0  0  0
    3.6373   -9.5349   16.0582 N   0  0  0  0  0  0  0  0  0  0  0  0
    9.9275   -4.8001   18.0438 N   0  0  0  0  0  0  0  0  0  0  0  0
    8.5908   -5.7425   16.4412 C   0  0  0  0  0  0  0  0  0  0  0  0
   10.5993   -4.8981   21.6068 C   0  0  0  0  0  0  0  0  0  0  0  0
   10.4258   -3.0106   23.0998 C   0  0  0  0  0  0  0  0  0  0  0  0
   10.2148   -3.4364   25.4200 C   0  0  0  0  0  0  0  0  0  0  0  0
    9.7853   -1.1840   24.4927 C   0  0  0  0  0  0  0  0  0  0  0  0
    5.0276   -8.5227   17.5352 C   0  0  0  0  0  0  0  0  0  0  0  0
    9.8187   -2.0895   25.5800 C   0  0  0  0  0  0  0  0  0  0  0  0
    5.6473   -8.7216   15.3158 C   0  0  0  0  0  0  0  0  0  0  0  0
   10.7581   -3.1233   19.4720 N   0  0  0  0  0  0  0  0  0  0  0  0
    9.9571   -4.0573   16.8866 C   0  0  0  0  0  0  0  0  0  0  0  0
    7.6213   -6.5618   16.0087 C   0  0  0  0  0  0  0  0  0  0  0  0
   10.8583   -2.6527   20.7222 C   0  0  0  0  0  0  0  0  0  0  0  0
   10.6412   -3.5089   21.7936 C   0  0  0  0  0  0  0  0  0  0  0  0
   10.4972   -3.8968   24.1589 C   0  0  0  0  0  0  0  0  0  0  0  0
    5.9260   -8.2736   16.5517 C   0  0  0  0  0  0  0  0  0  0  0  0
    3.8816   -9.1166   17.2493 C   0  0  0  0  0  0  0  0  0  0  0  0
   10.1297   -1.6575   23.2324 C   0  0  0  0  0  0  0  0  0  0  0  0
    9.4684   -1.6929   26.7263 F   0  0  0  0  0  0  0  0  0  0  0  0
    7.7963   -7.7906   17.9837 C   0  0  0  0  0  0  0  0  0  0  0  0
   10.5884   -3.0725   16.7902 O   0  0  0  0  0  0  0  0  0  0  0  0
   10.4323   -5.3494   20.3516 C   0  0  0  0  0  0  0  0  0  0  0  0
    7.1156   -7.5454   16.8218 C   0  0  0  0  0  0  0  0  0  0  0  0
   10.3885   -4.4388   19.2773 C   0  0  0  0  0  0  0  0  0  0  0  0
    4.5160   -9.3822   15.0841 C   0  0  0  0  0  0  0  0  0  0  0  0
  1  3  4  0
  1 24  4  0
  2  6  4  0
  2 15  4  0
  3  5  4  0
  3  6  4  0
  4 21  4  0
  4 29  4  0
  5 15  4  0
  5 28  1  0
  6 16  4  0
  7 18  4  0
  7 26  4  0
  8 18  1  0
  8 19  4  0
  8 22  4  0
  9 12  4  0
  9 19  4  0
 10 12  4  0
 10 22  4  0
 11 20  4  0
 11 21  4  0
 12 23  1  0
 13 20  4  0
 13 29  4  0
 14 17  4  0
 14 28  4  0
 15 25  2  0
 16 27  4  0
 17 18  4  0
 20 27  1  0
 24 27  4  0
 26 28  4  0
M  END
$$$$

 Created by Python create_sdf_string function

 29 33  0  0  0  0  0  0  0  0999 V2000
    8.8270   -7.0288   18.4251 C   0  0  0  0  0  0  0  0  0  0  0  0
    9.1576   -4.6236   15.8860 O   0  0  0  0  0  0  0  0  0  0  0  0
    9.1509   -5.9108   17.7177 C   0  0  0  0  0  0  0  0  0  0  0  0
    3.6373   -9.5349   16.0582 N   0  0  0  0  0  0  0  0  0  0  0  0
    9.9275   -4.8001   18.0438 N   0  0  0  0  0  0  0  0  0  0  0  0
    8.5908   -5.7425   16.4412 C   0  0  0  0  0  0  0  0  0  0  0  0
   10.5993   -4.8981   21.6068 C   0  0  0  0  0  0  0  0  0  0  0  0
   10.4258   -3.0106   23.0998 C   0  0  0  0  0  0  0  0  0  0  0  0
   10.2148   -3.4364   25.4200 C   0  0  0  0  0  0  0  0  0  0  0  0
    9.7853   -1.1840   24.4927 C   0  0  0  0  0  0  0  0  0  0  0  0
    5.0276   -8.5227   17.5352 C   0  0  0  0  0  0  0  0  0  0  0  0
    9.8187   -2.0895   25.5800 C   0  0  0  0  0  0  0  0  0  0  0  0
    5.6473   -8.7216   15.3158 C   0  0  0  0  0  0  0  0  0  0  0  0
   10.7581   -3.1233   19.4720 N   0  0  0  0  0  0  0  0  0  0  0  0
    9.9571   -4.0573   16.8866 C   0  0  0  0  0  0  0  0  0  0  0  0
    7.6213   -6.5618   16.0087 C   0  0  0  0  0  0  0  0  0  0  0  0
   10.8583   -2.6527   20.7222 C   0  0  0  0  0  0  0  0  0  0  0  0
   10.6412   -3.5089   21.7936 C   0  0  0  0  0  0  0  0  0  0  0  0
   10.4972   -3.8968   24.1589 C   0  0  0  0  0  0  0  0  0  0  0  0
    5.9260   -8.2736   16.5517 C   0  0  0  0  0  0  0  0  0  0  0  0
    3.8816   -9.1166   17.2493 C   0  0  0  0  0  0  0  0  0  0  0  0
   10.1297   -1.6575   23.2324 C   0  0  0  0  0  0  0  0  0  0  0  0
    9.4684   -1.6929   26.7263 F   0  0  0  0  0  0  0  0  0  0  0  0
    7.7963   -7.7906   17.9837 C   0  0  0  0  0  0  0  0  0  0  0  0
   10.5884   -3.0725   16.7902 O   0  0  0  0  0  0  0  0  0  0  0  0
   10.4323   -5.3494   20.3516 C   0  0  0  0  0  0  0  0  0  0  0  0
    7.1156   -7.5454   16.8218 C   0  0  0  0  0  0  0  0  0  0  0  0
   10.3885   -4.4388   19.2773 C   0  0  0  0  0  0  0  0  0  0  0  0
    4.5160   -9.3822   15.0841 C   0  0  0  0  0  0  0  0  0  0  0  0
  1  3  4  0
  1 24  4  0
  2  6  4  0
  2 15  4  0
  3  5  4  0
  3  6  4  0
  4 21  4  0
  4 29  4  0
  5 15  4  0
  5 28  1  0
  6 16  4  0
  7 18  4  0
  7 26  4  0
  8 18  1  0
  8 19  4  0
  8 22  4  0
  9 12  4  0
  9 19  4  0
 10 12  4  0
 10 22  4  0
 11 20  4  0
 11 21  4  0
 12 23  1  0
 13 20  4  0
 13 29  4  0
 14 17  4  0
 14 28  4  0
 15 25  2  0
 16 27  4  0
 17 18  4  0
 20 27  1  0
 24 27  4  0
 26 28  4  0
M  END
$$$$

 Created by Python create_sdf_string function

 29 33  0  0  0  0  0  0  0  0999 V2000
    8.8270   -7.0288   18.4251 C   0  0  0  0  0  0  0  0  0  0  0  0
    9.1576   -4.6236   15.8860 O   0  0  0  0  0  0  0  0  0  0  0  0
    9.1509   -5.9108   17.7177 C   0  0  0  0  0  0  0  0  0  0  0  0
    3.6373   -9.5349   16.0582 N   0  0  0  0  0  0  0  0  0  0  0  0
    9.9275   -4.8001   18.0438 N   0  0  0  0  0  0  0  0  0  0  0  0
    8.5908   -5.7425   16.4412 C   0  0  0  0  0  0  0  0  0  0  0  0
   10.5993   -4.8981   21.6068 C   0  0  0  0  0  0  0  0  0  0  0  0
   10.4258   -3.0106   23.0998 C   0  0  0  0  0  0  0  0  0  0  0  0
   10.2148   -3.4364   25.4200 C   0  0  0  0  0  0  0  0  0  0  0  0
    9.7853   -1.1840   24.4927 C   0  0  0  0  0  0  0  0  0  0  0  0
    5.0276   -8.5227   17.5352 C   0  0  0  0  0  0  0  0  0  0  0  0
    9.8187   -2.0895   25.5800 C   0  0  0  0  0  0  0  0  0  0  0  0
    5.6473   -8.7216   15.3158 C   0  0  0  0  0  0  0  0  0  0  0  0
   10.7581   -3.1233   19.4720 N   0  0  0  0  0  0  0  0  0  0  0  0
    9.9571   -4.0573   16.8866 C   0  0  0  0  0  0  0  0  0  0  0  0
    7.6213   -6.5618   16.0087 C   0  0  0  0  0  0  0  0  0  0  0  0
   10.8583   -2.6527   20.7222 C   0  0  0  0  0  0  0  0  0  0  0  0
   10.6412   -3.5089   21.7936 C   0  0  0  0  0  0  0  0  0  0  0  0
   10.4972   -3.8968   24.1589 C   0  0  0  0  0  0  0  0  0  0  0  0
    5.9260   -8.2736   16.5517 C   0  0  0  0  0  0  0  0  0  0  0  0
    3.8816   -9.1166   17.2493 C   0  0  0  0  0  0  0  0  0  0  0  0
   10.1297   -1.6575   23.2324 C   0  0  0  0  0  0  0  0  0  0  0  0
    9.4684   -1.6929   26.7263 F   0  0  0  0  0  0  0  0  0  0  0  0
    7.7963   -7.7906   17.9837 C   0  0  0  0  0  0  0  0  0  0  0  0
   10.5884   -3.0725   16.7902 O   0  0  0  0  0  0  0  0  0  0  0  0
   10.4323   -5.3494   20.3516 C   0  0  0  0  0  0  0  0  0  0  0  0
    7.1156   -7.5454   16.8218 C   0  0  0  0  0  0  0  0  0  0  0  0
   10.3885   -4.4388   19.2773 C   0  0  0  0  0  0  0  0  0  0  0  0
    4.5160   -9.3822   15.0841 C   0  0  0  0  0  0  0  0  0  0  0  0
  1  3  4  0
  1 24  4  0
  2  6  4  0
  2 15  4  0
  3  5  4  0
  3  6  4  0
  4 21  4  0
  4 29  4  0
  5 15  4  0
  5 28  1  0
  6 16  4  0
  7 18  4  0
  7 26  4  0
  8 18  1  0
  8 19  4  0
  8 22  4  0
  9 12  4  0
  9 19  4  0
 10 12  4  0
 10 22  4  0
 11 20  4  0
 11 21  4  0
 12 23  1  0
 13 20  4  0
 13 29  4  0
 14 17  4  0
 14 28  4  0
 15 25  2  0
 16 27  4  0
 17 18  4  0
 20 27  1  0
 24 27  4  0
 26 28  4  0
M  END
$$$$

 Created by Python create_sdf_string function

 29 33  0  0  0  0  0  0  0  0999 V2000
    8.8270   -7.0288   18.4251 C   0  0  0  0  0  0  0  0  0  0  0  0
    9.1576   -4.6236   15.8860 O   0  0  0  0  0  0  0  0  0  0  0  0
    9.1509   -5.9108   17.7177 C   0  0  0  0  0  0  0  0  0  0  0  0
    3.6373   -9.5349   16.0582 N   0  0  0  0  0  0  0  0  0  0  0  0
    9.9275   -4.8001   18.0438 N   0  0  0  0  0  0  0  0  0  0  0  0
    8.5908   -5.7425   16.4412 C   0  0  0  0  0  0  0  0  0  0  0  0
   10.5993   -4.8981   21.6068 C   0  0  0  0  0  0  0  0  0  0  0  0
   10.4258   -3.0106   23.0998 C   0  0  0  0  0  0  0  0  0  0  0  0
   10.2148   -3.4364   25.4200 C   0  0  0  0  0  0  0  0  0  0  0  0
    9.7853   -1.1840   24.4927 C   0  0  0  0  0  0  0  0  0  0  0  0
    5.0276   -8.5227   17.5352 C   0  0  0  0  0  0  0  0  0  0  0  0
    9.8187   -2.0895   25.5800 C   0  0  0  0  0  0  0  0  0  0  0  0
    5.6473   -8.7216   15.3158 C   0  0  0  0  0  0  0  0  0  0  0  0
   10.7581   -3.1233   19.4720 N   0  0  0  0  0  0  0  0  0  0  0  0
    9.9571   -4.0573   16.8866 C   0  0  0  0  0  0  0  0  0  0  0  0
    7.6213   -6.5618   16.0087 C   0  0  0  0  0  0  0  0  0  0  0  0
   10.8583   -2.6527   20.7222 C   0  0  0  0  0  0  0  0  0  0  0  0
   10.6412   -3.5089   21.7936 C   0  0  0  0  0  0  0  0  0  0  0  0
   10.4972   -3.8968   24.1589 C   0  0  0  0  0  0  0  0  0  0  0  0
    5.9260   -8.2736   16.5517 C   0  0  0  0  0  0  0  0  0  0  0  0
    3.8816   -9.1166   17.2493 C   0  0  0  0  0  0  0  0  0  0  0  0
   10.1297   -1.6575   23.2324 C   0  0  0  0  0  0  0  0  0  0  0  0
    9.4684   -1.6929   26.7263 F   0  0  0  0  0  0  0  0  0  0  0  0
    7.7963   -7.7906   17.9837 C   0  0  0  0  0  0  0  0  0  0  0  0
   10.5884   -3.0725   16.7902 O   0  0  0  0  0  0  0  0  0  0  0  0
   10.4323   -5.3494   20.3516 C   0  0  0  0  0  0  0  0  0  0  0  0
    7.1156   -7.5454   16.8218 C   0  0  0  0  0  0  0  0  0  0  0  0
   10.3885   -4.4388   19.2773 C   0  0  0  0  0  0  0  0  0  0  0  0
    4.5160   -9.3822   15.0841 C   0  0  0  0  0  0  0  0  0  0  0  0
  1  3  4  0
  1 24  4  0
  2  6  4  0
  2 15  4  0
  3  5  4  0
  3  6  4  0
  4 21  4  0
  4 29  4  0
  5 15  4  0
  5 28  1  0
  6 16  4  0
  7 18  4  0
  7 26  4  0
  8 18  1  0
  8 19  4  0
  8 22  4  0
  9 12  4  0
  9 19  4  0
 10 12  4  0
 10 22  4  0
 11 20  4  0
 11 21  4  0
 12 23  1  0
 13 20  4  0
 13 29  4  0
 14 17  4  0
 14 28  4  0
 15 25  2  0
 16 27  4  0
 17 18  4  0
 20 27  1  0
 24 27  4  0
 26 28  4  0
M  END
$$$$

 Created by Python create_sdf_string function

 29 33  0  0  0  0  0  0  0  0999 V2000
    8.8270   -7.0288   18.4251 C   0  0  0  0  0  0  0  0  0  0  0  0
    9.1576   -4.6236   15.8860 O   0  0  0  0  0  0  0  0  0  0  0  0
    9.1509   -5.9108   17.7177 C   0  0  0  0  0  0  0  0  0  0  0  0
    3.6373   -9.5349   16.0582 N   0  0  0  0  0  0  0  0  0  0  0  0
    9.9275   -4.8001   18.0438 N   0  0  0  0  0  0  0  0  0  0  0  0
    8.5908   -5.7425   16.4412 C   0  0  0  0  0  0  0  0  0  0  0  0
   10.5993   -4.8981   21.6068 C   0  0  0  0  0  0  0  0  0  0  0  0
   10.4258   -3.0106   23.0998 C   0  0  0  0  0  0  0  0  0  0  0  0
   10.2148   -3.4364   25.4200 C   0  0  0  0  0  0  0  0  0  0  0  0
    9.7853   -1.1840   24.4927 C   0  0  0  0  0  0  0  0  0  0  0  0
    5.0276   -8.5227   17.5352 C   0  0  0  0  0  0  0  0  0  0  0  0
    9.8187   -2.0895   25.5800 C   0  0  0  0  0  0  0  0  0  0  0  0
    5.6473   -8.7216   15.3158 C   0  0  0  0  0  0  0  0  0  0  0  0
   10.7581   -3.1233   19.4720 N   0  0  0  0  0  0  0  0  0  0  0  0
    9.9571   -4.0573   16.8866 C   0  0  0  0  0  0  0  0  0  0  0  0
    7.6213   -6.5618   16.0087 C   0  0  0  0  0  0  0  0  0  0  0  0
   10.8583   -2.6527   20.7222 C   0  0  0  0  0  0  0  0  0  0  0  0
   10.6412   -3.5089   21.7936 C   0  0  0  0  0  0  0  0  0  0  0  0
   10.4972   -3.8968   24.1589 C   0  0  0  0  0  0  0  0  0  0  0  0
    5.9260   -8.2736   16.5517 C   0  0  0  0  0  0  0  0  0  0  0  0
    3.8816   -9.1166   17.2493 C   0  0  0  0  0  0  0  0  0  0  0  0
   10.1297   -1.6575   23.2324 C   0  0  0  0  0  0  0  0  0  0  0  0
    9.4684   -1.6929   26.7263 F   0  0  0  0  0  0  0  0  0  0  0  0
    7.7963   -7.7906   17.9837 C   0  0  0  0  0  0  0  0  0  0  0  0
   10.5884   -3.0725   16.7902 O   0  0  0  0  0  0  0  0  0  0  0  0
   10.4323   -5.3494   20.3516 C   0  0  0  0  0  0  0  0  0  0  0  0
    7.1156   -7.5454   16.8218 C   0  0  0  0  0  0  0  0  0  0  0  0
   10.3885   -4.4388   19.2773 C   0  0  0  0  0  0  0  0  0  0  0  0
    4.5160   -9.3822   15.0841 C   0  0  0  0  0  0  0  0  0  0  0  0
  1  3  4  0
  1 24  4  0
  2  6  4  0
  2 15  4  0
  3  5  4  0
  3  6  4  0
  4 21  4  0
  4 29  4  0
  5 15  4  0
  5 28  1  0
  6 16  4  0
  7 18  4  0
  7 26  4  0
  8 18  1  0
  8 19  4  0
  8 22  4  0
  9 12  4  0
  9 19  4  0
 10 12  4  0
 10 22  4  0
 11 20  4  0
 11 21  4  0
 12 23  1  0
 13 20  4  0
 13 29  4  0
 14 17  4  0
 14 28  4  0
 15 25  2  0
 16 27  4  0
 17 18  4  0
 20 27  1  0
 24 27  4  0
 26 28  4  0
M  END
$$$$

 Created by Python create_sdf_string function

 29 33  0  0  0  0  0  0  0  0999 V2000
    8.8270   -7.0288   18.4251 C   0  0  0  0  0  0  0  0  0  0  0  0
    9.1576   -4.6236   15.8860 O   0  0  0  0  0  0  0  0  0  0  0  0
    9.1509   -5.9108   17.7177 C   0  0  0  0  0  0  0  0  0  0  0  0
    3.6373   -9.5349   16.0582 N   0  0  0  0  0  0  0  0  0  0  0  0
    9.9275   -4.8001   18.0438 N   0  0  0  0  0  0  0  0  0  0  0  0
    8.5908   -5.7425   16.4412 C   0  0  0  0  0  0  0  0  0  0  0  0
   10.5993   -4.8981   21.6068 C   0  0  0  0  0  0  0  0  0  0  0  0
   10.4258   -3.0106   23.0998 C   0  0  0  0  0  0  0  0  0  0  0  0
   10.2148   -3.4364   25.4200 C   0  0  0  0  0  0  0  0  0  0  0  0
    9.7853   -1.1840   24.4927 C   0  0  0  0  0  0  0  0  0  0  0  0
    5.0276   -8.5227   17.5352 C   0  0  0  0  0  0  0  0  0  0  0  0
    9.8187   -2.0895   25.5800 C   0  0  0  0  0  0  0  0  0  0  0  0
    5.6473   -8.7216   15.3158 C   0  0  0  0  0  0  0  0  0  0  0  0
   10.7581   -3.1233   19.4720 N   0  0  0  0  0  0  0  0  0  0  0  0
    9.9571   -4.0573   16.8866 C   0  0  0  0  0  0  0  0  0  0  0  0
    7.6213   -6.5618   16.0087 C   0  0  0  0  0  0  0  0  0  0  0  0
   10.8583   -2.6527   20.7222 C   0  0  0  0  0  0  0  0  0  0  0  0
   10.6412   -3.5089   21.7936 C   0  0  0  0  0  0  0  0  0  0  0  0
   10.4972   -3.8968   24.1589 C   0  0  0  0  0  0  0  0  0  0  0  0
    5.9260   -8.2736   16.5517 C   0  0  0  0  0  0  0  0  0  0  0  0
    3.8816   -9.1166   17.2493 C   0  0  0  0  0  0  0  0  0  0  0  0
   10.1297   -1.6575   23.2324 C   0  0  0  0  0  0  0  0  0  0  0  0
    9.4684   -1.6929   26.7263 F   0  0  0  0  0  0  0  0  0  0  0  0
    7.7963   -7.7906   17.9837 C   0  0  0  0  0  0  0  0  0  0  0  0
   10.5884   -3.0725   16.7902 O   0  0  0  0  0  0  0  0  0  0  0  0
   10.4323   -5.3494   20.3516 C   0  0  0  0  0  0  0  0  0  0  0  0
    7.1156   -7.5454   16.8218 C   0  0  0  0  0  0  0  0  0  0  0  0
   10.3885   -4.4388   19.2773 C   0  0  0  0  0  0  0  0  0  0  0  0
    4.5160   -9.3822   15.0841 C   0  0  0  0  0  0  0  0  0  0  0  0
  1  3  4  0
  1 24  4  0
  2  6  4  0
  2 15  4  0
  3  5  4  0
  3  6  4  0
  4 21  4  0
  4 29  4  0
  5 15  4  0
  5 28  1  0
  6 16  4  0
  7 18  4  0
  7 26  4  0
  8 18  1  0
  8 19  4  0
  8 22  4  0
  9 12  4  0
  9 19  4  0
 10 12  4  0
 10 22  4  0
 11 20  4  0
 11 21  4  0
 12 23  1  0
 13 20  4  0
 13 29  4  0
 14 17  4  0
 14 28  4  0
 15 25  2  0
 16 27  4  0
 17 18  4  0
 20 27  1  0
 24 27  4  0
 26 28  4  0
M  END
$$$$

 Created by Python create_sdf_string function

 29 33  0  0  0  0  0  0  0  0999 V2000
    8.8270   -7.0288   18.4251 C   0  0  0  0  0  0  0  0  0  0  0  0
    9.1576   -4.6236   15.8860 O   0  0  0  0  0  0  0  0  0  0  0  0
    9.1509   -5.9108   17.7177 C   0  0  0  0  0  0  0  0  0  0  0  0
    3.6373   -9.5349   16.0582 N   0  0  0  0  0  0  0  0  0  0  0  0
    9.9275   -4.8001   18.0438 N   0  0  0  0  0  0  0  0  0  0  0  0
    8.5908   -5.7425   16.4412 C   0  0  0  0  0  0  0  0  0  0  0  0
   10.5993   -4.8981   21.6068 C   0  0  0  0  0  0  0  0  0  0  0  0
   10.4258   -3.0106   23.0998 C   0  0  0  0  0  0  0  0  0  0  0  0
   10.2148   -3.4364   25.4200 C   0  0  0  0  0  0  0  0  0  0  0  0
    9.7853   -1.1840   24.4927 C   0  0  0  0  0  0  0  0  0  0  0  0
    5.0276   -8.5227   17.5352 C   0  0  0  0  0  0  0  0  0  0  0  0
    9.8187   -2.0895   25.5800 C   0  0  0  0  0  0  0  0  0  0  0  0
    5.6473   -8.7216   15.3158 C   0  0  0  0  0  0  0  0  0  0  0  0
   10.7581   -3.1233   19.4720 N   0  0  0  0  0  0  0  0  0  0  0  0
    9.9571   -4.0573   16.8866 C   0  0  0  0  0  0  0  0  0  0  0  0
    7.6213   -6.5618   16.0087 C   0  0  0  0  0  0  0  0  0  0  0  0
   10.8583   -2.6527   20.7222 C   0  0  0  0  0  0  0  0  0  0  0  0
   10.6412   -3.5089   21.7936 C   0  0  0  0  0  0  0  0  0  0  0  0
   10.4972   -3.8968   24.1589 C   0  0  0  0  0  0  0  0  0  0  0  0
    5.9260   -8.2736   16.5517 C   0  0  0  0  0  0  0  0  0  0  0  0
    3.8816   -9.1166   17.2493 C   0  0  0  0  0  0  0  0  0  0  0  0
   10.1297   -1.6575   23.2324 C   0  0  0  0  0  0  0  0  0  0  0  0
    9.4684   -1.6929   26.7263 F   0  0  0  0  0  0  0  0  0  0  0  0
    7.7963   -7.7906   17.9837 C   0  0  0  0  0  0  0  0  0  0  0  0
   10.5884   -3.0725   16.7902 O   0  0  0  0  0  0  0  0  0  0  0  0
   10.4323   -5.3494   20.3516 C   0  0  0  0  0  0  0  0  0  0  0  0
    7.1156   -7.5454   16.8218 C   0  0  0  0  0  0  0  0  0  0  0  0
   10.3885   -4.4388   19.2773 C   0  0  0  0  0  0  0  0  0  0  0  0
    4.5160   -9.3822   15.0841 C   0  0  0  0  0  0  0  0  0  0  0  0
  1  3  4  0
  1 24  4  0
  2  6  4  0
  2 15  4  0
  3  5  4  0
  3  6  4  0
  4 21  4  0
  4 29  4  0
  5 15  4  0
  5 28  1  0
  6 16  4  0
  7 18  4  0
  7 26  4  0
  8 18  1  0
  8 19  4  0
  8 22  4  0
  9 12  4  0
  9 19  4  0
 10 12  4  0
 10 22  4  0
 11 20  4  0
 11 21  4  0
 12 23  1  0
 13 20  4  0
 13 29  4  0
 14 17  4  0
 14 28  4  0
 15 25  2  0
 16 27  4  0
 17 18  4  0
 20 27  1  0
 24 27  4  0
 26 28  4  0
M  END
$$$$

 Created by Python create_sdf_string function

 29 33  0  0  0  0  0  0  0  0999 V2000
    8.8270   -7.0288   18.4251 C   0  0  0  0  0  0  0  0  0  0  0  0
    9.1576   -4.6236   15.8860 O   0  0  0  0  0  0  0  0  0  0  0  0
    9.1509   -5.9108   17.7177 C   0  0  0  0  0  0  0  0  0  0  0  0
    3.6373   -9.5349   16.0582 N   0  0  0  0  0  0  0  0  0  0  0  0
    9.9275   -4.8001   18.0438 N   0  0  0  0  0  0  0  0  0  0  0  0
    8.5908   -5.7425   16.4412 C   0  0  0  0  0  0  0  0  0  0  0  0
   10.5993   -4.8981   21.6068 C   0  0  0  0  0  0  0  0  0  0  0  0
   10.4258   -3.0106   23.0998 C   0  0  0  0  0  0  0  0  0  0  0  0
   10.2148   -3.4364   25.4200 C   0  0  0  0  0  0  0  0  0  0  0  0
    9.7853   -1.1840   24.4927 C   0  0  0  0  0  0  0  0  0  0  0  0
    5.0276   -8.5227   17.5352 C   0  0  0  0  0  0  0  0  0  0  0  0
    9.8187   -2.0895   25.5800 C   0  0  0  0  0  0  0  0  0  0  0  0
    5.6473   -8.7216   15.3158 C   0  0  0  0  0  0  0  0  0  0  0  0
   10.7581   -3.1233   19.4720 N   0  0  0  0  0  0  0  0  0  0  0  0
    9.9571   -4.0573   16.8866 C   0  0  0  0  0  0  0  0  0  0  0  0
    7.6213   -6.5618   16.0087 C   0  0  0  0  0  0  0  0  0  0  0  0
   10.8583   -2.6527   20.7222 C   0  0  0  0  0  0  0  0  0  0  0  0
   10.6412   -3.5089   21.7936 C   0  0  0  0  0  0  0  0  0  0  0  0
   10.4972   -3.8968   24.1589 C   0  0  0  0  0  0  0  0  0  0  0  0
    5.9260   -8.2736   16.5517 C   0  0  0  0  0  0  0  0  0  0  0  0
    3.8816   -9.1166   17.2493 C   0  0  0  0  0  0  0  0  0  0  0  0
   10.1297   -1.6575   23.2324 C   0  0  0  0  0  0  0  0  0  0  0  0
    9.4684   -1.6929   26.7263 F   0  0  0  0  0  0  0  0  0  0  0  0
    7.7963   -7.7906   17.9837 C   0  0  0  0  0  0  0  0  0  0  0  0
   10.5884   -3.0725   16.7902 O   0  0  0  0  0  0  0  0  0  0  0  0
   10.4323   -5.3494   20.3516 C   0  0  0  0  0  0  0  0  0  0  0  0
    7.1156   -7.5454   16.8218 C   0  0  0  0  0  0  0  0  0  0  0  0
   10.3885   -4.4388   19.2773 C   0  0  0  0  0  0  0  0  0  0  0  0
    4.5160   -9.3822   15.0841 C   0  0  0  0  0  0  0  0  0  0  0  0
  1  3  4  0
  1 24  4  0
  2  6  4  0
  2 15  4  0
  3  5  4  0
  3  6  4  0
  4 21  4  0
  4 29  4  0
  5 15  4  0
  5 28  1  0
  6 16  4  0
  7 18  4  0
  7 26  4  0
  8 18  1  0
  8 19  4  0
  8 22  4  0
  9 12  4  0
  9 19  4  0
 10 12  4  0
 10 22  4  0
 11 20  4  0
 11 21  4  0
 12 23  1  0
 13 20  4  0
 13 29  4  0
 14 17  4  0
 14 28  4  0
 15 25  2  0
 16 27  4  0
 17 18  4  0
 20 27  1  0
 24 27  4  0
 26 28  4  0
M  END
$$$$

 Created by Python create_sdf_string function

 29 33  0  0  0  0  0  0  0  0999 V2000
    8.8270   -7.0288   18.4251 C   0  0  0  0  0  0  0  0  0  0  0  0
    9.1576   -4.6236   15.8860 O   0  0  0  0  0  0  0  0  0  0  0  0
    9.1509   -5.9108   17.7177 C   0  0  0  0  0  0  0  0  0  0  0  0
    3.6373   -9.5349   16.0582 N   0  0  0  0  0  0  0  0  0  0  0  0
    9.9275   -4.8001   18.0438 N   0  0  0  0  0  0  0  0  0  0  0  0
    8.5908   -5.7425   16.4412 C   0  0  0  0  0  0  0  0  0  0  0  0
   10.5993   -4.8981   21.6068 C   0  0  0  0  0  0  0  0  0  0  0  0
   10.4258   -3.0106   23.0998 C   0  0  0  0  0  0  0  0  0  0  0  0
   10.2148   -3.4364   25.4200 C   0  0  0  0  0  0  0  0  0  0  0  0
    9.7853   -1.1840   24.4927 C   0  0  0  0  0  0  0  0  0  0  0  0
    5.0276   -8.5227   17.5352 C   0  0  0  0  0  0  0  0  0  0  0  0
    9.8187   -2.0895   25.5800 C   0  0  0  0  0  0  0  0  0  0  0  0
    5.6473   -8.7216   15.3158 C   0  0  0  0  0  0  0  0  0  0  0  0
   10.7581   -3.1233   19.4720 N   0  0  0  0  0  0  0  0  0  0  0  0
    9.9571   -4.0573   16.8866 C   0  0  0  0  0  0  0  0  0  0  0  0
    7.6213   -6.5618   16.0087 C   0  0  0  0  0  0  0  0  0  0  0  0
   10.8583   -2.6527   20.7222 C   0  0  0  0  0  0  0  0  0  0  0  0
   10.6412   -3.5089   21.7936 C   0  0  0  0  0  0  0  0  0  0  0  0
   10.4972   -3.8968   24.1589 C   0  0  0  0  0  0  0  0  0  0  0  0
    5.9260   -8.2736   16.5517 C   0  0  0  0  0  0  0  0  0  0  0  0
    3.8816   -9.1166   17.2493 C   0  0  0  0  0  0  0  0  0  0  0  0
   10.1297   -1.6575   23.2324 C   0  0  0  0  0  0  0  0  0  0  0  0
    9.4684   -1.6929   26.7263 F   0  0  0  0  0  0  0  0  0  0  0  0
    7.7963   -7.7906   17.9837 C   0  0  0  0  0  0  0  0  0  0  0  0
   10.5884   -3.0725   16.7902 O   0  0  0  0  0  0  0  0  0  0  0  0
   10.4323   -5.3494   20.3516 C   0  0  0  0  0  0  0  0  0  0  0  0
    7.1156   -7.5454   16.8218 C   0  0  0  0  0  0  0  0  0  0  0  0
   10.3885   -4.4388   19.2773 C   0  0  0  0  0  0  0  0  0  0  0  0
    4.5160   -9.3822   15.0841 C   0  0  0  0  0  0  0  0  0  0  0  0
  1  3  4  0
  1 24  4  0
  2  6  4  0
  2 15  4  0
  3  5  4  0
  3  6  4  0
  4 21  4  0
  4 29  4  0
  5 15  4  0
  5 28  1  0
  6 16  4  0
  7 18  4  0
  7 26  4  0
  8 18  1  0
  8 19  4  0
  8 22  4  0
  9 12  4  0
  9 19  4  0
 10 12  4  0
 10 22  4  0
 11 20  4  0
 11 21  4  0
 12 23  1  0
 13 20  4  0
 13 29  4  0
 14 17  4  0
 14 28  4  0
 15 25  2  0
 16 27  4  0
 17 18  4  0
 20 27  1  0
 24 27  4  0
 26 28  4  0
M  END
$$$$

 Created by Python create_sdf_string function

 29 33  0  0  0  0  0  0  0  0999 V2000
    8.8270   -7.0288   18.4251 C   0  0  0  0  0  0  0  0  0  0  0  0
    9.1576   -4.6236   15.8860 O   0  0  0  0  0  0  0  0  0  0  0  0
    9.1509   -5.9108   17.7177 C   0  0  0  0  0  0  0  0  0  0  0  0
    3.6373   -9.5349   16.0582 N   0  0  0  0  0  0  0  0  0  0  0  0
    9.9275   -4.8001   18.0438 N   0  0  0  0  0  0  0  0  0  0  0  0
    8.5908   -5.7425   16.4412 C   0  0  0  0  0  0  0  0  0  0  0  0
   10.5993   -4.8981   21.6068 C   0  0  0  0  0  0  0  0  0  0  0  0
   10.4258   -3.0106   23.0998 C   0  0  0  0  0  0  0  0  0  0  0  0
   10.2148   -3.4364   25.4200 C   0  0  0  0  0  0  0  0  0  0  0  0
    9.7853   -1.1840   24.4927 C   0  0  0  0  0  0  0  0  0  0  0  0
    5.0276   -8.5227   17.5352 C   0  0  0  0  0  0  0  0  0  0  0  0
    9.8187   -2.0895   25.5800 C   0  0  0  0  0  0  0  0  0  0  0  0
    5.6473   -8.7216   15.3158 C   0  0  0  0  0  0  0  0  0  0  0  0
   10.7581   -3.1233   19.4720 N   0  0  0  0  0  0  0  0  0  0  0  0
    9.9571   -4.0573   16.8866 C   0  0  0  0  0  0  0  0  0  0  0  0
    7.6213   -6.5618   16.0087 C   0  0  0  0  0  0  0  0  0  0  0  0
   10.8583   -2.6527   20.7222 C   0  0  0  0  0  0  0  0  0  0  0  0
   10.6412   -3.5089   21.7936 C   0  0  0  0  0  0  0  0  0  0  0  0
   10.4972   -3.8968   24.1589 C   0  0  0  0  0  0  0  0  0  0  0  0
    5.9260   -8.2736   16.5517 C   0  0  0  0  0  0  0  0  0  0  0  0
    3.8816   -9.1166   17.2493 C   0  0  0  0  0  0  0  0  0  0  0  0
   10.1297   -1.6575   23.2324 C   0  0  0  0  0  0  0  0  0  0  0  0
    9.4684   -1.6929   26.7263 F   0  0  0  0  0  0  0  0  0  0  0  0
    7.7963   -7.7906   17.9837 C   0  0  0  0  0  0  0  0  0  0  0  0
   10.5884   -3.0725   16.7902 O   0  0  0  0  0  0  0  0  0  0  0  0
   10.4323   -5.3494   20.3516 C   0  0  0  0  0  0  0  0  0  0  0  0
    7.1156   -7.5454   16.8218 C   0  0  0  0  0  0  0  0  0  0  0  0
   10.3885   -4.4388   19.2773 C   0  0  0  0  0  0  0  0  0  0  0  0
    4.5160   -9.3822   15.0841 C   0  0  0  0  0  0  0  0  0  0  0  0
  1  3  4  0
  1 24  4  0
  2  6  4  0
  2 15  4  0
  3  5  4  0
  3  6  4  0
  4 21  4  0
  4 29  4  0
  5 15  4  0
  5 28  1  0
  6 16  4  0
  7 18  4  0
  7 26  4  0
  8 18  1  0
  8 19  4  0
  8 22  4  0
  9 12  4  0
  9 19  4  0
 10 12  4  0
 10 22  4  0
 11 20  4  0
 11 21  4  0
 12 23  1  0
 13 20  4  0
 13 29  4  0
 14 17  4  0
 14 28  4  0
 15 25  2  0
 16 27  4  0
 17 18  4  0
 20 27  1  0
 24 27  4  0
 26 28  4  0
M  END
$$$$

 Created by Python create_sdf_string function

 29 33  0  0  0  0  0  0  0  0999 V2000
    8.8270   -7.0288   18.4251 C   0  0  0  0  0  0  0  0  0  0  0  0
    9.1576   -4.6236   15.8860 O   0  0  0  0  0  0  0  0  0  0  0  0
    9.1509   -5.9108   17.7177 C   0  0  0  0  0  0  0  0  0  0  0  0
    3.6373   -9.5349   16.0582 N   0  0  0  0  0  0  0  0  0  0  0  0
    9.9275   -4.8001   18.0438 N   0  0  0  0  0  0  0  0  0  0  0  0
    8.5908   -5.7425   16.4412 C   0  0  0  0  0  0  0  0  0  0  0  0
   10.5993   -4.8981   21.6068 C   0  0  0  0  0  0  0  0  0  0  0  0
   10.4258   -3.0106   23.0998 C   0  0  0  0  0  0  0  0  0  0  0  0
   10.2148   -3.4364   25.4200 C   0  0  0  0  0  0  0  0  0  0  0  0
    9.7853   -1.1840   24.4927 C   0  0  0  0  0  0  0  0  0  0  0  0
    5.0276   -8.5227   17.5352 C   0  0  0  0  0  0  0  0  0  0  0  0
    9.8187   -2.0895   25.5800 C   0  0  0  0  0  0  0  0  0  0  0  0
    5.6473   -8.7216   15.3158 C   0  0  0  0  0  0  0  0  0  0  0  0
   10.7581   -3.1233   19.4720 N   0  0  0  0  0  0  0  0  0  0  0  0
    9.9571   -4.0573   16.8866 C   0  0  0  0  0  0  0  0  0  0  0  0
    7.6213   -6.5618   16.0087 C   0  0  0  0  0  0  0  0  0  0  0  0
   10.8583   -2.6527   20.7222 C   0  0  0  0  0  0  0  0  0  0  0  0
   10.6412   -3.5089   21.7936 C   0  0  0  0  0  0  0  0  0  0  0  0
   10.4972   -3.8968   24.1589 C   0  0  0  0  0  0  0  0  0  0  0  0
    5.9260   -8.2736   16.5517 C   0  0  0  0  0  0  0  0  0  0  0  0
    3.8816   -9.1166   17.2493 C   0  0  0  0  0  0  0  0  0  0  0  0
   10.1297   -1.6575   23.2324 C   0  0  0  0  0  0  0  0  0  0  0  0
    9.4684   -1.6929   26.7263 F   0  0  0  0  0  0  0  0  0  0  0  0
    7.7963   -7.7906   17.9837 C   0  0  0  0  0  0  0  0  0  0  0  0
   10.5884   -3.0725   16.7902 O   0  0  0  0  0  0  0  0  0  0  0  0
   10.4323   -5.3494   20.3516 C   0  0  0  0  0  0  0  0  0  0  0  0
    7.1156   -7.5454   16.8218 C   0  0  0  0  0  0  0  0  0  0  0  0
   10.3885   -4.4388   19.2773 C   0  0  0  0  0  0  0  0  0  0  0  0
    4.5160   -9.3822   15.0841 C   0  0  0  0  0  0  0  0  0  0  0  0
  1  3  4  0
  1 24  4  0
  2  6  4  0
  2 15  4  0
  3  5  4  0
  3  6  4  0
  4 21  4  0
  4 29  4  0
  5 15  4  0
  5 28  1  0
  6 16  4  0
  7 18  4  0
  7 26  4  0
  8 18  1  0
  8 19  4  0
  8 22  4  0
  9 12  4  0
  9 19  4  0
 10 12  4  0
 10 22  4  0
 11 20  4  0
 11 21  4  0
 12 23  1  0
 13 20  4  0
 13 29  4  0
 14 17  4  0
 14 28  4  0
 15 25  2  0
 16 27  4  0
 17 18  4  0
 20 27  1  0
 24 27  4  0
 26 28  4  0
M  END
$$$$

 Created by Python create_sdf_string function

 29 33  0  0  0  0  0  0  0  0999 V2000
    8.8270   -7.0288   18.4251 C   0  0  0  0  0  0  0  0  0  0  0  0
    9.1576   -4.6236   15.8860 O   0  0  0  0  0  0  0  0  0  0  0  0
    9.1509   -5.9108   17.7177 C   0  0  0  0  0  0  0  0  0  0  0  0
    3.6373   -9.5349   16.0582 N   0  0  0  0  0  0  0  0  0  0  0  0
    9.9275   -4.8001   18.0438 N   0  0  0  0  0  0  0  0  0  0  0  0
    8.5908   -5.7425   16.4412 C   0  0  0  0  0  0  0  0  0  0  0  0
   10.5993   -4.8981   21.6068 C   0  0  0  0  0  0  0  0  0  0  0  0
   10.4258   -3.0106   23.0998 C   0  0  0  0  0  0  0  0  0  0  0  0
   10.2148   -3.4364   25.4200 C   0  0  0  0  0  0  0  0  0  0  0  0
    9.7853   -1.1840   24.4927 C   0  0  0  0  0  0  0  0  0  0  0  0
    5.0276   -8.5227   17.5352 C   0  0  0  0  0  0  0  0  0  0  0  0
    9.8187   -2.0895   25.5800 C   0  0  0  0  0  0  0  0  0  0  0  0
    5.6473   -8.7216   15.3158 C   0  0  0  0  0  0  0  0  0  0  0  0
   10.7581   -3.1233   19.4720 N   0  0  0  0  0  0  0  0  0  0  0  0
    9.9571   -4.0573   16.8866 C   0  0  0  0  0  0  0  0  0  0  0  0
    7.6213   -6.5618   16.0087 C   0  0  0  0  0  0  0  0  0  0  0  0
   10.8583   -2.6527   20.7222 C   0  0  0  0  0  0  0  0  0  0  0  0
   10.6412   -3.5089   21.7936 C   0  0  0  0  0  0  0  0  0  0  0  0
   10.4972   -3.8968   24.1589 C   0  0  0  0  0  0  0  0  0  0  0  0
    5.9260   -8.2736   16.5517 C   0  0  0  0  0  0  0  0  0  0  0  0
    3.8816   -9.1166   17.2493 C   0  0  0  0  0  0  0  0  0  0  0  0
   10.1297   -1.6575   23.2324 C   0  0  0  0  0  0  0  0  0  0  0  0
    9.4684   -1.6929   26.7263 F   0  0  0  0  0  0  0  0  0  0  0  0
    7.7963   -7.7906   17.9837 C   0  0  0  0  0  0  0  0  0  0  0  0
   10.5884   -3.0725   16.7902 O   0  0  0  0  0  0  0  0  0  0  0  0
   10.4323   -5.3494   20.3516 C   0  0  0  0  0  0  0  0  0  0  0  0
    7.1156   -7.5454   16.8218 C   0  0  0  0  0  0  0  0  0  0  0  0
   10.3885   -4.4388   19.2773 C   0  0  0  0  0  0  0  0  0  0  0  0
    4.5160   -9.3822   15.0841 C   0  0  0  0  0  0  0  0  0  0  0  0
  1  3  4  0
  1 24  4  0
  2  6  4  0
  2 15  4  0
  3  5  4  0
  3  6  4  0
  4 21  4  0
  4 29  4  0
  5 15  4  0
  5 28  1  0
  6 16  4  0
  7 18  4  0
  7 26  4  0
  8 18  1  0
  8 19  4  0
  8 22  4  0
  9 12  4  0
  9 19  4  0
 10 12  4  0
 10 22  4  0
 11 20  4  0
 11 21  4  0
 12 23  1  0
 13 20  4  0
 13 29  4  0
 14 17  4  0
 14 28  4  0
 15 25  2  0
 16 27  4  0
 17 18  4  0
 20 27  1  0
 24 27  4  0
 26 28  4  0
M  END
$$$$

 Created by Python create_sdf_string function

 29 33  0  0  0  0  0  0  0  0999 V2000
    8.8270   -7.0288   18.4251 C   0  0  0  0  0  0  0  0  0  0  0  0
    9.1576   -4.6236   15.8860 O   0  0  0  0  0  0  0  0  0  0  0  0
    9.1509   -5.9108   17.7177 C   0  0  0  0  0  0  0  0  0  0  0  0
    3.6373   -9.5349   16.0582 N   0  0  0  0  0  0  0  0  0  0  0  0
    9.9275   -4.8001   18.0438 N   0  0  0  0  0  0  0  0  0  0  0  0
    8.5908   -5.7425   16.4412 C   0  0  0  0  0  0  0  0  0  0  0  0
   10.5993   -4.8981   21.6068 C   0  0  0  0  0  0  0  0  0  0  0  0
   10.4258   -3.0106   23.0998 C   0  0  0  0  0  0  0  0  0  0  0  0
   10.2148   -3.4364   25.4200 C   0  0  0  0  0  0  0  0  0  0  0  0
    9.7853   -1.1840   24.4927 C   0  0  0  0  0  0  0  0  0  0  0  0
    5.0276   -8.5227   17.5352 C   0  0  0  0  0  0  0  0  0  0  0  0
    9.8187   -2.0895   25.5800 C   0  0  0  0  0  0  0  0  0  0  0  0
    5.6473   -8.7216   15.3158 C   0  0  0  0  0  0  0  0  0  0  0  0
   10.7581   -3.1233   19.4720 N   0  0  0  0  0  0  0  0  0  0  0  0
    9.9571   -4.0573   16.8866 C   0  0  0  0  0  0  0  0  0  0  0  0
    7.6213   -6.5618   16.0087 C   0  0  0  0  0  0  0  0  0  0  0  0
   10.8583   -2.6527   20.7222 C   0  0  0  0  0  0  0  0  0  0  0  0
   10.6412   -3.5089   21.7936 C   0  0  0  0  0  0  0  0  0  0  0  0
   10.4972   -3.8968   24.1589 C   0  0  0  0  0  0  0  0  0  0  0  0
    5.9260   -8.2736   16.5517 C   0  0  0  0  0  0  0  0  0  0  0  0
    3.8816   -9.1166   17.2493 C   0  0  0  0  0  0  0  0  0  0  0  0
   10.1297   -1.6575   23.2324 C   0  0  0  0  0  0  0  0  0  0  0  0
    9.4684   -1.6929   26.7263 F   0  0  0  0  0  0  0  0  0  0  0  0
    7.7963   -7.7906   17.9837 C   0  0  0  0  0  0  0  0  0  0  0  0
   10.5884   -3.0725   16.7902 O   0  0  0  0  0  0  0  0  0  0  0  0
   10.4323   -5.3494   20.3516 C   0  0  0  0  0  0  0  0  0  0  0  0
    7.1156   -7.5454   16.8218 C   0  0  0  0  0  0  0  0  0  0  0  0
   10.3885   -4.4388   19.2773 C   0  0  0  0  0  0  0  0  0  0  0  0
    4.5160   -9.3822   15.0841 C   0  0  0  0  0  0  0  0  0  0  0  0
  1  3  4  0
  1 24  4  0
  2  6  4  0
  2 15  4  0
  3  5  4  0
  3  6  4  0
  4 21  4  0
  4 29  4  0
  5 15  4  0
  5 28  1  0
  6 16  4  0
  7 18  4  0
  7 26  4  0
  8 18  1  0
  8 19  4  0
  8 22  4  0
  9 12  4  0
  9 19  4  0
 10 12  4  0
 10 22  4  0
 11 20  4  0
 11 21  4  0
 12 23  1  0
 13 20  4  0
 13 29  4  0
 14 17  4  0
 14 28  4  0
 15 25  2  0
 16 27  4  0
 17 18  4  0
 20 27  1  0
 24 27  4  0
 26 28  4  0
M  END
$$$$

 Created by Python create_sdf_string function

 29 33  0  0  0  0  0  0  0  0999 V2000
    8.8270   -7.0288   18.4251 C   0  0  0  0  0  0  0  0  0  0  0  0
    9.1576   -4.6236   15.8860 O   0  0  0  0  0  0  0  0  0  0  0  0
    9.1509   -5.9108   17.7177 C   0  0  0  0  0  0  0  0  0  0  0  0
    3.6373   -9.5349   16.0582 N   0  0  0  0  0  0  0  0  0  0  0  0
    9.9275   -4.8001   18.0438 N   0  0  0  0  0  0  0  0  0  0  0  0
    8.5908   -5.7425   16.4412 C   0  0  0  0  0  0  0  0  0  0  0  0
   10.5993   -4.8981   21.6068 C   0  0  0  0  0  0  0  0  0  0  0  0
   10.4258   -3.0106   23.0998 C   0  0  0  0  0  0  0  0  0  0  0  0
   10.2148   -3.4364   25.4200 C   0  0  0  0  0  0  0  0  0  0  0  0
    9.7853   -1.1840   24.4927 C   0  0  0  0  0  0  0  0  0  0  0  0
    5.0276   -8.5227   17.5352 C   0  0  0  0  0  0  0  0  0  0  0  0
    9.8187   -2.0895   25.5800 C   0  0  0  0  0  0  0  0  0  0  0  0
    5.6473   -8.7216   15.3158 C   0  0  0  0  0  0  0  0  0  0  0  0
   10.7581   -3.1233   19.4720 N   0  0  0  0  0  0  0  0  0  0  0  0
    9.9571   -4.0573   16.8866 C   0  0  0  0  0  0  0  0  0  0  0  0
    7.6213   -6.5618   16.0087 C   0  0  0  0  0  0  0  0  0  0  0  0
   10.8583   -2.6527   20.7222 C   0  0  0  0  0  0  0  0  0  0  0  0
   10.6412   -3.5089   21.7936 C   0  0  0  0  0  0  0  0  0  0  0  0
   10.4972   -3.8968   24.1589 C   0  0  0  0  0  0  0  0  0  0  0  0
    5.9260   -8.2736   16.5517 C   0  0  0  0  0  0  0  0  0  0  0  0
    3.8816   -9.1166   17.2493 C   0  0  0  0  0  0  0  0  0  0  0  0
   10.1297   -1.6575   23.2324 C   0  0  0  0  0  0  0  0  0  0  0  0
    9.4684   -1.6929   26.7263 F   0  0  0  0  0  0  0  0  0  0  0  0
    7.7963   -7.7906   17.9837 C   0  0  0  0  0  0  0  0  0  0  0  0
   10.5884   -3.0725   16.7902 O   0  0  0  0  0  0  0  0  0  0  0  0
   10.4323   -5.3494   20.3516 C   0  0  0  0  0  0  0  0  0  0  0  0
    7.1156   -7.5454   16.8218 C   0  0  0  0  0  0  0  0  0  0  0  0
   10.3885   -4.4388   19.2773 C   0  0  0  0  0  0  0  0  0  0  0  0
    4.5160   -9.3822   15.0841 C   0  0  0  0  0  0  0  0  0  0  0  0
  1  3  4  0
  1 24  4  0
  2  6  4  0
  2 15  4  0
  3  5  4  0
  3  6  4  0
  4 21  4  0
  4 29  4  0
  5 15  4  0
  5 28  1  0
  6 16  4  0
  7 18  4  0
  7 26  4  0
  8 18  1  0
  8 19  4  0
  8 22  4  0
  9 12  4  0
  9 19  4  0
 10 12  4  0
 10 22  4  0
 11 20  4  0
 11 21  4  0
 12 23  1  0
 13 20  4  0
 13 29  4  0
 14 17  4  0
 14 28  4  0
 15 25  2  0
 16 27  4  0
 17 18  4  0
 20 27  1  0
 24 27  4  0
 26 28  4  0
M  END
$$$$

 Created by Python create_sdf_string function

 29 33  0  0  0  0  0  0  0  0999 V2000
    8.8270   -7.0288   18.4251 C   0  0  0  0  0  0  0  0  0  0  0  0
    9.1576   -4.6236   15.8860 O   0  0  0  0  0  0  0  0  0  0  0  0
    9.1509   -5.9108   17.7177 C   0  0  0  0  0  0  0  0  0  0  0  0
    3.6373   -9.5349   16.0582 N   0  0  0  0  0  0  0  0  0  0  0  0
    9.9275   -4.8001   18.0438 N   0  0  0  0  0  0  0  0  0  0  0  0
    8.5908   -5.7425   16.4412 C   0  0  0  0  0  0  0  0  0  0  0  0
   10.5993   -4.8981   21.6068 C   0  0  0  0  0  0  0  0  0  0  0  0
   10.4258   -3.0106   23.0998 C   0  0  0  0  0  0  0  0  0  0  0  0
   10.2148   -3.4364   25.4200 C   0  0  0  0  0  0  0  0  0  0  0  0
    9.7853   -1.1840   24.4927 C   0  0  0  0  0  0  0  0  0  0  0  0
    5.0276   -8.5227   17.5352 C   0  0  0  0  0  0  0  0  0  0  0  0
    9.8187   -2.0895   25.5800 C   0  0  0  0  0  0  0  0  0  0  0  0
    5.6473   -8.7216   15.3158 C   0  0  0  0  0  0  0  0  0  0  0  0
   10.7581   -3.1233   19.4720 N   0  0  0  0  0  0  0  0  0  0  0  0
    9.9571   -4.0573   16.8866 C   0  0  0  0  0  0  0  0  0  0  0  0
    7.6213   -6.5618   16.0087 C   0  0  0  0  0  0  0  0  0  0  0  0
   10.8583   -2.6527   20.7222 C   0  0  0  0  0  0  0  0  0  0  0  0
   10.6412   -3.5089   21.7936 C   0  0  0  0  0  0  0  0  0  0  0  0
   10.4972   -3.8968   24.1589 C   0  0  0  0  0  0  0  0  0  0  0  0
    5.9260   -8.2736   16.5517 C   0  0  0  0  0  0  0  0  0  0  0  0
    3.8816   -9.1166   17.2493 C   0  0  0  0  0  0  0  0  0  0  0  0
   10.1297   -1.6575   23.2324 C   0  0  0  0  0  0  0  0  0  0  0  0
    9.4684   -1.6929   26.7263 F   0  0  0  0  0  0  0  0  0  0  0  0
    7.7963   -7.7906   17.9837 C   0  0  0  0  0  0  0  0  0  0  0  0
   10.5884   -3.0725   16.7902 O   0  0  0  0  0  0  0  0  0  0  0  0
   10.4323   -5.3494   20.3516 C   0  0  0  0  0  0  0  0  0  0  0  0
    7.1156   -7.5454   16.8218 C   0  0  0  0  0  0  0  0  0  0  0  0
   10.3885   -4.4388   19.2773 C   0  0  0  0  0  0  0  0  0  0  0  0
    4.5160   -9.3822   15.0841 C   0  0  0  0  0  0  0  0  0  0  0  0
  1  3  4  0
  1 24  4  0
  2  6  4  0
  2 15  4  0
  3  5  4  0
  3  6  4  0
  4 21  4  0
  4 29  4  0
  5 15  4  0
  5 28  1  0
  6 16  4  0
  7 18  4  0
  7 26  4  0
  8 18  1  0
  8 19  4  0
  8 22  4  0
  9 12  4  0
  9 19  4  0
 10 12  4  0
 10 22  4  0
 11 20  4  0
 11 21  4  0
 12 23  1  0
 13 20  4  0
 13 29  4  0
 14 17  4  0
 14 28  4  0
 15 25  2  0
 16 27  4  0
 17 18  4  0
 20 27  1  0
 24 27  4  0
 26 28  4  0
M  END
$$$$

 Created by Python create_sdf_string function

 29 33  0  0  0  0  0  0  0  0999 V2000
    8.8270   -7.0288   18.4251 C   0  0  0  0  0  0  0  0  0  0  0  0
    9.1576   -4.6236   15.8860 O   0  0  0  0  0  0  0  0  0  0  0  0
    9.1509   -5.9108   17.7177 C   0  0  0  0  0  0  0  0  0  0  0  0
    3.6373   -9.5349   16.0582 N   0  0  0  0  0  0  0  0  0  0  0  0
    9.9275   -4.8001   18.0438 N   0  0  0  0  0  0  0  0  0  0  0  0
    8.5908   -5.7425   16.4412 C   0  0  0  0  0  0  0  0  0  0  0  0
   10.5993   -4.8981   21.6068 C   0  0  0  0  0  0  0  0  0  0  0  0
   10.4258   -3.0106   23.0998 C   0  0  0  0  0  0  0  0  0  0  0  0
   10.2148   -3.4364   25.4200 C   0  0  0  0  0  0  0  0  0  0  0  0
    9.7853   -1.1840   24.4927 C   0  0  0  0  0  0  0  0  0  0  0  0
    5.0276   -8.5227   17.5352 C   0  0  0  0  0  0  0  0  0  0  0  0
    9.8187   -2.0895   25.5800 C   0  0  0  0  0  0  0  0  0  0  0  0
    5.6473   -8.7216   15.3158 C   0  0  0  0  0  0  0  0  0  0  0  0
   10.7581   -3.1233   19.4720 N   0  0  0  0  0  0  0  0  0  0  0  0
    9.9571   -4.0573   16.8866 C   0  0  0  0  0  0  0  0  0  0  0  0
    7.6213   -6.5618   16.0087 C   0  0  0  0  0  0  0  0  0  0  0  0
   10.8583   -2.6527   20.7222 C   0  0  0  0  0  0  0  0  0  0  0  0
   10.6412   -3.5089   21.7936 C   0  0  0  0  0  0  0  0  0  0  0  0
   10.4972   -3.8968   24.1589 C   0  0  0  0  0  0  0  0  0  0  0  0
    5.9260   -8.2736   16.5517 C   0  0  0  0  0  0  0  0  0  0  0  0
    3.8816   -9.1166   17.2493 C   0  0  0  0  0  0  0  0  0  0  0  0
   10.1297   -1.6575   23.2324 C   0  0  0  0  0  0  0  0  0  0  0  0
    9.4684   -1.6929   26.7263 F   0  0  0  0  0  0  0  0  0  0  0  0
    7.7963   -7.7906   17.9837 C   0  0  0  0  0  0  0  0  0  0  0  0
   10.5884   -3.0725   16.7902 O   0  0  0  0  0  0  0  0  0  0  0  0
   10.4323   -5.3494   20.3516 C   0  0  0  0  0  0  0  0  0  0  0  0
    7.1156   -7.5454   16.8218 C   0  0  0  0  0  0  0  0  0  0  0  0
   10.3885   -4.4388   19.2773 C   0  0  0  0  0  0  0  0  0  0  0  0
    4.5160   -9.3822   15.0841 C   0  0  0  0  0  0  0  0  0  0  0  0
  1  3  4  0
  1 24  4  0
  2  6  4  0
  2 15  4  0
  3  5  4  0
  3  6  4  0
  4 21  4  0
  4 29  4  0
  5 15  4  0
  5 28  1  0
  6 16  4  0
  7 18  4  0
  7 26  4  0
  8 18  1  0
  8 19  4  0
  8 22  4  0
  9 12  4  0
  9 19  4  0
 10 12  4  0
 10 22  4  0
 11 20  4  0
 11 21  4  0
 12 23  1  0
 13 20  4  0
 13 29  4  0
 14 17  4  0
 14 28  4  0
 15 25  2  0
 16 27  4  0
 17 18  4  0
 20 27  1  0
 24 27  4  0
 26 28  4  0
M  END
$$$$

 Created by Python create_sdf_string function

 29 33  0  0  0  0  0  0  0  0999 V2000
    8.8270   -7.0288   18.4251 C   0  0  0  0  0  0  0  0  0  0  0  0
    9.1576   -4.6236   15.8860 O   0  0  0  0  0  0  0  0  0  0  0  0
    9.1509   -5.9108   17.7177 C   0  0  0  0  0  0  0  0  0  0  0  0
    3.6373   -9.5349   16.0582 N   0  0  0  0  0  0  0  0  0  0  0  0
    9.9275   -4.8001   18.0438 N   0  0  0  0  0  0  0  0  0  0  0  0
    8.5908   -5.7425   16.4412 C   0  0  0  0  0  0  0  0  0  0  0  0
   10.5993   -4.8981   21.6068 C   0  0  0  0  0  0  0  0  0  0  0  0
   10.4258   -3.0106   23.0998 C   0  0  0  0  0  0  0  0  0  0  0  0
   10.2148   -3.4364   25.4200 C   0  0  0  0  0  0  0  0  0  0  0  0
    9.7853   -1.1840   24.4927 C   0  0  0  0  0  0  0  0  0  0  0  0
    5.0276   -8.5227   17.5352 C   0  0  0  0  0  0  0  0  0  0  0  0
    9.8187   -2.0895   25.5800 C   0  0  0  0  0  0  0  0  0  0  0  0
    5.6473   -8.7216   15.3158 C   0  0  0  0  0  0  0  0  0  0  0  0
   10.7581   -3.1233   19.4720 N   0  0  0  0  0  0  0  0  0  0  0  0
    9.9571   -4.0573   16.8866 C   0  0  0  0  0  0  0  0  0  0  0  0
    7.6213   -6.5618   16.0087 C   0  0  0  0  0  0  0  0  0  0  0  0
   10.8583   -2.6527   20.7222 C   0  0  0  0  0  0  0  0  0  0  0  0
   10.6412   -3.5089   21.7936 C   0  0  0  0  0  0  0  0  0  0  0  0
   10.4972   -3.8968   24.1589 C   0  0  0  0  0  0  0  0  0  0  0  0
    5.9260   -8.2736   16.5517 C   0  0  0  0  0  0  0  0  0  0  0  0
    3.8816   -9.1166   17.2493 C   0  0  0  0  0  0  0  0  0  0  0  0
   10.1297   -1.6575   23.2324 C   0  0  0  0  0  0  0  0  0  0  0  0
    9.4684   -1.6929   26.7263 F   0  0  0  0  0  0  0  0  0  0  0  0
    7.7963   -7.7906   17.9837 C   0  0  0  0  0  0  0  0  0  0  0  0
   10.5884   -3.0725   16.7902 O   0  0  0  0  0  0  0  0  0  0  0  0
   10.4323   -5.3494   20.3516 C   0  0  0  0  0  0  0  0  0  0  0  0
    7.1156   -7.5454   16.8218 C   0  0  0  0  0  0  0  0  0  0  0  0
   10.3885   -4.4388   19.2773 C   0  0  0  0  0  0  0  0  0  0  0  0
    4.5160   -9.3822   15.0841 C   0  0  0  0  0  0  0  0  0  0  0  0
  1  3  4  0
  1 24  4  0
  2  6  4  0
  2 15  4  0
  3  5  4  0
  3  6  4  0
  4 21  4  0
  4 29  4  0
  5 15  4  0
  5 28  1  0
  6 16  4  0
  7 18  4  0
  7 26  4  0
  8 18  1  0
  8 19  4  0
  8 22  4  0
  9 12  4  0
  9 19  4  0
 10 12  4  0
 10 22  4  0
 11 20  4  0
 11 21  4  0
 12 23  1  0
 13 20  4  0
 13 29  4  0
 14 17  4  0
 14 28  4  0
 15 25  2  0
 16 27  4  0
 17 18  4  0
 20 27  1  0
 24 27  4  0
 26 28  4  0
M  END
$$$$

 Created by Python create_sdf_string function

 29 33  0  0  0  0  0  0  0  0999 V2000
    8.8270   -7.0288   18.4251 C   0  0  0  0  0  0  0  0  0  0  0  0
    9.1576   -4.6236   15.8860 O   0  0  0  0  0  0  0  0  0  0  0  0
    9.1509   -5.9108   17.7177 C   0  0  0  0  0  0  0  0  0  0  0  0
    3.6373   -9.5349   16.0582 N   0  0  0  0  0  0  0  0  0  0  0  0
    9.9275   -4.8001   18.0438 N   0  0  0  0  0  0  0  0  0  0  0  0
    8.5908   -5.7425   16.4412 C   0  0  0  0  0  0  0  0  0  0  0  0
   10.5993   -4.8981   21.6068 C   0  0  0  0  0  0  0  0  0  0  0  0
   10.4258   -3.0106   23.0998 C   0  0  0  0  0  0  0  0  0  0  0  0
   10.2148   -3.4364   25.4200 C   0  0  0  0  0  0  0  0  0  0  0  0
    9.7853   -1.1840   24.4927 C   0  0  0  0  0  0  0  0  0  0  0  0
    5.0276   -8.5227   17.5352 C   0  0  0  0  0  0  0  0  0  0  0  0
    9.8187   -2.0895   25.5800 C   0  0  0  0  0  0  0  0  0  0  0  0
    5.6473   -8.7216   15.3158 C   0  0  0  0  0  0  0  0  0  0  0  0
   10.7581   -3.1233   19.4720 N   0  0  0  0  0  0  0  0  0  0  0  0
    9.9571   -4.0573   16.8866 C   0  0  0  0  0  0  0  0  0  0  0  0
    7.6213   -6.5618   16.0087 C   0  0  0  0  0  0  0  0  0  0  0  0
   10.8583   -2.6527   20.7222 C   0  0  0  0  0  0  0  0  0  0  0  0
   10.6412   -3.5089   21.7936 C   0  0  0  0  0  0  0  0  0  0  0  0
   10.4972   -3.8968   24.1589 C   0  0  0  0  0  0  0  0  0  0  0  0
    5.9260   -8.2736   16.5517 C   0  0  0  0  0  0  0  0  0  0  0  0
    3.8816   -9.1166   17.2493 C   0  0  0  0  0  0  0  0  0  0  0  0
   10.1297   -1.6575   23.2324 C   0  0  0  0  0  0  0  0  0  0  0  0
    9.4684   -1.6929   26.7263 F   0  0  0  0  0  0  0  0  0  0  0  0
    7.7963   -7.7906   17.9837 C   0  0  0  0  0  0  0  0  0  0  0  0
   10.5884   -3.0725   16.7902 O   0  0  0  0  0  0  0  0  0  0  0  0
   10.4323   -5.3494   20.3516 C   0  0  0  0  0  0  0  0  0  0  0  0
    7.1156   -7.5454   16.8218 C   0  0  0  0  0  0  0  0  0  0  0  0
   10.3885   -4.4388   19.2773 C   0  0  0  0  0  0  0  0  0  0  0  0
    4.5160   -9.3822   15.0841 C   0  0  0  0  0  0  0  0  0  0  0  0
  1  3  4  0
  1 24  4  0
  2  6  4  0
  2 15  4  0
  3  5  4  0
  3  6  4  0
  4 21  4  0
  4 29  4  0
  5 15  4  0
  5 28  1  0
  6 16  4  0
  7 18  4  0
  7 26  4  0
  8 18  1  0
  8 19  4  0
  8 22  4  0
  9 12  4  0
  9 19  4  0
 10 12  4  0
 10 22  4  0
 11 20  4  0
 11 21  4  0
 12 23  1  0
 13 20  4  0
 13 29  4  0
 14 17  4  0
 14 28  4  0
 15 25  2  0
 16 27  4  0
 17 18  4  0
 20 27  1  0
 24 27  4  0
 26 28  4  0
M  END
$$$$

 Created by Python create_sdf_string function

 29 33  0  0  0  0  0  0  0  0999 V2000
    8.8270   -7.0288   18.4251 C   0  0  0  0  0  0  0  0  0  0  0  0
    9.1576   -4.6236   15.8860 O   0  0  0  0  0  0  0  0  0  0  0  0
    9.1509   -5.9108   17.7177 C   0  0  0  0  0  0  0  0  0  0  0  0
    3.6373   -9.5349   16.0582 N   0  0  0  0  0  0  0  0  0  0  0  0
    9.9275   -4.8001   18.0438 N   0  0  0  0  0  0  0  0  0  0  0  0
    8.5908   -5.7425   16.4412 C   0  0  0  0  0  0  0  0  0  0  0  0
   10.5993   -4.8981   21.6068 C   0  0  0  0  0  0  0  0  0  0  0  0
   10.4258   -3.0106   23.0998 C   0  0  0  0  0  0  0  0  0  0  0  0
   10.2148   -3.4364   25.4200 C   0  0  0  0  0  0  0  0  0  0  0  0
    9.7853   -1.1840   24.4927 C   0  0  0  0  0  0  0  0  0  0  0  0
    5.0276   -8.5227   17.5352 C   0  0  0  0  0  0  0  0  0  0  0  0
    9.8187   -2.0895   25.5800 C   0  0  0  0  0  0  0  0  0  0  0  0
    5.6473   -8.7216   15.3158 C   0  0  0  0  0  0  0  0  0  0  0  0
   10.7581   -3.1233   19.4720 N   0  0  0  0  0  0  0  0  0  0  0  0
    9.9571   -4.0573   16.8866 C   0  0  0  0  0  0  0  0  0  0  0  0
    7.6213   -6.5618   16.0087 C   0  0  0  0  0  0  0  0  0  0  0  0
   10.8583   -2.6527   20.7222 C   0  0  0  0  0  0  0  0  0  0  0  0
   10.6412   -3.5089   21.7936 C   0  0  0  0  0  0  0  0  0  0  0  0
   10.4972   -3.8968   24.1589 C   0  0  0  0  0  0  0  0  0  0  0  0
    5.9260   -8.2736   16.5517 C   0  0  0  0  0  0  0  0  0  0  0  0
    3.8816   -9.1166   17.2493 C   0  0  0  0  0  0  0  0  0  0  0  0
   10.1297   -1.6575   23.2324 C   0  0  0  0  0  0  0  0  0  0  0  0
    9.4684   -1.6929   26.7263 F   0  0  0  0  0  0  0  0  0  0  0  0
    7.7963   -7.7906   17.9837 C   0  0  0  0  0  0  0  0  0  0  0  0
   10.5884   -3.0725   16.7902 O   0  0  0  0  0  0  0  0  0  0  0  0
   10.4323   -5.3494   20.3516 C   0  0  0  0  0  0  0  0  0  0  0  0
    7.1156   -7.5454   16.8218 C   0  0  0  0  0  0  0  0  0  0  0  0
   10.3885   -4.4388   19.2773 C   0  0  0  0  0  0  0  0  0  0  0  0
    4.5160   -9.3822   15.0841 C   0  0  0  0  0  0  0  0  0  0  0  0
  1  3  4  0
  1 24  4  0
  2  6  4  0
  2 15  4  0
  3  5  4  0
  3  6  4  0
  4 21  4  0
  4 29  4  0
  5 15  4  0
  5 28  1  0
  6 16  4  0
  7 18  4  0
  7 26  4  0
  8 18  1  0
  8 19  4  0
  8 22  4  0
  9 12  4  0
  9 19  4  0
 10 12  4  0
 10 22  4  0
 11 20  4  0
 11 21  4  0
 12 23  1  0
 13 20  4  0
 13 29  4  0
 14 17  4  0
 14 28  4  0
 15 25  2  0
 16 27  4  0
 17 18  4  0
 20 27  1  0
 24 27  4  0
 26 28  4  0
M  END
$$$$

 Created by Python create_sdf_string function

 29 33  0  0  0  0  0  0  0  0999 V2000
    8.8270   -7.0288   18.4251 C   0  0  0  0  0  0  0  0  0  0  0  0
    9.1576   -4.6236   15.8860 O   0  0  0  0  0  0  0  0  0  0  0  0
    9.1509   -5.9108   17.7177 C   0  0  0  0  0  0  0  0  0  0  0  0
    3.6373   -9.5349   16.0582 N   0  0  0  0  0  0  0  0  0  0  0  0
    9.9275   -4.8001   18.0438 N   0  0  0  0  0  0  0  0  0  0  0  0
    8.5908   -5.7425   16.4412 C   0  0  0  0  0  0  0  0  0  0  0  0
   10.5993   -4.8981   21.6068 C   0  0  0  0  0  0  0  0  0  0  0  0
   10.4258   -3.0106   23.0998 C   0  0  0  0  0  0  0  0  0  0  0  0
   10.2148   -3.4364   25.4200 C   0  0  0  0  0  0  0  0  0  0  0  0
    9.7853   -1.1840   24.4927 C   0  0  0  0  0  0  0  0  0  0  0  0
    5.0276   -8.5227   17.5352 C   0  0  0  0  0  0  0  0  0  0  0  0
    9.8187   -2.0895   25.5800 C   0  0  0  0  0  0  0  0  0  0  0  0
    5.6473   -8.7216   15.3158 C   0  0  0  0  0  0  0  0  0  0  0  0
   10.7581   -3.1233   19.4720 N   0  0  0  0  0  0  0  0  0  0  0  0
    9.9571   -4.0573   16.8866 C   0  0  0  0  0  0  0  0  0  0  0  0
    7.6213   -6.5618   16.0087 C   0  0  0  0  0  0  0  0  0  0  0  0
   10.8583   -2.6527   20.7222 C   0  0  0  0  0  0  0  0  0  0  0  0
   10.6412   -3.5089   21.7936 C   0  0  0  0  0  0  0  0  0  0  0  0
   10.4972   -3.8968   24.1589 C   0  0  0  0  0  0  0  0  0  0  0  0
    5.9260   -8.2736   16.5517 C   0  0  0  0  0  0  0  0  0  0  0  0
    3.8816   -9.1166   17.2493 C   0  0  0  0  0  0  0  0  0  0  0  0
   10.1297   -1.6575   23.2324 C   0  0  0  0  0  0  0  0  0  0  0  0
    9.4684   -1.6929   26.7263 F   0  0  0  0  0  0  0  0  0  0  0  0
    7.7963   -7.7906   17.9837 C   0  0  0  0  0  0  0  0  0  0  0  0
   10.5884   -3.0725   16.7902 O   0  0  0  0  0  0  0  0  0  0  0  0
   10.4323   -5.3494   20.3516 C   0  0  0  0  0  0  0  0  0  0  0  0
    7.1156   -7.5454   16.8218 C   0  0  0  0  0  0  0  0  0  0  0  0
   10.3885   -4.4388   19.2773 C   0  0  0  0  0  0  0  0  0  0  0  0
    4.5160   -9.3822   15.0841 C   0  0  0  0  0  0  0  0  0  0  0  0
  1  3  4  0
  1 24  4  0
  2  6  4  0
  2 15  4  0
  3  5  4  0
  3  6  4  0
  4 21  4  0
  4 29  4  0
  5 15  4  0
  5 28  1  0
  6 16  4  0
  7 18  4  0
  7 26  4  0
  8 18  1  0
  8 19  4  0
  8 22  4  0
  9 12  4  0
  9 19  4  0
 10 12  4  0
 10 22  4  0
 11 20  4  0
 11 21  4  0
 12 23  1  0
 13 20  4  0
 13 29  4  0
 14 17  4  0
 14 28  4  0
 15 25  2  0
 16 27  4  0
 17 18  4  0
 20 27  1  0
 24 27  4  0
 26 28  4  0
M  END
$$$$

 Created by Python create_sdf_string function

 29 33  0  0  0  0  0  0  0  0999 V2000
    8.8270   -7.0288   18.4251 C   0  0  0  0  0  0  0  0  0  0  0  0
    9.1576   -4.6236   15.8860 O   0  0  0  0  0  0  0  0  0  0  0  0
    9.1509   -5.9108   17.7177 C   0  0  0  0  0  0  0  0  0  0  0  0
    3.6373   -9.5349   16.0582 N   0  0  0  0  0  0  0  0  0  0  0  0
    9.9275   -4.8001   18.0438 N   0  0  0  0  0  0  0  0  0  0  0  0
    8.5908   -5.7425   16.4412 C   0  0  0  0  0  0  0  0  0  0  0  0
   10.5993   -4.8981   21.6068 C   0  0  0  0  0  0  0  0  0  0  0  0
   10.4258   -3.0106   23.0998 C   0  0  0  0  0  0  0  0  0  0  0  0
   10.2148   -3.4364   25.4200 C   0  0  0  0  0  0  0  0  0  0  0  0
    9.7853   -1.1840   24.4927 C   0  0  0  0  0  0  0  0  0  0  0  0
    5.0276   -8.5227   17.5352 C   0  0  0  0  0  0  0  0  0  0  0  0
    9.8187   -2.0895   25.5800 C   0  0  0  0  0  0  0  0  0  0  0  0
    5.6473   -8.7216   15.3158 C   0  0  0  0  0  0  0  0  0  0  0  0
   10.7581   -3.1233   19.4720 N   0  0  0  0  0  0  0  0  0  0  0  0
    9.9571   -4.0573   16.8866 C   0  0  0  0  0  0  0  0  0  0  0  0
    7.6213   -6.5618   16.0087 C   0  0  0  0  0  0  0  0  0  0  0  0
   10.8583   -2.6527   20.7222 C   0  0  0  0  0  0  0  0  0  0  0  0
   10.6412   -3.5089   21.7936 C   0  0  0  0  0  0  0  0  0  0  0  0
   10.4972   -3.8968   24.1589 C   0  0  0  0  0  0  0  0  0  0  0  0
    5.9260   -8.2736   16.5517 C   0  0  0  0  0  0  0  0  0  0  0  0
    3.8816   -9.1166   17.2493 C   0  0  0  0  0  0  0  0  0  0  0  0
   10.1297   -1.6575   23.2324 C   0  0  0  0  0  0  0  0  0  0  0  0
    9.4684   -1.6929   26.7263 F   0  0  0  0  0  0  0  0  0  0  0  0
    7.7963   -7.7906   17.9837 C   0  0  0  0  0  0  0  0  0  0  0  0
   10.5884   -3.0725   16.7902 O   0  0  0  0  0  0  0  0  0  0  0  0
   10.4323   -5.3494   20.3516 C   0  0  0  0  0  0  0  0  0  0  0  0
    7.1156   -7.5454   16.8218 C   0  0  0  0  0  0  0  0  0  0  0  0
   10.3885   -4.4388   19.2773 C   0  0  0  0  0  0  0  0  0  0  0  0
    4.5160   -9.3822   15.0841 C   0  0  0  0  0  0  0  0  0  0  0  0
  1  3  4  0
  1 24  4  0
  2  6  4  0
  2 15  4  0
  3  5  4  0
  3  6  4  0
  4 21  4  0
  4 29  4  0
  5 15  4  0
  5 28  1  0
  6 16  4  0
  7 18  4  0
  7 26  4  0
  8 18  1  0
  8 19  4  0
  8 22  4  0
  9 12  4  0
  9 19  4  0
 10 12  4  0
 10 22  4  0
 11 20  4  0
 11 21  4  0
 12 23  1  0
 13 20  4  0
 13 29  4  0
 14 17  4  0
 14 28  4  0
 15 25  2  0
 16 27  4  0
 17 18  4  0
 20 27  1  0
 24 27  4  0
 26 28  4  0
M  END
$$$$

 Created by Python create_sdf_string function

 29 33  0  0  0  0  0  0  0  0999 V2000
    8.8270   -7.0288   18.4251 C   0  0  0  0  0  0  0  0  0  0  0  0
    9.1576   -4.6236   15.8860 O   0  0  0  0  0  0  0  0  0  0  0  0
    9.1509   -5.9108   17.7177 C   0  0  0  0  0  0  0  0  0  0  0  0
    3.6373   -9.5349   16.0582 N   0  0  0  0  0  0  0  0  0  0  0  0
    9.9275   -4.8001   18.0438 N   0  0  0  0  0  0  0  0  0  0  0  0
    8.5908   -5.7425   16.4412 C   0  0  0  0  0  0  0  0  0  0  0  0
   10.5993   -4.8981   21.6068 C   0  0  0  0  0  0  0  0  0  0  0  0
   10.4258   -3.0106   23.0998 C   0  0  0  0  0  0  0  0  0  0  0  0
   10.2148   -3.4364   25.4200 C   0  0  0  0  0  0  0  0  0  0  0  0
    9.7853   -1.1840   24.4927 C   0  0  0  0  0  0  0  0  0  0  0  0
    5.0276   -8.5227   17.5352 C   0  0  0  0  0  0  0  0  0  0  0  0
    9.8187   -2.0895   25.5800 C   0  0  0  0  0  0  0  0  0  0  0  0
    5.6473   -8.7216   15.3158 C   0  0  0  0  0  0  0  0  0  0  0  0
   10.7581   -3.1233   19.4720 N   0  0  0  0  0  0  0  0  0  0  0  0
    9.9571   -4.0573   16.8866 C   0  0  0  0  0  0  0  0  0  0  0  0
    7.6213   -6.5618   16.0087 C   0  0  0  0  0  0  0  0  0  0  0  0
   10.8583   -2.6527   20.7222 C   0  0  0  0  0  0  0  0  0  0  0  0
   10.6412   -3.5089   21.7936 C   0  0  0  0  0  0  0  0  0  0  0  0
   10.4972   -3.8968   24.1589 C   0  0  0  0  0  0  0  0  0  0  0  0
    5.9260   -8.2736   16.5517 C   0  0  0  0  0  0  0  0  0  0  0  0
    3.8816   -9.1166   17.2493 C   0  0  0  0  0  0  0  0  0  0  0  0
   10.1297   -1.6575   23.2324 C   0  0  0  0  0  0  0  0  0  0  0  0
    9.4684   -1.6929   26.7263 F   0  0  0  0  0  0  0  0  0  0  0  0
    7.7963   -7.7906   17.9837 C   0  0  0  0  0  0  0  0  0  0  0  0
   10.5884   -3.0725   16.7902 O   0  0  0  0  0  0  0  0  0  0  0  0
   10.4323   -5.3494   20.3516 C   0  0  0  0  0  0  0  0  0  0  0  0
    7.1156   -7.5454   16.8218 C   0  0  0  0  0  0  0  0  0  0  0  0
   10.3885   -4.4388   19.2773 C   0  0  0  0  0  0  0  0  0  0  0  0
    4.5160   -9.3822   15.0841 C   0  0  0  0  0  0  0  0  0  0  0  0
  1  3  4  0
  1 24  4  0
  2  6  4  0
  2 15  4  0
  3  5  4  0
  3  6  4  0
  4 21  4  0
  4 29  4  0
  5 15  4  0
  5 28  1  0
  6 16  4  0
  7 18  4  0
  7 26  4  0
  8 18  1  0
  8 19  4  0
  8 22  4  0
  9 12  4  0
  9 19  4  0
 10 12  4  0
 10 22  4  0
 11 20  4  0
 11 21  4  0
 12 23  1  0
 13 20  4  0
 13 29  4  0
 14 17  4  0
 14 28  4  0
 15 25  2  0
 16 27  4  0
 17 18  4  0
 20 27  1  0
 24 27  4  0
 26 28  4  0
M  END
$$$$

 Created by Python create_sdf_string function

 29 33  0  0  0  0  0  0  0  0999 V2000
    8.8270   -7.0288   18.4251 C   0  0  0  0  0  0  0  0  0  0  0  0
    9.1576   -4.6236   15.8860 O   0  0  0  0  0  0  0  0  0  0  0  0
    9.1509   -5.9108   17.7177 C   0  0  0  0  0  0  0  0  0  0  0  0
    3.6373   -9.5349   16.0582 N   0  0  0  0  0  0  0  0  0  0  0  0
    9.9275   -4.8001   18.0438 N   0  0  0  0  0  0  0  0  0  0  0  0
    8.5908   -5.7425   16.4412 C   0  0  0  0  0  0  0  0  0  0  0  0
   10.5993   -4.8981   21.6068 C   0  0  0  0  0  0  0  0  0  0  0  0
   10.4258   -3.0106   23.0998 C   0  0  0  0  0  0  0  0  0  0  0  0
   10.2148   -3.4364   25.4200 C   0  0  0  0  0  0  0  0  0  0  0  0
    9.7853   -1.1840   24.4927 C   0  0  0  0  0  0  0  0  0  0  0  0
    5.0276   -8.5227   17.5352 C   0  0  0  0  0  0  0  0  0  0  0  0
    9.8187   -2.0895   25.5800 C   0  0  0  0  0  0  0  0  0  0  0  0
    5.6473   -8.7216   15.3158 C   0  0  0  0  0  0  0  0  0  0  0  0
   10.7581   -3.1233   19.4720 N   0  0  0  0  0  0  0  0  0  0  0  0
    9.9571   -4.0573   16.8866 C   0  0  0  0  0  0  0  0  0  0  0  0
    7.6213   -6.5618   16.0087 C   0  0  0  0  0  0  0  0  0  0  0  0
   10.8583   -2.6527   20.7222 C   0  0  0  0  0  0  0  0  0  0  0  0
   10.6412   -3.5089   21.7936 C   0  0  0  0  0  0  0  0  0  0  0  0
   10.4972   -3.8968   24.1589 C   0  0  0  0  0  0  0  0  0  0  0  0
    5.9260   -8.2736   16.5517 C   0  0  0  0  0  0  0  0  0  0  0  0
    3.8816   -9.1166   17.2493 C   0  0  0  0  0  0  0  0  0  0  0  0
   10.1297   -1.6575   23.2324 C   0  0  0  0  0  0  0  0  0  0  0  0
    9.4684   -1.6929   26.7263 F   0  0  0  0  0  0  0  0  0  0  0  0
    7.7963   -7.7906   17.9837 C   0  0  0  0  0  0  0  0  0  0  0  0
   10.5884   -3.0725   16.7902 O   0  0  0  0  0  0  0  0  0  0  0  0
   10.4323   -5.3494   20.3516 C   0  0  0  0  0  0  0  0  0  0  0  0
    7.1156   -7.5454   16.8218 C   0  0  0  0  0  0  0  0  0  0  0  0
   10.3885   -4.4388   19.2773 C   0  0  0  0  0  0  0  0  0  0  0  0
    4.5160   -9.3822   15.0841 C   0  0  0  0  0  0  0  0  0  0  0  0
  1  3  4  0
  1 24  4  0
  2  6  4  0
  2 15  4  0
  3  5  4  0
  3  6  4  0
  4 21  4  0
  4 29  4  0
  5 15  4  0
  5 28  1  0
  6 16  4  0
  7 18  4  0
  7 26  4  0
  8 18  1  0
  8 19  4  0
  8 22  4  0
  9 12  4  0
  9 19  4  0
 10 12  4  0
 10 22  4  0
 11 20  4  0
 11 21  4  0
 12 23  1  0
 13 20  4  0
 13 29  4  0
 14 17  4  0
 14 28  4  0
 15 25  2  0
 16 27  4  0
 17 18  4  0
 20 27  1  0
 24 27  4  0
 26 28  4  0
M  END
$$$$

 Created by Python create_sdf_string function

 29 33  0  0  0  0  0  0  0  0999 V2000
    8.8270   -7.0288   18.4251 C   0  0  0  0  0  0  0  0  0  0  0  0
    9.1576   -4.6236   15.8860 O   0  0  0  0  0  0  0  0  0  0  0  0
    9.1509   -5.9108   17.7177 C   0  0  0  0  0  0  0  0  0  0  0  0
    3.6373   -9.5349   16.0582 N   0  0  0  0  0  0  0  0  0  0  0  0
    9.9275   -4.8001   18.0438 N   0  0  0  0  0  0  0  0  0  0  0  0
    8.5908   -5.7425   16.4412 C   0  0  0  0  0  0  0  0  0  0  0  0
   10.5993   -4.8981   21.6068 C   0  0  0  0  0  0  0  0  0  0  0  0
   10.4258   -3.0106   23.0998 C   0  0  0  0  0  0  0  0  0  0  0  0
   10.2148   -3.4364   25.4200 C   0  0  0  0  0  0  0  0  0  0  0  0
    9.7853   -1.1840   24.4927 C   0  0  0  0  0  0  0  0  0  0  0  0
    5.0276   -8.5227   17.5352 C   0  0  0  0  0  0  0  0  0  0  0  0
    9.8187   -2.0895   25.5800 C   0  0  0  0  0  0  0  0  0  0  0  0
    5.6473   -8.7216   15.3158 C   0  0  0  0  0  0  0  0  0  0  0  0
   10.7581   -3.1233   19.4720 N   0  0  0  0  0  0  0  0  0  0  0  0
    9.9571   -4.0573   16.8866 C   0  0  0  0  0  0  0  0  0  0  0  0
    7.6213   -6.5618   16.0087 C   0  0  0  0  0  0  0  0  0  0  0  0
   10.8583   -2.6527   20.7222 C   0  0  0  0  0  0  0  0  0  0  0  0
   10.6412   -3.5089   21.7936 C   0  0  0  0  0  0  0  0  0  0  0  0
   10.4972   -3.8968   24.1589 C   0  0  0  0  0  0  0  0  0  0  0  0
    5.9260   -8.2736   16.5517 C   0  0  0  0  0  0  0  0  0  0  0  0
    3.8816   -9.1166   17.2493 C   0  0  0  0  0  0  0  0  0  0  0  0
   10.1297   -1.6575   23.2324 C   0  0  0  0  0  0  0  0  0  0  0  0
    9.4684   -1.6929   26.7263 F   0  0  0  0  0  0  0  0  0  0  0  0
    7.7963   -7.7906   17.9837 C   0  0  0  0  0  0  0  0  0  0  0  0
   10.5884   -3.0725   16.7902 O   0  0  0  0  0  0  0  0  0  0  0  0
   10.4323   -5.3494   20.3516 C   0  0  0  0  0  0  0  0  0  0  0  0
    7.1156   -7.5454   16.8218 C   0  0  0  0  0  0  0  0  0  0  0  0
   10.3885   -4.4388   19.2773 C   0  0  0  0  0  0  0  0  0  0  0  0
    4.5160   -9.3822   15.0841 C   0  0  0  0  0  0  0  0  0  0  0  0
  1  3  4  0
  1 24  4  0
  2  6  4  0
  2 15  4  0
  3  5  4  0
  3  6  4  0
  4 21  4  0
  4 29  4  0
  5 15  4  0
  5 28  1  0
  6 16  4  0
  7 18  4  0
  7 26  4  0
  8 18  1  0
  8 19  4  0
  8 22  4  0
  9 12  4  0
  9 19  4  0
 10 12  4  0
 10 22  4  0
 11 20  4  0
 11 21  4  0
 12 23  1  0
 13 20  4  0
 13 29  4  0
 14 17  4  0
 14 28  4  0
 15 25  2  0
 16 27  4  0
 17 18  4  0
 20 27  1  0
 24 27  4  0
 26 28  4  0
M  END
$$$$

 Created by Python create_sdf_string function

 29 33  0  0  0  0  0  0  0  0999 V2000
    8.8270   -7.0288   18.4251 C   0  0  0  0  0  0  0  0  0  0  0  0
    9.1576   -4.6236   15.8860 O   0  0  0  0  0  0  0  0  0  0  0  0
    9.1509   -5.9108   17.7177 C   0  0  0  0  0  0  0  0  0  0  0  0
    3.6373   -9.5349   16.0582 N   0  0  0  0  0  0  0  0  0  0  0  0
    9.9275   -4.8001   18.0438 N   0  0  0  0  0  0  0  0  0  0  0  0
    8.5908   -5.7425   16.4412 C   0  0  0  0  0  0  0  0  0  0  0  0
   10.5993   -4.8981   21.6068 C   0  0  0  0  0  0  0  0  0  0  0  0
   10.4258   -3.0106   23.0998 C   0  0  0  0  0  0  0  0  0  0  0  0
   10.2148   -3.4364   25.4200 C   0  0  0  0  0  0  0  0  0  0  0  0
    9.7853   -1.1840   24.4927 C   0  0  0  0  0  0  0  0  0  0  0  0
    5.0276   -8.5227   17.5352 C   0  0  0  0  0  0  0  0  0  0  0  0
    9.8187   -2.0895   25.5800 C   0  0  0  0  0  0  0  0  0  0  0  0
    5.6473   -8.7216   15.3158 C   0  0  0  0  0  0  0  0  0  0  0  0
   10.7581   -3.1233   19.4720 N   0  0  0  0  0  0  0  0  0  0  0  0
    9.9571   -4.0573   16.8866 C   0  0  0  0  0  0  0  0  0  0  0  0
    7.6213   -6.5618   16.0087 C   0  0  0  0  0  0  0  0  0  0  0  0
   10.8583   -2.6527   20.7222 C   0  0  0  0  0  0  0  0  0  0  0  0
   10.6412   -3.5089   21.7936 C   0  0  0  0  0  0  0  0  0  0  0  0
   10.4972   -3.8968   24.1589 C   0  0  0  0  0  0  0  0  0  0  0  0
    5.9260   -8.2736   16.5517 C   0  0  0  0  0  0  0  0  0  0  0  0
    3.8816   -9.1166   17.2493 C   0  0  0  0  0  0  0  0  0  0  0  0
   10.1297   -1.6575   23.2324 C   0  0  0  0  0  0  0  0  0  0  0  0
    9.4684   -1.6929   26.7263 F   0  0  0  0  0  0  0  0  0  0  0  0
    7.7963   -7.7906   17.9837 C   0  0  0  0  0  0  0  0  0  0  0  0
   10.5884   -3.0725   16.7902 O   0  0  0  0  0  0  0  0  0  0  0  0
   10.4323   -5.3494   20.3516 C   0  0  0  0  0  0  0  0  0  0  0  0
    7.1156   -7.5454   16.8218 C   0  0  0  0  0  0  0  0  0  0  0  0
   10.3885   -4.4388   19.2773 C   0  0  0  0  0  0  0  0  0  0  0  0
    4.5160   -9.3822   15.0841 C   0  0  0  0  0  0  0  0  0  0  0  0
  1  3  4  0
  1 24  4  0
  2  6  4  0
  2 15  4  0
  3  5  4  0
  3  6  4  0
  4 21  4  0
  4 29  4  0
  5 15  4  0
  5 28  1  0
  6 16  4  0
  7 18  4  0
  7 26  4  0
  8 18  1  0
  8 19  4  0
  8 22  4  0
  9 12  4  0
  9 19  4  0
 10 12  4  0
 10 22  4  0
 11 20  4  0
 11 21  4  0
 12 23  1  0
 13 20  4  0
 13 29  4  0
 14 17  4  0
 14 28  4  0
 15 25  2  0
 16 27  4  0
 17 18  4  0
 20 27  1  0
 24 27  4  0
 26 28  4  0
M  END
$$$$

 Created by Python create_sdf_string function

 29 33  0  0  0  0  0  0  0  0999 V2000
    8.8270   -7.0288   18.4251 C   0  0  0  0  0  0  0  0  0  0  0  0
    9.1576   -4.6236   15.8860 O   0  0  0  0  0  0  0  0  0  0  0  0
    9.1509   -5.9108   17.7177 C   0  0  0  0  0  0  0  0  0  0  0  0
    3.6373   -9.5349   16.0582 N   0  0  0  0  0  0  0  0  0  0  0  0
    9.9275   -4.8001   18.0438 N   0  0  0  0  0  0  0  0  0  0  0  0
    8.5908   -5.7425   16.4412 C   0  0  0  0  0  0  0  0  0  0  0  0
   10.5993   -4.8981   21.6068 C   0  0  0  0  0  0  0  0  0  0  0  0
   10.4258   -3.0106   23.0998 C   0  0  0  0  0  0  0  0  0  0  0  0
   10.2148   -3.4364   25.4200 C   0  0  0  0  0  0  0  0  0  0  0  0
    9.7853   -1.1840   24.4927 C   0  0  0  0  0  0  0  0  0  0  0  0
    5.0276   -8.5227   17.5352 C   0  0  0  0  0  0  0  0  0  0  0  0
    9.8187   -2.0895   25.5800 C   0  0  0  0  0  0  0  0  0  0  0  0
    5.6473   -8.7216   15.3158 C   0  0  0  0  0  0  0  0  0  0  0  0
   10.7581   -3.1233   19.4720 N   0  0  0  0  0  0  0  0  0  0  0  0
    9.9571   -4.0573   16.8866 C   0  0  0  0  0  0  0  0  0  0  0  0
    7.6213   -6.5618   16.0087 C   0  0  0  0  0  0  0  0  0  0  0  0
   10.8583   -2.6527   20.7222 C   0  0  0  0  0  0  0  0  0  0  0  0
   10.6412   -3.5089   21.7936 C   0  0  0  0  0  0  0  0  0  0  0  0
   10.4972   -3.8968   24.1589 C   0  0  0  0  0  0  0  0  0  0  0  0
    5.9260   -8.2736   16.5517 C   0  0  0  0  0  0  0  0  0  0  0  0
    3.8816   -9.1166   17.2493 C   0  0  0  0  0  0  0  0  0  0  0  0
   10.1297   -1.6575   23.2324 C   0  0  0  0  0  0  0  0  0  0  0  0
    9.4684   -1.6929   26.7263 F   0  0  0  0  0  0  0  0  0  0  0  0
    7.7963   -7.7906   17.9837 C   0  0  0  0  0  0  0  0  0  0  0  0
   10.5884   -3.0725   16.7902 O   0  0  0  0  0  0  0  0  0  0  0  0
   10.4323   -5.3494   20.3516 C   0  0  0  0  0  0  0  0  0  0  0  0
    7.1156   -7.5454   16.8218 C   0  0  0  0  0  0  0  0  0  0  0  0
   10.3885   -4.4388   19.2773 C   0  0  0  0  0  0  0  0  0  0  0  0
    4.5160   -9.3822   15.0841 C   0  0  0  0  0  0  0  0  0  0  0  0
  1  3  4  0
  1 24  4  0
  2  6  4  0
  2 15  4  0
  3  5  4  0
  3  6  4  0
  4 21  4  0
  4 29  4  0
  5 15  4  0
  5 28  1  0
  6 16  4  0
  7 18  4  0
  7 26  4  0
  8 18  1  0
  8 19  4  0
  8 22  4  0
  9 12  4  0
  9 19  4  0
 10 12  4  0
 10 22  4  0
 11 20  4  0
 11 21  4  0
 12 23  1  0
 13 20  4  0
 13 29  4  0
 14 17  4  0
 14 28  4  0
 15 25  2  0
 16 27  4  0
 17 18  4  0
 20 27  1  0
 24 27  4  0
 26 28  4  0
M  END
$$$$

 Created by Python create_sdf_string function

 29 33  0  0  0  0  0  0  0  0999 V2000
    8.8270   -7.0288   18.4251 C   0  0  0  0  0  0  0  0  0  0  0  0
    9.1576   -4.6236   15.8860 O   0  0  0  0  0  0  0  0  0  0  0  0
    9.1509   -5.9108   17.7177 C   0  0  0  0  0  0  0  0  0  0  0  0
    3.6373   -9.5349   16.0582 N   0  0  0  0  0  0  0  0  0  0  0  0
    9.9275   -4.8001   18.0438 N   0  0  0  0  0  0  0  0  0  0  0  0
    8.5908   -5.7425   16.4412 C   0  0  0  0  0  0  0  0  0  0  0  0
   10.5993   -4.8981   21.6068 C   0  0  0  0  0  0  0  0  0  0  0  0
   10.4258   -3.0106   23.0998 C   0  0  0  0  0  0  0  0  0  0  0  0
   10.2148   -3.4364   25.4200 C   0  0  0  0  0  0  0  0  0  0  0  0
    9.7853   -1.1840   24.4927 C   0  0  0  0  0  0  0  0  0  0  0  0
    5.0276   -8.5227   17.5352 C   0  0  0  0  0  0  0  0  0  0  0  0
    9.8187   -2.0895   25.5800 C   0  0  0  0  0  0  0  0  0  0  0  0
    5.6473   -8.7216   15.3158 C   0  0  0  0  0  0  0  0  0  0  0  0
   10.7581   -3.1233   19.4720 N   0  0  0  0  0  0  0  0  0  0  0  0
    9.9571   -4.0573   16.8866 C   0  0  0  0  0  0  0  0  0  0  0  0
    7.6213   -6.5618   16.0087 C   0  0  0  0  0  0  0  0  0  0  0  0
   10.8583   -2.6527   20.7222 C   0  0  0  0  0  0  0  0  0  0  0  0
   10.6412   -3.5089   21.7936 C   0  0  0  0  0  0  0  0  0  0  0  0
   10.4972   -3.8968   24.1589 C   0  0  0  0  0  0  0  0  0  0  0  0
    5.9260   -8.2736   16.5517 C   0  0  0  0  0  0  0  0  0  0  0  0
    3.8816   -9.1166   17.2493 C   0  0  0  0  0  0  0  0  0  0  0  0
   10.1297   -1.6575   23.2324 C   0  0  0  0  0  0  0  0  0  0  0  0
    9.4684   -1.6929   26.7263 F   0  0  0  0  0  0  0  0  0  0  0  0
    7.7963   -7.7906   17.9837 C   0  0  0  0  0  0  0  0  0  0  0  0
   10.5884   -3.0725   16.7902 O   0  0  0  0  0  0  0  0  0  0  0  0
   10.4323   -5.3494   20.3516 C   0  0  0  0  0  0  0  0  0  0  0  0
    7.1156   -7.5454   16.8218 C   0  0  0  0  0  0  0  0  0  0  0  0
   10.3885   -4.4388   19.2773 C   0  0  0  0  0  0  0  0  0  0  0  0
    4.5160   -9.3822   15.0841 C   0  0  0  0  0  0  0  0  0  0  0  0
  1  3  4  0
  1 24  4  0
  2  6  4  0
  2 15  4  0
  3  5  4  0
  3  6  4  0
  4 21  4  0
  4 29  4  0
  5 15  4  0
  5 28  1  0
  6 16  4  0
  7 18  4  0
  7 26  4  0
  8 18  1  0
  8 19  4  0
  8 22  4  0
  9 12  4  0
  9 19  4  0
 10 12  4  0
 10 22  4  0
 11 20  4  0
 11 21  4  0
 12 23  1  0
 13 20  4  0
 13 29  4  0
 14 17  4  0
 14 28  4  0
 15 25  2  0
 16 27  4  0
 17 18  4  0
 20 27  1  0
 24 27  4  0
 26 28  4  0
M  END
$$$$

 Created by Python create_sdf_string function

 29 33  0  0  0  0  0  0  0  0999 V2000
    8.8270   -7.0288   18.4251 C   0  0  0  0  0  0  0  0  0  0  0  0
    9.1576   -4.6236   15.8860 O   0  0  0  0  0  0  0  0  0  0  0  0
    9.1509   -5.9108   17.7177 C   0  0  0  0  0  0  0  0  0  0  0  0
    3.6373   -9.5349   16.0582 N   0  0  0  0  0  0  0  0  0  0  0  0
    9.9275   -4.8001   18.0438 N   0  0  0  0  0  0  0  0  0  0  0  0
    8.5908   -5.7425   16.4412 C   0  0  0  0  0  0  0  0  0  0  0  0
   10.5993   -4.8981   21.6068 C   0  0  0  0  0  0  0  0  0  0  0  0
   10.4258   -3.0106   23.0998 C   0  0  0  0  0  0  0  0  0  0  0  0
   10.2148   -3.4364   25.4200 C   0  0  0  0  0  0  0  0  0  0  0  0
    9.7853   -1.1840   24.4927 C   0  0  0  0  0  0  0  0  0  0  0  0
    5.0276   -8.5227   17.5352 C   0  0  0  0  0  0  0  0  0  0  0  0
    9.8187   -2.0895   25.5800 C   0  0  0  0  0  0  0  0  0  0  0  0
    5.6473   -8.7216   15.3158 C   0  0  0  0  0  0  0  0  0  0  0  0
   10.7581   -3.1233   19.4720 N   0  0  0  0  0  0  0  0  0  0  0  0
    9.9571   -4.0573   16.8866 C   0  0  0  0  0  0  0  0  0  0  0  0
    7.6213   -6.5618   16.0087 C   0  0  0  0  0  0  0  0  0  0  0  0
   10.8583   -2.6527   20.7222 C   0  0  0  0  0  0  0  0  0  0  0  0
   10.6412   -3.5089   21.7936 C   0  0  0  0  0  0  0  0  0  0  0  0
   10.4972   -3.8968   24.1589 C   0  0  0  0  0  0  0  0  0  0  0  0
    5.9260   -8.2736   16.5517 C   0  0  0  0  0  0  0  0  0  0  0  0
    3.8816   -9.1166   17.2493 C   0  0  0  0  0  0  0  0  0  0  0  0
   10.1297   -1.6575   23.2324 C   0  0  0  0  0  0  0  0  0  0  0  0
    9.4684   -1.6929   26.7263 F   0  0  0  0  0  0  0  0  0  0  0  0
    7.7963   -7.7906   17.9837 C   0  0  0  0  0  0  0  0  0  0  0  0
   10.5884   -3.0725   16.7902 O   0  0  0  0  0  0  0  0  0  0  0  0
   10.4323   -5.3494   20.3516 C   0  0  0  0  0  0  0  0  0  0  0  0
    7.1156   -7.5454   16.8218 C   0  0  0  0  0  0  0  0  0  0  0  0
   10.3885   -4.4388   19.2773 C   0  0  0  0  0  0  0  0  0  0  0  0
    4.5160   -9.3822   15.0841 C   0  0  0  0  0  0  0  0  0  0  0  0
  1  3  4  0
  1 24  4  0
  2  6  4  0
  2 15  4  0
  3  5  4  0
  3  6  4  0
  4 21  4  0
  4 29  4  0
  5 15  4  0
  5 28  1  0
  6 16  4  0
  7 18  4  0
  7 26  4  0
  8 18  1  0
  8 19  4  0
  8 22  4  0
  9 12  4  0
  9 19  4  0
 10 12  4  0
 10 22  4  0
 11 20  4  0
 11 21  4  0
 12 23  1  0
 13 20  4  0
 13 29  4  0
 14 17  4  0
 14 28  4  0
 15 25  2  0
 16 27  4  0
 17 18  4  0
 20 27  1  0
 24 27  4  0
 26 28  4  0
M  END
$$$$

 Created by Python create_sdf_string function

 29 33  0  0  0  0  0  0  0  0999 V2000
    8.8270   -7.0288   18.4251 C   0  0  0  0  0  0  0  0  0  0  0  0
    9.1576   -4.6236   15.8860 O   0  0  0  0  0  0  0  0  0  0  0  0
    9.1509   -5.9108   17.7177 C   0  0  0  0  0  0  0  0  0  0  0  0
    3.6373   -9.5349   16.0582 N   0  0  0  0  0  0  0  0  0  0  0  0
    9.9275   -4.8001   18.0438 N   0  0  0  0  0  0  0  0  0  0  0  0
    8.5908   -5.7425   16.4412 C   0  0  0  0  0  0  0  0  0  0  0  0
   10.5993   -4.8981   21.6068 C   0  0  0  0  0  0  0  0  0  0  0  0
   10.4258   -3.0106   23.0998 C   0  0  0  0  0  0  0  0  0  0  0  0
   10.2148   -3.4364   25.4200 C   0  0  0  0  0  0  0  0  0  0  0  0
    9.7853   -1.1840   24.4927 C   0  0  0  0  0  0  0  0  0  0  0  0
    5.0276   -8.5227   17.5352 C   0  0  0  0  0  0  0  0  0  0  0  0
    9.8187   -2.0895   25.5800 C   0  0  0  0  0  0  0  0  0  0  0  0
    5.6473   -8.7216   15.3158 C   0  0  0  0  0  0  0  0  0  0  0  0
   10.7581   -3.1233   19.4720 N   0  0  0  0  0  0  0  0  0  0  0  0
    9.9571   -4.0573   16.8866 C   0  0  0  0  0  0  0  0  0  0  0  0
    7.6213   -6.5618   16.0087 C   0  0  0  0  0  0  0  0  0  0  0  0
   10.8583   -2.6527   20.7222 C   0  0  0  0  0  0  0  0  0  0  0  0
   10.6412   -3.5089   21.7936 C   0  0  0  0  0  0  0  0  0  0  0  0
   10.4972   -3.8968   24.1589 C   0  0  0  0  0  0  0  0  0  0  0  0
    5.9260   -8.2736   16.5517 C   0  0  0  0  0  0  0  0  0  0  0  0
    3.8816   -9.1166   17.2493 C   0  0  0  0  0  0  0  0  0  0  0  0
   10.1297   -1.6575   23.2324 C   0  0  0  0  0  0  0  0  0  0  0  0
    9.4684   -1.6929   26.7263 F   0  0  0  0  0  0  0  0  0  0  0  0
    7.7963   -7.7906   17.9837 C   0  0  0  0  0  0  0  0  0  0  0  0
   10.5884   -3.0725   16.7902 O   0  0  0  0  0  0  0  0  0  0  0  0
   10.4323   -5.3494   20.3516 C   0  0  0  0  0  0  0  0  0  0  0  0
    7.1156   -7.5454   16.8218 C   0  0  0  0  0  0  0  0  0  0  0  0
   10.3885   -4.4388   19.2773 C   0  0  0  0  0  0  0  0  0  0  0  0
    4.5160   -9.3822   15.0841 C   0  0  0  0  0  0  0  0  0  0  0  0
  1  3  4  0
  1 24  4  0
  2  6  4  0
  2 15  4  0
  3  5  4  0
  3  6  4  0
  4 21  4  0
  4 29  4  0
  5 15  4  0
  5 28  1  0
  6 16  4  0
  7 18  4  0
  7 26  4  0
  8 18  1  0
  8 19  4  0
  8 22  4  0
  9 12  4  0
  9 19  4  0
 10 12  4  0
 10 22  4  0
 11 20  4  0
 11 21  4  0
 12 23  1  0
 13 20  4  0
 13 29  4  0
 14 17  4  0
 14 28  4  0
 15 25  2  0
 16 27  4  0
 17 18  4  0
 20 27  1  0
 24 27  4  0
 26 28  4  0
M  END
$$$$

 Created by Python create_sdf_string function

 29 33  0  0  0  0  0  0  0  0999 V2000
    8.8270   -7.0288   18.4251 C   0  0  0  0  0  0  0  0  0  0  0  0
    9.1576   -4.6236   15.8860 O   0  0  0  0  0  0  0  0  0  0  0  0
    9.1509   -5.9108   17.7177 C   0  0  0  0  0  0  0  0  0  0  0  0
    3.6373   -9.5349   16.0582 N   0  0  0  0  0  0  0  0  0  0  0  0
    9.9275   -4.8001   18.0438 N   0  0  0  0  0  0  0  0  0  0  0  0
    8.5908   -5.7425   16.4412 C   0  0  0  0  0  0  0  0  0  0  0  0
   10.5993   -4.8981   21.6068 C   0  0  0  0  0  0  0  0  0  0  0  0
   10.4258   -3.0106   23.0998 C   0  0  0  0  0  0  0  0  0  0  0  0
   10.2148   -3.4364   25.4200 C   0  0  0  0  0  0  0  0  0  0  0  0
    9.7853   -1.1840   24.4927 C   0  0  0  0  0  0  0  0  0  0  0  0
    5.0276   -8.5227   17.5352 C   0  0  0  0  0  0  0  0  0  0  0  0
    9.8187   -2.0895   25.5800 C   0  0  0  0  0  0  0  0  0  0  0  0
    5.6473   -8.7216   15.3158 C   0  0  0  0  0  0  0  0  0  0  0  0
   10.7581   -3.1233   19.4720 N   0  0  0  0  0  0  0  0  0  0  0  0
    9.9571   -4.0573   16.8866 C   0  0  0  0  0  0  0  0  0  0  0  0
    7.6213   -6.5618   16.0087 C   0  0  0  0  0  0  0  0  0  0  0  0
   10.8583   -2.6527   20.7222 C   0  0  0  0  0  0  0  0  0  0  0  0
   10.6412   -3.5089   21.7936 C   0  0  0  0  0  0  0  0  0  0  0  0
   10.4972   -3.8968   24.1589 C   0  0  0  0  0  0  0  0  0  0  0  0
    5.9260   -8.2736   16.5517 C   0  0  0  0  0  0  0  0  0  0  0  0
    3.8816   -9.1166   17.2493 C   0  0  0  0  0  0  0  0  0  0  0  0
   10.1297   -1.6575   23.2324 C   0  0  0  0  0  0  0  0  0  0  0  0
    9.4684   -1.6929   26.7263 F   0  0  0  0  0  0  0  0  0  0  0  0
    7.7963   -7.7906   17.9837 C   0  0  0  0  0  0  0  0  0  0  0  0
   10.5884   -3.0725   16.7902 O   0  0  0  0  0  0  0  0  0  0  0  0
   10.4323   -5.3494   20.3516 C   0  0  0  0  0  0  0  0  0  0  0  0
    7.1156   -7.5454   16.8218 C   0  0  0  0  0  0  0  0  0  0  0  0
   10.3885   -4.4388   19.2773 C   0  0  0  0  0  0  0  0  0  0  0  0
    4.5160   -9.3822   15.0841 C   0  0  0  0  0  0  0  0  0  0  0  0
  1  3  4  0
  1 24  4  0
  2  6  4  0
  2 15  4  0
  3  5  4  0
  3  6  4  0
  4 21  4  0
  4 29  4  0
  5 15  4  0
  5 28  1  0
  6 16  4  0
  7 18  4  0
  7 26  4  0
  8 18  1  0
  8 19  4  0
  8 22  4  0
  9 12  4  0
  9 19  4  0
 10 12  4  0
 10 22  4  0
 11 20  4  0
 11 21  4  0
 12 23  1  0
 13 20  4  0
 13 29  4  0
 14 17  4  0
 14 28  4  0
 15 25  2  0
 16 27  4  0
 17 18  4  0
 20 27  1  0
 24 27  4  0
 26 28  4  0
M  END
$$$$

 Created by Python create_sdf_string function

 29 33  0  0  0  0  0  0  0  0999 V2000
    8.8270   -7.0288   18.4251 C   0  0  0  0  0  0  0  0  0  0  0  0
    9.1576   -4.6236   15.8860 O   0  0  0  0  0  0  0  0  0  0  0  0
    9.1509   -5.9108   17.7177 C   0  0  0  0  0  0  0  0  0  0  0  0
    3.6373   -9.5349   16.0582 N   0  0  0  0  0  0  0  0  0  0  0  0
    9.9275   -4.8001   18.0438 N   0  0  0  0  0  0  0  0  0  0  0  0
    8.5908   -5.7425   16.4412 C   0  0  0  0  0  0  0  0  0  0  0  0
   10.5993   -4.8981   21.6068 C   0  0  0  0  0  0  0  0  0  0  0  0
   10.4258   -3.0106   23.0998 C   0  0  0  0  0  0  0  0  0  0  0  0
   10.2148   -3.4364   25.4200 C   0  0  0  0  0  0  0  0  0  0  0  0
    9.7853   -1.1840   24.4927 C   0  0  0  0  0  0  0  0  0  0  0  0
    5.0276   -8.5227   17.5352 C   0  0  0  0  0  0  0  0  0  0  0  0
    9.8187   -2.0895   25.5800 C   0  0  0  0  0  0  0  0  0  0  0  0
    5.6473   -8.7216   15.3158 C   0  0  0  0  0  0  0  0  0  0  0  0
   10.7581   -3.1233   19.4720 N   0  0  0  0  0  0  0  0  0  0  0  0
    9.9571   -4.0573   16.8866 C   0  0  0  0  0  0  0  0  0  0  0  0
    7.6213   -6.5618   16.0087 C   0  0  0  0  0  0  0  0  0  0  0  0
   10.8583   -2.6527   20.7222 C   0  0  0  0  0  0  0  0  0  0  0  0
   10.6412   -3.5089   21.7936 C   0  0  0  0  0  0  0  0  0  0  0  0
   10.4972   -3.8968   24.1589 C   0  0  0  0  0  0  0  0  0  0  0  0
    5.9260   -8.2736   16.5517 C   0  0  0  0  0  0  0  0  0  0  0  0
    3.8816   -9.1166   17.2493 C   0  0  0  0  0  0  0  0  0  0  0  0
   10.1297   -1.6575   23.2324 C   0  0  0  0  0  0  0  0  0  0  0  0
    9.4684   -1.6929   26.7263 F   0  0  0  0  0  0  0  0  0  0  0  0
    7.7963   -7.7906   17.9837 C   0  0  0  0  0  0  0  0  0  0  0  0
   10.5884   -3.0725   16.7902 O   0  0  0  0  0  0  0  0  0  0  0  0
   10.4323   -5.3494   20.3516 C   0  0  0  0  0  0  0  0  0  0  0  0
    7.1156   -7.5454   16.8218 C   0  0  0  0  0  0  0  0  0  0  0  0
   10.3885   -4.4388   19.2773 C   0  0  0  0  0  0  0  0  0  0  0  0
    4.5160   -9.3822   15.0841 C   0  0  0  0  0  0  0  0  0  0  0  0
  1  3  4  0
  1 24  4  0
  2  6  4  0
  2 15  4  0
  3  5  4  0
  3  6  4  0
  4 21  4  0
  4 29  4  0
  5 15  4  0
  5 28  1  0
  6 16  4  0
  7 18  4  0
  7 26  4  0
  8 18  1  0
  8 19  4  0
  8 22  4  0
  9 12  4  0
  9 19  4  0
 10 12  4  0
 10 22  4  0
 11 20  4  0
 11 21  4  0
 12 23  1  0
 13 20  4  0
 13 29  4  0
 14 17  4  0
 14 28  4  0
 15 25  2  0
 16 27  4  0
 17 18  4  0
 20 27  1  0
 24 27  4  0
 26 28  4  0
M  END
$$$$

 Created by Python create_sdf_string function

 29 33  0  0  0  0  0  0  0  0999 V2000
    8.8270   -7.0288   18.4251 C   0  0  0  0  0  0  0  0  0  0  0  0
    9.1576   -4.6236   15.8860 O   0  0  0  0  0  0  0  0  0  0  0  0
    9.1509   -5.9108   17.7177 C   0  0  0  0  0  0  0  0  0  0  0  0
    3.6373   -9.5349   16.0582 N   0  0  0  0  0  0  0  0  0  0  0  0
    9.9275   -4.8001   18.0438 N   0  0  0  0  0  0  0  0  0  0  0  0
    8.5908   -5.7425   16.4412 C   0  0  0  0  0  0  0  0  0  0  0  0
   10.5993   -4.8981   21.6068 C   0  0  0  0  0  0  0  0  0  0  0  0
   10.4258   -3.0106   23.0998 C   0  0  0  0  0  0  0  0  0  0  0  0
   10.2148   -3.4364   25.4200 C   0  0  0  0  0  0  0  0  0  0  0  0
    9.7853   -1.1840   24.4927 C   0  0  0  0  0  0  0  0  0  0  0  0
    5.0276   -8.5227   17.5352 C   0  0  0  0  0  0  0  0  0  0  0  0
    9.8187   -2.0895   25.5800 C   0  0  0  0  0  0  0  0  0  0  0  0
    5.6473   -8.7216   15.3158 C   0  0  0  0  0  0  0  0  0  0  0  0
   10.7581   -3.1233   19.4720 N   0  0  0  0  0  0  0  0  0  0  0  0
    9.9571   -4.0573   16.8866 C   0  0  0  0  0  0  0  0  0  0  0  0
    7.6213   -6.5618   16.0087 C   0  0  0  0  0  0  0  0  0  0  0  0
   10.8583   -2.6527   20.7222 C   0  0  0  0  0  0  0  0  0  0  0  0
   10.6412   -3.5089   21.7936 C   0  0  0  0  0  0  0  0  0  0  0  0
   10.4972   -3.8968   24.1589 C   0  0  0  0  0  0  0  0  0  0  0  0
    5.9260   -8.2736   16.5517 C   0  0  0  0  0  0  0  0  0  0  0  0
    3.8816   -9.1166   17.2493 C   0  0  0  0  0  0  0  0  0  0  0  0
   10.1297   -1.6575   23.2324 C   0  0  0  0  0  0  0  0  0  0  0  0
    9.4684   -1.6929   26.7263 F   0  0  0  0  0  0  0  0  0  0  0  0
    7.7963   -7.7906   17.9837 C   0  0  0  0  0  0  0  0  0  0  0  0
   10.5884   -3.0725   16.7902 O   0  0  0  0  0  0  0  0  0  0  0  0
   10.4323   -5.3494   20.3516 C   0  0  0  0  0  0  0  0  0  0  0  0
    7.1156   -7.5454   16.8218 C   0  0  0  0  0  0  0  0  0  0  0  0
   10.3885   -4.4388   19.2773 C   0  0  0  0  0  0  0  0  0  0  0  0
    4.5160   -9.3822   15.0841 C   0  0  0  0  0  0  0  0  0  0  0  0
  1  3  4  0
  1 24  4  0
  2  6  4  0
  2 15  4  0
  3  5  4  0
  3  6  4  0
  4 21  4  0
  4 29  4  0
  5 15  4  0
  5 28  1  0
  6 16  4  0
  7 18  4  0
  7 26  4  0
  8 18  1  0
  8 19  4  0
  8 22  4  0
  9 12  4  0
  9 19  4  0
 10 12  4  0
 10 22  4  0
 11 20  4  0
 11 21  4  0
 12 23  1  0
 13 20  4  0
 13 29  4  0
 14 17  4  0
 14 28  4  0
 15 25  2  0
 16 27  4  0
 17 18  4  0
 20 27  1  0
 24 27  4  0
 26 28  4  0
M  END
$$$$

 Created by Python create_sdf_string function

 29 33  0  0  0  0  0  0  0  0999 V2000
    8.8270   -7.0288   18.4251 C   0  0  0  0  0  0  0  0  0  0  0  0
    9.1576   -4.6236   15.8860 O   0  0  0  0  0  0  0  0  0  0  0  0
    9.1509   -5.9108   17.7177 C   0  0  0  0  0  0  0  0  0  0  0  0
    3.6373   -9.5349   16.0582 N   0  0  0  0  0  0  0  0  0  0  0  0
    9.9275   -4.8001   18.0438 N   0  0  0  0  0  0  0  0  0  0  0  0
    8.5908   -5.7425   16.4412 C   0  0  0  0  0  0  0  0  0  0  0  0
   10.5993   -4.8981   21.6068 C   0  0  0  0  0  0  0  0  0  0  0  0
   10.4258   -3.0106   23.0998 C   0  0  0  0  0  0  0  0  0  0  0  0
   10.2148   -3.4364   25.4200 C   0  0  0  0  0  0  0  0  0  0  0  0
    9.7853   -1.1840   24.4927 C   0  0  0  0  0  0  0  0  0  0  0  0
    5.0276   -8.5227   17.5352 C   0  0  0  0  0  0  0  0  0  0  0  0
    9.8187   -2.0895   25.5800 C   0  0  0  0  0  0  0  0  0  0  0  0
    5.6473   -8.7216   15.3158 C   0  0  0  0  0  0  0  0  0  0  0  0
   10.7581   -3.1233   19.4720 N   0  0  0  0  0  0  0  0  0  0  0  0
    9.9571   -4.0573   16.8866 C   0  0  0  0  0  0  0  0  0  0  0  0
    7.6213   -6.5618   16.0087 C   0  0  0  0  0  0  0  0  0  0  0  0
   10.8583   -2.6527   20.7222 C   0  0  0  0  0  0  0  0  0  0  0  0
   10.6412   -3.5089   21.7936 C   0  0  0  0  0  0  0  0  0  0  0  0
   10.4972   -3.8968   24.1589 C   0  0  0  0  0  0  0  0  0  0  0  0
    5.9260   -8.2736   16.5517 C   0  0  0  0  0  0  0  0  0  0  0  0
    3.8816   -9.1166   17.2493 C   0  0  0  0  0  0  0  0  0  0  0  0
   10.1297   -1.6575   23.2324 C   0  0  0  0  0  0  0  0  0  0  0  0
    9.4684   -1.6929   26.7263 F   0  0  0  0  0  0  0  0  0  0  0  0
    7.7963   -7.7906   17.9837 C   0  0  0  0  0  0  0  0  0  0  0  0
   10.5884   -3.0725   16.7902 O   0  0  0  0  0  0  0  0  0  0  0  0
   10.4323   -5.3494   20.3516 C   0  0  0  0  0  0  0  0  0  0  0  0
    7.1156   -7.5454   16.8218 C   0  0  0  0  0  0  0  0  0  0  0  0
   10.3885   -4.4388   19.2773 C   0  0  0  0  0  0  0  0  0  0  0  0
    4.5160   -9.3822   15.0841 C   0  0  0  0  0  0  0  0  0  0  0  0
  1  3  4  0
  1 24  4  0
  2  6  4  0
  2 15  4  0
  3  5  4  0
  3  6  4  0
  4 21  4  0
  4 29  4  0
  5 15  4  0
  5 28  1  0
  6 16  4  0
  7 18  4  0
  7 26  4  0
  8 18  1  0
  8 19  4  0
  8 22  4  0
  9 12  4  0
  9 19  4  0
 10 12  4  0
 10 22  4  0
 11 20  4  0
 11 21  4  0
 12 23  1  0
 13 20  4  0
 13 29  4  0
 14 17  4  0
 14 28  4  0
 15 25  2  0
 16 27  4  0
 17 18  4  0
 20 27  1  0
 24 27  4  0
 26 28  4  0
M  END
$$$$

 Created by Python create_sdf_string function

 29 33  0  0  0  0  0  0  0  0999 V2000
    8.8270   -7.0288   18.4251 C   0  0  0  0  0  0  0  0  0  0  0  0
    9.1576   -4.6236   15.8860 O   0  0  0  0  0  0  0  0  0  0  0  0
    9.1509   -5.9108   17.7177 C   0  0  0  0  0  0  0  0  0  0  0  0
    3.6373   -9.5349   16.0582 N   0  0  0  0  0  0  0  0  0  0  0  0
    9.9275   -4.8001   18.0438 N   0  0  0  0  0  0  0  0  0  0  0  0
    8.5908   -5.7425   16.4412 C   0  0  0  0  0  0  0  0  0  0  0  0
   10.5993   -4.8981   21.6068 C   0  0  0  0  0  0  0  0  0  0  0  0
   10.4258   -3.0106   23.0998 C   0  0  0  0  0  0  0  0  0  0  0  0
   10.2148   -3.4364   25.4200 C   0  0  0  0  0  0  0  0  0  0  0  0
    9.7853   -1.1840   24.4927 C   0  0  0  0  0  0  0  0  0  0  0  0
    5.0276   -8.5227   17.5352 C   0  0  0  0  0  0  0  0  0  0  0  0
    9.8187   -2.0895   25.5800 C   0  0  0  0  0  0  0  0  0  0  0  0
    5.6473   -8.7216   15.3158 C   0  0  0  0  0  0  0  0  0  0  0  0
   10.7581   -3.1233   19.4720 N   0  0  0  0  0  0  0  0  0  0  0  0
    9.9571   -4.0573   16.8866 C   0  0  0  0  0  0  0  0  0  0  0  0
    7.6213   -6.5618   16.0087 C   0  0  0  0  0  0  0  0  0  0  0  0
   10.8583   -2.6527   20.7222 C   0  0  0  0  0  0  0  0  0  0  0  0
   10.6412   -3.5089   21.7936 C   0  0  0  0  0  0  0  0  0  0  0  0
   10.4972   -3.8968   24.1589 C   0  0  0  0  0  0  0  0  0  0  0  0
    5.9260   -8.2736   16.5517 C   0  0  0  0  0  0  0  0  0  0  0  0
    3.8816   -9.1166   17.2493 C   0  0  0  0  0  0  0  0  0  0  0  0
   10.1297   -1.6575   23.2324 C   0  0  0  0  0  0  0  0  0  0  0  0
    9.4684   -1.6929   26.7263 F   0  0  0  0  0  0  0  0  0  0  0  0
    7.7963   -7.7906   17.9837 C   0  0  0  0  0  0  0  0  0  0  0  0
   10.5884   -3.0725   16.7902 O   0  0  0  0  0  0  0  0  0  0  0  0
   10.4323   -5.3494   20.3516 C   0  0  0  0  0  0  0  0  0  0  0  0
    7.1156   -7.5454   16.8218 C   0  0  0  0  0  0  0  0  0  0  0  0
   10.3885   -4.4388   19.2773 C   0  0  0  0  0  0  0  0  0  0  0  0
    4.5160   -9.3822   15.0841 C   0  0  0  0  0  0  0  0  0  0  0  0
  1  3  4  0
  1 24  4  0
  2  6  4  0
  2 15  4  0
  3  5  4  0
  3  6  4  0
  4 21  4  0
  4 29  4  0
  5 15  4  0
  5 28  1  0
  6 16  4  0
  7 18  4  0
  7 26  4  0
  8 18  1  0
  8 19  4  0
  8 22  4  0
  9 12  4  0
  9 19  4  0
 10 12  4  0
 10 22  4  0
 11 20  4  0
 11 21  4  0
 12 23  1  0
 13 20  4  0
 13 29  4  0
 14 17  4  0
 14 28  4  0
 15 25  2  0
 16 27  4  0
 17 18  4  0
 20 27  1  0
 24 27  4  0
 26 28  4  0
M  END
$$$$

 Created by Python create_sdf_string function

 29 33  0  0  0  0  0  0  0  0999 V2000
    8.8270   -7.0288   18.4251 C   0  0  0  0  0  0  0  0  0  0  0  0
    9.1576   -4.6236   15.8860 O   0  0  0  0  0  0  0  0  0  0  0  0
    9.1509   -5.9108   17.7177 C   0  0  0  0  0  0  0  0  0  0  0  0
    3.6373   -9.5349   16.0582 N   0  0  0  0  0  0  0  0  0  0  0  0
    9.9275   -4.8001   18.0438 N   0  0  0  0  0  0  0  0  0  0  0  0
    8.5908   -5.7425   16.4412 C   0  0  0  0  0  0  0  0  0  0  0  0
   10.5993   -4.8981   21.6068 C   0  0  0  0  0  0  0  0  0  0  0  0
   10.4258   -3.0106   23.0998 C   0  0  0  0  0  0  0  0  0  0  0  0
   10.2148   -3.4364   25.4200 C   0  0  0  0  0  0  0  0  0  0  0  0
    9.7853   -1.1840   24.4927 C   0  0  0  0  0  0  0  0  0  0  0  0
    5.0276   -8.5227   17.5352 C   0  0  0  0  0  0  0  0  0  0  0  0
    9.8187   -2.0895   25.5800 C   0  0  0  0  0  0  0  0  0  0  0  0
    5.6473   -8.7216   15.3158 C   0  0  0  0  0  0  0  0  0  0  0  0
   10.7581   -3.1233   19.4720 N   0  0  0  0  0  0  0  0  0  0  0  0
    9.9571   -4.0573   16.8866 C   0  0  0  0  0  0  0  0  0  0  0  0
    7.6213   -6.5618   16.0087 C   0  0  0  0  0  0  0  0  0  0  0  0
   10.8583   -2.6527   20.7222 C   0  0  0  0  0  0  0  0  0  0  0  0
   10.6412   -3.5089   21.7936 C   0  0  0  0  0  0  0  0  0  0  0  0
   10.4972   -3.8968   24.1589 C   0  0  0  0  0  0  0  0  0  0  0  0
    5.9260   -8.2736   16.5517 C   0  0  0  0  0  0  0  0  0  0  0  0
    3.8816   -9.1166   17.2493 C   0  0  0  0  0  0  0  0  0  0  0  0
   10.1297   -1.6575   23.2324 C   0  0  0  0  0  0  0  0  0  0  0  0
    9.4684   -1.6929   26.7263 F   0  0  0  0  0  0  0  0  0  0  0  0
    7.7963   -7.7906   17.9837 C   0  0  0  0  0  0  0  0  0  0  0  0
   10.5884   -3.0725   16.7902 O   0  0  0  0  0  0  0  0  0  0  0  0
   10.4323   -5.3494   20.3516 C   0  0  0  0  0  0  0  0  0  0  0  0
    7.1156   -7.5454   16.8218 C   0  0  0  0  0  0  0  0  0  0  0  0
   10.3885   -4.4388   19.2773 C   0  0  0  0  0  0  0  0  0  0  0  0
    4.5160   -9.3822   15.0841 C   0  0  0  0  0  0  0  0  0  0  0  0
  1  3  4  0
  1 24  4  0
  2  6  4  0
  2 15  4  0
  3  5  4  0
  3  6  4  0
  4 21  4  0
  4 29  4  0
  5 15  4  0
  5 28  1  0
  6 16  4  0
  7 18  4  0
  7 26  4  0
  8 18  1  0
  8 19  4  0
  8 22  4  0
  9 12  4  0
  9 19  4  0
 10 12  4  0
 10 22  4  0
 11 20  4  0
 11 21  4  0
 12 23  1  0
 13 20  4  0
 13 29  4  0
 14 17  4  0
 14 28  4  0
 15 25  2  0
 16 27  4  0
 17 18  4  0
 20 27  1  0
 24 27  4  0
 26 28  4  0
M  END
$$$$

 Created by Python create_sdf_string function

 29 33  0  0  0  0  0  0  0  0999 V2000
    8.8270   -7.0288   18.4251 C   0  0  0  0  0  0  0  0  0  0  0  0
    9.1576   -4.6236   15.8860 O   0  0  0  0  0  0  0  0  0  0  0  0
    9.1509   -5.9108   17.7177 C   0  0  0  0  0  0  0  0  0  0  0  0
    3.6373   -9.5349   16.0582 N   0  0  0  0  0  0  0  0  0  0  0  0
    9.9275   -4.8001   18.0438 N   0  0  0  0  0  0  0  0  0  0  0  0
    8.5908   -5.7425   16.4412 C   0  0  0  0  0  0  0  0  0  0  0  0
   10.5993   -4.8981   21.6068 C   0  0  0  0  0  0  0  0  0  0  0  0
   10.4258   -3.0106   23.0998 C   0  0  0  0  0  0  0  0  0  0  0  0
   10.2148   -3.4364   25.4200 C   0  0  0  0  0  0  0  0  0  0  0  0
    9.7853   -1.1840   24.4927 C   0  0  0  0  0  0  0  0  0  0  0  0
    5.0276   -8.5227   17.5352 C   0  0  0  0  0  0  0  0  0  0  0  0
    9.8187   -2.0895   25.5800 C   0  0  0  0  0  0  0  0  0  0  0  0
    5.6473   -8.7216   15.3158 C   0  0  0  0  0  0  0  0  0  0  0  0
   10.7581   -3.1233   19.4720 N   0  0  0  0  0  0  0  0  0  0  0  0
    9.9571   -4.0573   16.8866 C   0  0  0  0  0  0  0  0  0  0  0  0
    7.6213   -6.5618   16.0087 C   0  0  0  0  0  0  0  0  0  0  0  0
   10.8583   -2.6527   20.7222 C   0  0  0  0  0  0  0  0  0  0  0  0
   10.6412   -3.5089   21.7936 C   0  0  0  0  0  0  0  0  0  0  0  0
   10.4972   -3.8968   24.1589 C   0  0  0  0  0  0  0  0  0  0  0  0
    5.9260   -8.2736   16.5517 C   0  0  0  0  0  0  0  0  0  0  0  0
    3.8816   -9.1166   17.2493 C   0  0  0  0  0  0  0  0  0  0  0  0
   10.1297   -1.6575   23.2324 C   0  0  0  0  0  0  0  0  0  0  0  0
    9.4684   -1.6929   26.7263 F   0  0  0  0  0  0  0  0  0  0  0  0
    7.7963   -7.7906   17.9837 C   0  0  0  0  0  0  0  0  0  0  0  0
   10.5884   -3.0725   16.7902 O   0  0  0  0  0  0  0  0  0  0  0  0
   10.4323   -5.3494   20.3516 C   0  0  0  0  0  0  0  0  0  0  0  0
    7.1156   -7.5454   16.8218 C   0  0  0  0  0  0  0  0  0  0  0  0
   10.3885   -4.4388   19.2773 C   0  0  0  0  0  0  0  0  0  0  0  0
    4.5160   -9.3822   15.0841 C   0  0  0  0  0  0  0  0  0  0  0  0
  1  3  4  0
  1 24  4  0
  2  6  4  0
  2 15  4  0
  3  5  4  0
  3  6  4  0
  4 21  4  0
  4 29  4  0
  5 15  4  0
  5 28  1  0
  6 16  4  0
  7 18  4  0
  7 26  4  0
  8 18  1  0
  8 19  4  0
  8 22  4  0
  9 12  4  0
  9 19  4  0
 10 12  4  0
 10 22  4  0
 11 20  4  0
 11 21  4  0
 12 23  1  0
 13 20  4  0
 13 29  4  0
 14 17  4  0
 14 28  4  0
 15 25  2  0
 16 27  4  0
 17 18  4  0
 20 27  1  0
 24 27  4  0
 26 28  4  0
M  END
$$$$

 Created by Python create_sdf_string function

 29 33  0  0  0  0  0  0  0  0999 V2000
    8.8270   -7.0288   18.4251 C   0  0  0  0  0  0  0  0  0  0  0  0
    9.1576   -4.6236   15.8860 O   0  0  0  0  0  0  0  0  0  0  0  0
    9.1509   -5.9108   17.7177 C   0  0  0  0  0  0  0  0  0  0  0  0
    3.6373   -9.5349   16.0582 N   0  0  0  0  0  0  0  0  0  0  0  0
    9.9275   -4.8001   18.0438 N   0  0  0  0  0  0  0  0  0  0  0  0
    8.5908   -5.7425   16.4412 C   0  0  0  0  0  0  0  0  0  0  0  0
   10.5993   -4.8981   21.6068 C   0  0  0  0  0  0  0  0  0  0  0  0
   10.4258   -3.0106   23.0998 C   0  0  0  0  0  0  0  0  0  0  0  0
   10.2148   -3.4364   25.4200 C   0  0  0  0  0  0  0  0  0  0  0  0
    9.7853   -1.1840   24.4927 C   0  0  0  0  0  0  0  0  0  0  0  0
    5.0276   -8.5227   17.5352 C   0  0  0  0  0  0  0  0  0  0  0  0
    9.8187   -2.0895   25.5800 C   0  0  0  0  0  0  0  0  0  0  0  0
    5.6473   -8.7216   15.3158 C   0  0  0  0  0  0  0  0  0  0  0  0
   10.7581   -3.1233   19.4720 N   0  0  0  0  0  0  0  0  0  0  0  0
    9.9571   -4.0573   16.8866 C   0  0  0  0  0  0  0  0  0  0  0  0
    7.6213   -6.5618   16.0087 C   0  0  0  0  0  0  0  0  0  0  0  0
   10.8583   -2.6527   20.7222 C   0  0  0  0  0  0  0  0  0  0  0  0
   10.6412   -3.5089   21.7936 C   0  0  0  0  0  0  0  0  0  0  0  0
   10.4972   -3.8968   24.1589 C   0  0  0  0  0  0  0  0  0  0  0  0
    5.9260   -8.2736   16.5517 C   0  0  0  0  0  0  0  0  0  0  0  0
    3.8816   -9.1166   17.2493 C   0  0  0  0  0  0  0  0  0  0  0  0
   10.1297   -1.6575   23.2324 C   0  0  0  0  0  0  0  0  0  0  0  0
    9.4684   -1.6929   26.7263 F   0  0  0  0  0  0  0  0  0  0  0  0
    7.7963   -7.7906   17.9837 C   0  0  0  0  0  0  0  0  0  0  0  0
   10.5884   -3.0725   16.7902 O   0  0  0  0  0  0  0  0  0  0  0  0
   10.4323   -5.3494   20.3516 C   0  0  0  0  0  0  0  0  0  0  0  0
    7.1156   -7.5454   16.8218 C   0  0  0  0  0  0  0  0  0  0  0  0
   10.3885   -4.4388   19.2773 C   0  0  0  0  0  0  0  0  0  0  0  0
    4.5160   -9.3822   15.0841 C   0  0  0  0  0  0  0  0  0  0  0  0
  1  3  4  0
  1 24  4  0
  2  6  4  0
  2 15  4  0
  3  5  4  0
  3  6  4  0
  4 21  4  0
  4 29  4  0
  5 15  4  0
  5 28  1  0
  6 16  4  0
  7 18  4  0
  7 26  4  0
  8 18  1  0
  8 19  4  0
  8 22  4  0
  9 12  4  0
  9 19  4  0
 10 12  4  0
 10 22  4  0
 11 20  4  0
 11 21  4  0
 12 23  1  0
 13 20  4  0
 13 29  4  0
 14 17  4  0
 14 28  4  0
 15 25  2  0
 16 27  4  0
 17 18  4  0
 20 27  1  0
 24 27  4  0
 26 28  4  0
M  END
$$$$

 Created by Python create_sdf_string function

 29 33  0  0  0  0  0  0  0  0999 V2000
    8.8270   -7.0288   18.4251 C   0  0  0  0  0  0  0  0  0  0  0  0
    9.1576   -4.6236   15.8860 O   0  0  0  0  0  0  0  0  0  0  0  0
    9.1509   -5.9108   17.7177 C   0  0  0  0  0  0  0  0  0  0  0  0
    3.6373   -9.5349   16.0582 N   0  0  0  0  0  0  0  0  0  0  0  0
    9.9275   -4.8001   18.0438 N   0  0  0  0  0  0  0  0  0  0  0  0
    8.5908   -5.7425   16.4412 C   0  0  0  0  0  0  0  0  0  0  0  0
   10.5993   -4.8981   21.6068 C   0  0  0  0  0  0  0  0  0  0  0  0
   10.4258   -3.0106   23.0998 C   0  0  0  0  0  0  0  0  0  0  0  0
   10.2148   -3.4364   25.4200 C   0  0  0  0  0  0  0  0  0  0  0  0
    9.7853   -1.1840   24.4927 C   0  0  0  0  0  0  0  0  0  0  0  0
    5.0276   -8.5227   17.5352 C   0  0  0  0  0  0  0  0  0  0  0  0
    9.8187   -2.0895   25.5800 C   0  0  0  0  0  0  0  0  0  0  0  0
    5.6473   -8.7216   15.3158 C   0  0  0  0  0  0  0  0  0  0  0  0
   10.7581   -3.1233   19.4720 N   0  0  0  0  0  0  0  0  0  0  0  0
    9.9571   -4.0573   16.8866 C   0  0  0  0  0  0  0  0  0  0  0  0
    7.6213   -6.5618   16.0087 C   0  0  0  0  0  0  0  0  0  0  0  0
   10.8583   -2.6527   20.7222 C   0  0  0  0  0  0  0  0  0  0  0  0
   10.6412   -3.5089   21.7936 C   0  0  0  0  0  0  0  0  0  0  0  0
   10.4972   -3.8968   24.1589 C   0  0  0  0  0  0  0  0  0  0  0  0
    5.9260   -8.2736   16.5517 C   0  0  0  0  0  0  0  0  0  0  0  0
    3.8816   -9.1166   17.2493 C   0  0  0  0  0  0  0  0  0  0  0  0
   10.1297   -1.6575   23.2324 C   0  0  0  0  0  0  0  0  0  0  0  0
    9.4684   -1.6929   26.7263 F   0  0  0  0  0  0  0  0  0  0  0  0
    7.7963   -7.7906   17.9837 C   0  0  0  0  0  0  0  0  0  0  0  0
   10.5884   -3.0725   16.7902 O   0  0  0  0  0  0  0  0  0  0  0  0
   10.4323   -5.3494   20.3516 C   0  0  0  0  0  0  0  0  0  0  0  0
    7.1156   -7.5454   16.8218 C   0  0  0  0  0  0  0  0  0  0  0  0
   10.3885   -4.4388   19.2773 C   0  0  0  0  0  0  0  0  0  0  0  0
    4.5160   -9.3822   15.0841 C   0  0  0  0  0  0  0  0  0  0  0  0
  1  3  4  0
  1 24  4  0
  2  6  4  0
  2 15  4  0
  3  5  4  0
  3  6  4  0
  4 21  4  0
  4 29  4  0
  5 15  4  0
  5 28  1  0
  6 16  4  0
  7 18  4  0
  7 26  4  0
  8 18  1  0
  8 19  4  0
  8 22  4  0
  9 12  4  0
  9 19  4  0
 10 12  4  0
 10 22  4  0
 11 20  4  0
 11 21  4  0
 12 23  1  0
 13 20  4  0
 13 29  4  0
 14 17  4  0
 14 28  4  0
 15 25  2  0
 16 27  4  0
 17 18  4  0
 20 27  1  0
 24 27  4  0
 26 28  4  0
M  END
$$$$

 Created by Python create_sdf_string function

 29 33  0  0  0  0  0  0  0  0999 V2000
    8.8270   -7.0288   18.4251 C   0  0  0  0  0  0  0  0  0  0  0  0
    9.1576   -4.6236   15.8860 O   0  0  0  0  0  0  0  0  0  0  0  0
    9.1509   -5.9108   17.7177 C   0  0  0  0  0  0  0  0  0  0  0  0
    3.6373   -9.5349   16.0582 N   0  0  0  0  0  0  0  0  0  0  0  0
    9.9275   -4.8001   18.0438 N   0  0  0  0  0  0  0  0  0  0  0  0
    8.5908   -5.7425   16.4412 C   0  0  0  0  0  0  0  0  0  0  0  0
   10.5993   -4.8981   21.6068 C   0  0  0  0  0  0  0  0  0  0  0  0
   10.4258   -3.0106   23.0998 C   0  0  0  0  0  0  0  0  0  0  0  0
   10.2148   -3.4364   25.4200 C   0  0  0  0  0  0  0  0  0  0  0  0
    9.7853   -1.1840   24.4927 C   0  0  0  0  0  0  0  0  0  0  0  0
    5.0276   -8.5227   17.5352 C   0  0  0  0  0  0  0  0  0  0  0  0
    9.8187   -2.0895   25.5800 C   0  0  0  0  0  0  0  0  0  0  0  0
    5.6473   -8.7216   15.3158 C   0  0  0  0  0  0  0  0  0  0  0  0
   10.7581   -3.1233   19.4720 N   0  0  0  0  0  0  0  0  0  0  0  0
    9.9571   -4.0573   16.8866 C   0  0  0  0  0  0  0  0  0  0  0  0
    7.6213   -6.5618   16.0087 C   0  0  0  0  0  0  0  0  0  0  0  0
   10.8583   -2.6527   20.7222 C   0  0  0  0  0  0  0  0  0  0  0  0
   10.6412   -3.5089   21.7936 C   0  0  0  0  0  0  0  0  0  0  0  0
   10.4972   -3.8968   24.1589 C   0  0  0  0  0  0  0  0  0  0  0  0
    5.9260   -8.2736   16.5517 C   0  0  0  0  0  0  0  0  0  0  0  0
    3.8816   -9.1166   17.2493 C   0  0  0  0  0  0  0  0  0  0  0  0
   10.1297   -1.6575   23.2324 C   0  0  0  0  0  0  0  0  0  0  0  0
    9.4684   -1.6929   26.7263 F   0  0  0  0  0  0  0  0  0  0  0  0
    7.7963   -7.7906   17.9837 C   0  0  0  0  0  0  0  0  0  0  0  0
   10.5884   -3.0725   16.7902 O   0  0  0  0  0  0  0  0  0  0  0  0
   10.4323   -5.3494   20.3516 C   0  0  0  0  0  0  0  0  0  0  0  0
    7.1156   -7.5454   16.8218 C   0  0  0  0  0  0  0  0  0  0  0  0
   10.3885   -4.4388   19.2773 C   0  0  0  0  0  0  0  0  0  0  0  0
    4.5160   -9.3822   15.0841 C   0  0  0  0  0  0  0  0  0  0  0  0
  1  3  4  0
  1 24  4  0
  2  6  4  0
  2 15  4  0
  3  5  4  0
  3  6  4  0
  4 21  4  0
  4 29  4  0
  5 15  4  0
  5 28  1  0
  6 16  4  0
  7 18  4  0
  7 26  4  0
  8 18  1  0
  8 19  4  0
  8 22  4  0
  9 12  4  0
  9 19  4  0
 10 12  4  0
 10 22  4  0
 11 20  4  0
 11 21  4  0
 12 23  1  0
 13 20  4  0
 13 29  4  0
 14 17  4  0
 14 28  4  0
 15 25  2  0
 16 27  4  0
 17 18  4  0
 20 27  1  0
 24 27  4  0
 26 28  4  0
M  END
$$$$

 Created by Python create_sdf_string function

 29 33  0  0  0  0  0  0  0  0999 V2000
    8.8270   -7.0288   18.4251 C   0  0  0  0  0  0  0  0  0  0  0  0
    9.1576   -4.6236   15.8860 O   0  0  0  0  0  0  0  0  0  0  0  0
    9.1509   -5.9108   17.7177 C   0  0  0  0  0  0  0  0  0  0  0  0
    3.6373   -9.5349   16.0582 N   0  0  0  0  0  0  0  0  0  0  0  0
    9.9275   -4.8001   18.0438 N   0  0  0  0  0  0  0  0  0  0  0  0
    8.5908   -5.7425   16.4412 C   0  0  0  0  0  0  0  0  0  0  0  0
   10.5993   -4.8981   21.6068 C   0  0  0  0  0  0  0  0  0  0  0  0
   10.4258   -3.0106   23.0998 C   0  0  0  0  0  0  0  0  0  0  0  0
   10.2148   -3.4364   25.4200 C   0  0  0  0  0  0  0  0  0  0  0  0
    9.7853   -1.1840   24.4927 C   0  0  0  0  0  0  0  0  0  0  0  0
    5.0276   -8.5227   17.5352 C   0  0  0  0  0  0  0  0  0  0  0  0
    9.8187   -2.0895   25.5800 C   0  0  0  0  0  0  0  0  0  0  0  0
    5.6473   -8.7216   15.3158 C   0  0  0  0  0  0  0  0  0  0  0  0
   10.7581   -3.1233   19.4720 N   0  0  0  0  0  0  0  0  0  0  0  0
    9.9571   -4.0573   16.8866 C   0  0  0  0  0  0  0  0  0  0  0  0
    7.6213   -6.5618   16.0087 C   0  0  0  0  0  0  0  0  0  0  0  0
   10.8583   -2.6527   20.7222 C   0  0  0  0  0  0  0  0  0  0  0  0
   10.6412   -3.5089   21.7936 C   0  0  0  0  0  0  0  0  0  0  0  0
   10.4972   -3.8968   24.1589 C   0  0  0  0  0  0  0  0  0  0  0  0
    5.9260   -8.2736   16.5517 C   0  0  0  0  0  0  0  0  0  0  0  0
    3.8816   -9.1166   17.2493 C   0  0  0  0  0  0  0  0  0  0  0  0
   10.1297   -1.6575   23.2324 C   0  0  0  0  0  0  0  0  0  0  0  0
    9.4684   -1.6929   26.7263 F   0  0  0  0  0  0  0  0  0  0  0  0
    7.7963   -7.7906   17.9837 C   0  0  0  0  0  0  0  0  0  0  0  0
   10.5884   -3.0725   16.7902 O   0  0  0  0  0  0  0  0  0  0  0  0
   10.4323   -5.3494   20.3516 C   0  0  0  0  0  0  0  0  0  0  0  0
    7.1156   -7.5454   16.8218 C   0  0  0  0  0  0  0  0  0  0  0  0
   10.3885   -4.4388   19.2773 C   0  0  0  0  0  0  0  0  0  0  0  0
    4.5160   -9.3822   15.0841 C   0  0  0  0  0  0  0  0  0  0  0  0
  1  3  4  0
  1 24  4  0
  2  6  4  0
  2 15  4  0
  3  5  4  0
  3  6  4  0
  4 21  4  0
  4 29  4  0
  5 15  4  0
  5 28  1  0
  6 16  4  0
  7 18  4  0
  7 26  4  0
  8 18  1  0
  8 19  4  0
  8 22  4  0
  9 12  4  0
  9 19  4  0
 10 12  4  0
 10 22  4  0
 11 20  4  0
 11 21  4  0
 12 23  1  0
 13 20  4  0
 13 29  4  0
 14 17  4  0
 14 28  4  0
 15 25  2  0
 16 27  4  0
 17 18  4  0
 20 27  1  0
 24 27  4  0
 26 28  4  0
M  END
$$$$

 Created by Python create_sdf_string function

 29 33  0  0  0  0  0  0  0  0999 V2000
    8.8270   -7.0288   18.4251 C   0  0  0  0  0  0  0  0  0  0  0  0
    9.1576   -4.6236   15.8860 O   0  0  0  0  0  0  0  0  0  0  0  0
    9.1509   -5.9108   17.7177 C   0  0  0  0  0  0  0  0  0  0  0  0
    3.6373   -9.5349   16.0582 N   0  0  0  0  0  0  0  0  0  0  0  0
    9.9275   -4.8001   18.0438 N   0  0  0  0  0  0  0  0  0  0  0  0
    8.5908   -5.7425   16.4412 C   0  0  0  0  0  0  0  0  0  0  0  0
   10.5993   -4.8981   21.6068 C   0  0  0  0  0  0  0  0  0  0  0  0
   10.4258   -3.0106   23.0998 C   0  0  0  0  0  0  0  0  0  0  0  0
   10.2148   -3.4364   25.4200 C   0  0  0  0  0  0  0  0  0  0  0  0
    9.7853   -1.1840   24.4927 C   0  0  0  0  0  0  0  0  0  0  0  0
    5.0276   -8.5227   17.5352 C   0  0  0  0  0  0  0  0  0  0  0  0
    9.8187   -2.0895   25.5800 C   0  0  0  0  0  0  0  0  0  0  0  0
    5.6473   -8.7216   15.3158 C   0  0  0  0  0  0  0  0  0  0  0  0
   10.7581   -3.1233   19.4720 N   0  0  0  0  0  0  0  0  0  0  0  0
    9.9571   -4.0573   16.8866 C   0  0  0  0  0  0  0  0  0  0  0  0
    7.6213   -6.5618   16.0087 C   0  0  0  0  0  0  0  0  0  0  0  0
   10.8583   -2.6527   20.7222 C   0  0  0  0  0  0  0  0  0  0  0  0
   10.6412   -3.5089   21.7936 C   0  0  0  0  0  0  0  0  0  0  0  0
   10.4972   -3.8968   24.1589 C   0  0  0  0  0  0  0  0  0  0  0  0
    5.9260   -8.2736   16.5517 C   0  0  0  0  0  0  0  0  0  0  0  0
    3.8816   -9.1166   17.2493 C   0  0  0  0  0  0  0  0  0  0  0  0
   10.1297   -1.6575   23.2324 C   0  0  0  0  0  0  0  0  0  0  0  0
    9.4684   -1.6929   26.7263 F   0  0  0  0  0  0  0  0  0  0  0  0
    7.7963   -7.7906   17.9837 C   0  0  0  0  0  0  0  0  0  0  0  0
   10.5884   -3.0725   16.7902 O   0  0  0  0  0  0  0  0  0  0  0  0
   10.4323   -5.3494   20.3516 C   0  0  0  0  0  0  0  0  0  0  0  0
    7.1156   -7.5454   16.8218 C   0  0  0  0  0  0  0  0  0  0  0  0
   10.3885   -4.4388   19.2773 C   0  0  0  0  0  0  0  0  0  0  0  0
    4.5160   -9.3822   15.0841 C   0  0  0  0  0  0  0  0  0  0  0  0
  1  3  4  0
  1 24  4  0
  2  6  4  0
  2 15  4  0
  3  5  4  0
  3  6  4  0
  4 21  4  0
  4 29  4  0
  5 15  4  0
  5 28  1  0
  6 16  4  0
  7 18  4  0
  7 26  4  0
  8 18  1  0
  8 19  4  0
  8 22  4  0
  9 12  4  0
  9 19  4  0
 10 12  4  0
 10 22  4  0
 11 20  4  0
 11 21  4  0
 12 23  1  0
 13 20  4  0
 13 29  4  0
 14 17  4  0
 14 28  4  0
 15 25  2  0
 16 27  4  0
 17 18  4  0
 20 27  1  0
 24 27  4  0
 26 28  4  0
M  END
$$$$

 Created by Python create_sdf_string function

 29 33  0  0  0  0  0  0  0  0999 V2000
    8.8270   -7.0288   18.4251 C   0  0  0  0  0  0  0  0  0  0  0  0
    9.1576   -4.6236   15.8860 O   0  0  0  0  0  0  0  0  0  0  0  0
    9.1509   -5.9108   17.7177 C   0  0  0  0  0  0  0  0  0  0  0  0
    3.6373   -9.5349   16.0582 N   0  0  0  0  0  0  0  0  0  0  0  0
    9.9275   -4.8001   18.0438 N   0  0  0  0  0  0  0  0  0  0  0  0
    8.5908   -5.7425   16.4412 C   0  0  0  0  0  0  0  0  0  0  0  0
   10.5993   -4.8981   21.6068 C   0  0  0  0  0  0  0  0  0  0  0  0
   10.4258   -3.0106   23.0998 C   0  0  0  0  0  0  0  0  0  0  0  0
   10.2148   -3.4364   25.4200 C   0  0  0  0  0  0  0  0  0  0  0  0
    9.7853   -1.1840   24.4927 C   0  0  0  0  0  0  0  0  0  0  0  0
    5.0276   -8.5227   17.5352 C   0  0  0  0  0  0  0  0  0  0  0  0
    9.8187   -2.0895   25.5800 C   0  0  0  0  0  0  0  0  0  0  0  0
    5.6473   -8.7216   15.3158 C   0  0  0  0  0  0  0  0  0  0  0  0
   10.7581   -3.1233   19.4720 N   0  0  0  0  0  0  0  0  0  0  0  0
    9.9571   -4.0573   16.8866 C   0  0  0  0  0  0  0  0  0  0  0  0
    7.6213   -6.5618   16.0087 C   0  0  0  0  0  0  0  0  0  0  0  0
   10.8583   -2.6527   20.7222 C   0  0  0  0  0  0  0  0  0  0  0  0
   10.6412   -3.5089   21.7936 C   0  0  0  0  0  0  0  0  0  0  0  0
   10.4972   -3.8968   24.1589 C   0  0  0  0  0  0  0  0  0  0  0  0
    5.9260   -8.2736   16.5517 C   0  0  0  0  0  0  0  0  0  0  0  0
    3.8816   -9.1166   17.2493 C   0  0  0  0  0  0  0  0  0  0  0  0
   10.1297   -1.6575   23.2324 C   0  0  0  0  0  0  0  0  0  0  0  0
    9.4684   -1.6929   26.7263 F   0  0  0  0  0  0  0  0  0  0  0  0
    7.7963   -7.7906   17.9837 C   0  0  0  0  0  0  0  0  0  0  0  0
   10.5884   -3.0725   16.7902 O   0  0  0  0  0  0  0  0  0  0  0  0
   10.4323   -5.3494   20.3516 C   0  0  0  0  0  0  0  0  0  0  0  0
    7.1156   -7.5454   16.8218 C   0  0  0  0  0  0  0  0  0  0  0  0
   10.3885   -4.4388   19.2773 C   0  0  0  0  0  0  0  0  0  0  0  0
    4.5160   -9.3822   15.0841 C   0  0  0  0  0  0  0  0  0  0  0  0
  1  3  4  0
  1 24  4  0
  2  6  4  0
  2 15  4  0
  3  5  4  0
  3  6  4  0
  4 21  4  0
  4 29  4  0
  5 15  4  0
  5 28  1  0
  6 16  4  0
  7 18  4  0
  7 26  4  0
  8 18  1  0
  8 19  4  0
  8 22  4  0
  9 12  4  0
  9 19  4  0
 10 12  4  0
 10 22  4  0
 11 20  4  0
 11 21  4  0
 12 23  1  0
 13 20  4  0
 13 29  4  0
 14 17  4  0
 14 28  4  0
 15 25  2  0
 16 27  4  0
 17 18  4  0
 20 27  1  0
 24 27  4  0
 26 28  4  0
M  END
$$$$

 Created by Python create_sdf_string function

 29 33  0  0  0  0  0  0  0  0999 V2000
    8.8270   -7.0288   18.4251 C   0  0  0  0  0  0  0  0  0  0  0  0
    9.1576   -4.6236   15.8860 O   0  0  0  0  0  0  0  0  0  0  0  0
    9.1509   -5.9108   17.7177 C   0  0  0  0  0  0  0  0  0  0  0  0
    3.6373   -9.5349   16.0582 N   0  0  0  0  0  0  0  0  0  0  0  0
    9.9275   -4.8001   18.0438 N   0  0  0  0  0  0  0  0  0  0  0  0
    8.5908   -5.7425   16.4412 C   0  0  0  0  0  0  0  0  0  0  0  0
   10.5993   -4.8981   21.6068 C   0  0  0  0  0  0  0  0  0  0  0  0
   10.4258   -3.0106   23.0998 C   0  0  0  0  0  0  0  0  0  0  0  0
   10.2148   -3.4364   25.4200 C   0  0  0  0  0  0  0  0  0  0  0  0
    9.7853   -1.1840   24.4927 C   0  0  0  0  0  0  0  0  0  0  0  0
    5.0276   -8.5227   17.5352 C   0  0  0  0  0  0  0  0  0  0  0  0
    9.8187   -2.0895   25.5800 C   0  0  0  0  0  0  0  0  0  0  0  0
    5.6473   -8.7216   15.3158 C   0  0  0  0  0  0  0  0  0  0  0  0
   10.7581   -3.1233   19.4720 N   0  0  0  0  0  0  0  0  0  0  0  0
    9.9571   -4.0573   16.8866 C   0  0  0  0  0  0  0  0  0  0  0  0
    7.6213   -6.5618   16.0087 C   0  0  0  0  0  0  0  0  0  0  0  0
   10.8583   -2.6527   20.7222 C   0  0  0  0  0  0  0  0  0  0  0  0
   10.6412   -3.5089   21.7936 C   0  0  0  0  0  0  0  0  0  0  0  0
   10.4972   -3.8968   24.1589 C   0  0  0  0  0  0  0  0  0  0  0  0
    5.9260   -8.2736   16.5517 C   0  0  0  0  0  0  0  0  0  0  0  0
    3.8816   -9.1166   17.2493 C   0  0  0  0  0  0  0  0  0  0  0  0
   10.1297   -1.6575   23.2324 C   0  0  0  0  0  0  0  0  0  0  0  0
    9.4684   -1.6929   26.7263 F   0  0  0  0  0  0  0  0  0  0  0  0
    7.7963   -7.7906   17.9837 C   0  0  0  0  0  0  0  0  0  0  0  0
   10.5884   -3.0725   16.7902 O   0  0  0  0  0  0  0  0  0  0  0  0
   10.4323   -5.3494   20.3516 C   0  0  0  0  0  0  0  0  0  0  0  0
    7.1156   -7.5454   16.8218 C   0  0  0  0  0  0  0  0  0  0  0  0
   10.3885   -4.4388   19.2773 C   0  0  0  0  0  0  0  0  0  0  0  0
    4.5160   -9.3822   15.0841 C   0  0  0  0  0  0  0  0  0  0  0  0
  1  3  4  0
  1 24  4  0
  2  6  4  0
  2 15  4  0
  3  5  4  0
  3  6  4  0
  4 21  4  0
  4 29  4  0
  5 15  4  0
  5 28  1  0
  6 16  4  0
  7 18  4  0
  7 26  4  0
  8 18  1  0
  8 19  4  0
  8 22  4  0
  9 12  4  0
  9 19  4  0
 10 12  4  0
 10 22  4  0
 11 20  4  0
 11 21  4  0
 12 23  1  0
 13 20  4  0
 13 29  4  0
 14 17  4  0
 14 28  4  0
 15 25  2  0
 16 27  4  0
 17 18  4  0
 20 27  1  0
 24 27  4  0
 26 28  4  0
M  END
$$$$

 Created by Python create_sdf_string function

 29 33  0  0  0  0  0  0  0  0999 V2000
    8.8270   -7.0288   18.4251 C   0  0  0  0  0  0  0  0  0  0  0  0
    9.1576   -4.6236   15.8860 O   0  0  0  0  0  0  0  0  0  0  0  0
    9.1509   -5.9108   17.7177 C   0  0  0  0  0  0  0  0  0  0  0  0
    3.6373   -9.5349   16.0582 N   0  0  0  0  0  0  0  0  0  0  0  0
    9.9275   -4.8001   18.0438 N   0  0  0  0  0  0  0  0  0  0  0  0
    8.5908   -5.7425   16.4412 C   0  0  0  0  0  0  0  0  0  0  0  0
   10.5993   -4.8981   21.6068 C   0  0  0  0  0  0  0  0  0  0  0  0
   10.4258   -3.0106   23.0998 C   0  0  0  0  0  0  0  0  0  0  0  0
   10.2148   -3.4364   25.4200 C   0  0  0  0  0  0  0  0  0  0  0  0
    9.7853   -1.1840   24.4927 C   0  0  0  0  0  0  0  0  0  0  0  0
    5.0276   -8.5227   17.5352 C   0  0  0  0  0  0  0  0  0  0  0  0
    9.8187   -2.0895   25.5800 C   0  0  0  0  0  0  0  0  0  0  0  0
    5.6473   -8.7216   15.3158 C   0  0  0  0  0  0  0  0  0  0  0  0
   10.7581   -3.1233   19.4720 N   0  0  0  0  0  0  0  0  0  0  0  0
    9.9571   -4.0573   16.8866 C   0  0  0  0  0  0  0  0  0  0  0  0
    7.6213   -6.5618   16.0087 C   0  0  0  0  0  0  0  0  0  0  0  0
   10.8583   -2.6527   20.7222 C   0  0  0  0  0  0  0  0  0  0  0  0
   10.6412   -3.5089   21.7936 C   0  0  0  0  0  0  0  0  0  0  0  0
   10.4972   -3.8968   24.1589 C   0  0  0  0  0  0  0  0  0  0  0  0
    5.9260   -8.2736   16.5517 C   0  0  0  0  0  0  0  0  0  0  0  0
    3.8816   -9.1166   17.2493 C   0  0  0  0  0  0  0  0  0  0  0  0
   10.1297   -1.6575   23.2324 C   0  0  0  0  0  0  0  0  0  0  0  0
    9.4684   -1.6929   26.7263 F   0  0  0  0  0  0  0  0  0  0  0  0
    7.7963   -7.7906   17.9837 C   0  0  0  0  0  0  0  0  0  0  0  0
   10.5884   -3.0725   16.7902 O   0  0  0  0  0  0  0  0  0  0  0  0
   10.4323   -5.3494   20.3516 C   0  0  0  0  0  0  0  0  0  0  0  0
    7.1156   -7.5454   16.8218 C   0  0  0  0  0  0  0  0  0  0  0  0
   10.3885   -4.4388   19.2773 C   0  0  0  0  0  0  0  0  0  0  0  0
    4.5160   -9.3822   15.0841 C   0  0  0  0  0  0  0  0  0  0  0  0
  1  3  4  0
  1 24  4  0
  2  6  4  0
  2 15  4  0
  3  5  4  0
  3  6  4  0
  4 21  4  0
  4 29  4  0
  5 15  4  0
  5 28  1  0
  6 16  4  0
  7 18  4  0
  7 26  4  0
  8 18  1  0
  8 19  4  0
  8 22  4  0
  9 12  4  0
  9 19  4  0
 10 12  4  0
 10 22  4  0
 11 20  4  0
 11 21  4  0
 12 23  1  0
 13 20  4  0
 13 29  4  0
 14 17  4  0
 14 28  4  0
 15 25  2  0
 16 27  4  0
 17 18  4  0
 20 27  1  0
 24 27  4  0
 26 28  4  0
M  END
$$$$

 Created by Python create_sdf_string function

 29 33  0  0  0  0  0  0  0  0999 V2000
    8.8270   -7.0288   18.4251 C   0  0  0  0  0  0  0  0  0  0  0  0
    9.1576   -4.6236   15.8860 O   0  0  0  0  0  0  0  0  0  0  0  0
    9.1509   -5.9108   17.7177 C   0  0  0  0  0  0  0  0  0  0  0  0
    3.6373   -9.5349   16.0582 N   0  0  0  0  0  0  0  0  0  0  0  0
    9.9275   -4.8001   18.0438 N   0  0  0  0  0  0  0  0  0  0  0  0
    8.5908   -5.7425   16.4412 C   0  0  0  0  0  0  0  0  0  0  0  0
   10.5993   -4.8981   21.6068 C   0  0  0  0  0  0  0  0  0  0  0  0
   10.4258   -3.0106   23.0998 C   0  0  0  0  0  0  0  0  0  0  0  0
   10.2148   -3.4364   25.4200 C   0  0  0  0  0  0  0  0  0  0  0  0
    9.7853   -1.1840   24.4927 C   0  0  0  0  0  0  0  0  0  0  0  0
    5.0276   -8.5227   17.5352 C   0  0  0  0  0  0  0  0  0  0  0  0
    9.8187   -2.0895   25.5800 C   0  0  0  0  0  0  0  0  0  0  0  0
    5.6473   -8.7216   15.3158 C   0  0  0  0  0  0  0  0  0  0  0  0
   10.7581   -3.1233   19.4720 N   0  0  0  0  0  0  0  0  0  0  0  0
    9.9571   -4.0573   16.8866 C   0  0  0  0  0  0  0  0  0  0  0  0
    7.6213   -6.5618   16.0087 C   0  0  0  0  0  0  0  0  0  0  0  0
   10.8583   -2.6527   20.7222 C   0  0  0  0  0  0  0  0  0  0  0  0
   10.6412   -3.5089   21.7936 C   0  0  0  0  0  0  0  0  0  0  0  0
   10.4972   -3.8968   24.1589 C   0  0  0  0  0  0  0  0  0  0  0  0
    5.9260   -8.2736   16.5517 C   0  0  0  0  0  0  0  0  0  0  0  0
    3.8816   -9.1166   17.2493 C   0  0  0  0  0  0  0  0  0  0  0  0
   10.1297   -1.6575   23.2324 C   0  0  0  0  0  0  0  0  0  0  0  0
    9.4684   -1.6929   26.7263 F   0  0  0  0  0  0  0  0  0  0  0  0
    7.7963   -7.7906   17.9837 C   0  0  0  0  0  0  0  0  0  0  0  0
   10.5884   -3.0725   16.7902 O   0  0  0  0  0  0  0  0  0  0  0  0
   10.4323   -5.3494   20.3516 C   0  0  0  0  0  0  0  0  0  0  0  0
    7.1156   -7.5454   16.8218 C   0  0  0  0  0  0  0  0  0  0  0  0
   10.3885   -4.4388   19.2773 C   0  0  0  0  0  0  0  0  0  0  0  0
    4.5160   -9.3822   15.0841 C   0  0  0  0  0  0  0  0  0  0  0  0
  1  3  4  0
  1 24  4  0
  2  6  4  0
  2 15  4  0
  3  5  4  0
  3  6  4  0
  4 21  4  0
  4 29  4  0
  5 15  4  0
  5 28  1  0
  6 16  4  0
  7 18  4  0
  7 26  4  0
  8 18  1  0
  8 19  4  0
  8 22  4  0
  9 12  4  0
  9 19  4  0
 10 12  4  0
 10 22  4  0
 11 20  4  0
 11 21  4  0
 12 23  1  0
 13 20  4  0
 13 29  4  0
 14 17  4  0
 14 28  4  0
 15 25  2  0
 16 27  4  0
 17 18  4  0
 20 27  1  0
 24 27  4  0
 26 28  4  0
M  END
$$$$

 Created by Python create_sdf_string function

 29 33  0  0  0  0  0  0  0  0999 V2000
    8.8270   -7.0288   18.4251 C   0  0  0  0  0  0  0  0  0  0  0  0
    9.1576   -4.6236   15.8860 O   0  0  0  0  0  0  0  0  0  0  0  0
    9.1509   -5.9108   17.7177 C   0  0  0  0  0  0  0  0  0  0  0  0
    3.6373   -9.5349   16.0582 N   0  0  0  0  0  0  0  0  0  0  0  0
    9.9275   -4.8001   18.0438 N   0  0  0  0  0  0  0  0  0  0  0  0
    8.5908   -5.7425   16.4412 C   0  0  0  0  0  0  0  0  0  0  0  0
   10.5993   -4.8981   21.6068 C   0  0  0  0  0  0  0  0  0  0  0  0
   10.4258   -3.0106   23.0998 C   0  0  0  0  0  0  0  0  0  0  0  0
   10.2148   -3.4364   25.4200 C   0  0  0  0  0  0  0  0  0  0  0  0
    9.7853   -1.1840   24.4927 C   0  0  0  0  0  0  0  0  0  0  0  0
    5.0276   -8.5227   17.5352 C   0  0  0  0  0  0  0  0  0  0  0  0
    9.8187   -2.0895   25.5800 C   0  0  0  0  0  0  0  0  0  0  0  0
    5.6473   -8.7216   15.3158 C   0  0  0  0  0  0  0  0  0  0  0  0
   10.7581   -3.1233   19.4720 N   0  0  0  0  0  0  0  0  0  0  0  0
    9.9571   -4.0573   16.8866 C   0  0  0  0  0  0  0  0  0  0  0  0
    7.6213   -6.5618   16.0087 C   0  0  0  0  0  0  0  0  0  0  0  0
   10.8583   -2.6527   20.7222 C   0  0  0  0  0  0  0  0  0  0  0  0
   10.6412   -3.5089   21.7936 C   0  0  0  0  0  0  0  0  0  0  0  0
   10.4972   -3.8968   24.1589 C   0  0  0  0  0  0  0  0  0  0  0  0
    5.9260   -8.2736   16.5517 C   0  0  0  0  0  0  0  0  0  0  0  0
    3.8816   -9.1166   17.2493 C   0  0  0  0  0  0  0  0  0  0  0  0
   10.1297   -1.6575   23.2324 C   0  0  0  0  0  0  0  0  0  0  0  0
    9.4684   -1.6929   26.7263 F   0  0  0  0  0  0  0  0  0  0  0  0
    7.7963   -7.7906   17.9837 C   0  0  0  0  0  0  0  0  0  0  0  0
   10.5884   -3.0725   16.7902 O   0  0  0  0  0  0  0  0  0  0  0  0
   10.4323   -5.3494   20.3516 C   0  0  0  0  0  0  0  0  0  0  0  0
    7.1156   -7.5454   16.8218 C   0  0  0  0  0  0  0  0  0  0  0  0
   10.3885   -4.4388   19.2773 C   0  0  0  0  0  0  0  0  0  0  0  0
    4.5160   -9.3822   15.0841 C   0  0  0  0  0  0  0  0  0  0  0  0
  1  3  4  0
  1 24  4  0
  2  6  4  0
  2 15  4  0
  3  5  4  0
  3  6  4  0
  4 21  4  0
  4 29  4  0
  5 15  4  0
  5 28  1  0
  6 16  4  0
  7 18  4  0
  7 26  4  0
  8 18  1  0
  8 19  4  0
  8 22  4  0
  9 12  4  0
  9 19  4  0
 10 12  4  0
 10 22  4  0
 11 20  4  0
 11 21  4  0
 12 23  1  0
 13 20  4  0
 13 29  4  0
 14 17  4  0
 14 28  4  0
 15 25  2  0
 16 27  4  0
 17 18  4  0
 20 27  1  0
 24 27  4  0
 26 28  4  0
M  END
$$$$

 Created by Python create_sdf_string function

 29 33  0  0  0  0  0  0  0  0999 V2000
    8.8270   -7.0288   18.4251 C   0  0  0  0  0  0  0  0  0  0  0  0
    9.1576   -4.6236   15.8860 O   0  0  0  0  0  0  0  0  0  0  0  0
    9.1509   -5.9108   17.7177 C   0  0  0  0  0  0  0  0  0  0  0  0
    3.6373   -9.5349   16.0582 N   0  0  0  0  0  0  0  0  0  0  0  0
    9.9275   -4.8001   18.0438 N   0  0  0  0  0  0  0  0  0  0  0  0
    8.5908   -5.7425   16.4412 C   0  0  0  0  0  0  0  0  0  0  0  0
   10.5993   -4.8981   21.6068 C   0  0  0  0  0  0  0  0  0  0  0  0
   10.4258   -3.0106   23.0998 C   0  0  0  0  0  0  0  0  0  0  0  0
   10.2148   -3.4364   25.4200 C   0  0  0  0  0  0  0  0  0  0  0  0
    9.7853   -1.1840   24.4927 C   0  0  0  0  0  0  0  0  0  0  0  0
    5.0276   -8.5227   17.5352 C   0  0  0  0  0  0  0  0  0  0  0  0
    9.8187   -2.0895   25.5800 C   0  0  0  0  0  0  0  0  0  0  0  0
    5.6473   -8.7216   15.3158 C   0  0  0  0  0  0  0  0  0  0  0  0
   10.7581   -3.1233   19.4720 N   0  0  0  0  0  0  0  0  0  0  0  0
    9.9571   -4.0573   16.8866 C   0  0  0  0  0  0  0  0  0  0  0  0
    7.6213   -6.5618   16.0087 C   0  0  0  0  0  0  0  0  0  0  0  0
   10.8583   -2.6527   20.7222 C   0  0  0  0  0  0  0  0  0  0  0  0
   10.6412   -3.5089   21.7936 C   0  0  0  0  0  0  0  0  0  0  0  0
   10.4972   -3.8968   24.1589 C   0  0  0  0  0  0  0  0  0  0  0  0
    5.9260   -8.2736   16.5517 C   0  0  0  0  0  0  0  0  0  0  0  0
    3.8816   -9.1166   17.2493 C   0  0  0  0  0  0  0  0  0  0  0  0
   10.1297   -1.6575   23.2324 C   0  0  0  0  0  0  0  0  0  0  0  0
    9.4684   -1.6929   26.7263 F   0  0  0  0  0  0  0  0  0  0  0  0
    7.7963   -7.7906   17.9837 C   0  0  0  0  0  0  0  0  0  0  0  0
   10.5884   -3.0725   16.7902 O   0  0  0  0  0  0  0  0  0  0  0  0
   10.4323   -5.3494   20.3516 C   0  0  0  0  0  0  0  0  0  0  0  0
    7.1156   -7.5454   16.8218 C   0  0  0  0  0  0  0  0  0  0  0  0
   10.3885   -4.4388   19.2773 C   0  0  0  0  0  0  0  0  0  0  0  0
    4.5160   -9.3822   15.0841 C   0  0  0  0  0  0  0  0  0  0  0  0
  1  3  4  0
  1 24  4  0
  2  6  4  0
  2 15  4  0
  3  5  4  0
  3  6  4  0
  4 21  4  0
  4 29  4  0
  5 15  4  0
  5 28  1  0
  6 16  4  0
  7 18  4  0
  7 26  4  0
  8 18  1  0
  8 19  4  0
  8 22  4  0
  9 12  4  0
  9 19  4  0
 10 12  4  0
 10 22  4  0
 11 20  4  0
 11 21  4  0
 12 23  1  0
 13 20  4  0
 13 29  4  0
 14 17  4  0
 14 28  4  0
 15 25  2  0
 16 27  4  0
 17 18  4  0
 20 27  1  0
 24 27  4  0
 26 28  4  0
M  END
$$$$

 Created by Python create_sdf_string function

 29 33  0  0  0  0  0  0  0  0999 V2000
    8.8270   -7.0288   18.4251 C   0  0  0  0  0  0  0  0  0  0  0  0
    9.1576   -4.6236   15.8860 O   0  0  0  0  0  0  0  0  0  0  0  0
    9.1509   -5.9108   17.7177 C   0  0  0  0  0  0  0  0  0  0  0  0
    3.6373   -9.5349   16.0582 N   0  0  0  0  0  0  0  0  0  0  0  0
    9.9275   -4.8001   18.0438 N   0  0  0  0  0  0  0  0  0  0  0  0
    8.5908   -5.7425   16.4412 C   0  0  0  0  0  0  0  0  0  0  0  0
   10.5993   -4.8981   21.6068 C   0  0  0  0  0  0  0  0  0  0  0  0
   10.4258   -3.0106   23.0998 C   0  0  0  0  0  0  0  0  0  0  0  0
   10.2148   -3.4364   25.4200 C   0  0  0  0  0  0  0  0  0  0  0  0
    9.7853   -1.1840   24.4927 C   0  0  0  0  0  0  0  0  0  0  0  0
    5.0276   -8.5227   17.5352 C   0  0  0  0  0  0  0  0  0  0  0  0
    9.8187   -2.0895   25.5800 C   0  0  0  0  0  0  0  0  0  0  0  0
    5.6473   -8.7216   15.3158 C   0  0  0  0  0  0  0  0  0  0  0  0
   10.7581   -3.1233   19.4720 N   0  0  0  0  0  0  0  0  0  0  0  0
    9.9571   -4.0573   16.8866 C   0  0  0  0  0  0  0  0  0  0  0  0
    7.6213   -6.5618   16.0087 C   0  0  0  0  0  0  0  0  0  0  0  0
   10.8583   -2.6527   20.7222 C   0  0  0  0  0  0  0  0  0  0  0  0
   10.6412   -3.5089   21.7936 C   0  0  0  0  0  0  0  0  0  0  0  0
   10.4972   -3.8968   24.1589 C   0  0  0  0  0  0  0  0  0  0  0  0
    5.9260   -8.2736   16.5517 C   0  0  0  0  0  0  0  0  0  0  0  0
    3.8816   -9.1166   17.2493 C   0  0  0  0  0  0  0  0  0  0  0  0
   10.1297   -1.6575   23.2324 C   0  0  0  0  0  0  0  0  0  0  0  0
    9.4684   -1.6929   26.7263 F   0  0  0  0  0  0  0  0  0  0  0  0
    7.7963   -7.7906   17.9837 C   0  0  0  0  0  0  0  0  0  0  0  0
   10.5884   -3.0725   16.7902 O   0  0  0  0  0  0  0  0  0  0  0  0
   10.4323   -5.3494   20.3516 C   0  0  0  0  0  0  0  0  0  0  0  0
    7.1156   -7.5454   16.8218 C   0  0  0  0  0  0  0  0  0  0  0  0
   10.3885   -4.4388   19.2773 C   0  0  0  0  0  0  0  0  0  0  0  0
    4.5160   -9.3822   15.0841 C   0  0  0  0  0  0  0  0  0  0  0  0
  1  3  4  0
  1 24  4  0
  2  6  4  0
  2 15  4  0
  3  5  4  0
  3  6  4  0
  4 21  4  0
  4 29  4  0
  5 15  4  0
  5 28  1  0
  6 16  4  0
  7 18  4  0
  7 26  4  0
  8 18  1  0
  8 19  4  0
  8 22  4  0
  9 12  4  0
  9 19  4  0
 10 12  4  0
 10 22  4  0
 11 20  4  0
 11 21  4  0
 12 23  1  0
 13 20  4  0
 13 29  4  0
 14 17  4  0
 14 28  4  0
 15 25  2  0
 16 27  4  0
 17 18  4  0
 20 27  1  0
 24 27  4  0
 26 28  4  0
M  END
